MODEL 1
REMARK VINA RESULT:    -3.375      0.000      0.000
REMARK INTER + INTRA:          -5.664
REMARK INTER:                  -5.151
REMARK INTRA:                  -0.513
REMARK UNBOUND:                -0.513
REMARK SMILES O=C([O-])CCCCCCCCC(=O)[O-]
REMARK SMILES IDX 7 1 6 2 5 3 4 4 2 5 1 6 3 7 8 8 9 9 10 10 11 11 12 12 13 13
REMARK SMILES IDX 14 14
REMARK H PARENT
REMARK Flexibility Score: inf
ROOT
ATOM      1  C   UNL     1      -7.158  21.341  14.824  1.00  0.00     0.000 C 
ENDROOT
BRANCH   1   2
ATOM      2  C   UNL     1      -5.654  21.055  14.742  1.00  0.00     0.000 C 
BRANCH   2   3
ATOM      3  C   UNL     1      -5.164  20.319  15.999  1.00  0.00     0.006 C 
BRANCH   3   4
ATOM      4  C   UNL     1      -3.701  19.876  15.878  1.00  0.00     0.053 C 
BRANCH   4   5
ATOM      5  C   UNL     1      -2.994  19.923  17.198  1.00  0.00     0.041 C 
ATOM      6  O   UNL     1      -3.654  19.939  18.271  1.00  0.00    -0.550 OA
ATOM      7  O   UNL     1      -1.606  19.986  17.244  1.00  0.00    -0.550 OA
ENDBRANCH   4   5
ENDBRANCH   3   4
ENDBRANCH   2   3
ENDBRANCH   1   2
BRANCH   1   8
ATOM      8  C   UNL     1      -7.884  20.244  15.615  1.00  0.00     0.000 C 
BRANCH   8   9
ATOM      9  C   UNL     1      -8.789  20.852  16.696  1.00  0.00     0.000 C 
BRANCH   9  10
ATOM     10  C   UNL     1      -8.002  21.555  17.817  1.00  0.00     0.006 C 
BRANCH  10  11
ATOM     11  C   UNL     1      -8.672  22.837  18.342  1.00  0.00     0.053 C 
BRANCH  11  12
ATOM     12  C   UNL     1      -8.554  22.985  19.829  1.00  0.00     0.041 C 
ATOM     13  O   UNL     1      -8.000  24.001  20.324  1.00  0.00    -0.550 OA
ATOM     14  O   UNL     1      -9.028  21.984  20.667  1.00  0.00    -0.550 OA
ENDBRANCH  11  12
ENDBRANCH  10  11
ENDBRANCH   9  10
ENDBRANCH   8   9
ENDBRANCH   1   8
TORSDOF 9
ENDMDL
MODEL 2
REMARK VINA RESULT:    -3.155      2.423      6.080
REMARK INTER + INTRA:          -5.327
REMARK INTER:                  -4.893
REMARK INTRA:                  -0.434
REMARK UNBOUND:                -0.513
REMARK SMILES O=C([O-])CCCCCCCCC(=O)[O-]
REMARK SMILES IDX 7 1 6 2 5 3 4 4 2 5 1 6 3 7 8 8 9 9 10 10 11 11 12 12 13 13
REMARK SMILES IDX 14 14
REMARK H PARENT
REMARK Flexibility Score: inf
ROOT
ATOM      1  C   UNL     1      -8.805  23.250  18.825  1.00  0.00     0.000 C 
ENDROOT
BRANCH   1   2
ATOM      2  C   UNL     1      -8.199  23.461  20.217  1.00  0.00     0.000 C 
BRANCH   2   3
ATOM      3  C   UNL     1      -8.925  22.607  21.268  1.00  0.00     0.006 C 
BRANCH   3   4
ATOM      4  C   UNL     1      -8.035  21.486  21.820  1.00  0.00     0.053 C 
BRANCH   4   5
ATOM      5  C   UNL     1      -7.843  21.606  23.301  1.00  0.00     0.041 C 
ATOM      6  O   UNL     1      -7.407  20.628  23.965  1.00  0.00    -0.550 OA
ATOM      7  O   UNL     1      -8.178  22.785  23.954  1.00  0.00    -0.550 OA
ENDBRANCH   4   5
ENDBRANCH   3   4
ENDBRANCH   2   3
ENDBRANCH   1   2
BRANCH   1   8
ATOM      8  C   UNL     1      -8.104  22.102  18.087  1.00  0.00     0.000 C 
BRANCH   8   9
ATOM      9  C   UNL     1      -9.125  21.191  17.390  1.00  0.00     0.000 C 
BRANCH   9  10
ATOM     10  C   UNL     1      -8.538  20.443  16.179  1.00  0.00     0.006 C 
BRANCH  10  11
ATOM     11  C   UNL     1      -7.617  21.306  15.298  1.00  0.00     0.053 C 
BRANCH  11  12
ATOM     12  C   UNL     1      -6.195  20.832  15.308  1.00  0.00     0.041 C 
ATOM     13  O   UNL     1      -5.501  20.882  14.258  1.00  0.00    -0.550 OA
ATOM     14  O   UNL     1      -5.646  20.304  16.469  1.00  0.00    -0.550 OA
ENDBRANCH  11  12
ENDBRANCH  10  11
ENDBRANCH   9  10
ENDBRANCH   8   9
ENDBRANCH   1   8
TORSDOF 9
ENDMDL
MODEL 3
REMARK VINA RESULT:    -2.995      0.838      5.648
REMARK INTER + INTRA:          -5.084
REMARK INTER:                  -4.618
REMARK INTRA:                  -0.467
REMARK UNBOUND:                -0.513
REMARK SMILES O=C([O-])CCCCCCCCC(=O)[O-]
REMARK SMILES IDX 7 1 6 2 5 3 4 4 2 5 1 6 3 7 8 8 9 9 10 10 11 11 12 12 13 13
REMARK SMILES IDX 14 14
REMARK H PARENT
REMARK Flexibility Score: inf
ROOT
ATOM      1  C   UNL     1      -7.975  20.694  15.499  1.00  0.00     0.000 C 
ENDROOT
BRANCH   1   2
ATOM      2  C   UNL     1      -8.773  21.539  16.498  1.00  0.00     0.000 C 
BRANCH   2   3
ATOM      3  C   UNL     1      -8.046  21.627  17.849  1.00  0.00     0.006 C 
BRANCH   3   4
ATOM      4  C   UNL     1      -8.479  22.853  18.662  1.00  0.00     0.053 C 
BRANCH   4   5
ATOM      5  C   UNL     1      -7.946  22.810  20.061  1.00  0.00     0.041 C 
ATOM      6  O   UNL     1      -7.780  21.705  20.643  1.00  0.00    -0.550 OA
ATOM      7  O   UNL     1      -7.666  23.992  20.737  1.00  0.00    -0.550 OA
ENDBRANCH   4   5
ENDBRANCH   3   4
ENDBRANCH   2   3
ENDBRANCH   1   2
BRANCH   1   8
ATOM      8  C   UNL     1      -6.518  20.533  15.954  1.00  0.00     0.000 C 
BRANCH   8   9
ATOM      9  C   UNL     1      -5.549  21.102  14.908  1.00  0.00     0.000 C 
BRANCH   9  10
ATOM     10  C   UNL     1      -4.080  20.731  15.182  1.00  0.00     0.006 C 
BRANCH  10  11
ATOM     11  C   UNL     1      -3.872  19.906  16.464  1.00  0.00     0.053 C 
BRANCH  11  12
ATOM     12  C   UNL     1      -2.546  20.167  17.112  1.00  0.00     0.041 C 
ATOM     13  O   UNL     1      -1.530  20.402  16.407  1.00  0.00    -0.550 OA
ATOM     14  O   UNL     1      -2.426  20.117  18.495  1.00  0.00    -0.550 OA
ENDBRANCH  11  12
ENDBRANCH  10  11
ENDBRANCH   9  10
ENDBRANCH   8   9
ENDBRANCH   1   8
TORSDOF 9
ENDMDL
MODEL 4
REMARK VINA RESULT:    -2.954      2.783      4.362
REMARK INTER + INTRA:          -5.021
REMARK INTER:                  -4.620
REMARK INTRA:                  -0.401
REMARK UNBOUND:                -0.513
REMARK SMILES O=C([O-])CCCCCCCCC(=O)[O-]
REMARK SMILES IDX 7 1 6 2 5 3 4 4 2 5 1 6 3 7 8 8 9 9 10 10 11 11 12 12 13 13
REMARK SMILES IDX 14 14
REMARK H PARENT
REMARK Flexibility Score: inf
ROOT
ATOM      1  C   UNL     1      -7.895  21.724  19.037  1.00  0.00     0.000 C 
ENDROOT
BRANCH   1   2
ATOM      2  C   UNL     1      -8.857  21.143  17.995  1.00  0.00     0.000 C 
BRANCH   2   3
ATOM      3  C   UNL     1      -8.251  21.215  16.585  1.00  0.00     0.006 C 
BRANCH   3   4
ATOM      4  C   UNL     1      -6.975  20.374  16.458  1.00  0.00     0.053 C 
BRANCH   4   5
ATOM      5  C   UNL     1      -6.066  20.898  15.389  1.00  0.00     0.041 C 
ATOM      6  O   UNL     1      -6.523  21.629  14.470  1.00  0.00    -0.550 OA
ATOM      7  O   UNL     1      -4.720  20.551  15.386  1.00  0.00    -0.550 OA
ENDBRANCH   4   5
ENDBRANCH   3   4
ENDBRANCH   2   3
ENDBRANCH   1   2
BRANCH   1   8
ATOM      8  C   UNL     1      -8.455  23.019  19.642  1.00  0.00     0.000 C 
BRANCH   8   9
ATOM      9  C   UNL     1      -7.886  23.261  21.047  1.00  0.00     0.000 C 
BRANCH   9  10
ATOM     10  C   UNL     1      -8.726  22.607  22.159  1.00  0.00     0.006 C 
BRANCH  10  11
ATOM     11  C   UNL     1      -7.905  22.163  23.383  1.00  0.00     0.053 C 
BRANCH  11  12
ATOM     12  C   UNL     1      -7.391  20.760  23.259  1.00  0.00     0.041 C 
ATOM     13  O   UNL     1      -6.504  20.337  24.046  1.00  0.00    -0.550 OA
ATOM     14  O   UNL     1      -7.869  19.931  22.252  1.00  0.00    -0.550 OA
ENDBRANCH  11  12
ENDBRANCH  10  11
ENDBRANCH   9  10
ENDBRANCH   8   9
ENDBRANCH   1   8
TORSDOF 9
ENDMDL
MODEL 5
REMARK VINA RESULT:    -2.534     11.468     14.751
REMARK INTER + INTRA:          -4.380
REMARK INTER:                  -4.060
REMARK INTRA:                  -0.320
REMARK UNBOUND:                -0.513
REMARK SMILES O=C([O-])CCCCCCCCC(=O)[O-]
REMARK SMILES IDX 7 1 6 2 5 3 4 4 2 5 1 6 3 7 8 8 9 9 10 10 11 11 12 12 13 13
REMARK SMILES IDX 14 14
REMARK H PARENT
REMARK Flexibility Score: inf
ROOT
ATOM      1  C   UNL     1       8.725  21.331  14.853  1.00  0.00     0.000 C 
ENDROOT
BRANCH   1   2
ATOM      2  C   UNL     1      10.233  21.363  15.126  1.00  0.00     0.000 C 
BRANCH   2   3
ATOM      3  C   UNL     1      10.909  22.505  14.351  1.00  0.00     0.006 C 
BRANCH   3   4
ATOM      4  C   UNL     1      10.246  22.753  12.990  1.00  0.00     0.053 C 
BRANCH   4   5
ATOM      5  C   UNL     1      10.774  23.991  12.331  1.00  0.00     0.041 C 
ATOM      6  O   UNL     1      11.124  24.980  13.028  1.00  0.00    -0.550 OA
ATOM      7  O   UNL     1      10.847  24.066  10.945  1.00  0.00    -0.550 OA
ENDBRANCH   4   5
ENDBRANCH   3   4
ENDBRANCH   2   3
ENDBRANCH   1   2
BRANCH   1   8
ATOM      8  C   UNL     1       8.135  19.954  15.184  1.00  0.00     0.000 C 
BRANCH   8   9
ATOM      9  C   UNL     1       6.982  20.077  16.191  1.00  0.00     0.000 C 
BRANCH   9  10
ATOM     10  C   UNL     1       5.782  20.870  15.642  1.00  0.00     0.006 C 
BRANCH  10  11
ATOM     11  C   UNL     1       4.424  20.180  15.861  1.00  0.00     0.053 C 
BRANCH  11  12
ATOM     12  C   UNL     1       3.475  21.013  16.669  1.00  0.00     0.041 C 
ATOM     13  O   UNL     1       2.241  20.992  16.420  1.00  0.00    -0.550 OA
ATOM     14  O   UNL     1       3.959  21.837  17.678  1.00  0.00    -0.550 OA
ENDBRANCH  11  12
ENDBRANCH  10  11
ENDBRANCH   9  10
ENDBRANCH   8   9
ENDBRANCH   1   8
TORSDOF 9
ENDMDL
MODEL 6
REMARK VINA RESULT:    -2.504     12.602     15.972
REMARK INTER + INTRA:          -4.335
REMARK INTER:                  -3.826
REMARK INTRA:                  -0.509
REMARK UNBOUND:                -0.513
REMARK SMILES O=C([O-])CCCCCCCCC(=O)[O-]
REMARK SMILES IDX 7 1 6 2 5 3 4 4 2 5 1 6 3 7 8 8 9 9 10 10 11 11 12 12 13 13
REMARK SMILES IDX 14 14
REMARK H PARENT
REMARK Flexibility Score: inf
ROOT
ATOM      1  C   UNL     1       9.006  21.272  12.841  1.00  0.00     0.000 C 
ENDROOT
BRANCH   1   2
ATOM      2  C   UNL     1       9.868  21.201  11.575  1.00  0.00     0.000 C 
BRANCH   2   3
ATOM      3  C   UNL     1      11.125  22.074  11.716  1.00  0.00     0.006 C 
BRANCH   3   4
ATOM      4  C   UNL     1      10.854  23.358  12.509  1.00  0.00     0.053 C 
BRANCH   4   5
ATOM      5  C   UNL     1      10.839  24.566  11.623  1.00  0.00     0.041 C 
ATOM      6  O   UNL     1      10.753  25.719  12.123  1.00  0.00    -0.550 OA
ATOM      7  O   UNL     1      10.884  24.419  10.242  1.00  0.00    -0.550 OA
ENDBRANCH   4   5
ENDBRANCH   3   4
ENDBRANCH   2   3
ENDBRANCH   1   2
BRANCH   1   8
ATOM      8  C   UNL     1       9.084  19.960  13.634  1.00  0.00     0.000 C 
BRANCH   8   9
ATOM      9  C   UNL     1       9.368  20.230  15.119  1.00  0.00     0.000 C 
BRANCH   9  10
ATOM     10  C   UNL     1       8.205  20.940  15.836  1.00  0.00     0.006 C 
BRANCH  10  11
ATOM     11  C   UNL     1       6.978  20.043  16.078  1.00  0.00     0.053 C 
BRANCH  11  12
ATOM     12  C   UNL     1       5.708  20.824  16.222  1.00  0.00     0.041 C 
ATOM     13  O   UNL     1       5.687  21.884  16.901  1.00  0.00    -0.550 OA
ATOM     14  O   UNL     1       4.538  20.363  15.632  1.00  0.00    -0.550 OA
ENDBRANCH  11  12
ENDBRANCH  10  11
ENDBRANCH   9  10
ENDBRANCH   8   9
ENDBRANCH   1   8
TORSDOF 9
ENDMDL
MODEL 7
REMARK VINA RESULT:    -2.343     11.658     15.794
REMARK INTER + INTRA:          -4.088
REMARK INTER:                  -3.689
REMARK INTRA:                  -0.399
REMARK UNBOUND:                -0.513
REMARK SMILES O=C([O-])CCCCCCCCC(=O)[O-]
REMARK SMILES IDX 7 1 6 2 5 3 4 4 2 5 1 6 3 7 8 8 9 9 10 10 11 11 12 12 13 13
REMARK SMILES IDX 14 14
REMARK H PARENT
REMARK Flexibility Score: inf
ROOT
ATOM      1  C   UNL     1       7.765  20.998  14.482  1.00  0.00     0.000 C 
ENDROOT
BRANCH   1   2
ATOM      2  C   UNL     1       6.750  20.008  13.898  1.00  0.00     0.000 C 
BRANCH   2   3
ATOM      3  C   UNL     1       5.512  19.892  14.802  1.00  0.00     0.006 C 
BRANCH   3   4
ATOM      4  C   UNL     1       5.690  20.641  16.128  1.00  0.00     0.053 C 
BRANCH   4   5
ATOM      5  C   UNL     1       4.377  21.080  16.700  1.00  0.00     0.041 C 
ATOM      6  O   UNL     1       3.306  20.534  16.323  1.00  0.00    -0.550 OA
ATOM      7  O   UNL     1       4.331  22.117  17.624  1.00  0.00    -0.550 OA
ENDBRANCH   4   5
ENDBRANCH   3   4
ENDBRANCH   2   3
ENDBRANCH   1   2
BRANCH   1   8
ATOM      8  C   UNL     1       9.122  20.321  14.716  1.00  0.00     0.000 C 
BRANCH   8   9
ATOM      9  C   UNL     1      10.277  21.261  14.344  1.00  0.00     0.000 C 
BRANCH   9  10
ATOM     10  C   UNL     1       9.997  22.090  13.077  1.00  0.00     0.006 C 
BRANCH  10  11
ATOM     11  C   UNL     1      10.693  23.463  13.061  1.00  0.00     0.053 C 
BRANCH  11  12
ATOM     12  C   UNL     1      10.647  24.120  11.715  1.00  0.00     0.041 C 
ATOM     13  O   UNL     1      10.314  25.329  11.610  1.00  0.00    -0.550 OA
ATOM     14  O   UNL     1      10.943  23.387  10.573  1.00  0.00    -0.550 OA
ENDBRANCH  11  12
ENDBRANCH  10  11
ENDBRANCH   9  10
ENDBRANCH   8   9
ENDBRANCH   1   8
TORSDOF 9
ENDMDL
MODEL 8
REMARK VINA RESULT:    -1.010      2.040      6.556
REMARK INTER + INTRA:          -2.054
REMARK INTER:                  -1.700
REMARK INTRA:                  -0.354
REMARK UNBOUND:                -0.513
REMARK SMILES O=C([O-])CCCCCCCCC(=O)[O-]
REMARK SMILES IDX 7 1 6 2 5 3 4 4 2 5 1 6 3 7 8 8 9 9 10 10 11 11 12 12 13 13
REMARK SMILES IDX 14 14
REMARK H PARENT
REMARK Flexibility Score: inf
ROOT
ATOM      1  C   UNL     1      -5.226  20.994  14.736  1.00  0.00     0.000 C 
ENDROOT
BRANCH   1   2
ATOM      2  C   UNL     1      -6.754  20.927  14.626  1.00  0.00     0.000 C 
BRANCH   2   3
ATOM      3  C   UNL     1      -7.349  20.065  15.750  1.00  0.00     0.006 C 
BRANCH   3   4
ATOM      4  C   UNL     1      -8.713  20.585  16.220  1.00  0.00     0.053 C 
BRANCH   4   5
ATOM      5  C   UNL     1      -8.589  21.453  17.436  1.00  0.00     0.041 C 
ATOM      6  O   UNL     1      -8.234  22.656  17.323  1.00  0.00    -0.550 OA
ATOM      7  O   UNL     1      -8.832  20.923  18.697  1.00  0.00    -0.550 OA
ENDBRANCH   4   5
ENDBRANCH   3   4
ENDBRANCH   2   3
ENDBRANCH   1   2
BRANCH   1   8
ATOM      8  C   UNL     1      -4.757  20.608  16.145  1.00  0.00     0.000 C 
BRANCH   8   9
ATOM      9  C   UNL     1      -3.395  19.900  16.097  1.00  0.00     0.000 C 
BRANCH   9  10
ATOM     10  C   UNL     1      -2.392  20.453  17.126  1.00  0.00     0.006 C 
BRANCH  10  11
ATOM     11  C   UNL     1      -0.972  19.875  16.987  1.00  0.00     0.053 C 
BRANCH  11  12
ATOM     12  C   UNL     1      -0.060  20.762  16.196  1.00  0.00     0.041 C 
ATOM     13  O   UNL     1      -0.508  21.437  15.232  1.00  0.00    -0.550 OA
ATOM     14  O   UNL     1       1.294  20.818  16.503  1.00  0.00    -0.550 OA
ENDBRANCH  11  12
ENDBRANCH  10  11
ENDBRANCH   9  10
ENDBRANCH   8   9
ENDBRANCH   1   8
TORSDOF 9
ENDMDL
MODEL 9
REMARK VINA RESULT:    -0.996      5.092      9.640
REMARK INTER + INTRA:          -2.032
REMARK INTER:                  -1.804
REMARK INTRA:                  -0.228
REMARK UNBOUND:                -0.513
REMARK SMILES O=C([O-])CCCCCCCCC(=O)[O-]
REMARK SMILES IDX 7 1 6 2 5 3 4 4 2 5 1 6 3 7 8 8 9 9 10 10 11 11 12 12 13 13
REMARK SMILES IDX 14 14
REMARK H PARENT
REMARK Flexibility Score: inf
ROOT
ATOM      1  C   UNL     1      -0.789  19.875  16.549  1.00  0.00     0.000 C 
ENDROOT
BRANCH   1   2
ATOM      2  C   UNL     1      -1.706  20.291  17.705  1.00  0.00     0.000 C 
BRANCH   2   3
ATOM      3  C   UNL     1      -3.183  20.083  17.338  1.00  0.00     0.006 C 
BRANCH   3   4
ATOM      4  C   UNL     1      -3.501  20.562  15.916  1.00  0.00     0.053 C 
BRANCH   4   5
ATOM      5  C   UNL     1      -4.974  20.562  15.644  1.00  0.00     0.041 C 
ATOM      6  O   UNL     1      -5.410  20.888  14.508  1.00  0.00    -0.550 OA
ATOM      7  O   UNL     1      -5.870  20.237  16.656  1.00  0.00    -0.550 OA
ENDBRANCH   4   5
ENDBRANCH   3   4
ENDBRANCH   2   3
ENDBRANCH   1   2
BRANCH   1   8
ATOM      8  C   UNL     1       0.473  20.747  16.506  1.00  0.00     0.000 C 
BRANCH   8   9
ATOM      9  C   UNL     1       1.732  19.885  16.334  1.00  0.00     0.000 C 
BRANCH   9  10
ATOM     10  C   UNL     1       3.037  20.674  16.548  1.00  0.00     0.006 C 
BRANCH  10  11
ATOM     11  C   UNL     1       4.243  20.107  15.779  1.00  0.00     0.053 C 
BRANCH  11  12
ATOM     12  C   UNL     1       5.509  20.862  16.049  1.00  0.00     0.041 C 
ATOM     13  O   UNL     1       5.540  21.754  16.937  1.00  0.00    -0.550 OA
ATOM     14  O   UNL     1       6.648  20.602  15.297  1.00  0.00    -0.550 OA
ENDBRANCH  11  12
ENDBRANCH  10  11
ENDBRANCH   9  10
ENDBRANCH   8   9
ENDBRANCH   1   8
TORSDOF 9
ENDMDL
