MODEL 1
REMARK VINA RESULT:    -5.422      0.000      0.000
REMARK INTER + INTRA:          -7.075
REMARK INTER:                  -6.689
REMARK INTRA:                  -0.386
REMARK UNBOUND:                -0.386
REMARK SMILES C=CC[C@@H](C)C(=O)CC
REMARK SMILES IDX 4 1 5 2 6 3 7 4 8 5 9 6 3 7 2 8 1 9
REMARK H PARENT
REMARK Flexibility Score: inf
ROOT
ATOM      1  C   UNL     1     108.076  50.188  64.001  1.00  0.00     0.057 C 
ATOM      2  C   UNL     1     109.585  50.379  63.810  1.00  0.00     0.016 C 
ENDROOT
BRANCH   1   3
ATOM      3  C   UNL     1     107.373  50.246  62.660  1.00  0.00     0.135 C 
ATOM      4  O   UNL     1     106.181  50.518  62.611  1.00  0.00    -0.299 OA
BRANCH   3   5
ATOM      5  C   UNL     1     108.120  49.987  61.378  1.00  0.00     0.072 C 
ATOM      6  C   UNL     1     108.069  48.508  61.011  1.00  0.00     0.012 C 
ENDBRANCH   3   5
ENDBRANCH   1   3
BRANCH   1   7
ATOM      7  C   UNL     1     107.786  48.857  64.726  1.00  0.00     0.038 C 
BRANCH   7   8
ATOM      8  C   UNL     1     109.048  48.101  65.049  1.00  0.00    -0.034 C 
ATOM      9  C   UNL     1     109.153  46.784  64.845  1.00  0.00     0.004 C 
ENDBRANCH   7   8
ENDBRANCH   1   7
TORSDOF 4
ENDMDL
MODEL 2
REMARK VINA RESULT:    -5.347      1.679      1.921
REMARK INTER + INTRA:          -6.983
REMARK INTER:                  -6.634
REMARK INTRA:                  -0.349
REMARK UNBOUND:                -0.386
REMARK SMILES C=CC[C@@H](C)C(=O)CC
REMARK SMILES IDX 4 1 5 2 6 3 7 4 8 5 9 6 3 7 2 8 1 9
REMARK H PARENT
REMARK Flexibility Score: inf
ROOT
ATOM      1  C   UNL     1     108.239  48.993  63.745  1.00  0.00     0.057 C 
ATOM      2  C   UNL     1     107.458  50.195  64.288  1.00  0.00     0.016 C 
ENDROOT
BRANCH   1   3
ATOM      3  C   UNL     1     109.089  49.417  62.565  1.00  0.00     0.135 C 
ATOM      4  O   UNL     1     110.267  49.698  62.736  1.00  0.00    -0.299 OA
BRANCH   3   5
ATOM      5  C   UNL     1     108.512  49.487  61.176  1.00  0.00     0.072 C 
ATOM      6  C   UNL     1     108.260  48.087  60.625  1.00  0.00     0.012 C 
ENDBRANCH   3   5
ENDBRANCH   1   3
BRANCH   1   7
ATOM      7  C   UNL     1     109.103  48.362  64.856  1.00  0.00     0.038 C 
BRANCH   7   8
ATOM      8  C   UNL     1     108.994  46.860  64.875  1.00  0.00    -0.034 C 
ATOM      9  C   UNL     1     109.496  46.105  63.893  1.00  0.00     0.004 C 
ENDBRANCH   7   8
ENDBRANCH   1   7
TORSDOF 4
ENDMDL
MODEL 3
REMARK VINA RESULT:    -5.306      1.057      3.149
REMARK INTER + INTRA:          -6.932
REMARK INTER:                  -6.431
REMARK INTRA:                  -0.501
REMARK UNBOUND:                -0.386
REMARK SMILES C=CC[C@@H](C)C(=O)CC
REMARK SMILES IDX 4 1 5 2 6 3 7 4 8 5 9 6 3 7 2 8 1 9
REMARK H PARENT
REMARK Flexibility Score: inf
ROOT
ATOM      1  C   UNL     1     109.169  49.519  62.886  1.00  0.00     0.057 C 
ATOM      2  C   UNL     1     110.208  50.579  63.270  1.00  0.00     0.016 C 
ENDROOT
BRANCH   1   3
ATOM      3  C   UNL     1     108.100  49.429  63.956  1.00  0.00     0.135 C 
ATOM      4  O   UNL     1     107.355  50.379  64.151  1.00  0.00    -0.299 OA
BRANCH   3   5
ATOM      5  C   UNL     1     107.928  48.180  64.780  1.00  0.00     0.072 C 
ATOM      6  C   UNL     1     109.076  47.207  64.534  1.00  0.00     0.012 C 
ENDBRANCH   3   5
ENDBRANCH   1   3
BRANCH   1   7
ATOM      7  C   UNL     1     108.553  49.839  61.509  1.00  0.00     0.038 C 
BRANCH   7   8
ATOM      8  C   UNL     1     108.101  48.596  60.788  1.00  0.00    -0.034 C 
ATOM      9  C   UNL     1     108.877  47.511  60.698  1.00  0.00     0.004 C 
ENDBRANCH   7   8
ENDBRANCH   1   7
TORSDOF 4
ENDMDL
MODEL 4
REMARK VINA RESULT:    -5.262      2.153      3.296
REMARK INTER + INTRA:          -6.878
REMARK INTER:                  -6.482
REMARK INTRA:                  -0.396
REMARK UNBOUND:                -0.386
REMARK SMILES C=CC[C@@H](C)C(=O)CC
REMARK SMILES IDX 4 1 5 2 6 3 7 4 8 5 9 6 3 7 2 8 1 9
REMARK H PARENT
REMARK Flexibility Score: inf
ROOT
ATOM      1  C   UNL     1     109.135  48.256  64.468  1.00  0.00     0.057 C 
ATOM      2  C   UNL     1     109.431  47.438  65.730  1.00  0.00     0.016 C 
ENDROOT
BRANCH   1   3
ATOM      3  C   UNL     1     109.494  47.454  63.233  1.00  0.00     0.135 C 
ATOM      4  O   UNL     1     109.550  46.234  63.298  1.00  0.00    -0.299 OA
BRANCH   3   5
ATOM      5  C   UNL     1     109.769  48.133  61.917  1.00  0.00     0.072 C 
ATOM      6  C   UNL     1     108.770  47.683  60.857  1.00  0.00     0.012 C 
ENDBRANCH   3   5
ENDBRANCH   1   3
BRANCH   1   7
ATOM      7  C   UNL     1     107.655  48.691  64.439  1.00  0.00     0.038 C 
BRANCH   7   8
ATOM      8  C   UNL     1     107.497  50.140  64.059  1.00  0.00    -0.034 C 
ATOM      9  C   UNL     1     107.063  50.508  62.850  1.00  0.00     0.004 C 
ENDBRANCH   7   8
ENDBRANCH   1   7
TORSDOF 4
ENDMDL
MODEL 5
REMARK VINA RESULT:    -5.173      2.042      3.852
REMARK INTER + INTRA:          -6.769
REMARK INTER:                  -6.345
REMARK INTRA:                  -0.424
REMARK UNBOUND:                -0.386
REMARK SMILES C=CC[C@@H](C)C(=O)CC
REMARK SMILES IDX 4 1 5 2 6 3 7 4 8 5 9 6 3 7 2 8 1 9
REMARK H PARENT
REMARK Flexibility Score: inf
ROOT
ATOM      1  C   UNL     1     108.989  47.213  63.537  1.00  0.00     0.057 C 
ATOM      2  C   UNL     1     109.365  45.893  64.221  1.00  0.00     0.016 C 
ENDROOT
BRANCH   1   3
ATOM      3  C   UNL     1     109.053  48.351  64.535  1.00  0.00     0.135 C 
ATOM      4  O   UNL     1     109.121  48.105  65.731  1.00  0.00    -0.299 OA
BRANCH   3   5
ATOM      5  C   UNL     1     109.051  49.786  64.079  1.00  0.00     0.072 C 
ATOM      6  C   UNL     1     107.624  50.300  63.918  1.00  0.00     0.012 C 
ENDBRANCH   3   5
ENDBRANCH   1   3
BRANCH   1   7
ATOM      7  C   UNL     1     109.912  47.478  62.330  1.00  0.00     0.038 C 
BRANCH   7   8
ATOM      8  C   UNL     1     109.176  47.373  61.020  1.00  0.00    -0.034 C 
ATOM      9  C   UNL     1     108.188  48.215  60.697  1.00  0.00     0.004 C 
ENDBRANCH   7   8
ENDBRANCH   1   7
TORSDOF 4
ENDMDL
MODEL 6
REMARK VINA RESULT:    -5.160      1.409      3.781
REMARK INTER + INTRA:          -6.753
REMARK INTER:                  -6.463
REMARK INTRA:                  -0.290
REMARK UNBOUND:                -0.386
REMARK SMILES C=CC[C@@H](C)C(=O)CC
REMARK SMILES IDX 4 1 5 2 6 3 7 4 8 5 9 6 3 7 2 8 1 9
REMARK H PARENT
REMARK Flexibility Score: inf
ROOT
ATOM      1  C   UNL     1     108.848  48.511  62.737  1.00  0.00     0.057 C 
ATOM      2  C   UNL     1     110.176  49.218  62.443  1.00  0.00     0.016 C 
ENDROOT
BRANCH   1   3
ATOM      3  C   UNL     1     108.446  48.742  64.179  1.00  0.00     0.135 C 
ATOM      4  O   UNL     1     107.591  49.576  64.445  1.00  0.00    -0.299 OA
BRANCH   3   5
ATOM      5  C   UNL     1     109.071  47.950  65.297  1.00  0.00     0.072 C 
ATOM      6  C   UNL     1     109.300  46.504  64.873  1.00  0.00     0.012 C 
ENDBRANCH   3   5
ENDBRANCH   1   3
BRANCH   1   7
ATOM      7  C   UNL     1     107.750  48.997  61.768  1.00  0.00     0.038 C 
BRANCH   7   8
ATOM      8  C   UNL     1     108.140  50.269  61.062  1.00  0.00    -0.034 C 
ATOM      9  C   UNL     1     107.480  51.415  61.259  1.00  0.00     0.004 C 
ENDBRANCH   7   8
ENDBRANCH   1   7
TORSDOF 4
ENDMDL
MODEL 7
REMARK VINA RESULT:    -5.136      1.775      2.668
REMARK INTER + INTRA:          -6.723
REMARK INTER:                  -6.254
REMARK INTRA:                  -0.468
REMARK UNBOUND:                -0.386
REMARK SMILES C=CC[C@@H](C)C(=O)CC
REMARK SMILES IDX 4 1 5 2 6 3 7 4 8 5 9 6 3 7 2 8 1 9
REMARK H PARENT
REMARK Flexibility Score: inf
ROOT
ATOM      1  C   UNL     1     107.964  50.252  61.500  1.00  0.00     0.057 C 
ATOM      2  C   UNL     1     109.053  51.274  61.845  1.00  0.00     0.016 C 
ENDROOT
BRANCH   1   3
ATOM      3  C   UNL     1     108.594  48.915  61.165  1.00  0.00     0.135 C 
ATOM      4  O   UNL     1     108.006  48.136  60.429  1.00  0.00    -0.299 OA
BRANCH   3   5
ATOM      5  C   UNL     1     109.944  48.533  61.711  1.00  0.00     0.072 C 
ATOM      6  C   UNL     1     109.892  47.158  62.369  1.00  0.00     0.012 C 
ENDBRANCH   3   5
ENDBRANCH   1   3
BRANCH   1   7
ATOM      7  C   UNL     1     106.959  50.119  62.663  1.00  0.00     0.038 C 
BRANCH   7   8
ATOM      8  C   UNL     1     107.638  50.164  64.007  1.00  0.00    -0.034 C 
ATOM      9  C   UNL     1     107.758  49.075  64.773  1.00  0.00     0.004 C 
ENDBRANCH   7   8
ENDBRANCH   1   7
TORSDOF 4
ENDMDL
MODEL 8
REMARK VINA RESULT:    -5.041      1.767      4.129
REMARK INTER + INTRA:          -6.606
REMARK INTER:                  -6.386
REMARK INTRA:                  -0.219
REMARK UNBOUND:                -0.386
REMARK SMILES C=CC[C@@H](C)C(=O)CC
REMARK SMILES IDX 4 1 5 2 6 3 7 4 8 5 9 6 3 7 2 8 1 9
REMARK H PARENT
REMARK Flexibility Score: inf
ROOT
ATOM      1  C   UNL     1     107.660  49.038  62.553  1.00  0.00     0.057 C 
ATOM      2  C   UNL     1     108.158  48.568  61.181  1.00  0.00     0.016 C 
ENDROOT
BRANCH   1   3
ATOM      3  C   UNL     1     108.767  48.907  63.580  1.00  0.00     0.135 C 
ATOM      4  O   UNL     1     109.858  49.416  63.364  1.00  0.00    -0.299 OA
BRANCH   3   5
ATOM      5  C   UNL     1     108.543  48.170  64.874  1.00  0.00     0.072 C 
ATOM      6  C   UNL     1     109.125  46.762  64.802  1.00  0.00     0.012 C 
ENDBRANCH   3   5
ENDBRANCH   1   3
BRANCH   1   7
ATOM      7  C   UNL     1     107.144  50.490  62.473  1.00  0.00     0.038 C 
BRANCH   7   8
ATOM      8  C   UNL     1     107.625  51.194  61.231  1.00  0.00    -0.034 C 
ATOM      9  C   UNL     1     107.607  52.527  61.125  1.00  0.00     0.004 C 
ENDBRANCH   7   8
ENDBRANCH   1   7
TORSDOF 4
ENDMDL
MODEL 9
REMARK VINA RESULT:    -5.040      2.150      3.928
REMARK INTER + INTRA:          -6.605
REMARK INTER:                  -6.305
REMARK INTRA:                  -0.299
REMARK UNBOUND:                -0.386
REMARK SMILES C=CC[C@@H](C)C(=O)CC
REMARK SMILES IDX 4 1 5 2 6 3 7 4 8 5 9 6 3 7 2 8 1 9
REMARK H PARENT
REMARK Flexibility Score: inf
ROOT
ATOM      1  C   UNL     1     109.752  49.038  62.041  1.00  0.00     0.057 C 
ATOM      2  C   UNL     1     110.221  50.179  62.950  1.00  0.00     0.016 C 
ENDROOT
BRANCH   1   3
ATOM      3  C   UNL     1     109.485  47.794  62.865  1.00  0.00     0.135 C 
ATOM      4  O   UNL     1     109.911  46.713  62.486  1.00  0.00    -0.299 OA
BRANCH   3   5
ATOM      5  C   UNL     1     108.714  47.868  64.156  1.00  0.00     0.072 C 
ATOM      6  C   UNL     1     109.317  46.935  65.200  1.00  0.00     0.012 C 
ENDBRANCH   3   5
ENDBRANCH   1   3
BRANCH   1   7
ATOM      7  C   UNL     1     108.499  49.459  61.246  1.00  0.00     0.038 C 
BRANCH   7   8
ATOM      8  C   UNL     1     107.807  50.646  61.866  1.00  0.00    -0.034 C 
ATOM      9  C   UNL     1     106.659  50.520  62.538  1.00  0.00     0.004 C 
ENDBRANCH   7   8
ENDBRANCH   1   7
TORSDOF 4
ENDMDL
