MODEL 1
REMARK VINA RESULT:    31.596      0.000      0.000
REMARK INTER + INTRA:          38.674
REMARK INTER:                  38.984
REMARK INTRA:                  -0.310
REMARK UNBOUND:                -0.310
REMARK SMILES Oc1cc(O)c2cc(O)c(-c3cc(O)c(O)c(O)c3)[o+]c2c1
REMARK SMILES IDX 10 1 20 2 21 3 22 4 2 5 3 6 4 7 6 8 7 9 8 10 11 11 12 12
REMARK SMILES IDX 13 13 19 14 15 15 17 16 14 17 16 19 18 21 9 23 1 25 5 27
REMARK H PARENT 14 18 16 20 18 22 9 24 1 26 5 28
REMARK Flexibility Score: inf
ROOT
ATOM      1  C   UNL     1     -22.901  28.146  -7.265  1.00  0.00     0.402 A 
ATOM      2  O   UNL     1     -22.572  29.383  -7.629  1.00  0.00    -0.202 OA
ATOM      3  C   UNL     1     -23.439  30.245  -8.150  1.00  0.00     0.368 A 
ATOM      4  C   UNL     1     -23.000  31.525  -8.499  1.00  0.00     0.162 A 
ATOM      5  C   UNL     1     -23.888  32.450  -9.046  1.00  0.00     0.128 A 
ATOM      6  C   UNL     1     -25.228  32.098  -9.245  1.00  0.00     0.093 A 
ATOM      7  C   UNL     1     -25.694  30.822  -8.904  1.00  0.00     0.136 A 
ATOM      8  C   UNL     1     -24.792  29.876  -8.350  1.00  0.00     0.125 A 
ATOM      9  C   UNL     1     -25.166  28.571  -7.991  1.00  0.00     0.078 A 
ATOM     10  C   UNL     1     -24.219  27.692  -7.455  1.00  0.00     0.223 A 
ENDROOT
BRANCH   1  11
ATOM     11  C   UNL     1     -21.846  27.283  -6.686  1.00  0.00     0.091 A 
ATOM     12  C   UNL     1     -21.874  26.985  -5.315  1.00  0.00     0.068 A 
ATOM     13  C   UNL     1     -20.899  26.154  -4.745  1.00  0.00     0.162 A 
ATOM     14  C   UNL     1     -20.846  26.710  -7.490  1.00  0.00     0.068 A 
ATOM     15  C   UNL     1     -19.892  25.601  -5.552  1.00  0.00     0.200 A 
ATOM     16  C   UNL     1     -19.869  25.878  -6.926  1.00  0.00     0.162 A 
BRANCH  13  17
ATOM     17  O   UNL     1     -20.931  25.876  -3.379  1.00  0.00    -0.504 OA
ATOM     18  H   UNL     1     -21.477  26.435  -2.735  1.00  0.00     0.293 HD
ENDBRANCH  13  17
BRANCH  15  19
ATOM     19  O   UNL     1     -18.909  24.775  -5.008  1.00  0.00    -0.502 OA
ATOM     20  H   UNL     1     -18.407  25.019  -4.162  1.00  0.00     0.293 HD
ENDBRANCH  15  19
BRANCH  16  21
ATOM     21  O   UNL     1     -18.875  25.316  -7.725  1.00  0.00    -0.504 OA
ATOM     22  H   UNL     1     -18.521  25.794  -8.546  1.00  0.00     0.293 HD
ENDBRANCH  16  21
ENDBRANCH   1  11
BRANCH  10  23
ATOM     23  O   UNL     1     -24.579  26.381  -7.144  1.00  0.00    -0.500 OA
ATOM     24  H   UNL     1     -23.884  25.671  -6.945  1.00  0.00     0.294 HD
ENDBRANCH  10  23
BRANCH   5  25
ATOM     25  O   UNL     1     -23.431  33.722  -9.387  1.00  0.00    -0.507 OA
ATOM     26  H   UNL     1     -24.058  34.517  -9.426  1.00  0.00     0.293 HD
ENDBRANCH   5  25
BRANCH   7  27
ATOM     27  O   UNL     1     -27.045  30.547  -9.131  1.00  0.00    -0.507 OA
ATOM     28  H   UNL     1     -27.413  30.166  -9.990  1.00  0.00     0.293 HD
ENDBRANCH   7  27
TORSDOF 7
ENDMDL
MODEL 2
REMARK VINA RESULT:    34.397      1.120      3.066
REMARK INTER + INTRA:          42.131
REMARK INTER:                  42.075
REMARK INTRA:                   0.056
REMARK UNBOUND:                -0.310
REMARK SMILES Oc1cc(O)c2cc(O)c(-c3cc(O)c(O)c(O)c3)[o+]c2c1
REMARK SMILES IDX 10 1 20 2 21 3 22 4 2 5 3 6 4 7 6 8 7 9 8 10 11 11 12 12
REMARK SMILES IDX 13 13 19 14 15 15 17 16 14 17 16 19 18 21 9 23 1 25 5 27
REMARK H PARENT 14 18 16 20 18 22 9 24 1 26 5 28
REMARK Flexibility Score: inf
ROOT
ATOM      1  C   UNL     1     -22.494  28.702  -7.397  1.00  0.00     0.402 A 
ATOM      2  O   UNL     1     -23.800  28.708  -7.146  1.00  0.00    -0.202 OA
ATOM      3  C   UNL     1     -24.634  29.616  -7.641  1.00  0.00     0.368 A 
ATOM      4  C   UNL     1     -25.993  29.538  -7.323  1.00  0.00     0.162 A 
ATOM      5  C   UNL     1     -26.891  30.477  -7.829  1.00  0.00     0.128 A 
ATOM      6  C   UNL     1     -26.432  31.502  -8.663  1.00  0.00     0.093 A 
ATOM      7  C   UNL     1     -25.075  31.603  -8.998  1.00  0.00     0.136 A 
ATOM      8  C   UNL     1     -24.158  30.652  -8.482  1.00  0.00     0.125 A 
ATOM      9  C   UNL     1     -22.780  30.682  -8.753  1.00  0.00     0.078 A 
ATOM     10  C   UNL     1     -21.935  29.712  -8.203  1.00  0.00     0.223 A 
ENDROOT
BRANCH   1  11
ATOM     11  C   UNL     1     -21.670  27.629  -6.795  1.00  0.00     0.091 A 
ATOM     12  C   UNL     1     -20.667  27.017  -7.562  1.00  0.00     0.068 A 
ATOM     13  C   UNL     1     -19.860  26.012  -7.011  1.00  0.00     0.162 A 
ATOM     14  C   UNL     1     -21.833  27.248  -5.453  1.00  0.00     0.068 A 
ATOM     15  C   UNL     1     -20.042  25.623  -5.674  1.00  0.00     0.200 A 
ATOM     16  C   UNL     1     -21.028  26.245  -4.895  1.00  0.00     0.162 A 
BRANCH  13  17
ATOM     17  O   UNL     1     -18.875  25.402  -7.787  1.00  0.00    -0.504 OA
ATOM     18  H   UNL     1     -17.933  25.267  -7.440  1.00  0.00     0.293 HD
ENDBRANCH  13  17
BRANCH  15  19
ATOM     19  O   UNL     1     -19.253  24.624  -5.103  1.00  0.00    -0.502 OA
ATOM     20  H   UNL     1     -19.656  23.838  -4.606  1.00  0.00     0.293 HD
ENDBRANCH  15  19
BRANCH  16  21
ATOM     21  O   UNL     1     -21.196  25.864  -3.565  1.00  0.00    -0.504 OA
ATOM     22  H   UNL     1     -20.720  25.057  -3.179  1.00  0.00     0.293 HD
ENDBRANCH  16  21
ENDBRANCH   1  11
BRANCH  10  23
ATOM     23  O   UNL     1     -20.561  29.771  -8.431  1.00  0.00    -0.500 OA
ATOM     24  H   UNL     1     -20.024  30.609  -8.241  1.00  0.00     0.294 HD
ENDBRANCH  10  23
BRANCH   5  25
ATOM     25  O   UNL     1     -28.242  30.382  -7.501  1.00  0.00    -0.507 OA
ATOM     26  H   UNL     1     -28.750  29.511  -7.595  1.00  0.00     0.293 HD
ENDBRANCH   5  25
BRANCH   7  27
ATOM     27  O   UNL     1     -24.696  32.654  -9.838  1.00  0.00    -0.507 OA
ATOM     28  H   UNL     1     -23.771  33.057  -9.864  1.00  0.00     0.293 HD
ENDBRANCH   7  27
TORSDOF 7
ENDMDL
MODEL 3
REMARK VINA RESULT:    34.502      1.159      2.520
REMARK INTER + INTRA:          42.260
REMARK INTER:                  42.259
REMARK INTRA:                   0.001
REMARK UNBOUND:                -0.310
REMARK SMILES Oc1cc(O)c2cc(O)c(-c3cc(O)c(O)c(O)c3)[o+]c2c1
REMARK SMILES IDX 10 1 20 2 21 3 22 4 2 5 3 6 4 7 6 8 7 9 8 10 11 11 12 12
REMARK SMILES IDX 13 13 19 14 15 15 17 16 14 17 16 19 18 21 9 23 1 25 5 27
REMARK H PARENT 14 18 16 20 18 22 9 24 1 26 5 28
REMARK Flexibility Score: inf
ROOT
ATOM      1  C   UNL     1     -22.524  28.808  -7.468  1.00  0.00     0.402 A 
ATOM      2  O   UNL     1     -23.826  28.784  -7.200  1.00  0.00    -0.202 OA
ATOM      3  C   UNL     1     -24.688  29.674  -7.683  1.00  0.00     0.368 A 
ATOM      4  C   UNL     1     -26.039  29.565  -7.346  1.00  0.00     0.162 A 
ATOM      5  C   UNL     1     -26.966  30.482  -7.840  1.00  0.00     0.128 A 
ATOM      6  C   UNL     1     -26.541  31.518  -8.680  1.00  0.00     0.093 A 
ATOM      7  C   UNL     1     -25.192  31.650  -9.033  1.00  0.00     0.136 A 
ATOM      8  C   UNL     1     -24.246  30.720  -8.530  1.00  0.00     0.125 A 
ATOM      9  C   UNL     1     -22.873  30.781  -8.819  1.00  0.00     0.078 A 
ATOM     10  C   UNL     1     -21.999  29.831  -8.281  1.00  0.00     0.223 A 
ENDROOT
BRANCH   1  11
ATOM     11  C   UNL     1     -21.667  27.755  -6.878  1.00  0.00     0.091 A 
ATOM     12  C   UNL     1     -21.898  27.337  -5.558  1.00  0.00     0.068 A 
ATOM     13  C   UNL     1     -21.115  26.328  -4.981  1.00  0.00     0.162 A 
ATOM     14  C   UNL     1     -20.662  27.122  -7.629  1.00  0.00     0.068 A 
ATOM     15  C   UNL     1     -20.099  25.715  -5.732  1.00  0.00     0.200 A 
ATOM     16  C   UNL     1     -19.876  26.112  -7.058  1.00  0.00     0.162 A 
BRANCH  13  17
ATOM     17  O   UNL     1     -21.345  25.931  -3.664  1.00  0.00    -0.504 OA
ATOM     18  H   UNL     1     -22.277  25.715  -3.330  1.00  0.00     0.293 HD
ENDBRANCH  13  17
BRANCH  15  19
ATOM     19  O   UNL     1     -19.305  24.710  -5.180  1.00  0.00    -0.502 OA
ATOM     20  H   UNL     1     -18.314  24.839  -5.011  1.00  0.00     0.293 HD
ENDBRANCH  15  19
BRANCH  16  21
ATOM     21  O   UNL     1     -18.876  25.491  -7.804  1.00  0.00    -0.504 OA
ATOM     22  H   UNL     1     -18.386  25.979  -8.544  1.00  0.00     0.293 HD
ENDBRANCH  16  21
ENDBRANCH   1  11
BRANCH  10  23
ATOM     23  O   UNL     1     -20.630  29.921  -8.528  1.00  0.00    -0.500 OA
ATOM     24  H   UNL     1     -20.227  30.716  -9.010  1.00  0.00     0.294 HD
ENDBRANCH  10  23
BRANCH   5  25
ATOM     25  O   UNL     1     -28.310  30.356  -7.493  1.00  0.00    -0.507 OA
ATOM     26  H   UNL     1     -28.828  31.129  -7.092  1.00  0.00     0.293 HD
ENDBRANCH   5  25
BRANCH   7  27
ATOM     27  O   UNL     1     -24.848  32.709  -9.878  1.00  0.00    -0.507 OA
ATOM     28  H   UNL     1     -24.109  33.370  -9.692  1.00  0.00     0.293 HD
ENDBRANCH   7  27
TORSDOF 7
ENDMDL
