MODEL 1
REMARK VINA RESULT:    -4.966      0.000      0.000
REMARK INTER + INTRA:          -5.837
REMARK INTER:                  -5.691
REMARK INTRA:                  -0.146
REMARK UNBOUND:                -0.146
REMARK SMILES CC=Cc1ccc(O)c(OC)c1
REMARK SMILES IDX 4 1 12 2 9 3 7 4 6 5 5 6 3 7 1 8 2 9 10 10 11 11 8 12
REMARK H PARENT 8 13
REMARK Flexibility Score: inf
ROOT
ATOM      1  C   UNL     1      59.477  -0.786  -3.004  1.00  0.00    -0.022 A 
ATOM      2  C   UNL     1      58.647  -0.933  -1.880  1.00  0.00     0.058 A 
ATOM      3  C   UNL     1      57.970   0.174  -1.328  1.00  0.00     0.161 A 
ATOM      4  C   UNL     1      58.142   1.441  -1.910  1.00  0.00     0.157 A 
ATOM      5  C   UNL     1      58.979   1.596  -3.018  1.00  0.00     0.051 A 
ATOM      6  C   UNL     1      59.646   0.496  -3.562  1.00  0.00     0.012 A 
ENDROOT
BRANCH   1   7
ATOM      7  C   UNL     1      60.171  -1.984  -3.537  1.00  0.00     0.003 C 
ATOM      8  C   UNL     1      60.324  -4.163  -4.679  1.00  0.00     0.035 C 
ATOM      9  C   UNL     1      59.553  -2.980  -4.184  1.00  0.00    -0.030 C 
ENDBRANCH   1   7
BRANCH   3  10
ATOM     10  O   UNL     1      57.129   0.050  -0.212  1.00  0.00    -0.493 OA
ATOM     11  C   UNL     1      56.306  -1.081   0.060  1.00  0.00     0.278 C 
ENDBRANCH   3  10
BRANCH   4  12
ATOM     12  O   UNL     1      57.492   2.564  -1.397  1.00  0.00    -0.504 OA
ATOM     13  H   UNL     1      56.519   2.545  -1.120  1.00  0.00     0.293 HD
ENDBRANCH   4  12
TORSDOF 3
ENDMDL
MODEL 2
REMARK VINA RESULT:    -4.885      2.437      4.486
REMARK INTER + INTRA:          -5.745
REMARK INTER:                  -5.579
REMARK INTRA:                  -0.166
REMARK UNBOUND:                -0.146
REMARK SMILES CC=Cc1ccc(O)c(OC)c1
REMARK SMILES IDX 4 1 12 2 9 3 7 4 6 5 5 6 3 7 1 8 2 9 10 10 11 11 8 12
REMARK H PARENT 8 13
REMARK Flexibility Score: inf
ROOT
ATOM      1  C   UNL     1      58.808  -0.277  -0.564  1.00  0.00    -0.022 A 
ATOM      2  C   UNL     1      58.308   0.654  -1.491  1.00  0.00     0.058 A 
ATOM      3  C   UNL     1      59.059   1.022  -2.626  1.00  0.00     0.161 A 
ATOM      4  C   UNL     1      60.329   0.454  -2.821  1.00  0.00     0.157 A 
ATOM      5  C   UNL     1      60.838  -0.460  -1.894  1.00  0.00     0.051 A 
ATOM      6  C   UNL     1      60.089  -0.822  -0.772  1.00  0.00     0.012 A 
ENDROOT
BRANCH   1   7
ATOM      7  C   UNL     1      57.978  -0.620   0.617  1.00  0.00     0.003 C 
ATOM      8  C   UNL     1      55.908  -1.256   1.792  1.00  0.00     0.035 C 
ATOM      9  C   UNL     1      56.679  -0.935   0.551  1.00  0.00    -0.030 C 
ENDBRANCH   1   7
BRANCH   3  10
ATOM     10  O   UNL     1      58.577   1.942  -3.570  1.00  0.00    -0.493 OA
ATOM     11  C   UNL     1      58.359   3.326  -3.314  1.00  0.00     0.278 C 
ENDBRANCH   3  10
BRANCH   4  12
ATOM     12  O   UNL     1      61.106   0.789  -3.930  1.00  0.00    -0.504 OA
ATOM     13  H   UNL     1      60.699   1.134  -4.790  1.00  0.00     0.293 HD
ENDBRANCH   4  12
TORSDOF 3
ENDMDL
MODEL 3
REMARK VINA RESULT:    -4.797      2.088      4.114
REMARK INTER + INTRA:          -5.644
REMARK INTER:                  -5.474
REMARK INTRA:                  -0.170
REMARK UNBOUND:                -0.146
REMARK SMILES CC=Cc1ccc(O)c(OC)c1
REMARK SMILES IDX 4 1 12 2 9 3 7 4 6 5 5 6 3 7 1 8 2 9 10 10 11 11 8 12
REMARK H PARENT 8 13
REMARK Flexibility Score: inf
ROOT
ATOM      1  C   UNL     1      58.361   0.033  -2.148  1.00  0.00    -0.022 A 
ATOM      2  C   UNL     1      57.416   0.008  -1.108  1.00  0.00     0.058 A 
ATOM      3  C   UNL     1      56.882  -1.210  -0.642  1.00  0.00     0.161 A 
ATOM      4  C   UNL     1      57.299  -2.413  -1.238  1.00  0.00     0.157 A 
ATOM      5  C   UNL     1      58.227  -2.393  -2.282  1.00  0.00     0.051 A 
ATOM      6  C   UNL     1      58.753  -1.182  -2.739  1.00  0.00     0.012 A 
ENDROOT
BRANCH   1   7
ATOM      7  C   UNL     1      58.882   1.346  -2.604  1.00  0.00     0.003 C 
ATOM      8  C   UNL     1      58.709   3.649  -3.463  1.00  0.00     0.035 C 
ATOM      9  C   UNL     1      58.106   2.360  -3.004  1.00  0.00    -0.030 C 
ENDBRANCH   1   7
BRANCH   3  10
ATOM     10  O   UNL     1      55.944  -1.261   0.401  1.00  0.00    -0.493 OA
ATOM     11  C   UNL     1      56.272  -1.212   1.786  1.00  0.00     0.278 C 
ENDBRANCH   3  10
BRANCH   4  12
ATOM     12  O   UNL     1      56.798  -3.642  -0.808  1.00  0.00    -0.504 OA
ATOM     13  H   UNL     1      55.979  -3.715  -0.217  1.00  0.00     0.293 HD
ENDBRANCH   4  12
TORSDOF 3
ENDMDL
MODEL 4
REMARK VINA RESULT:    -4.763     11.206     13.465
REMARK INTER + INTRA:          -5.605
REMARK INTER:                  -5.446
REMARK INTRA:                  -0.159
REMARK UNBOUND:                -0.146
REMARK SMILES CC=Cc1ccc(O)c(OC)c1
REMARK SMILES IDX 4 1 12 2 9 3 7 4 6 5 5 6 3 7 1 8 2 9 10 10 11 11 8 12
REMARK H PARENT 8 13
REMARK Flexibility Score: inf
ROOT
ATOM      1  C   UNL     1      54.875   1.863  10.107  1.00  0.00    -0.022 A 
ATOM      2  C   UNL     1      55.668   2.756   9.367  1.00  0.00     0.058 A 
ATOM      3  C   UNL     1      57.072   2.751   9.490  1.00  0.00     0.161 A 
ATOM      4  C   UNL     1      57.679   1.844  10.375  1.00  0.00     0.157 A 
ATOM      5  C   UNL     1      56.894   0.964  11.125  1.00  0.00     0.051 A 
ATOM      6  C   UNL     1      55.502   0.973  10.999  1.00  0.00     0.012 A 
ENDROOT
BRANCH   1   7
ATOM      7  C   UNL     1      53.401   1.920   9.944  1.00  0.00     0.003 C 
ATOM      8  C   UNL     1      51.292   2.509   8.813  1.00  0.00     0.035 C 
ATOM      9  C   UNL     1      52.786   2.480   8.896  1.00  0.00    -0.030 C 
ENDBRANCH   1   7
BRANCH   3  10
ATOM     10  O   UNL     1      57.887   3.626   8.755  1.00  0.00    -0.493 OA
ATOM     11  C   UNL     1      57.756   3.871   7.357  1.00  0.00     0.278 C 
ENDBRANCH   3  10
BRANCH   4  12
ATOM     12  O   UNL     1      59.066   1.803  10.528  1.00  0.00    -0.504 OA
ATOM     13  H   UNL     1      59.684   2.409  10.004  1.00  0.00     0.293 HD
ENDBRANCH   4  12
TORSDOF 3
ENDMDL
MODEL 5
REMARK VINA RESULT:    -4.687      3.323      4.786
REMARK INTER + INTRA:          -5.518
REMARK INTER:                  -5.352
REMARK INTRA:                  -0.166
REMARK UNBOUND:                -0.146
REMARK SMILES CC=Cc1ccc(O)c(OC)c1
REMARK SMILES IDX 4 1 12 2 9 3 7 4 6 5 5 6 3 7 1 8 2 9 10 10 11 11 8 12
REMARK H PARENT 8 13
REMARK Flexibility Score: inf
ROOT
ATOM      1  C   UNL     1      58.221   0.034  -0.945  1.00  0.00    -0.022 A 
ATOM      2  C   UNL     1      59.395  -0.346  -0.274  1.00  0.00     0.058 A 
ATOM      3  C   UNL     1      59.344  -1.182   0.860  1.00  0.00     0.161 A 
ATOM      4  C   UNL     1      58.096  -1.629   1.326  1.00  0.00     0.157 A 
ATOM      5  C   UNL     1      56.924  -1.241   0.672  1.00  0.00     0.051 A 
ATOM      6  C   UNL     1      56.980  -0.413  -0.452  1.00  0.00     0.012 A 
ENDROOT
BRANCH   1   7
ATOM      7  C   UNL     1      58.335   0.922  -2.128  1.00  0.00     0.003 C 
ATOM      8  C   UNL     1      58.178   3.055  -3.352  1.00  0.00     0.035 C 
ATOM      9  C   UNL     1      58.051   2.230  -2.111  1.00  0.00    -0.030 C 
ENDBRANCH   1   7
BRANCH   3  10
ATOM     10  O   UNL     1      60.504  -1.583   1.542  1.00  0.00    -0.493 OA
ATOM     11  C   UNL     1      61.493  -2.459   1.010  1.00  0.00     0.278 C 
ENDBRANCH   3  10
BRANCH   4  12
ATOM     12  O   UNL     1      57.998  -2.457   2.445  1.00  0.00    -0.504 OA
ATOM     13  H   UNL     1      58.812  -2.760   2.965  1.00  0.00     0.293 HD
ENDBRANCH   4  12
TORSDOF 3
ENDMDL
MODEL 6
REMARK VINA RESULT:    -4.630     10.149     12.162
REMARK INTER + INTRA:          -5.453
REMARK INTER:                  -5.286
REMARK INTRA:                  -0.167
REMARK UNBOUND:                -0.146
REMARK SMILES CC=Cc1ccc(O)c(OC)c1
REMARK SMILES IDX 4 1 12 2 9 3 7 4 6 5 5 6 3 7 1 8 2 9 10 10 11 11 8 12
REMARK H PARENT 8 13
REMARK Flexibility Score: inf
ROOT
ATOM      1  C   UNL     1      48.960  -7.631  -2.201  1.00  0.00    -0.022 A 
ATOM      2  C   UNL     1      50.120  -8.372  -1.917  1.00  0.00     0.058 A 
ATOM      3  C   UNL     1      51.234  -8.334  -2.780  1.00  0.00     0.161 A 
ATOM      4  C   UNL     1      51.172  -7.550  -3.945  1.00  0.00     0.157 A 
ATOM      5  C   UNL     1      50.015  -6.824  -4.240  1.00  0.00     0.051 A 
ATOM      6  C   UNL     1      48.914  -6.865  -3.381  1.00  0.00     0.012 A 
ENDROOT
BRANCH   1   7
ATOM      7  C   UNL     1      47.815  -7.716  -1.261  1.00  0.00     0.003 C 
ATOM      8  C   UNL     1      46.397  -6.982   0.616  1.00  0.00     0.035 C 
ATOM      9  C   UNL     1      47.567  -6.817  -0.302  1.00  0.00    -0.030 C 
ENDBRANCH   1   7
BRANCH   3  10
ATOM     10  O   UNL     1      52.407  -9.057  -2.513  1.00  0.00    -0.493 OA
ATOM     11  C   UNL     1      53.407  -8.661  -1.579  1.00  0.00     0.278 C 
ENDBRANCH   3  10
BRANCH   4  12
ATOM     12  O   UNL     1      52.251  -7.483  -4.827  1.00  0.00    -0.504 OA
ATOM     13  H   UNL     1      52.986  -8.178  -4.835  1.00  0.00     0.293 HD
ENDBRANCH   4  12
TORSDOF 3
ENDMDL
MODEL 7
REMARK VINA RESULT:    -4.581      2.234      2.596
REMARK INTER + INTRA:          -5.397
REMARK INTER:                  -5.245
REMARK INTRA:                  -0.152
REMARK UNBOUND:                -0.146
REMARK SMILES CC=Cc1ccc(O)c(OC)c1
REMARK SMILES IDX 4 1 12 2 9 3 7 4 6 5 5 6 3 7 1 8 2 9 10 10 11 11 8 12
REMARK H PARENT 8 13
REMARK Flexibility Score: inf
ROOT
ATOM      1  C   UNL     1      60.694  -0.565  -1.749  1.00  0.00    -0.022 A 
ATOM      2  C   UNL     1      59.487  -0.587  -1.028  1.00  0.00     0.058 A 
ATOM      3  C   UNL     1      58.377   0.171  -1.450  1.00  0.00     0.161 A 
ATOM      4  C   UNL     1      58.489   0.967  -2.603  1.00  0.00     0.157 A 
ATOM      5  C   UNL     1      59.691   1.004  -3.315  1.00  0.00     0.051 A 
ATOM      6  C   UNL     1      60.788   0.250  -2.893  1.00  0.00     0.012 A 
ENDROOT
BRANCH   1   7
ATOM      7  C   UNL     1      61.833  -1.377  -1.253  1.00  0.00     0.003 C 
ATOM      8  C   UNL     1      63.104  -2.671   0.415  1.00  0.00     0.035 C 
ATOM      9  C   UNL     1      61.914  -1.872  -0.013  1.00  0.00    -0.030 C 
ENDBRANCH   1   7
BRANCH   3  10
ATOM     10  O   UNL     1      57.159   0.158  -0.752  1.00  0.00    -0.493 OA
ATOM     11  C   UNL     1      56.767  -0.852   0.173  1.00  0.00     0.278 C 
ENDBRANCH   3  10
BRANCH   4  12
ATOM     12  O   UNL     1      57.415   1.733  -3.057  1.00  0.00    -0.504 OA
ATOM     13  H   UNL     1      56.837   1.445  -3.837  1.00  0.00     0.293 HD
ENDBRANCH   4  12
TORSDOF 3
ENDMDL
MODEL 8
REMARK VINA RESULT:    -4.575      3.105      4.413
REMARK INTER + INTRA:          -5.390
REMARK INTER:                  -5.366
REMARK INTRA:                  -0.024
REMARK UNBOUND:                -0.146
REMARK SMILES CC=Cc1ccc(O)c(OC)c1
REMARK SMILES IDX 4 1 12 2 9 3 7 4 6 5 5 6 3 7 1 8 2 9 10 10 11 11 8 12
REMARK H PARENT 8 13
REMARK Flexibility Score: inf
ROOT
ATOM      1  C   UNL     1      58.528  -0.013  -0.809  1.00  0.00    -0.022 A 
ATOM      2  C   UNL     1      57.292  -0.356  -0.236  1.00  0.00     0.058 A 
ATOM      3  C   UNL     1      57.224  -1.192   0.897  1.00  0.00     0.161 A 
ATOM      4  C   UNL     1      58.415  -1.694   1.449  1.00  0.00     0.157 A 
ATOM      5  C   UNL     1      59.646  -1.370   0.873  1.00  0.00     0.051 A 
ATOM      6  C   UNL     1      59.707  -0.540  -0.249  1.00  0.00     0.012 A 
ENDROOT
BRANCH   1   7
ATOM      7  C   UNL     1      58.538   0.863  -2.007  1.00  0.00     0.003 C 
ATOM      8  C   UNL     1      58.000   2.886  -3.307  1.00  0.00     0.035 C 
ATOM      9  C   UNL     1      57.958   2.068  -2.056  1.00  0.00    -0.030 C 
ENDBRANCH   1   7
BRANCH   3  10
ATOM     10  O   UNL     1      56.002  -1.540   1.493  1.00  0.00    -0.493 OA
ATOM     11  C   UNL     1      55.410  -2.834   1.428  1.00  0.00     0.278 C 
ENDBRANCH   3  10
BRANCH   4  12
ATOM     12  O   UNL     1      58.395  -2.525   2.570  1.00  0.00    -0.504 OA
ATOM     13  H   UNL     1      59.166  -2.567   3.225  1.00  0.00     0.293 HD
ENDBRANCH   4  12
TORSDOF 3
ENDMDL
