MODEL 1
REMARK VINA RESULT:    -4.003      0.000      0.000
REMARK INTER + INTRA:          -4.650
REMARK INTER:                  -4.472
REMARK INTRA:                  -0.178
REMARK UNBOUND:                -0.178
REMARK SMILES O=C([O-])c1ccccc1C(=O)[O-]
REMARK SMILES IDX 4 1 9 2 5 3 8 4 6 5 7 6 2 7 1 8 3 9 10 10 11 11 12 12
REMARK H PARENT
REMARK Flexibility Score: inf
ROOT
ATOM      1  C   UNL     1      56.624  26.809  50.704  1.00  0.00     0.006 A 
ATOM      2  C   UNL     1      56.513  28.184  51.051  1.00  0.00     0.006 A 
ATOM      3  C   UNL     1      55.488  26.131  50.223  1.00  0.00     0.010 A 
ATOM      4  C   UNL     1      55.289  28.846  50.842  1.00  0.00     0.010 A 
ATOM      5  C   UNL     1      54.278  26.803  50.045  1.00  0.00     0.001 A 
ATOM      6  C   UNL     1      54.182  28.161  50.342  1.00  0.00     0.001 A 
ENDROOT
BRANCH   1   7
ATOM      7  C   UNL     1      57.906  26.071  50.760  1.00  0.00     0.072 C 
ATOM      8  O   UNL     1      58.054  25.117  51.569  1.00  0.00    -0.545 OA
ATOM      9  O   UNL     1      58.937  26.373  49.879  1.00  0.00    -0.545 OA
ENDBRANCH   1   7
BRANCH   2  10
ATOM     10  C   UNL     1      57.611  28.945  51.692  1.00  0.00     0.072 C 
ATOM     11  O   UNL     1      57.648  29.095  52.942  1.00  0.00    -0.545 OA
ATOM     12  O   UNL     1      58.582  29.560  50.909  1.00  0.00    -0.545 OA
ENDBRANCH   2  10
TORSDOF 2
ENDMDL
MODEL 2
REMARK VINA RESULT:    -3.995      0.138      2.870
REMARK INTER + INTRA:          -4.641
REMARK INTER:                  -4.460
REMARK INTRA:                  -0.180
REMARK UNBOUND:                -0.178
REMARK SMILES O=C([O-])c1ccccc1C(=O)[O-]
REMARK SMILES IDX 4 1 9 2 5 3 8 4 6 5 7 6 2 7 1 8 3 9 10 10 11 11 12 12
REMARK H PARENT
REMARK Flexibility Score: inf
ROOT
ATOM      1  C   UNL     1      56.457  28.153  51.080  1.00  0.00     0.006 A 
ATOM      2  C   UNL     1      56.537  26.788  50.687  1.00  0.00     0.006 A 
ATOM      3  C   UNL     1      55.256  28.856  50.868  1.00  0.00     0.010 A 
ATOM      4  C   UNL     1      55.395  26.159  50.158  1.00  0.00     0.010 A 
ATOM      5  C   UNL     1      54.142  28.218  50.320  1.00  0.00     0.001 A 
ATOM      6  C   UNL     1      54.208  26.869  49.978  1.00  0.00     0.001 A 
ENDROOT
BRANCH   1   7
ATOM      7  C   UNL     1      57.563  28.853  51.771  1.00  0.00     0.072 C 
ATOM      8  O   UNL     1      57.671  28.787  53.024  1.00  0.00    -0.545 OA
ATOM      9  O   UNL     1      58.533  29.535  51.047  1.00  0.00    -0.545 OA
ENDBRANCH   1   7
BRANCH   2  10
ATOM     10  C   UNL     1      57.794  26.006  50.743  1.00  0.00     0.072 C 
ATOM     11  O   UNL     1      57.936  25.070  51.575  1.00  0.00    -0.545 OA
ATOM     12  O   UNL     1      58.862  26.342  49.918  1.00  0.00    -0.545 OA
ENDBRANCH   2  10
TORSDOF 2
ENDMDL
MODEL 3
REMARK VINA RESULT:    -3.950     10.756     12.860
REMARK INTER + INTRA:          -4.590
REMARK INTER:                  -4.422
REMARK INTRA:                  -0.168
REMARK UNBOUND:                -0.178
REMARK SMILES O=C([O-])c1ccccc1C(=O)[O-]
REMARK SMILES IDX 4 1 9 2 5 3 8 4 6 5 7 6 2 7 1 8 3 9 10 10 11 11 12 12
REMARK H PARENT
REMARK Flexibility Score: inf
ROOT
ATOM      1  C   UNL     1      63.387  33.101  60.537  1.00  0.00     0.006 A 
ATOM      2  C   UNL     1      62.023  33.333  60.210  1.00  0.00     0.006 A 
ATOM      3  C   UNL     1      64.162  34.164  61.039  1.00  0.00     0.010 A 
ATOM      4  C   UNL     1      61.466  34.602  60.456  1.00  0.00     0.010 A 
ATOM      5  C   UNL     1      63.594  35.421  61.254  1.00  0.00     0.001 A 
ATOM      6  C   UNL     1      62.246  35.636  60.975  1.00  0.00     0.001 A 
ENDROOT
BRANCH   1   7
ATOM      7  C   UNL     1      64.016  31.764  60.442  1.00  0.00     0.072 C 
ATOM      8  O   UNL     1      64.939  31.555  59.610  1.00  0.00    -0.545 OA
ATOM      9  O   UNL     1      63.646  30.742  61.308  1.00  0.00    -0.545 OA
ENDBRANCH   1   7
BRANCH   2  10
ATOM     10  C   UNL     1      61.168  32.319  59.551  1.00  0.00     0.072 C 
ATOM     11  O   UNL     1      60.956  32.360  58.310  1.00  0.00    -0.545 OA
ATOM     12  O   UNL     1      60.532  31.343  60.312  1.00  0.00    -0.545 OA
ENDBRANCH   2  10
TORSDOF 2
ENDMDL
MODEL 4
REMARK VINA RESULT:    -3.950     10.686     12.846
REMARK INTER + INTRA:          -4.590
REMARK INTER:                  -4.404
REMARK INTRA:                  -0.186
REMARK UNBOUND:                -0.178
REMARK SMILES O=C([O-])c1ccccc1C(=O)[O-]
REMARK SMILES IDX 4 1 9 2 5 3 8 4 6 5 7 6 2 7 1 8 3 9 10 10 11 11 12 12
REMARK H PARENT
REMARK Flexibility Score: inf
ROOT
ATOM      1  C   UNL     1      62.007  33.293  60.144  1.00  0.00     0.006 A 
ATOM      2  C   UNL     1      63.369  33.100  60.508  1.00  0.00     0.006 A 
ATOM      3  C   UNL     1      61.409  34.546  60.371  1.00  0.00     0.010 A 
ATOM      4  C   UNL     1      64.100  34.186  61.025  1.00  0.00     0.010 A 
ATOM      5  C   UNL     1      62.147  35.603  60.906  1.00  0.00     0.001 A 
ATOM      6  C   UNL     1      63.493  35.427  61.221  1.00  0.00     0.001 A 
ENDROOT
BRANCH   1   7
ATOM      7  C   UNL     1      61.206  32.249  59.466  1.00  0.00     0.072 C 
ATOM      8  O   UNL     1      61.180  32.186  58.208  1.00  0.00    -0.545 OA
ATOM      9  O   UNL     1      60.526  31.287  60.202  1.00  0.00    -0.545 OA
ENDBRANCH   1   7
BRANCH   2  10
ATOM     10  C   UNL     1      64.045  31.784  60.435  1.00  0.00     0.072 C 
ATOM     11  O   UNL     1      64.925  31.558  59.562  1.00  0.00    -0.545 OA
ATOM     12  O   UNL     1      63.664  30.756  61.291  1.00  0.00    -0.545 OA
ENDBRANCH   2  10
TORSDOF 2
ENDMDL
MODEL 5
REMARK VINA RESULT:    -3.774      2.214      3.759
REMARK INTER + INTRA:          -4.394
REMARK INTER:                  -4.208
REMARK INTRA:                  -0.185
REMARK UNBOUND:                -0.178
REMARK SMILES O=C([O-])c1ccccc1C(=O)[O-]
REMARK SMILES IDX 4 1 9 2 5 3 8 4 6 5 7 6 2 7 1 8 3 9 10 10 11 11 12 12
REMARK H PARENT
REMARK Flexibility Score: inf
ROOT
ATOM      1  C   UNL     1      55.686  27.228  50.851  1.00  0.00     0.006 A 
ATOM      2  C   UNL     1      54.338  26.974  50.472  1.00  0.00     0.006 A 
ATOM      3  C   UNL     1      56.091  28.554  51.091  1.00  0.00     0.010 A 
ATOM      4  C   UNL     1      53.431  28.048  50.412  1.00  0.00     0.010 A 
ATOM      5  C   UNL     1      55.179  29.607  51.004  1.00  0.00     0.001 A 
ATOM      6  C   UNL     1      53.848  29.352  50.677  1.00  0.00     0.001 A 
ENDROOT
BRANCH   1   7
ATOM      7  C   UNL     1      56.671  26.146  51.074  1.00  0.00     0.072 C 
ATOM      8  O   UNL     1      57.564  25.915  50.216  1.00  0.00    -0.545 OA
ATOM      9  O   UNL     1      56.667  25.415  52.256  1.00  0.00    -0.545 OA
ENDBRANCH   1   7
BRANCH   2  10
ATOM     10  C   UNL     1      53.853  25.635  50.067  1.00  0.00     0.072 C 
ATOM     11  O   UNL     1      53.625  25.370  48.857  1.00  0.00    -0.545 OA
ATOM     12  O   UNL     1      53.581  24.671  51.031  1.00  0.00    -0.545 OA
ENDBRANCH   2  10
TORSDOF 2
ENDMDL
MODEL 6
REMARK VINA RESULT:    -3.701      1.858      3.509
REMARK INTER + INTRA:          -4.313
REMARK INTER:                  -4.095
REMARK INTRA:                  -0.218
REMARK UNBOUND:                -0.178
REMARK SMILES O=C([O-])c1ccccc1C(=O)[O-]
REMARK SMILES IDX 4 1 9 2 5 3 8 4 6 5 7 6 2 7 1 8 3 9 10 10 11 11 12 12
REMARK H PARENT
REMARK Flexibility Score: inf
ROOT
ATOM      1  C   UNL     1      54.390  28.110  50.836  1.00  0.00     0.006 A 
ATOM      2  C   UNL     1      55.557  27.308  50.699  1.00  0.00     0.006 A 
ATOM      3  C   UNL     1      53.186  27.670  50.256  1.00  0.00     0.010 A 
ATOM      4  C   UNL     1      55.461  26.067  50.043  1.00  0.00     0.010 A 
ATOM      5  C   UNL     1      53.119  26.446  49.590  1.00  0.00     0.001 A 
ATOM      6  C   UNL     1      54.252  25.639  49.495  1.00  0.00     0.001 A 
ENDROOT
BRANCH   1   7
ATOM      7  C   UNL     1      54.368  29.360  51.628  1.00  0.00     0.072 C 
ATOM      8  O   UNL     1      54.300  30.477  51.049  1.00  0.00    -0.545 OA
ATOM      9  O   UNL     1      54.354  29.321  53.017  1.00  0.00    -0.545 OA
ENDBRANCH   1   7
BRANCH   2  10
ATOM     10  C   UNL     1      56.896  27.749  51.154  1.00  0.00     0.072 C 
ATOM     11  O   UNL     1      57.338  27.408  52.283  1.00  0.00    -0.545 OA
ATOM     12  O   UNL     1      57.656  28.603  50.362  1.00  0.00    -0.545 OA
ENDBRANCH   2  10
TORSDOF 2
ENDMDL
MODEL 7
REMARK VINA RESULT:    -3.672      3.025      4.808
REMARK INTER + INTRA:          -4.280
REMARK INTER:                  -4.061
REMARK INTRA:                  -0.218
REMARK UNBOUND:                -0.178
REMARK SMILES O=C([O-])c1ccccc1C(=O)[O-]
REMARK SMILES IDX 4 1 9 2 5 3 8 4 6 5 7 6 2 7 1 8 3 9 10 10 11 11 12 12
REMARK H PARENT
REMARK Flexibility Score: inf
ROOT
ATOM      1  C   UNL     1      54.940  28.025  50.895  1.00  0.00     0.006 A 
ATOM      2  C   UNL     1      55.286  26.710  50.475  1.00  0.00     0.006 A 
ATOM      3  C   UNL     1      55.966  28.947  51.171  1.00  0.00     0.010 A 
ATOM      4  C   UNL     1      56.642  26.388  50.284  1.00  0.00     0.010 A 
ATOM      5  C   UNL     1      57.306  28.599  50.996  1.00  0.00     0.001 A 
ATOM      6  C   UNL     1      57.643  27.325  50.541  1.00  0.00     0.001 A 
ENDROOT
BRANCH   1   7
ATOM      7  C   UNL     1      53.538  28.491  50.987  1.00  0.00     0.072 C 
ATOM      8  O   UNL     1      52.908  28.817  49.946  1.00  0.00    -0.545 OA
ATOM      9  O   UNL     1      52.876  28.514  52.209  1.00  0.00    -0.545 OA
ENDBRANCH   1   7
BRANCH   2  10
ATOM     10  C   UNL     1      54.286  25.632  50.294  1.00  0.00     0.072 C 
ATOM     11  O   UNL     1      53.796  25.391  49.160  1.00  0.00    -0.545 OA
ATOM     12  O   UNL     1      53.827  24.915  51.394  1.00  0.00    -0.545 OA
ENDBRANCH   2  10
TORSDOF 2
ENDMDL
MODEL 8
REMARK VINA RESULT:    -3.597      2.884      3.675
REMARK INTER + INTRA:          -4.196
REMARK INTER:                  -4.017
REMARK INTRA:                  -0.179
REMARK UNBOUND:                -0.178
REMARK SMILES O=C([O-])c1ccccc1C(=O)[O-]
REMARK SMILES IDX 4 1 9 2 5 3 8 4 6 5 7 6 2 7 1 8 3 9 10 10 11 11 12 12
REMARK H PARENT
REMARK Flexibility Score: inf
ROOT
ATOM      1  C   UNL     1      55.477  26.680  50.578  1.00  0.00     0.006 A 
ATOM      2  C   UNL     1      55.190  28.041  50.878  1.00  0.00     0.006 A 
ATOM      3  C   UNL     1      56.815  26.289  50.388  1.00  0.00     0.010 A 
ATOM      4  C   UNL     1      56.256  28.945  51.040  1.00  0.00     0.010 A 
ATOM      5  C   UNL     1      57.855  27.208  50.532  1.00  0.00     0.001 A 
ATOM      6  C   UNL     1      57.577  28.531  50.870  1.00  0.00     0.001 A 
ENDROOT
BRANCH   1   7
ATOM      7  C   UNL     1      54.430  25.635  50.528  1.00  0.00     0.072 C 
ATOM      8  O   UNL     1      54.046  25.070  51.587  1.00  0.00    -0.545 OA
ATOM      9  O   UNL     1      53.810  25.309  49.328  1.00  0.00    -0.545 OA
ENDBRANCH   1   7
BRANCH   2  10
ATOM     10  C   UNL     1      53.811  28.575  50.960  1.00  0.00     0.072 C 
ATOM     11  O   UNL     1      53.110  28.714  49.923  1.00  0.00    -0.545 OA
ATOM     12  O   UNL     1      53.296  28.992  52.183  1.00  0.00    -0.545 OA
ENDBRANCH   2  10
TORSDOF 2
ENDMDL
MODEL 9
REMARK VINA RESULT:    -3.584     10.678     12.264
REMARK INTER + INTRA:          -4.182
REMARK INTER:                  -4.019
REMARK INTRA:                  -0.162
REMARK UNBOUND:                -0.178
REMARK SMILES O=C([O-])c1ccccc1C(=O)[O-]
REMARK SMILES IDX 4 1 9 2 5 3 8 4 6 5 7 6 2 7 1 8 3 9 10 10 11 11 12 12
REMARK H PARENT
REMARK Flexibility Score: inf
ROOT
ATOM      1  C   UNL     1      63.179  31.837  60.423  1.00  0.00     0.006 A 
ATOM      2  C   UNL     1      61.805  32.205  60.440  1.00  0.00     0.006 A 
ATOM      3  C   UNL     1      64.158  32.848  60.437  1.00  0.00     0.010 A 
ATOM      4  C   UNL     1      61.461  33.566  60.535  1.00  0.00     0.010 A 
ATOM      5  C   UNL     1      63.794  34.194  60.508  1.00  0.00     0.001 A 
ATOM      6  C   UNL     1      62.449  34.551  60.570  1.00  0.00     0.001 A 
ENDROOT
BRANCH   1   7
ATOM      7  C   UNL     1      63.630  30.428  60.465  1.00  0.00     0.072 C 
ATOM      8  O   UNL     1      63.554  29.769  61.537  1.00  0.00    -0.545 OA
ATOM      9  O   UNL     1      64.081  29.793  59.315  1.00  0.00    -0.545 OA
ENDBRANCH   1   7
BRANCH   2  10
ATOM     10  C   UNL     1      60.706  31.223  60.291  1.00  0.00     0.072 C 
ATOM     11  O   UNL     1      60.290  30.564  61.281  1.00  0.00    -0.545 OA
ATOM     12  O   UNL     1      60.163  30.969  59.036  1.00  0.00    -0.545 OA
ENDBRANCH   2  10
TORSDOF 2
ENDMDL
