MODEL 1
REMARK VINA RESULT:    -4.728      0.000      0.000
REMARK INTER + INTRA:          -5.964
REMARK INTER:                  -5.695
REMARK INTRA:                  -0.269
REMARK UNBOUND:                -0.269
REMARK SMILES O=c1c(O)c(-c2ccc(O)c(O)c2)oc2cc(O)cc(O)c12
REMARK SMILES IDX 5 1 3 2 2 3 1 4 22 5 20 6 19 7 17 8 16 9 15 10 14 11 6 12
REMARK SMILES IDX 7 13 8 14 9 15 13 16 11 17 10 18 12 20 4 22 21 24 18 26
REMARK H PARENT 10 19 12 21 4 23 21 25 18 27
REMARK Flexibility Score: inf
ROOT
ATOM      1  C   UNL     1      21.082   2.021 -18.947  1.00  0.00     0.180 A 
ATOM      2  C   UNL     1      20.761   3.232 -19.585  1.00  0.00     0.208 A 
ATOM      3  C   UNL     1      21.116   3.405 -20.933  1.00  0.00     0.238 A 
ATOM      4  O   UNL     1      20.874   4.511 -21.484  1.00  0.00    -0.285 OA
ATOM      5  C   UNL     1      21.773   2.363 -21.628  1.00  0.00     0.111 A 
ATOM      6  C   UNL     1      22.143   2.414 -23.006  1.00  0.00     0.134 A 
ATOM      7  C   UNL     1      22.905   1.376 -23.556  1.00  0.00     0.093 A 
ATOM      8  C   UNL     1      23.254   0.259 -22.798  1.00  0.00     0.123 A 
ATOM      9  C   UNL     1      22.847   0.170 -21.466  1.00  0.00     0.094 A 
ATOM     10  C   UNL     1      22.116   1.207 -20.879  1.00  0.00     0.146 A 
ATOM     11  O   UNL     1      21.757   1.089 -19.607  1.00  0.00    -0.452 OA
ENDROOT
BRANCH   1  12
ATOM     12  C   UNL     1      20.719   1.755 -17.535  1.00  0.00     0.025 A 
ATOM     13  C   UNL     1      21.726   1.717 -16.558  1.00  0.00     0.016 A 
ATOM     14  C   UNL     1      21.408   1.445 -15.225  1.00  0.00     0.051 A 
ATOM     15  C   UNL     1      20.082   1.194 -14.853  1.00  0.00     0.157 A 
ATOM     16  C   UNL     1      19.391   1.482 -17.161  1.00  0.00     0.062 A 
ATOM     17  C   UNL     1      19.072   1.208 -15.822  1.00  0.00     0.158 A 
BRANCH  15  18
ATOM     18  O   UNL     1      19.760   0.925 -13.523  1.00  0.00    -0.504 OA
ATOM     19  H   UNL     1      19.568  -0.017 -13.205  1.00  0.00     0.293 HD
ENDBRANCH  15  18
BRANCH  17  20
ATOM     20  O   UNL     1      17.754   0.943 -15.451  1.00  0.00    -0.504 OA
ATOM     21  H   UNL     1      17.205   1.617 -14.931  1.00  0.00     0.293 HD
ENDBRANCH  17  20
ENDBRANCH   1  12
BRANCH   2  22
ATOM     22  O   UNL     1      20.132   4.257 -18.874  1.00  0.00    -0.502 OA
ATOM     23  H   UNL     1      19.173   4.532 -19.050  1.00  0.00     0.293 HD
ENDBRANCH   2  22
BRANCH   6  24
ATOM     24  O   UNL     1      21.766   3.441 -23.877  1.00  0.00    -0.507 OA
ATOM     25  H   UNL     1      22.200   3.625 -24.769  1.00  0.00     0.293 HD
ENDBRANCH   6  24
BRANCH   8  26
ATOM     26  O   UNL     1      24.000  -0.762 -23.382  1.00  0.00    -0.508 OA
ATOM     27  H   UNL     1      25.005  -0.818 -23.265  1.00  0.00     0.293 HD
ENDBRANCH   8  26
TORSDOF 6
ENDMDL
MODEL 2
REMARK VINA RESULT:    -4.526     20.321     21.986
REMARK INTER + INTRA:          -5.721
REMARK INTER:                  -5.405
REMARK INTRA:                  -0.316
REMARK UNBOUND:                -0.269
REMARK SMILES O=c1c(O)c(-c2ccc(O)c(O)c2)oc2cc(O)cc(O)c12
REMARK SMILES IDX 5 1 3 2 2 3 1 4 22 5 20 6 19 7 17 8 16 9 15 10 14 11 6 12
REMARK SMILES IDX 7 13 8 14 9 15 13 16 11 17 10 18 12 20 4 22 21 24 18 26
REMARK H PARENT 10 19 12 21 4 23 21 25 18 27
REMARK Flexibility Score: inf
ROOT
ATOM      1  C   UNL     1       6.121 -11.894 -25.268  1.00  0.00     0.180 A 
ATOM      2  C   UNL     1       5.025 -11.667 -24.417  1.00  0.00     0.208 A 
ATOM      3  C   UNL     1       5.091 -12.114 -23.088  1.00  0.00     0.238 A 
ATOM      4  O   UNL     1       4.086 -11.955 -22.346  1.00  0.00    -0.285 OA
ATOM      5  C   UNL     1       6.256 -12.768 -22.622  1.00  0.00     0.111 A 
ATOM      6  C   UNL     1       6.447 -13.227 -21.283  1.00  0.00     0.134 A 
ATOM      7  C   UNL     1       7.587 -13.978 -20.967  1.00  0.00     0.093 A 
ATOM      8  C   UNL     1       8.571 -14.229 -21.922  1.00  0.00     0.123 A 
ATOM      9  C   UNL     1       8.422 -13.735 -23.218  1.00  0.00     0.094 A 
ATOM     10  C   UNL     1       7.279 -13.014 -23.574  1.00  0.00     0.146 A 
ATOM     11  O   UNL     1       7.172 -12.570 -24.820  1.00  0.00    -0.452 OA
ENDROOT
BRANCH   1  12
ATOM     12  C   UNL     1       6.135 -11.431 -26.675  1.00  0.00     0.025 A 
ATOM     13  C   UNL     1       5.881 -12.348 -27.707  1.00  0.00     0.016 A 
ATOM     14  C   UNL     1       5.912 -11.937 -29.042  1.00  0.00     0.051 A 
ATOM     15  C   UNL     1       6.211 -10.608 -29.364  1.00  0.00     0.157 A 
ATOM     16  C   UNL     1       6.455 -10.101 -27.004  1.00  0.00     0.062 A 
ATOM     17  C   UNL     1       6.487  -9.689 -28.344  1.00  0.00     0.158 A 
BRANCH  15  18
ATOM     18  O   UNL     1       6.240 -10.193 -30.695  1.00  0.00    -0.504 OA
ATOM     19  H   UNL     1       5.862 -10.769 -31.438  1.00  0.00     0.293 HD
ENDBRANCH  15  18
BRANCH  17  20
ATOM     20  O   UNL     1       6.799  -8.369 -28.669  1.00  0.00    -0.504 OA
ATOM     21  H   UNL     1       6.616  -7.994 -29.592  1.00  0.00     0.293 HD
ENDBRANCH  17  20
ENDBRANCH   1  12
BRANCH   2  22
ATOM     22  O   UNL     1       3.875 -11.038 -24.904  1.00  0.00    -0.502 OA
ATOM     23  H   UNL     1       3.799 -10.031 -24.985  1.00  0.00     0.293 HD
ENDBRANCH   2  22
BRANCH   6  24
ATOM     24  O   UNL     1       5.569 -12.951 -20.230  1.00  0.00    -0.507 OA
ATOM     25  H   UNL     1       4.564 -12.940 -20.309  1.00  0.00     0.293 HD
ENDBRANCH   6  24
BRANCH   8  26
ATOM     26  O   UNL     1       9.699 -14.966 -21.568  1.00  0.00    -0.508 OA
ATOM     27  H   UNL     1      10.252 -15.456 -22.262  1.00  0.00     0.293 HD
ENDBRANCH   8  26
TORSDOF 6
ENDMDL
MODEL 3
REMARK VINA RESULT:    -4.435      1.579      7.162
REMARK INTER + INTRA:          -5.612
REMARK INTER:                  -5.316
REMARK INTRA:                  -0.296
REMARK UNBOUND:                -0.269
REMARK SMILES O=c1c(O)c(-c2ccc(O)c(O)c2)oc2cc(O)cc(O)c12
REMARK SMILES IDX 5 1 3 2 2 3 1 4 22 5 20 6 19 7 17 8 16 9 15 10 14 11 6 12
REMARK SMILES IDX 7 13 8 14 9 15 13 16 11 17 10 18 12 20 4 22 21 24 18 26
REMARK H PARENT 10 19 12 21 4 23 21 25 18 27
REMARK Flexibility Score: inf
ROOT
ATOM      1  C   UNL     1      21.119   1.345 -18.688  1.00  0.00     0.180 A 
ATOM      2  C   UNL     1      22.121   1.491 -17.713  1.00  0.00     0.208 A 
ATOM      3  C   UNL     1      21.746   1.729 -16.381  1.00  0.00     0.238 A 
ATOM      4  O   UNL     1      22.648   1.912 -15.523  1.00  0.00    -0.285 OA
ATOM      5  C   UNL     1      20.375   1.802 -16.037  1.00  0.00     0.111 A 
ATOM      6  C   UNL     1      19.881   1.998 -14.713  1.00  0.00     0.134 A 
ATOM      7  C   UNL     1      18.508   2.185 -14.509  1.00  0.00     0.093 A 
ATOM      8  C   UNL     1      17.606   2.116 -15.570  1.00  0.00     0.123 A 
ATOM      9  C   UNL     1      18.073   1.866 -16.861  1.00  0.00     0.094 A 
ATOM     10  C   UNL     1      19.440   1.712 -17.102  1.00  0.00     0.146 A 
ATOM     11  O   UNL     1      19.844   1.485 -18.345  1.00  0.00    -0.452 OA
ENDROOT
BRANCH   1  12
ATOM     12  C   UNL     1      21.435   1.069 -20.108  1.00  0.00     0.025 A 
ATOM     13  C   UNL     1      21.766  -0.238 -20.501  1.00  0.00     0.016 A 
ATOM     14  C   UNL     1      22.089  -0.516 -21.832  1.00  0.00     0.051 A 
ATOM     15  C   UNL     1      22.100   0.510 -22.785  1.00  0.00     0.157 A 
ATOM     16  C   UNL     1      21.468   2.101 -21.064  1.00  0.00     0.062 A 
ATOM     17  C   UNL     1      21.793   1.822 -22.400  1.00  0.00     0.158 A 
BRANCH  15  18
ATOM     18  O   UNL     1      22.420   0.237 -24.114  1.00  0.00    -0.504 OA
ATOM     19  H   UNL     1      21.804  -0.309 -24.705  1.00  0.00     0.293 HD
ENDBRANCH  15  18
BRANCH  17  20
ATOM     20  O   UNL     1      21.820   2.844 -23.348  1.00  0.00    -0.504 OA
ATOM     21  H   UNL     1      21.534   3.787 -23.118  1.00  0.00     0.293 HD
ENDBRANCH  17  20
ENDBRANCH   1  12
BRANCH   2  22
ATOM     22  O   UNL     1      23.470   1.438 -18.078  1.00  0.00    -0.502 OA
ATOM     23  H   UNL     1      23.847   0.698 -18.658  1.00  0.00     0.293 HD
ENDBRANCH   2  22
BRANCH   6  24
ATOM     24  O   UNL     1      20.687   1.990 -13.570  1.00  0.00    -0.507 OA
ATOM     25  H   UNL     1      21.149   2.801 -13.188  1.00  0.00     0.293 HD
ENDBRANCH   6  24
BRANCH   8  26
ATOM     26  O   UNL     1      16.246   2.291 -15.327  1.00  0.00    -0.508 OA
ATOM     27  H   UNL     1      15.883   3.155 -14.939  1.00  0.00     0.293 HD
ENDBRANCH   8  26
TORSDOF 6
ENDMDL
MODEL 4
REMARK VINA RESULT:    -4.401     16.199     17.129
REMARK INTER + INTRA:          -5.570
REMARK INTER:                  -5.268
REMARK INTRA:                  -0.303
REMARK UNBOUND:                -0.269
REMARK SMILES O=c1c(O)c(-c2ccc(O)c(O)c2)oc2cc(O)cc(O)c12
REMARK SMILES IDX 5 1 3 2 2 3 1 4 22 5 20 6 19 7 17 8 16 9 15 10 14 11 6 12
REMARK SMILES IDX 7 13 8 14 9 15 13 16 11 17 10 18 12 20 4 22 21 24 18 26
REMARK H PARENT 10 19 12 21 4 23 21 25 18 27
REMARK Flexibility Score: inf
ROOT
ATOM      1  C   UNL     1       6.376   2.073 -27.065  1.00  0.00     0.180 A 
ATOM      2  C   UNL     1       7.732   2.292 -27.363  1.00  0.00     0.208 A 
ATOM      3  C   UNL     1       8.216   1.935 -28.632  1.00  0.00     0.238 A 
ATOM      4  O   UNL     1       9.442   2.084 -28.875  1.00  0.00    -0.285 OA
ATOM      5  C   UNL     1       7.336   1.378 -29.590  1.00  0.00     0.111 A 
ATOM      6  C   UNL     1       7.710   1.017 -30.920  1.00  0.00     0.134 A 
ATOM      7  C   UNL     1       6.788   0.354 -31.740  1.00  0.00     0.093 A 
ATOM      8  C   UNL     1       5.489   0.098 -31.303  1.00  0.00     0.123 A 
ATOM      9  C   UNL     1       5.095   0.500 -30.026  1.00  0.00     0.094 A 
ATOM     10  C   UNL     1       6.003   1.131 -29.172  1.00  0.00     0.146 A 
ATOM     11  O   UNL     1       5.592   1.488 -27.962  1.00  0.00    -0.452 OA
ENDROOT
BRANCH   1  12
ATOM     12  C   UNL     1       5.787   2.445 -25.758  1.00  0.00     0.025 A 
ATOM     13  C   UNL     1       5.137   3.682 -25.619  1.00  0.00     0.016 A 
ATOM     14  C   UNL     1       4.594   4.063 -24.390  1.00  0.00     0.051 A 
ATOM     15  C   UNL     1       4.705   3.219 -23.278  1.00  0.00     0.157 A 
ATOM     16  C   UNL     1       5.914   1.610 -24.633  1.00  0.00     0.062 A 
ATOM     17  C   UNL     1       5.370   1.992 -23.398  1.00  0.00     0.158 A 
BRANCH  15  18
ATOM     18  O   UNL     1       4.162   3.594 -22.050  1.00  0.00    -0.504 OA
ATOM     19  H   UNL     1       3.164   3.558 -21.878  1.00  0.00     0.293 HD
ENDBRANCH  15  18
BRANCH  17  20
ATOM     20  O   UNL     1       5.491   1.161 -22.285  1.00  0.00    -0.504 OA
ATOM     21  H   UNL     1       5.773   0.193 -22.376  1.00  0.00     0.293 HD
ENDBRANCH  17  20
ENDBRANCH   1  12
BRANCH   2  22
ATOM     22  O   UNL     1       8.589   2.822 -26.394  1.00  0.00    -0.502 OA
ATOM     23  H   UNL     1       9.472   3.259 -26.629  1.00  0.00     0.293 HD
ENDBRANCH   2  22
BRANCH   6  24
ATOM     24  O   UNL     1       8.953   1.310 -31.488  1.00  0.00    -0.507 OA
ATOM     25  H   UNL     1       9.843   1.084 -31.070  1.00  0.00     0.293 HD
ENDBRANCH   6  24
BRANCH   8  26
ATOM     26  O   UNL     1       4.594  -0.550 -32.152  1.00  0.00    -0.508 OA
ATOM     27  H   UNL     1       3.598  -0.563 -31.962  1.00  0.00     0.293 HD
ENDBRANCH   8  26
TORSDOF 6
ENDMDL
MODEL 5
REMARK VINA RESULT:    -4.380     20.845     22.339
REMARK INTER + INTRA:          -5.545
REMARK INTER:                  -5.374
REMARK INTRA:                  -0.171
REMARK UNBOUND:                -0.269
REMARK SMILES O=c1c(O)c(-c2ccc(O)c(O)c2)oc2cc(O)cc(O)c12
REMARK SMILES IDX 5 1 3 2 2 3 1 4 22 5 20 6 19 7 17 8 16 9 15 10 14 11 6 12
REMARK SMILES IDX 7 13 8 14 9 15 13 16 11 17 10 18 12 20 4 22 21 24 18 26
REMARK H PARENT 10 19 12 21 4 23 21 25 18 27
REMARK Flexibility Score: inf
ROOT
ATOM      1  C   UNL     1       6.233 -11.113 -27.726  1.00  0.00     0.180 A 
ATOM      2  C   UNL     1       7.107 -12.158 -28.071  1.00  0.00     0.208 A 
ATOM      3  C   UNL     1       7.460 -13.102 -27.093  1.00  0.00     0.238 A 
ATOM      4  O   UNL     1       8.285 -14.004 -27.393  1.00  0.00    -0.285 OA
ATOM      5  C   UNL     1       6.923 -12.998 -25.788  1.00  0.00     0.111 A 
ATOM      6  C   UNL     1       7.180 -13.921 -24.729  1.00  0.00     0.134 A 
ATOM      7  C   UNL     1       6.700 -13.647 -23.443  1.00  0.00     0.093 A 
ATOM      8  C   UNL     1       5.918 -12.521 -23.190  1.00  0.00     0.123 A 
ATOM      9  C   UNL     1       5.611 -11.643 -24.230  1.00  0.00     0.094 A 
ATOM     10  C   UNL     1       6.106 -11.870 -25.517  1.00  0.00     0.146 A 
ATOM     11  O   UNL     1       5.799 -11.005 -26.476  1.00  0.00    -0.452 OA
ENDROOT
BRANCH   1  12
ATOM     12  C   UNL     1       5.796 -10.094 -28.708  1.00  0.00     0.025 A 
ATOM     13  C   UNL     1       5.017 -10.485 -29.809  1.00  0.00     0.016 A 
ATOM     14  C   UNL     1       4.613  -9.544 -30.760  1.00  0.00     0.051 A 
ATOM     15  C   UNL     1       4.994  -8.203 -30.631  1.00  0.00     0.157 A 
ATOM     16  C   UNL     1       6.194  -8.750 -28.594  1.00  0.00     0.062 A 
ATOM     17  C   UNL     1       5.789  -7.805 -29.549  1.00  0.00     0.158 A 
BRANCH  15  18
ATOM     18  O   UNL     1       4.590  -7.260 -31.576  1.00  0.00    -0.504 OA
ATOM     19  H   UNL     1       4.255  -6.344 -31.301  1.00  0.00     0.293 HD
ENDBRANCH  15  18
BRANCH  17  20
ATOM     20  O   UNL     1       6.178  -6.471 -29.431  1.00  0.00    -0.504 OA
ATOM     21  H   UNL     1       7.131  -6.180 -29.610  1.00  0.00     0.293 HD
ENDBRANCH  17  20
ENDBRANCH   1  12
BRANCH   2  22
ATOM     22  O   UNL     1       7.644 -12.230 -29.360  1.00  0.00    -0.502 OA
ATOM     23  H   UNL     1       7.065 -12.328 -30.185  1.00  0.00     0.293 HD
ENDBRANCH   2  22
BRANCH   6  24
ATOM     24  O   UNL     1       7.872 -15.125 -24.895  1.00  0.00    -0.507 OA
ATOM     25  H   UNL     1       7.654 -15.822 -25.590  1.00  0.00     0.293 HD
ENDBRANCH   6  24
BRANCH   8  26
ATOM     26  O   UNL     1       5.445 -12.289 -21.901  1.00  0.00    -0.508 OA
ATOM     27  H   UNL     1       5.616 -12.944 -21.147  1.00  0.00     0.293 HD
ENDBRANCH   8  26
TORSDOF 6
ENDMDL
MODEL 6
REMARK VINA RESULT:    -4.316      1.955      2.826
REMARK INTER + INTRA:          -5.469
REMARK INTER:                  -5.204
REMARK INTRA:                  -0.265
REMARK UNBOUND:                -0.269
REMARK SMILES O=c1c(O)c(-c2ccc(O)c(O)c2)oc2cc(O)cc(O)c12
REMARK SMILES IDX 5 1 3 2 2 3 1 4 22 5 20 6 19 7 17 8 16 9 15 10 14 11 6 12
REMARK SMILES IDX 7 13 8 14 9 15 13 16 11 17 10 18 12 20 4 22 21 24 18 26
REMARK H PARENT 10 19 12 21 4 23 21 25 18 27
REMARK Flexibility Score: inf
ROOT
ATOM      1  C   UNL     1      19.245   1.910 -17.217  1.00  0.00     0.180 A 
ATOM      2  C   UNL     1      19.632   3.255 -17.352  1.00  0.00     0.208 A 
ATOM      3  C   UNL     1      20.411   3.631 -18.458  1.00  0.00     0.238 A 
ATOM      4  O   UNL     1      20.800   4.825 -18.545  1.00  0.00    -0.285 OA
ATOM      5  C   UNL     1      20.779   2.664 -19.422  1.00  0.00     0.111 A 
ATOM      6  C   UNL     1      21.532   2.942 -20.603  1.00  0.00     0.134 A 
ATOM      7  C   UNL     1      21.951   1.884 -21.420  1.00  0.00     0.093 A 
ATOM      8  C   UNL     1      21.589   0.568 -21.136  1.00  0.00     0.123 A 
ATOM      9  C   UNL     1      20.802   0.291 -20.017  1.00  0.00     0.094 A 
ATOM     10  C   UNL     1      20.400   1.321 -19.163  1.00  0.00     0.146 A 
ATOM     11  O   UNL     1      19.662   1.014 -18.103  1.00  0.00    -0.452 OA
ENDROOT
BRANCH   1  12
ATOM     12  C   UNL     1      18.404   1.441 -16.092  1.00  0.00     0.025 A 
ATOM     13  C   UNL     1      18.970   0.626 -15.099  1.00  0.00     0.016 A 
ATOM     14  C   UNL     1      18.189   0.155 -14.040  1.00  0.00     0.051 A 
ATOM     15  C   UNL     1      16.829   0.480 -13.967  1.00  0.00     0.157 A 
ATOM     16  C   UNL     1      17.033   1.749 -16.026  1.00  0.00     0.062 A 
ATOM     17  C   UNL     1      16.248   1.275 -14.964  1.00  0.00     0.158 A 
BRANCH  15  18
ATOM     18  O   UNL     1      16.047   0.014 -12.912  1.00  0.00    -0.504 OA
ATOM     19  H   UNL     1      16.387  -0.695 -12.273  1.00  0.00     0.293 HD
ENDBRANCH  15  18
BRANCH  17  20
ATOM     20  O   UNL     1      14.891   1.585 -14.896  1.00  0.00    -0.504 OA
ATOM     21  H   UNL     1      14.268   1.408 -15.674  1.00  0.00     0.293 HD
ENDBRANCH  17  20
ENDBRANCH   1  12
BRANCH   2  22
ATOM     22  O   UNL     1      19.277   4.190 -16.376  1.00  0.00    -0.502 OA
ATOM     23  H   UNL     1      18.731   5.017 -16.588  1.00  0.00     0.293 HD
ENDBRANCH   2  22
BRANCH   6  24
ATOM     24  O   UNL     1      21.869   4.230 -21.029  1.00  0.00    -0.507 OA
ATOM     25  H   UNL     1      21.954   4.512 -21.994  1.00  0.00     0.293 HD
ENDBRANCH   6  24
BRANCH   8  26
ATOM     26  O   UNL     1      22.010  -0.458 -21.980  1.00  0.00    -0.508 OA
ATOM     27  H   UNL     1      22.993  -0.631 -22.154  1.00  0.00     0.293 HD
ENDBRANCH   8  26
TORSDOF 6
ENDMDL
MODEL 7
REMARK VINA RESULT:    -4.250      2.906      7.551
REMARK INTER + INTRA:          -5.388
REMARK INTER:                  -5.071
REMARK INTRA:                  -0.317
REMARK UNBOUND:                -0.269
REMARK SMILES O=c1c(O)c(-c2ccc(O)c(O)c2)oc2cc(O)cc(O)c12
REMARK SMILES IDX 5 1 3 2 2 3 1 4 22 5 20 6 19 7 17 8 16 9 15 10 14 11 6 12
REMARK SMILES IDX 7 13 8 14 9 15 13 16 11 17 10 18 12 20 4 22 21 24 18 26
REMARK H PARENT 10 19 12 21 4 23 21 25 18 27
REMARK Flexibility Score: inf
ROOT
ATOM      1  C   UNL     1      18.661   1.929 -16.585  1.00  0.00     0.180 A 
ATOM      2  C   UNL     1      18.143   3.234 -16.656  1.00  0.00     0.208 A 
ATOM      3  C   UNL     1      16.918   3.516 -16.029  1.00  0.00     0.238 A 
ATOM      4  O   UNL     1      16.434   4.672 -16.142  1.00  0.00    -0.285 OA
ATOM      5  C   UNL     1      16.235   2.495 -15.328  1.00  0.00     0.111 A 
ATOM      6  C   UNL     1      15.007   2.678 -14.622  1.00  0.00     0.134 A 
ATOM      7  C   UNL     1      14.354   1.567 -14.073  1.00  0.00     0.093 A 
ATOM      8  C   UNL     1      14.915   0.293 -14.147  1.00  0.00     0.123 A 
ATOM      9  C   UNL     1      16.144   0.111 -14.783  1.00  0.00     0.094 A 
ATOM     10  C   UNL     1      16.802   1.194 -15.371  1.00  0.00     0.146 A 
ATOM     11  O   UNL     1      17.964   0.978 -15.976  1.00  0.00    -0.452 OA
ENDROOT
BRANCH   1  12
ATOM     12  C   UNL     1      19.957   1.561 -17.199  1.00  0.00     0.025 A 
ATOM     13  C   UNL     1      21.148   1.796 -16.493  1.00  0.00     0.016 A 
ATOM     14  C   UNL     1      22.383   1.477 -17.063  1.00  0.00     0.051 A 
ATOM     15  C   UNL     1      22.446   0.933 -18.351  1.00  0.00     0.157 A 
ATOM     16  C   UNL     1      20.027   1.034 -18.501  1.00  0.00     0.062 A 
ATOM     17  C   UNL     1      21.267   0.715 -19.074  1.00  0.00     0.158 A 
BRANCH  15  18
ATOM     18  O   UNL     1      23.677   0.611 -18.923  1.00  0.00    -0.504 OA
ATOM     19  H   UNL     1      24.178  -0.230 -18.662  1.00  0.00     0.293 HD
ENDBRANCH  15  18
BRANCH  17  20
ATOM     20  O   UNL     1      21.334   0.187 -20.363  1.00  0.00    -0.504 OA
ATOM     21  H   UNL     1      22.203  -0.165 -20.746  1.00  0.00     0.293 HD
ENDBRANCH  17  20
ENDBRANCH   1  12
BRANCH   2  22
ATOM     22  O   UNL     1      18.823   4.223 -17.373  1.00  0.00    -0.502 OA
ATOM     23  H   UNL     1      18.686   4.365 -18.366  1.00  0.00     0.293 HD
ENDBRANCH   2  22
BRANCH   6  24
ATOM     24  O   UNL     1      14.407   3.923 -14.410  1.00  0.00    -0.507 OA
ATOM     25  H   UNL     1      13.444   4.139 -14.617  1.00  0.00     0.293 HD
ENDBRANCH   6  24
BRANCH   8  26
ATOM     26  O   UNL     1      14.244  -0.787 -13.576  1.00  0.00    -0.508 OA
ATOM     27  H   UNL     1      14.442  -1.093 -12.630  1.00  0.00     0.293 HD
ENDBRANCH   8  26
TORSDOF 6
ENDMDL
MODEL 8
REMARK VINA RESULT:    -4.228     20.532     22.174
REMARK INTER + INTRA:          -5.362
REMARK INTER:                  -5.226
REMARK INTRA:                  -0.136
REMARK UNBOUND:                -0.269
REMARK SMILES O=c1c(O)c(-c2ccc(O)c(O)c2)oc2cc(O)cc(O)c12
REMARK SMILES IDX 5 1 3 2 2 3 1 4 22 5 20 6 19 7 17 8 16 9 15 10 14 11 6 12
REMARK SMILES IDX 7 13 8 14 9 15 13 16 11 17 10 18 12 20 4 22 21 24 18 26
REMARK H PARENT 10 19 12 21 4 23 21 25 18 27
REMARK Flexibility Score: inf
ROOT
ATOM      1  C   UNL     1       6.858 -12.939 -23.031  1.00  0.00     0.180 A 
ATOM      2  C   UNL     1       8.100 -13.534 -22.752  1.00  0.00     0.208 A 
ATOM      3  C   UNL     1       8.356 -13.998 -21.452  1.00  0.00     0.238 A 
ATOM      4  O   UNL     1       9.490 -14.481 -21.195  1.00  0.00    -0.285 OA
ATOM      5  C   UNL     1       7.363 -13.876 -20.452  1.00  0.00     0.111 A 
ATOM      6  C   UNL     1       7.499 -14.348 -19.112  1.00  0.00     0.134 A 
ATOM      7  C   UNL     1       6.502 -14.056 -18.172  1.00  0.00     0.093 A 
ATOM      8  C   UNL     1       5.346 -13.368 -18.539  1.00  0.00     0.123 A 
ATOM      9  C   UNL     1       5.175 -12.954 -19.860  1.00  0.00     0.094 A 
ATOM     10  C   UNL     1       6.168 -13.199 -20.812  1.00  0.00     0.146 A 
ATOM     11  O   UNL     1       5.972 -12.779 -22.056  1.00  0.00    -0.452 OA
ENDROOT
BRANCH   1  12
ATOM     12  C   UNL     1       6.505 -12.448 -24.384  1.00  0.00     0.025 A 
ATOM     13  C   UNL     1       6.131 -11.106 -24.556  1.00  0.00     0.016 A 
ATOM     14  C   UNL     1       5.773 -10.627 -25.819  1.00  0.00     0.051 A 
ATOM     15  C   UNL     1       5.771 -11.487 -26.924  1.00  0.00     0.157 A 
ATOM     16  C   UNL     1       6.482 -13.313 -25.493  1.00  0.00     0.062 A 
ATOM     17  C   UNL     1       6.122 -12.833 -26.761  1.00  0.00     0.158 A 
BRANCH  15  18
ATOM     18  O   UNL     1       5.417 -11.013 -28.187  1.00  0.00    -0.504 OA
ATOM     19  H   UNL     1       4.665 -10.345 -28.310  1.00  0.00     0.293 HD
ENDBRANCH  15  18
BRANCH  17  20
ATOM     20  O   UNL     1       6.105 -13.689 -27.861  1.00  0.00    -0.504 OA
ATOM     21  H   UNL     1       6.414 -13.383 -28.775  1.00  0.00     0.293 HD
ENDBRANCH  17  20
ENDBRANCH   1  12
BRANCH   2  22
ATOM     22  O   UNL     1       9.076 -13.625 -23.749  1.00  0.00    -0.502 OA
ATOM     23  H   UNL     1       9.470 -12.809 -24.201  1.00  0.00     0.293 HD
ENDBRANCH   2  22
BRANCH   6  24
ATOM     24  O   UNL     1       8.572 -15.125 -18.663  1.00  0.00    -0.507 OA
ATOM     25  H   UNL     1       8.481 -15.978 -18.133  1.00  0.00     0.293 HD
ENDBRANCH   6  24
BRANCH   8  26
ATOM     26  O   UNL     1       4.368 -13.109 -17.581  1.00  0.00    -0.508 OA
ATOM     27  H   UNL     1       3.387 -13.050 -17.828  1.00  0.00     0.293 HD
ENDBRANCH   8  26
TORSDOF 6
ENDMDL
MODEL 9
REMARK VINA RESULT:    -4.221     14.794     15.795
REMARK INTER + INTRA:          -5.354
REMARK INTER:                  -5.050
REMARK INTRA:                  -0.303
REMARK UNBOUND:                -0.269
REMARK SMILES O=c1c(O)c(-c2ccc(O)c(O)c2)oc2cc(O)cc(O)c12
REMARK SMILES IDX 5 1 3 2 2 3 1 4 22 5 20 6 19 7 17 8 16 9 15 10 14 11 6 12
REMARK SMILES IDX 7 13 8 14 9 15 13 16 11 17 10 18 12 20 4 22 21 24 18 26
REMARK H PARENT 10 19 12 21 4 23 21 25 18 27
REMARK Flexibility Score: inf
ROOT
ATOM      1  C   UNL     1       8.013   2.979 -27.646  1.00  0.00     0.180 A 
ATOM      2  C   UNL     1       9.065   3.907 -27.556  1.00  0.00     0.208 A 
ATOM      3  C   UNL     1       9.958   4.030 -28.633  1.00  0.00     0.238 A 
ATOM      4  O   UNL     1      10.929   4.823 -28.524  1.00  0.00    -0.285 OA
ATOM      5  C   UNL     1       9.779   3.237 -29.791  1.00  0.00     0.111 A 
ATOM      6  C   UNL     1      10.599   3.308 -30.957  1.00  0.00     0.134 A 
ATOM      7  C   UNL     1      10.408   2.384 -31.993  1.00  0.00     0.093 A 
ATOM      8  C   UNL     1       9.388   1.436 -31.933  1.00  0.00     0.123 A 
ATOM      9  C   UNL     1       8.542   1.396 -30.824  1.00  0.00     0.094 A 
ATOM     10  C   UNL     1       8.730   2.281 -29.759  1.00  0.00     0.146 A 
ATOM     11  O   UNL     1       7.911   2.203 -28.718  1.00  0.00    -0.452 OA
ENDROOT
BRANCH   1  12
ATOM     12  C   UNL     1       7.018   2.809 -26.562  1.00  0.00     0.025 A 
ATOM     13  C   UNL     1       5.949   3.713 -26.457  1.00  0.00     0.016 A 
ATOM     14  C   UNL     1       5.011   3.584 -25.429  1.00  0.00     0.051 A 
ATOM     15  C   UNL     1       5.138   2.559 -24.483  1.00  0.00     0.157 A 
ATOM     16  C   UNL     1       7.153   1.793 -25.598  1.00  0.00     0.062 A 
ATOM     17  C   UNL     1       6.212   1.664 -24.565  1.00  0.00     0.158 A 
BRANCH  15  18
ATOM     18  O   UNL     1       4.203   2.425 -23.457  1.00  0.00    -0.504 OA
ATOM     19  H   UNL     1       3.944   3.210 -22.871  1.00  0.00     0.293 HD
ENDBRANCH  15  18
BRANCH  17  20
ATOM     20  O   UNL     1       6.343   0.654 -23.613  1.00  0.00    -0.504 OA
ATOM     21  H   UNL     1       6.754   0.831 -22.705  1.00  0.00     0.293 HD
ENDBRANCH  17  20
ENDBRANCH   1  12
BRANCH   2  22
ATOM     22  O   UNL     1       9.238   4.664 -26.394  1.00  0.00    -0.502 OA
ATOM     23  H   UNL     1       8.682   4.516 -25.560  1.00  0.00     0.293 HD
ENDBRANCH   2  22
BRANCH   6  24
ATOM     24  O   UNL     1      11.587   4.277 -31.159  1.00  0.00    -0.507 OA
ATOM     25  H   UNL     1      12.483   4.287 -30.696  1.00  0.00     0.293 HD
ENDBRANCH   6  24
BRANCH   8  26
ATOM     26  O   UNL     1       9.218   0.543 -32.989  1.00  0.00    -0.508 OA
ATOM     27  H   UNL     1       9.317  -0.457 -32.858  1.00  0.00     0.293 HD
ENDBRANCH   8  26
TORSDOF 6
ENDMDL
