MODEL 1
REMARK VINA RESULT:    -4.364      0.000      0.000
REMARK INTER + INTRA:          -7.100
REMARK INTER:                  -6.661
REMARK INTRA:                  -0.440
REMARK UNBOUND:                -0.440
REMARK SMILES CCCCCCCCCCC(=O)[O-]
REMARK SMILES IDX 7 1 8 2 9 3 10 4 11 5 12 6 13 7 6 8 5 9 4 10 3 11 2 12 1 13
REMARK H PARENT
REMARK Flexibility Score: inf
ROOT
ATOM      1  C   UNL     1      -5.252  -3.487  -4.457  1.00  0.00     0.000 C 
ENDROOT
BRANCH   1   2
ATOM      2  C   UNL     1      -4.336  -3.513  -5.693  1.00  0.00     0.000 C 
BRANCH   2   3
ATOM      3  C   UNL     1      -3.875  -2.131  -6.192  1.00  0.00     0.006 C 
BRANCH   3   4
ATOM      4  C   UNL     1      -5.044  -1.211  -6.564  1.00  0.00     0.053 C 
BRANCH   4   5
ATOM      5  C   UNL     1      -4.896   0.118  -5.892  1.00  0.00     0.041 C 
ATOM      6  O   UNL     1      -5.656   1.073  -6.201  1.00  0.00    -0.550 OA
ATOM      7  O   UNL     1      -3.951   0.288  -4.888  1.00  0.00    -0.550 OA
ENDBRANCH   4   5
ENDBRANCH   3   4
ENDBRANCH   2   3
ENDBRANCH   1   2
BRANCH   1   8
ATOM      8  C   UNL     1      -4.538  -3.934  -3.172  1.00  0.00     0.000 C 
BRANCH   8   9
ATOM      9  C   UNL     1      -5.525  -4.035  -2.002  1.00  0.00    -0.000 C 
BRANCH   9  10
ATOM     10  C   UNL     1      -5.072  -3.161  -0.823  1.00  0.00    -0.000 C 
BRANCH  10  11
ATOM     11  C   UNL     1      -6.188  -2.922   0.210  1.00  0.00    -0.000 C 
BRANCH  11  12
ATOM     12  C   UNL     1      -7.618  -3.075  -0.338  1.00  0.00    -0.003 C 
ATOM     13  C   UNL     1      -8.453  -4.089   0.443  1.00  0.00     0.004 C 
ENDBRANCH  11  12
ENDBRANCH  10  11
ENDBRANCH   9  10
ENDBRANCH   8   9
ENDBRANCH   1   8
TORSDOF 9
ENDMDL
MODEL 2
REMARK VINA RESULT:    -4.258      1.043      2.077
REMARK INTER + INTRA:          -6.938
REMARK INTER:                  -6.456
REMARK INTRA:                  -0.482
REMARK UNBOUND:                -0.440
REMARK SMILES CCCCCCCCCCC(=O)[O-]
REMARK SMILES IDX 7 1 8 2 9 3 10 4 11 5 12 6 13 7 6 8 5 9 4 10 3 11 2 12 1 13
REMARK H PARENT
REMARK Flexibility Score: inf
ROOT
ATOM      1  C   UNL     1      -4.271  -3.524  -2.531  1.00  0.00     0.000 C 
ENDROOT
BRANCH   1   2
ATOM      2  C   UNL     1      -4.476  -4.200  -3.899  1.00  0.00     0.000 C 
BRANCH   2   3
ATOM      3  C   UNL     1      -5.232  -3.351  -4.938  1.00  0.00     0.006 C 
BRANCH   3   4
ATOM      4  C   UNL     1      -4.357  -2.955  -6.134  1.00  0.00     0.053 C 
BRANCH   4   5
ATOM      5  C   UNL     1      -4.276  -1.465  -6.251  1.00  0.00     0.041 C 
ATOM      6  O   UNL     1      -3.157  -0.895  -6.331  1.00  0.00    -0.550 OA
ATOM      7  O   UNL     1      -5.440  -0.709  -6.319  1.00  0.00    -0.550 OA
ENDBRANCH   4   5
ENDBRANCH   3   4
ENDBRANCH   2   3
ENDBRANCH   1   2
BRANCH   1   8
ATOM      8  C   UNL     1      -5.435  -3.773  -1.559  1.00  0.00     0.000 C 
BRANCH   8   9
ATOM      9  C   UNL     1      -5.237  -2.992  -0.254  1.00  0.00    -0.000 C 
BRANCH   9  10
ATOM     10  C   UNL     1      -6.586  -2.695   0.419  1.00  0.00    -0.000 C 
BRANCH  10  11
ATOM     11  C   UNL     1      -7.783  -3.280  -0.353  1.00  0.00    -0.000 C 
BRANCH  11  12
ATOM     12  C   UNL     1      -8.620  -4.304   0.433  1.00  0.00    -0.003 C 
ATOM     13  C   UNL     1      -8.084  -5.731   0.319  1.00  0.00     0.004 C 
ENDBRANCH  11  12
ENDBRANCH  10  11
ENDBRANCH   9  10
ENDBRANCH   8   9
ENDBRANCH   1   8
TORSDOF 9
ENDMDL
MODEL 3
REMARK VINA RESULT:    -4.112      1.271      2.504
REMARK INTER + INTRA:          -6.716
REMARK INTER:                  -6.073
REMARK INTRA:                  -0.643
REMARK UNBOUND:                -0.440
REMARK SMILES CCCCCCCCCCC(=O)[O-]
REMARK SMILES IDX 7 1 8 2 9 3 10 4 11 5 12 6 13 7 6 8 5 9 4 10 3 11 2 12 1 13
REMARK H PARENT
REMARK Flexibility Score: inf
ROOT
ATOM      1  C   UNL     1      -5.768  -3.788  -2.073  1.00  0.00     0.000 C 
ENDROOT
BRANCH   1   2
ATOM      2  C   UNL     1      -4.683  -3.895  -3.160  1.00  0.00     0.000 C 
BRANCH   2   3
ATOM      3  C   UNL     1      -5.163  -3.595  -4.592  1.00  0.00     0.006 C 
BRANCH   3   4
ATOM      4  C   UNL     1      -4.037  -3.102  -5.508  1.00  0.00     0.053 C 
BRANCH   4   5
ATOM      5  C   UNL     1      -4.391  -1.776  -6.105  1.00  0.00     0.041 C 
ATOM      6  O   UNL     1      -5.587  -1.383  -6.110  1.00  0.00    -0.550 OA
ATOM      7  O   UNL     1      -3.394  -0.952  -6.611  1.00  0.00    -0.550 OA
ENDBRANCH   4   5
ENDBRANCH   3   4
ENDBRANCH   2   3
ENDBRANCH   1   2
BRANCH   1   8
ATOM      8  C   UNL     1      -5.202  -3.398  -0.699  1.00  0.00     0.000 C 
BRANCH   8   9
ATOM      9  C   UNL     1      -6.315  -2.902   0.232  1.00  0.00    -0.000 C 
BRANCH   9  10
ATOM     10  C   UNL     1      -7.701  -3.225  -0.346  1.00  0.00    -0.000 C 
BRANCH  10  11
ATOM     11  C   UNL     1      -8.529  -4.151   0.563  1.00  0.00    -0.000 C 
BRANCH  11  12
ATOM     12  C   UNL     1      -7.802  -5.428   1.018  1.00  0.00    -0.003 C 
ATOM     13  C   UNL     1      -7.597  -6.436  -0.113  1.00  0.00     0.004 C 
ENDBRANCH  11  12
ENDBRANCH  10  11
ENDBRANCH   9  10
ENDBRANCH   8   9
ENDBRANCH   1   8
TORSDOF 9
ENDMDL
MODEL 4
REMARK VINA RESULT:    -3.998      3.754      6.772
REMARK INTER + INTRA:          -6.542
REMARK INTER:                  -6.105
REMARK INTRA:                  -0.437
REMARK UNBOUND:                -0.440
REMARK SMILES CCCCCCCCCCC(=O)[O-]
REMARK SMILES IDX 7 1 8 2 9 3 10 4 11 5 12 6 13 7 6 8 5 9 4 10 3 11 2 12 1 13
REMARK H PARENT
REMARK Flexibility Score: inf
ROOT
ATOM      1  C   UNL     1      -5.621  -3.807  -1.552  1.00  0.00     0.000 C 
ENDROOT
BRANCH   1   2
ATOM      2  C   UNL     1      -5.586  -2.894  -0.313  1.00  0.00     0.000 C 
BRANCH   2   3
ATOM      3  C   UNL     1      -6.706  -3.146   0.714  1.00  0.00     0.006 C 
BRANCH   3   4
ATOM      4  C   UNL     1      -8.055  -3.465   0.059  1.00  0.00     0.053 C 
BRANCH   4   5
ATOM      5  C   UNL     1      -8.579  -4.776   0.554  1.00  0.00     0.041 C 
ATOM      6  O   UNL     1      -9.570  -4.810   1.331  1.00  0.00    -0.550 OA
ATOM      7  O   UNL     1      -8.004  -5.963   0.119  1.00  0.00    -0.550 OA
ENDBRANCH   4   5
ENDBRANCH   3   4
ENDBRANCH   2   3
ENDBRANCH   1   2
BRANCH   1   8
ATOM      8  C   UNL     1      -4.560  -3.435  -2.599  1.00  0.00     0.000 C 
BRANCH   8   9
ATOM      9  C   UNL     1      -4.718  -4.285  -3.867  1.00  0.00    -0.000 C 
BRANCH   9  10
ATOM     10  C   UNL     1      -5.207  -3.429  -5.045  1.00  0.00    -0.000 C 
BRANCH  10  11
ATOM     11  C   UNL     1      -4.058  -2.726  -5.792  1.00  0.00    -0.000 C 
BRANCH  11  12
ATOM     12  C   UNL     1      -4.012  -1.199  -5.615  1.00  0.00    -0.003 C 
ATOM     13  C   UNL     1      -5.216  -0.487  -6.230  1.00  0.00     0.004 C 
ENDBRANCH  11  12
ENDBRANCH  10  11
ENDBRANCH   9  10
ENDBRANCH   8   9
ENDBRANCH   1   8
TORSDOF 9
ENDMDL
MODEL 5
REMARK VINA RESULT:    -3.996      2.963      5.973
REMARK INTER + INTRA:          -6.539
REMARK INTER:                  -5.873
REMARK INTRA:                  -0.666
REMARK UNBOUND:                -0.440
REMARK SMILES CCCCCCCCCCC(=O)[O-]
REMARK SMILES IDX 7 1 8 2 9 3 10 4 11 5 12 6 13 7 6 8 5 9 4 10 3 11 2 12 1 13
REMARK H PARENT
REMARK Flexibility Score: inf
ROOT
ATOM      1  C   UNL     1      -5.308  -3.286  -4.469  1.00  0.00     0.000 C 
ENDROOT
BRANCH   1   2
ATOM      2  C   UNL     1      -5.037  -4.219  -3.275  1.00  0.00     0.000 C 
BRANCH   2   3
ATOM      3  C   UNL     1      -5.188  -3.566  -1.890  1.00  0.00     0.006 C 
BRANCH   3   4
ATOM      4  C   UNL     1      -6.103  -4.362  -0.951  1.00  0.00     0.053 C 
BRANCH   4   5
ATOM      5  C   UNL     1      -7.070  -3.448  -0.266  1.00  0.00     0.041 C 
ATOM      6  O   UNL     1      -6.656  -2.425   0.339  1.00  0.00    -0.550 OA
ATOM      7  O   UNL     1      -8.435  -3.700  -0.338  1.00  0.00    -0.550 OA
ENDBRANCH   4   5
ENDBRANCH   3   4
ENDBRANCH   2   3
ENDBRANCH   1   2
BRANCH   1   8
ATOM      8  C   UNL     1      -4.443  -3.616  -5.696  1.00  0.00     0.000 C 
BRANCH   8   9
ATOM      9  C   UNL     1      -4.071  -2.341  -6.464  1.00  0.00    -0.000 C 
BRANCH   9  10
ATOM     10  C   UNL     1      -5.002  -1.179  -6.086  1.00  0.00    -0.000 C 
BRANCH  10  11
ATOM     11  C   UNL     1      -4.272   0.174  -6.013  1.00  0.00    -0.000 C 
BRANCH  11  12
ATOM     12  C   UNL     1      -2.977   0.165  -5.183  1.00  0.00    -0.003 C 
ATOM     13  C   UNL     1      -3.203  -0.229  -3.724  1.00  0.00     0.004 C 
ENDBRANCH  11  12
ENDBRANCH  10  11
ENDBRANCH   9  10
ENDBRANCH   8   9
ENDBRANCH   1   8
TORSDOF 9
ENDMDL
MODEL 6
REMARK VINA RESULT:    -3.981      2.838      5.106
REMARK INTER + INTRA:          -6.515
REMARK INTER:                  -5.603
REMARK INTRA:                  -0.913
REMARK UNBOUND:                -0.440
REMARK SMILES CCCCCCCCCCC(=O)[O-]
REMARK SMILES IDX 7 1 8 2 9 3 10 4 11 5 12 6 13 7 6 8 5 9 4 10 3 11 2 12 1 13
REMARK H PARENT
REMARK Flexibility Score: inf
ROOT
ATOM      1  C   UNL     1      -7.388  -3.162  -0.439  1.00  0.00     0.000 C 
ENDROOT
BRANCH   1   2
ATOM      2  C   UNL     1      -5.974  -3.329   0.148  1.00  0.00     0.000 C 
BRANCH   2   3
ATOM      3  C   UNL     1      -5.018  -4.195  -0.693  1.00  0.00     0.006 C 
BRANCH   3   4
ATOM      4  C   UNL     1      -5.518  -4.417  -2.126  1.00  0.00     0.053 C 
BRANCH   4   5
ATOM      5  C   UNL     1      -4.575  -3.797  -3.108  1.00  0.00     0.041 C 
ATOM      6  O   UNL     1      -4.143  -2.628  -2.923  1.00  0.00    -0.550 OA
ATOM      7  O   UNL     1      -4.134  -4.527  -4.205  1.00  0.00    -0.550 OA
ENDBRANCH   4   5
ENDBRANCH   3   4
ENDBRANCH   2   3
ENDBRANCH   1   2
BRANCH   1   8
ATOM      8  C   UNL     1      -8.421  -4.093   0.216  1.00  0.00     0.000 C 
BRANCH   8   9
ATOM      9  C   UNL     1      -7.874  -4.689   1.519  1.00  0.00    -0.000 C 
BRANCH   9  10
ATOM     10  C   UNL     1      -7.991  -6.221   1.515  1.00  0.00    -0.000 C 
BRANCH  10  11
ATOM     11  C   UNL     1      -7.609  -6.847   0.161  1.00  0.00    -0.000 C 
BRANCH  11  12
ATOM     12  C   UNL     1      -6.867  -8.192   0.258  1.00  0.00    -0.003 C 
ATOM     13  C   UNL     1      -7.769  -9.394  -0.015  1.00  0.00     0.004 C 
ENDBRANCH  11  12
ENDBRANCH  10  11
ENDBRANCH   9  10
ENDBRANCH   8   9
ENDBRANCH   1   8
TORSDOF 9
ENDMDL
MODEL 7
REMARK VINA RESULT:    -3.906      2.874      4.160
REMARK INTER + INTRA:          -6.400
REMARK INTER:                  -5.345
REMARK INTRA:                  -1.055
REMARK UNBOUND:                -0.440
REMARK SMILES CCCCCCCCCCC(=O)[O-]
REMARK SMILES IDX 7 1 8 2 9 3 10 4 11 5 12 6 13 7 6 8 5 9 4 10 3 11 2 12 1 13
REMARK H PARENT
REMARK Flexibility Score: inf
ROOT
ATOM      1  C   UNL     1      -4.803  -1.324  -6.534  1.00  0.00     0.000 C 
ENDROOT
BRANCH   1   2
ATOM      2  C   UNL     1      -3.612  -0.421  -6.162  1.00  0.00     0.000 C 
BRANCH   2   3
ATOM      3  C   UNL     1      -3.847   0.499  -4.950  1.00  0.00     0.006 C 
BRANCH   3   4
ATOM      4  C   UNL     1      -4.640   1.763  -5.305  1.00  0.00     0.053 C 
BRANCH   4   5
ATOM      5  C   UNL     1      -3.820   2.669  -6.168  1.00  0.00     0.041 C 
ATOM      6  O   UNL     1      -2.603   2.861  -5.909  1.00  0.00    -0.550 OA
ATOM      7  O   UNL     1      -4.387   3.265  -7.287  1.00  0.00    -0.550 OA
ENDBRANCH   4   5
ENDBRANCH   3   4
ENDBRANCH   2   3
ENDBRANCH   1   2
BRANCH   1   8
ATOM      8  C   UNL     1      -5.143  -2.347  -5.439  1.00  0.00     0.000 C 
BRANCH   8   9
ATOM      9  C   UNL     1      -4.402  -3.669  -5.675  1.00  0.00    -0.000 C 
BRANCH   9  10
ATOM     10  C   UNL     1      -3.638  -4.104  -4.415  1.00  0.00    -0.000 C 
BRANCH  10  11
ATOM     11  C   UNL     1      -3.961  -3.232  -3.188  1.00  0.00    -0.000 C 
BRANCH  11  12
ATOM     12  C   UNL     1      -2.814  -2.316  -2.727  1.00  0.00    -0.003 C 
ATOM     13  C   UNL     1      -1.570  -2.424  -3.607  1.00  0.00     0.004 C 
ENDBRANCH  11  12
ENDBRANCH  10  11
ENDBRANCH   9  10
ENDBRANCH   8   9
ENDBRANCH   1   8
TORSDOF 9
ENDMDL
MODEL 8
REMARK VINA RESULT:    -3.880      5.603     10.164
REMARK INTER + INTRA:          -6.361
REMARK INTER:                  -5.933
REMARK INTRA:                  -0.428
REMARK UNBOUND:                -0.440
REMARK SMILES CCCCCCCCCCC(=O)[O-]
REMARK SMILES IDX 7 1 8 2 9 3 10 4 11 5 12 6 13 7 6 8 5 9 4 10 3 11 2 12 1 13
REMARK H PARENT
REMARK Flexibility Score: inf
ROOT
ATOM      1  C   UNL     1      -1.907   2.713  -8.443  1.00  0.00     0.000 C 
ENDROOT
BRANCH   1   2
ATOM      2  C   UNL     1      -2.514   3.390  -7.200  1.00  0.00     0.000 C 
BRANCH   2   3
ATOM      3  C   UNL     1      -3.997   3.067  -6.941  1.00  0.00     0.006 C 
BRANCH   3   4
ATOM      4  C   UNL     1      -4.207   2.164  -5.720  1.00  0.00     0.053 C 
BRANCH   4   5
ATOM      5  C   UNL     1      -5.007   0.956  -6.096  1.00  0.00     0.041 C 
ATOM      6  O   UNL     1      -4.511  -0.195  -5.977  1.00  0.00    -0.550 OA
ATOM      7  O   UNL     1      -6.318   1.099  -6.531  1.00  0.00    -0.550 OA
ENDBRANCH   4   5
ENDBRANCH   3   4
ENDBRANCH   2   3
ENDBRANCH   1   2
BRANCH   1   8
ATOM      8  C   UNL     1      -2.179   3.491  -9.740  1.00  0.00     0.000 C 
BRANCH   8   9
ATOM      9  C   UNL     1      -1.306   2.968 -10.887  1.00  0.00    -0.000 C 
BRANCH   9  10
ATOM     10  C   UNL     1      -1.863   3.410 -12.249  1.00  0.00    -0.000 C 
BRANCH  10  11
ATOM     11  C   UNL     1      -3.370   3.130 -12.399  1.00  0.00    -0.000 C 
BRANCH  11  12
ATOM     12  C   UNL     1      -4.125   4.126 -13.297  1.00  0.00    -0.003 C 
ATOM     13  C   UNL     1      -3.606   5.558 -13.172  1.00  0.00     0.004 C 
ENDBRANCH  11  12
ENDBRANCH  10  11
ENDBRANCH   9  10
ENDBRANCH   8   9
ENDBRANCH   1   8
TORSDOF 9
ENDMDL
MODEL 9
REMARK VINA RESULT:    -3.829     12.572     13.925
REMARK INTER + INTRA:          -6.284
REMARK INTER:                  -5.331
REMARK INTRA:                  -0.953
REMARK UNBOUND:                -0.440
REMARK SMILES CCCCCCCCCCC(=O)[O-]
REMARK SMILES IDX 7 1 8 2 9 3 10 4 11 5 12 6 13 7 6 8 5 9 4 10 3 11 2 12 1 13
REMARK H PARENT
REMARK Flexibility Score: inf
ROOT
ATOM      1  C   UNL     1     -17.088  -4.227  -2.249  1.00  0.00     0.000 C 
ENDROOT
BRANCH   1   2
ATOM      2  C   UNL     1     -16.693  -5.571  -2.886  1.00  0.00     0.000 C 
BRANCH   2   3
ATOM      3  C   UNL     1     -17.833  -6.599  -2.998  1.00  0.00     0.006 C 
BRANCH   3   4
ATOM      4  C   UNL     1     -17.658  -7.558  -4.183  1.00  0.00     0.053 C 
BRANCH   4   5
ATOM      5  C   UNL     1     -18.704  -7.299  -5.222  1.00  0.00     0.041 C 
ATOM      6  O   UNL     1     -19.423  -8.242  -5.645  1.00  0.00    -0.550 OA
ATOM      7  O   UNL     1     -18.918  -6.008  -5.687  1.00  0.00    -0.550 OA
ENDBRANCH   4   5
ENDBRANCH   3   4
ENDBRANCH   2   3
ENDBRANCH   1   2
BRANCH   1   8
ATOM      8  C   UNL     1     -18.400  -3.660  -2.813  1.00  0.00     0.000 C 
BRANCH   8   9
ATOM      9  C   UNL     1     -19.493  -3.631  -1.737  1.00  0.00    -0.000 C 
BRANCH   9  10
ATOM     10  C   UNL     1     -18.886  -3.769  -0.333  1.00  0.00    -0.000 C 
BRANCH  10  11
ATOM     11  C   UNL     1     -19.716  -4.679   0.592  1.00  0.00    -0.000 C 
BRANCH  11  12
ATOM     12  C   UNL     1     -18.892  -5.675   1.426  1.00  0.00    -0.003 C 
ATOM     13  C   UNL     1     -17.733  -6.295   0.647  1.00  0.00     0.004 C 
ENDBRANCH  11  12
ENDBRANCH  10  11
ENDBRANCH   9  10
ENDBRANCH   8   9
ENDBRANCH   1   8
TORSDOF 9
ENDMDL
