MODEL 1
REMARK VINA RESULT:    -6.753      0.000      0.000
REMARK INTER + INTRA:          -8.286
REMARK INTER:                  -8.135
REMARK INTRA:                  -0.151
REMARK UNBOUND:                -0.151
REMARK SMILES O=c1c(O)c(-c2ccc(O)c(O)c2)oc2cc(O)cc(O)c12
REMARK SMILES IDX 5 1 3 2 2 3 1 4 22 5 20 6 19 7 17 8 16 9 15 10 14 11 6 12
REMARK SMILES IDX 7 13 8 14 9 15 13 16 11 17 10 18 12 20 4 22 21 24 18 26
REMARK H PARENT 10 19 12 21 4 23 21 25 18 27
REMARK Flexibility Score: inf
ROOT
ATOM      1  C   UNL     1      -9.677   5.595 -31.483  1.00  0.00     0.180 A 
ATOM      2  C   UNL     1      -8.890   6.759 -31.519  1.00  0.00     0.208 A 
ATOM      3  C   UNL     1      -8.453   7.323 -30.309  1.00  0.00     0.238 A 
ATOM      4  O   UNL     1      -7.704   8.333 -30.348  1.00  0.00    -0.285 OA
ATOM      5  C   UNL     1      -8.823   6.726 -29.079  1.00  0.00     0.111 A 
ATOM      6  C   UNL     1      -8.472   7.235 -27.793  1.00  0.00     0.134 A 
ATOM      7  C   UNL     1      -8.781   6.492 -26.648  1.00  0.00     0.093 A 
ATOM      8  C   UNL     1      -9.487   5.289 -26.738  1.00  0.00     0.123 A 
ATOM      9  C   UNL     1      -9.886   4.814 -27.984  1.00  0.00     0.094 A 
ATOM     10  C   UNL     1      -9.561   5.516 -29.149  1.00  0.00     0.146 A 
ATOM     11  O   UNL     1      -9.952   5.022 -30.317  1.00  0.00    -0.452 OA
ENDROOT
BRANCH   1  12
ATOM     12  C   UNL     1     -10.194   4.956 -32.715  1.00  0.00     0.025 A 
ATOM     13  C   UNL     1     -11.055   5.643 -33.589  1.00  0.00     0.016 A 
ATOM     14  C   UNL     1     -11.551   5.013 -34.733  1.00  0.00     0.051 A 
ATOM     15  C   UNL     1     -11.205   3.683 -35.012  1.00  0.00     0.157 A 
ATOM     16  C   UNL     1      -9.869   3.617 -32.989  1.00  0.00     0.062 A 
ATOM     17  C   UNL     1     -10.365   2.985 -34.138  1.00  0.00     0.158 A 
BRANCH  15  18
ATOM     18  O   UNL     1     -11.696   3.052 -36.153  1.00  0.00    -0.504 OA
ATOM     19  H   UNL     1     -11.222   2.258 -36.566  1.00  0.00     0.293 HD
ENDBRANCH  15  18
BRANCH  17  20
ATOM     20  O   UNL     1     -10.030   1.660 -34.413  1.00  0.00    -0.504 OA
ATOM     21  H   UNL     1     -10.739   0.946 -34.533  1.00  0.00     0.293 HD
ENDBRANCH  17  20
ENDBRANCH   1  12
BRANCH   2  22
ATOM     22  O   UNL     1      -8.517   7.319 -32.744  1.00  0.00    -0.502 OA
ATOM     23  H   UNL     1      -9.117   7.292 -33.559  1.00  0.00     0.293 HD
ENDBRANCH   2  22
BRANCH   6  24
ATOM     24  O   UNL     1      -7.848   8.469 -27.586  1.00  0.00    -0.507 OA
ATOM     25  H   UNL     1      -6.993   8.601 -27.067  1.00  0.00     0.293 HD
ENDBRANCH   6  24
BRANCH   8  26
ATOM     26  O   UNL     1      -9.805   4.563 -25.592  1.00  0.00    -0.508 OA
ATOM     27  H   UNL     1     -10.302   3.682 -25.645  1.00  0.00     0.293 HD
ENDBRANCH   8  26
TORSDOF 6
ENDMDL
MODEL 2
REMARK VINA RESULT:    -6.712     16.371     18.283
REMARK INTER + INTRA:          -8.236
REMARK INTER:                  -7.935
REMARK INTRA:                  -0.300
REMARK UNBOUND:                -0.151
REMARK SMILES O=c1c(O)c(-c2ccc(O)c(O)c2)oc2cc(O)cc(O)c12
REMARK SMILES IDX 5 1 3 2 2 3 1 4 22 5 20 6 19 7 17 8 16 9 15 10 14 11 6 12
REMARK SMILES IDX 7 13 8 14 9 15 13 16 11 17 10 18 12 20 4 22 21 24 18 26
REMARK H PARENT 10 19 12 21 4 23 21 25 18 27
REMARK Flexibility Score: inf
ROOT
ATOM      1  C   UNL     1       1.693  -7.192 -32.696  1.00  0.00     0.180 A 
ATOM      2  C   UNL     1       1.890  -6.354 -33.807  1.00  0.00     0.208 A 
ATOM      3  C   UNL     1       3.125  -6.388 -34.476  1.00  0.00     0.238 A 
ATOM      4  O   UNL     1       3.277  -5.676 -35.502  1.00  0.00    -0.285 OA
ATOM      5  C   UNL     1       4.152  -7.247 -34.016  1.00  0.00     0.111 A 
ATOM      6  C   UNL     1       5.454  -7.335 -34.591  1.00  0.00     0.134 A 
ATOM      7  C   UNL     1       6.347  -8.313 -34.137  1.00  0.00     0.093 A 
ATOM      8  C   UNL     1       6.007  -9.164 -33.082  1.00  0.00     0.123 A 
ATOM      9  C   UNL     1       4.760  -9.048 -32.474  1.00  0.00     0.094 A 
ATOM     10  C   UNL     1       3.834  -8.105 -32.930  1.00  0.00     0.146 A 
ATOM     11  O   UNL     1       2.653  -8.034 -32.329  1.00  0.00    -0.452 OA
ENDROOT
BRANCH   1  12
ATOM     12  C   UNL     1       0.429  -7.195 -31.925  1.00  0.00     0.025 A 
ATOM     13  C   UNL     1      -0.696  -7.914 -32.367  1.00  0.00     0.016 A 
ATOM     14  C   UNL     1      -1.886  -7.883 -31.637  1.00  0.00     0.051 A 
ATOM     15  C   UNL     1      -1.974  -7.123 -30.462  1.00  0.00     0.157 A 
ATOM     16  C   UNL     1       0.329  -6.419 -30.758  1.00  0.00     0.062 A 
ATOM     17  C   UNL     1      -0.866  -6.389 -30.024  1.00  0.00     0.158 A 
BRANCH  15  18
ATOM     18  O   UNL     1      -3.159  -7.092 -29.729  1.00  0.00    -0.504 OA
ATOM     19  H   UNL     1      -3.178  -7.319 -28.742  1.00  0.00     0.293 HD
ENDBRANCH  15  18
BRANCH  17  20
ATOM     20  O   UNL     1      -0.958  -5.628 -28.860  1.00  0.00    -0.504 OA
ATOM     21  H   UNL     1      -0.855  -6.046 -27.943  1.00  0.00     0.293 HD
ENDBRANCH  17  20
ENDBRANCH   1  12
BRANCH   2  22
ATOM     22  O   UNL     1       0.856  -5.529 -34.259  1.00  0.00    -0.502 OA
ATOM     23  H   UNL     1       0.798  -5.205 -35.216  1.00  0.00     0.293 HD
ENDBRANCH   2  22
BRANCH   6  24
ATOM     24  O   UNL     1       5.927  -6.473 -35.586  1.00  0.00    -0.507 OA
ATOM     25  H   UNL     1       5.465  -6.302 -36.466  1.00  0.00     0.293 HD
ENDBRANCH   6  24
BRANCH   8  26
ATOM     26  O   UNL     1       6.907 -10.125 -32.625  1.00  0.00    -0.508 OA
ATOM     27  H   UNL     1       6.845 -11.092 -32.922  1.00  0.00     0.293 HD
ENDBRANCH   8  26
TORSDOF 6
ENDMDL
MODEL 3
REMARK VINA RESULT:    -6.627      3.208      5.882
REMARK INTER + INTRA:          -8.133
REMARK INTER:                  -7.964
REMARK INTRA:                  -0.169
REMARK UNBOUND:                -0.151
REMARK SMILES O=c1c(O)c(-c2ccc(O)c(O)c2)oc2cc(O)cc(O)c12
REMARK SMILES IDX 5 1 3 2 2 3 1 4 22 5 20 6 19 7 17 8 16 9 15 10 14 11 6 12
REMARK SMILES IDX 7 13 8 14 9 15 13 16 11 17 10 18 12 20 4 22 21 24 18 26
REMARK H PARENT 10 19 12 21 4 23 21 25 18 27
REMARK Flexibility Score: inf
ROOT
ATOM      1  C   UNL     1     -10.934   2.486 -35.899  1.00  0.00     0.180 A 
ATOM      2  C   UNL     1     -11.524   3.672 -36.367  1.00  0.00     0.208 A 
ATOM      3  C   UNL     1     -11.646   4.764 -35.492  1.00  0.00     0.238 A 
ATOM      4  O   UNL     1     -12.125   5.841 -35.932  1.00  0.00    -0.285 OA
ATOM      5  C   UNL     1     -11.193   4.649 -34.155  1.00  0.00     0.111 A 
ATOM      6  C   UNL     1     -11.303   5.676 -33.171  1.00  0.00     0.134 A 
ATOM      7  C   UNL     1     -10.703   5.501 -31.918  1.00  0.00     0.093 A 
ATOM      8  C   UNL     1     -10.053   4.308 -31.592  1.00  0.00     0.123 A 
ATOM      9  C   UNL     1      -9.991   3.276 -32.525  1.00  0.00     0.094 A 
ATOM     10  C   UNL     1     -10.549   3.436 -33.797  1.00  0.00     0.146 A 
ATOM     11  O   UNL     1     -10.459   2.432 -34.660  1.00  0.00    -0.452 OA
ENDROOT
BRANCH   1  12
ATOM     12  C   UNL     1     -10.792   1.285 -36.754  1.00  0.00     0.025 A 
ATOM     13  C   UNL     1     -11.917   0.620 -37.274  1.00  0.00     0.016 A 
ATOM     14  C   UNL     1     -11.761  -0.525 -38.059  1.00  0.00     0.051 A 
ATOM     15  C   UNL     1     -10.480  -1.029 -38.325  1.00  0.00     0.157 A 
ATOM     16  C   UNL     1      -9.513   0.763 -37.007  1.00  0.00     0.062 A 
ATOM     17  C   UNL     1      -9.356  -0.386 -37.796  1.00  0.00     0.158 A 
BRANCH  15  18
ATOM     18  O   UNL     1     -10.321  -2.170 -39.109  1.00  0.00    -0.504 OA
ATOM     19  H   UNL     1     -11.064  -2.850 -39.214  1.00  0.00     0.293 HD
ENDBRANCH  15  18
BRANCH  17  20
ATOM     20  O   UNL     1      -8.084  -0.894 -38.056  1.00  0.00    -0.504 OA
ATOM     21  H   UNL     1      -7.952  -1.761 -38.562  1.00  0.00     0.293 HD
ENDBRANCH  17  20
ENDBRANCH   1  12
BRANCH   2  22
ATOM     22  O   UNL     1     -11.945   3.772 -37.696  1.00  0.00    -0.502 OA
ATOM     23  H   UNL     1     -11.915   2.989 -38.336  1.00  0.00     0.293 HD
ENDBRANCH   2  22
BRANCH   6  24
ATOM     24  O   UNL     1     -12.010   6.868 -33.363  1.00  0.00    -0.507 OA
ATOM     25  H   UNL     1     -13.000   6.981 -33.204  1.00  0.00     0.293 HD
ENDBRANCH   6  24
BRANCH   8  26
ATOM     26  O   UNL     1      -9.472   4.135 -30.338  1.00  0.00    -0.508 OA
ATOM     27  H   UNL     1      -8.587   3.654 -30.226  1.00  0.00     0.293 HD
ENDBRANCH   8  26
TORSDOF 6
ENDMDL
MODEL 4
REMARK VINA RESULT:    -6.534      1.784      3.461
REMARK INTER + INTRA:          -8.022
REMARK INTER:                  -7.734
REMARK INTRA:                  -0.287
REMARK UNBOUND:                -0.151
REMARK SMILES O=c1c(O)c(-c2ccc(O)c(O)c2)oc2cc(O)cc(O)c12
REMARK SMILES IDX 5 1 3 2 2 3 1 4 22 5 20 6 19 7 17 8 16 9 15 10 14 11 6 12
REMARK SMILES IDX 7 13 8 14 9 15 13 16 11 17 10 18 12 20 4 22 21 24 18 26
REMARK H PARENT 10 19 12 21 4 23 21 25 18 27
REMARK Flexibility Score: inf
ROOT
ATOM      1  C   UNL     1     -10.388   4.678 -32.854  1.00  0.00     0.180 A 
ATOM      2  C   UNL     1     -10.958   4.320 -31.621  1.00  0.00     0.208 A 
ATOM      3  C   UNL     1     -10.607   5.046 -30.471  1.00  0.00     0.238 A 
ATOM      4  O   UNL     1     -11.162   4.757 -29.380  1.00  0.00    -0.285 OA
ATOM      5  C   UNL     1      -9.678   6.110 -30.567  1.00  0.00     0.111 A 
ATOM      6  C   UNL     1      -9.219   6.888 -29.462  1.00  0.00     0.134 A 
ATOM      7  C   UNL     1      -8.400   8.000 -29.692  1.00  0.00     0.093 A 
ATOM      8  C   UNL     1      -7.969   8.323 -30.981  1.00  0.00     0.123 A 
ATOM      9  C   UNL     1      -8.363   7.535 -32.060  1.00  0.00     0.094 A 
ATOM     10  C   UNL     1      -9.211   6.440 -31.866  1.00  0.00     0.146 A 
ATOM     11  O   UNL     1      -9.570   5.722 -32.922  1.00  0.00    -0.452 OA
ENDROOT
BRANCH   1  12
ATOM     12  C   UNL     1     -10.690   3.945 -34.105  1.00  0.00     0.025 A 
ATOM     13  C   UNL     1     -11.616   4.441 -35.039  1.00  0.00     0.016 A 
ATOM     14  C   UNL     1     -11.904   3.721 -36.201  1.00  0.00     0.051 A 
ATOM     15  C   UNL     1     -11.280   2.489 -36.440  1.00  0.00     0.157 A 
ATOM     16  C   UNL     1     -10.083   2.700 -34.340  1.00  0.00     0.062 A 
ATOM     17  C   UNL     1     -10.371   1.977 -35.507  1.00  0.00     0.158 A 
BRANCH  15  18
ATOM     18  O   UNL     1     -11.563   1.769 -37.599  1.00  0.00    -0.504 OA
ATOM     19  H   UNL     1     -10.966   1.823 -38.416  1.00  0.00     0.293 HD
ENDBRANCH  15  18
BRANCH  17  20
ATOM     20  O   UNL     1      -9.758   0.748 -35.744  1.00  0.00    -0.504 OA
ATOM     21  H   UNL     1     -10.201   0.033 -36.310  1.00  0.00     0.293 HD
ENDBRANCH  17  20
ENDBRANCH   1  12
BRANCH   2  22
ATOM     22  O   UNL     1     -11.890   3.281 -31.552  1.00  0.00    -0.502 OA
ATOM     23  H   UNL     1     -12.880   3.446 -31.417  1.00  0.00     0.293 HD
ENDBRANCH   2  22
BRANCH   6  24
ATOM     24  O   UNL     1      -9.515   6.597 -28.127  1.00  0.00    -0.507 OA
ATOM     25  H   UNL     1      -8.840   6.292 -27.442  1.00  0.00     0.293 HD
ENDBRANCH   6  24
BRANCH   8  26
ATOM     26  O   UNL     1      -7.141   9.422 -31.200  1.00  0.00    -0.508 OA
ATOM     27  H   UNL     1      -7.512  10.309 -31.519  1.00  0.00     0.293 HD
ENDBRANCH   8  26
TORSDOF 6
ENDMDL
MODEL 5
REMARK VINA RESULT:    -6.508      8.442     12.667
REMARK INTER + INTRA:          -7.990
REMARK INTER:                  -7.958
REMARK INTRA:                  -0.032
REMARK UNBOUND:                -0.151
REMARK SMILES O=c1c(O)c(-c2ccc(O)c(O)c2)oc2cc(O)cc(O)c12
REMARK SMILES IDX 5 1 3 2 2 3 1 4 22 5 20 6 19 7 17 8 16 9 15 10 14 11 6 12
REMARK SMILES IDX 7 13 8 14 9 15 13 16 11 17 10 18 12 20 4 22 21 24 18 26
REMARK H PARENT 10 19 12 21 4 23 21 25 18 27
REMARK Flexibility Score: inf
ROOT
ATOM      1  C   UNL     1      -7.525  -2.808 -39.639  1.00  0.00     0.180 A 
ATOM      2  C   UNL     1      -8.512  -2.815 -40.641  1.00  0.00     0.208 A 
ATOM      3  C   UNL     1      -9.657  -2.019 -40.474  1.00  0.00     0.238 A 
ATOM      4  O   UNL     1     -10.510  -1.987 -41.399  1.00  0.00    -0.285 OA
ATOM      5  C   UNL     1      -9.809  -1.239 -39.303  1.00  0.00     0.111 A 
ATOM      6  C   UNL     1     -10.945  -0.427 -39.011  1.00  0.00     0.134 A 
ATOM      7  C   UNL     1     -10.930   0.404 -37.884  1.00  0.00     0.093 A 
ATOM      8  C   UNL     1      -9.846   0.402 -37.002  1.00  0.00     0.123 A 
ATOM      9  C   UNL     1      -8.758  -0.431 -37.246  1.00  0.00     0.094 A 
ATOM     10  C   UNL     1      -8.728  -1.245 -38.383  1.00  0.00     0.146 A 
ATOM     11  O   UNL     1      -7.666  -2.016 -38.583  1.00  0.00    -0.452 OA
ENDROOT
BRANCH   1  12
ATOM     12  C   UNL     1      -6.303  -3.639 -39.731  1.00  0.00     0.025 A 
ATOM     13  C   UNL     1      -5.937  -4.518 -38.696  1.00  0.00     0.016 A 
ATOM     14  C   UNL     1      -4.766  -5.275 -38.793  1.00  0.00     0.051 A 
ATOM     15  C   UNL     1      -3.939  -5.155 -39.918  1.00  0.00     0.157 A 
ATOM     16  C   UNL     1      -5.460  -3.508 -40.846  1.00  0.00     0.062 A 
ATOM     17  C   UNL     1      -4.285  -4.268 -40.944  1.00  0.00     0.158 A 
BRANCH  15  18
ATOM     18  O   UNL     1      -2.773  -5.910 -40.019  1.00  0.00    -0.504 OA
ATOM     19  H   UNL     1      -2.143  -6.022 -39.233  1.00  0.00     0.293 HD
ENDBRANCH  15  18
BRANCH  17  20
ATOM     20  O   UNL     1      -3.457  -4.145 -42.059  1.00  0.00    -0.504 OA
ATOM     21  H   UNL     1      -3.832  -4.128 -43.000  1.00  0.00     0.293 HD
ENDBRANCH  17  20
ENDBRANCH   1  12
BRANCH   2  22
ATOM     22  O   UNL     1      -8.332  -3.575 -41.800  1.00  0.00    -0.502 OA
ATOM     23  H   UNL     1      -7.720  -3.283 -42.551  1.00  0.00     0.293 HD
ENDBRANCH   2  22
BRANCH   6  24
ATOM     24  O   UNL     1     -12.116  -0.419 -39.776  1.00  0.00    -0.507 OA
ATOM     25  H   UNL     1     -12.404  -1.164 -40.392  1.00  0.00     0.293 HD
ENDBRANCH   6  24
BRANCH   8  26
ATOM     26  O   UNL     1      -9.846   1.220 -35.874  1.00  0.00    -0.508 OA
ATOM     27  H   UNL     1     -10.173   0.883 -34.976  1.00  0.00     0.293 HD
ENDBRANCH   8  26
TORSDOF 6
ENDMDL
MODEL 6
REMARK VINA RESULT:    -6.504      1.533      6.746
REMARK INTER + INTRA:          -7.986
REMARK INTER:                  -7.744
REMARK INTRA:                  -0.241
REMARK UNBOUND:                -0.151
REMARK SMILES O=c1c(O)c(-c2ccc(O)c(O)c2)oc2cc(O)cc(O)c12
REMARK SMILES IDX 5 1 3 2 2 3 1 4 22 5 20 6 19 7 17 8 16 9 15 10 14 11 6 12
REMARK SMILES IDX 7 13 8 14 9 15 13 16 11 17 10 18 12 20 4 22 21 24 18 26
REMARK H PARENT 10 19 12 21 4 23 21 25 18 27
REMARK Flexibility Score: inf
ROOT
ATOM      1  C   UNL     1      -9.637   6.103 -30.182  1.00  0.00     0.180 A 
ATOM      2  C   UNL     1     -10.250   7.171 -30.858  1.00  0.00     0.208 A 
ATOM      3  C   UNL     1     -10.705   6.974 -32.172  1.00  0.00     0.238 A 
ATOM      4  O   UNL     1     -11.303   7.917 -32.752  1.00  0.00    -0.285 OA
ATOM      5  C   UNL     1     -10.526   5.717 -32.799  1.00  0.00     0.111 A 
ATOM      6  C   UNL     1     -10.911   5.418 -34.139  1.00  0.00     0.134 A 
ATOM      7  C   UNL     1     -10.805   4.104 -34.612  1.00  0.00     0.093 A 
ATOM      8  C   UNL     1     -10.265   3.093 -33.814  1.00  0.00     0.123 A 
ATOM      9  C   UNL     1      -9.832   3.387 -32.524  1.00  0.00     0.094 A 
ATOM     10  C   UNL     1      -9.959   4.682 -32.011  1.00  0.00     0.146 A 
ATOM     11  O   UNL     1      -9.542   4.918 -30.773  1.00  0.00    -0.452 OA
ENDROOT
BRANCH   1  12
ATOM     12  C   UNL     1      -9.110   6.240 -28.805  1.00  0.00     0.025 A 
ATOM     13  C   UNL     1      -7.971   7.018 -28.532  1.00  0.00     0.016 A 
ATOM     14  C   UNL     1      -7.476   7.114 -27.228  1.00  0.00     0.051 A 
ATOM     15  C   UNL     1      -8.104   6.424 -26.182  1.00  0.00     0.157 A 
ATOM     16  C   UNL     1      -9.722   5.534 -27.756  1.00  0.00     0.062 A 
ATOM     17  C   UNL     1      -9.227   5.632 -26.448  1.00  0.00     0.158 A 
BRANCH  15  18
ATOM     18  O   UNL     1      -7.616   6.520 -24.881  1.00  0.00    -0.504 OA
ATOM     19  H   UNL     1      -6.868   7.160 -24.640  1.00  0.00     0.293 HD
ENDBRANCH  15  18
BRANCH  17  20
ATOM     20  O   UNL     1      -9.845   4.940 -25.407  1.00  0.00    -0.504 OA
ATOM     21  H   UNL     1     -10.028   3.945 -25.466  1.00  0.00     0.293 HD
ENDBRANCH  17  20
ENDBRANCH   1  12
BRANCH   2  22
ATOM     22  O   UNL     1     -10.438   8.397 -30.213  1.00  0.00    -0.502 OA
ATOM     23  H   UNL     1     -11.317   8.656 -29.783  1.00  0.00     0.293 HD
ENDBRANCH   2  22
BRANCH   6  24
ATOM     24  O   UNL     1     -11.375   6.373 -35.050  1.00  0.00    -0.507 OA
ATOM     25  H   UNL     1     -11.540   6.200 -36.030  1.00  0.00     0.293 HD
ENDBRANCH   6  24
BRANCH   8  26
ATOM     26  O   UNL     1     -10.148   1.791 -34.297  1.00  0.00    -0.508 OA
ATOM     27  H   UNL     1      -9.281   1.273 -34.219  1.00  0.00     0.293 HD
ENDBRANCH   8  26
TORSDOF 6
ENDMDL
MODEL 7
REMARK VINA RESULT:    -6.423     15.981     17.910
REMARK INTER + INTRA:          -7.887
REMARK INTER:                  -7.638
REMARK INTRA:                  -0.249
REMARK UNBOUND:                -0.151
REMARK SMILES O=c1c(O)c(-c2ccc(O)c(O)c2)oc2cc(O)cc(O)c12
REMARK SMILES IDX 5 1 3 2 2 3 1 4 22 5 20 6 19 7 17 8 16 9 15 10 14 11 6 12
REMARK SMILES IDX 7 13 8 14 9 15 13 16 11 17 10 18 12 20 4 22 21 24 18 26
REMARK H PARENT 10 19 12 21 4 23 21 25 18 27
REMARK Flexibility Score: inf
ROOT
ATOM      1  C   UNL     1       1.177  -7.117 -32.239  1.00  0.00     0.180 A 
ATOM      2  C   UNL     1       1.309  -6.343 -33.404  1.00  0.00     0.208 A 
ATOM      3  C   UNL     1       2.498  -6.426 -34.147  1.00  0.00     0.238 A 
ATOM      4  O   UNL     1       2.589  -5.773 -35.219  1.00  0.00    -0.285 OA
ATOM      5  C   UNL     1       3.547  -7.269 -33.705  1.00  0.00     0.111 A 
ATOM      6  C   UNL     1       4.810  -7.400 -34.356  1.00  0.00     0.134 A 
ATOM      7  C   UNL     1       5.723  -8.361 -33.905  1.00  0.00     0.093 A 
ATOM      8  C   UNL     1       5.445  -9.149 -32.786  1.00  0.00     0.123 A 
ATOM      9  C   UNL     1       4.240  -8.988 -32.108  1.00  0.00     0.094 A 
ATOM     10  C   UNL     1       3.293  -8.062 -32.556  1.00  0.00     0.146 A 
ATOM     11  O   UNL     1       2.152  -7.946 -31.887  1.00  0.00    -0.452 OA
ENDROOT
BRANCH   1  12
ATOM     12  C   UNL     1      -0.035  -7.064 -31.391  1.00  0.00     0.025 A 
ATOM     13  C   UNL     1      -0.022  -6.432 -30.134  1.00  0.00     0.016 A 
ATOM     14  C   UNL     1      -1.172  -6.416 -29.340  1.00  0.00     0.051 A 
ATOM     15  C   UNL     1      -2.345  -7.041 -29.783  1.00  0.00     0.157 A 
ATOM     16  C   UNL     1      -1.208  -7.707 -31.820  1.00  0.00     0.062 A 
ATOM     17  C   UNL     1      -2.362  -7.690 -31.023  1.00  0.00     0.158 A 
BRANCH  15  18
ATOM     18  O   UNL     1      -3.494  -7.025 -28.995  1.00  0.00    -0.504 OA
ATOM     19  H   UNL     1      -4.258  -6.387 -29.183  1.00  0.00     0.293 HD
ENDBRANCH  15  18
BRANCH  17  20
ATOM     20  O   UNL     1      -3.528  -8.318 -31.458  1.00  0.00    -0.504 OA
ATOM     21  H   UNL     1      -3.757  -8.390 -32.443  1.00  0.00     0.293 HD
ENDBRANCH  17  20
ENDBRANCH   1  12
BRANCH   2  22
ATOM     22  O   UNL     1       0.253  -5.534 -33.835  1.00  0.00    -0.502 OA
ATOM     23  H   UNL     1      -0.100  -4.762 -33.284  1.00  0.00     0.293 HD
ENDBRANCH   2  22
BRANCH   6  24
ATOM     24  O   UNL     1       5.224  -6.599 -35.425  1.00  0.00    -0.507 OA
ATOM     25  H   UNL     1       6.098  -6.705 -35.917  1.00  0.00     0.293 HD
ENDBRANCH   6  24
BRANCH   8  26
ATOM     26  O   UNL     1       6.366 -10.093 -32.334  1.00  0.00    -0.508 OA
ATOM     27  H   UNL     1       6.405 -11.025 -32.728  1.00  0.00     0.293 HD
ENDBRANCH   8  26
TORSDOF 6
ENDMDL
MODEL 8
REMARK VINA RESULT:    -6.416     15.927     17.289
REMARK INTER + INTRA:          -7.879
REMARK INTER:                  -7.559
REMARK INTRA:                  -0.320
REMARK UNBOUND:                -0.151
REMARK SMILES O=c1c(O)c(-c2ccc(O)c(O)c2)oc2cc(O)cc(O)c12
REMARK SMILES IDX 5 1 3 2 2 3 1 4 22 5 20 6 19 7 17 8 16 9 15 10 14 11 6 12
REMARK SMILES IDX 7 13 8 14 9 15 13 16 11 17 10 18 12 20 4 22 21 24 18 26
REMARK H PARENT 10 19 12 21 4 23 21 25 18 27
REMARK Flexibility Score: inf
ROOT
ATOM      1  C   UNL     1       2.106  -7.277 -32.118  1.00  0.00     0.180 A 
ATOM      2  C   UNL     1       2.958  -7.351 -31.003  1.00  0.00     0.208 A 
ATOM      3  C   UNL     1       2.423  -7.144 -29.721  1.00  0.00     0.238 A 
ATOM      4  O   UNL     1       3.180  -7.267 -28.723  1.00  0.00    -0.285 OA
ATOM      5  C   UNL     1       1.047  -6.849 -29.571  1.00  0.00     0.111 A 
ATOM      6  C   UNL     1       0.406  -6.583 -28.325  1.00  0.00     0.134 A 
ATOM      7  C   UNL     1      -0.986  -6.432 -28.281  1.00  0.00     0.093 A 
ATOM      8  C   UNL     1      -1.752  -6.473 -29.449  1.00  0.00     0.123 A 
ATOM      9  C   UNL     1      -1.129  -6.674 -30.678  1.00  0.00     0.094 A 
ATOM     10  C   UNL     1       0.255  -6.864 -30.749  1.00  0.00     0.146 A 
ATOM     11  O   UNL     1       0.807  -7.063 -31.939  1.00  0.00    -0.452 OA
ENDROOT
BRANCH   1  12
ATOM     12  C   UNL     1       2.600  -7.458 -33.502  1.00  0.00     0.025 A 
ATOM     13  C   UNL     1       2.705  -8.736 -34.079  1.00  0.00     0.016 A 
ATOM     14  C   UNL     1       3.197  -8.887 -35.378  1.00  0.00     0.051 A 
ATOM     15  C   UNL     1       3.603  -7.765 -36.113  1.00  0.00     0.157 A 
ATOM     16  C   UNL     1       3.028  -6.340 -34.236  1.00  0.00     0.062 A 
ATOM     17  C   UNL     1       3.520  -6.491 -35.540  1.00  0.00     0.158 A 
BRANCH  15  18
ATOM     18  O   UNL     1       4.091  -7.911 -37.410  1.00  0.00    -0.504 OA
ATOM     19  H   UNL     1       3.964  -7.189 -38.110  1.00  0.00     0.293 HD
ENDBRANCH  15  18
BRANCH  17  20
ATOM     20  O   UNL     1       3.932  -5.377 -36.271  1.00  0.00    -0.504 OA
ATOM     21  H   UNL     1       4.893  -5.266 -36.573  1.00  0.00     0.293 HD
ENDBRANCH  17  20
ENDBRANCH   1  12
BRANCH   2  22
ATOM     22  O   UNL     1       4.310  -7.666 -31.171  1.00  0.00    -0.502 OA
ATOM     23  H   UNL     1       4.775  -7.605 -32.067  1.00  0.00     0.293 HD
ENDBRANCH   2  22
BRANCH   6  24
ATOM     24  O   UNL     1       1.088  -6.430 -27.114  1.00  0.00    -0.507 OA
ATOM     25  H   UNL     1       1.972  -5.955 -27.007  1.00  0.00     0.293 HD
ENDBRANCH   6  24
BRANCH   8  26
ATOM     26  O   UNL     1      -3.134  -6.307 -29.399  1.00  0.00    -0.508 OA
ATOM     27  H   UNL     1      -3.692  -6.729 -28.666  1.00  0.00     0.293 HD
ENDBRANCH   8  26
TORSDOF 6
ENDMDL
MODEL 9
REMARK VINA RESULT:    -6.331     14.987     15.823
REMARK INTER + INTRA:          -7.777
REMARK INTER:                  -7.448
REMARK INTRA:                  -0.330
REMARK UNBOUND:                -0.151
REMARK SMILES O=c1c(O)c(-c2ccc(O)c(O)c2)oc2cc(O)cc(O)c12
REMARK SMILES IDX 5 1 3 2 2 3 1 4 22 5 20 6 19 7 17 8 16 9 15 10 14 11 6 12
REMARK SMILES IDX 7 13 8 14 9 15 13 16 11 17 10 18 12 20 4 22 21 24 18 26
REMARK H PARENT 10 19 12 21 4 23 21 25 18 27
REMARK Flexibility Score: inf
ROOT
ATOM      1  C   UNL     1      -1.001  -7.386 -29.773  1.00  0.00     0.180 A 
ATOM      2  C   UNL     1      -2.388  -7.561 -29.635  1.00  0.00     0.208 A 
ATOM      3  C   UNL     1      -2.966  -7.448 -28.359  1.00  0.00     0.238 A 
ATOM      4  O   UNL     1      -4.215  -7.551 -28.250  1.00  0.00    -0.285 OA
ATOM      5  C   UNL     1      -2.146  -7.177 -27.237  1.00  0.00     0.111 A 
ATOM      6  C   UNL     1      -2.618  -7.080 -25.893  1.00  0.00     0.134 A 
ATOM      7  C   UNL     1      -1.740  -6.679 -24.879  1.00  0.00     0.093 A 
ATOM      8  C   UNL     1      -0.391  -6.435 -25.150  1.00  0.00     0.123 A 
ATOM      9  C   UNL     1       0.092  -6.584 -26.447  1.00  0.00     0.094 A 
ATOM     10  C   UNL     1      -0.768  -6.948 -27.487  1.00  0.00     0.146 A 
ATOM     11  O   UNL     1      -0.269  -7.068 -28.711  1.00  0.00    -0.452 OA
ENDROOT
BRANCH   1  12
ATOM     12  C   UNL     1      -0.316  -7.515 -31.079  1.00  0.00     0.025 A 
ATOM     13  C   UNL     1       0.212  -8.745 -31.511  1.00  0.00     0.016 A 
ATOM     14  C   UNL     1       0.875  -8.838 -32.737  1.00  0.00     0.051 A 
ATOM     15  C   UNL     1       1.032  -7.702 -33.543  1.00  0.00     0.157 A 
ATOM     16  C   UNL     1      -0.137  -6.376 -31.882  1.00  0.00     0.062 A 
ATOM     17  C   UNL     1       0.528  -6.469 -33.113  1.00  0.00     0.158 A 
BRANCH  15  18
ATOM     18  O   UNL     1       1.691  -7.792 -34.767  1.00  0.00    -0.504 OA
ATOM     19  H   UNL     1       2.543  -8.330 -34.873  1.00  0.00     0.293 HD
ENDBRANCH  15  18
BRANCH  17  20
ATOM     20  O   UNL     1       0.692  -5.340 -33.913  1.00  0.00    -0.504 OA
ATOM     21  H   UNL     1       1.612  -5.000 -34.170  1.00  0.00     0.293 HD
ENDBRANCH  17  20
ENDBRANCH   1  12
BRANCH   2  22
ATOM     22  O   UNL     1      -3.182  -7.806 -30.759  1.00  0.00    -0.502 OA
ATOM     23  H   UNL     1      -3.526  -7.062 -31.353  1.00  0.00     0.293 HD
ENDBRANCH   2  22
BRANCH   6  24
ATOM     24  O   UNL     1      -3.923  -7.392 -25.500  1.00  0.00    -0.507 OA
ATOM     25  H   UNL     1      -4.742  -6.857 -25.749  1.00  0.00     0.293 HD
ENDBRANCH   6  24
BRANCH   8  26
ATOM     26  O   UNL     1       0.481  -6.051 -24.132  1.00  0.00    -0.508 OA
ATOM     27  H   UNL     1       0.315  -6.312 -23.167  1.00  0.00     0.293 HD
ENDBRANCH   8  26
TORSDOF 6
ENDMDL
