MODEL 1
REMARK VINA RESULT:    -3.959      0.000      0.000
REMARK INTER + INTRA:          -7.604
REMARK INTER:                  -6.274
REMARK INTRA:                  -1.330
REMARK UNBOUND:                -1.330
REMARK SMILES CCCCCCCCCCCC(=O)[O-]
REMARK SMILES IDX 7 1 8 2 9 3 10 4 11 5 12 6 13 7 14 8 6 9 5 10 4 11 3 12 2 13
REMARK SMILES IDX 1 14
REMARK H PARENT
REMARK Flexibility Score: inf
ROOT
ATOM      1  C   UNL     1      -3.835  12.608  -4.305  1.00  0.00     0.000 C 
ENDROOT
BRANCH   1   2
ATOM      2  C   UNL     1      -3.030  13.769  -4.911  1.00  0.00     0.000 C 
BRANCH   2   3
ATOM      3  C   UNL     1      -2.561  13.427  -6.331  1.00  0.00     0.000 C 
BRANCH   3   4
ATOM      4  C   UNL     1      -3.044  12.030  -6.749  1.00  0.00     0.006 C 
BRANCH   4   5
ATOM      5  C   UNL     1      -2.861  11.778  -8.251  1.00  0.00     0.053 C 
BRANCH   5   6
ATOM      6  C   UNL     1      -1.562  11.090  -8.543  1.00  0.00     0.041 C 
ATOM      7  O   UNL     1      -0.549  11.762  -8.873  1.00  0.00    -0.550 OA
ATOM      8  O   UNL     1      -1.479   9.705  -8.481  1.00  0.00    -0.550 OA
ENDBRANCH   5   6
ENDBRANCH   4   5
ENDBRANCH   3   4
ENDBRANCH   2   3
ENDBRANCH   1   2
BRANCH   1   9
ATOM      9  C   UNL     1      -4.557  13.001  -3.006  1.00  0.00     0.000 C 
BRANCH   9  10
ATOM     10  C   UNL     1      -5.813  13.851  -3.263  1.00  0.00    -0.000 C 
BRANCH  10  11
ATOM     11  C   UNL     1      -6.735  13.236  -4.329  1.00  0.00    -0.000 C 
BRANCH  11  12
ATOM     12  C   UNL     1      -6.741  14.034  -5.642  1.00  0.00    -0.000 C 
BRANCH  12  13
ATOM     13  C   UNL     1      -6.598  13.103  -6.850  1.00  0.00    -0.003 C 
ATOM     14  C   UNL     1      -6.751  11.641  -6.442  1.00  0.00     0.004 C 
ENDBRANCH  12  13
ENDBRANCH  11  12
ENDBRANCH  10  11
ENDBRANCH   9  10
ENDBRANCH   1   9
TORSDOF 10
ENDMDL
MODEL 2
REMARK VINA RESULT:    -3.950      3.621      5.356
REMARK INTER + INTRA:          -7.589
REMARK INTER:                  -6.436
REMARK INTRA:                  -1.154
REMARK UNBOUND:                -1.330
REMARK SMILES CCCCCCCCCCCC(=O)[O-]
REMARK SMILES IDX 7 1 8 2 9 3 10 4 11 5 12 6 13 7 14 8 6 9 5 10 4 11 3 12 2 13
REMARK SMILES IDX 1 14
REMARK H PARENT
REMARK Flexibility Score: inf
ROOT
ATOM      1  C   UNL     1      -7.337  13.411  -3.710  1.00  0.00     0.000 C 
ENDROOT
BRANCH   1   2
ATOM      2  C   UNL     1      -8.675  12.743  -3.355  1.00  0.00     0.000 C 
BRANCH   2   3
ATOM      3  C   UNL     1      -9.098  11.750  -4.445  1.00  0.00     0.000 C 
BRANCH   3   4
ATOM      4  C   UNL     1      -8.022  10.675  -4.658  1.00  0.00     0.006 C 
BRANCH   4   5
ATOM      5  C   UNL     1      -7.777  10.385  -6.145  1.00  0.00     0.053 C 
BRANCH   5   6
ATOM      6  C   UNL     1      -8.700   9.324  -6.662  1.00  0.00     0.041 C 
ATOM      7  O   UNL     1      -9.704   9.640  -7.354  1.00  0.00    -0.550 OA
ATOM      8  O   UNL     1      -8.467   7.990  -6.354  1.00  0.00    -0.550 OA
ENDBRANCH   5   6
ENDBRANCH   4   5
ENDBRANCH   3   4
ENDBRANCH   2   3
ENDBRANCH   1   2
BRANCH   1   9
ATOM      9  C   UNL     1      -6.515  13.790  -2.469  1.00  0.00     0.000 C 
BRANCH   9  10
ATOM     10  C   UNL     1      -4.999  13.732  -2.724  1.00  0.00    -0.000 C 
BRANCH  10  11
ATOM     11  C   UNL     1      -4.557  12.403  -3.358  1.00  0.00    -0.000 C 
BRANCH  11  12
ATOM     12  C   UNL     1      -3.641  12.601  -4.575  1.00  0.00    -0.000 C 
BRANCH  12  13
ATOM     13  C   UNL     1      -4.170  11.832  -5.790  1.00  0.00    -0.003 C 
ATOM     14  C   UNL     1      -5.005  12.734  -6.695  1.00  0.00     0.004 C 
ENDBRANCH  12  13
ENDBRANCH  11  12
ENDBRANCH  10  11
ENDBRANCH   9  10
ENDBRANCH   1   9
TORSDOF 10
ENDMDL
MODEL 3
REMARK VINA RESULT:    -3.822     12.942     14.995
REMARK INTER + INTRA:          -7.386
REMARK INTER:                  -6.428
REMARK INTRA:                  -0.958
REMARK UNBOUND:                -1.330
REMARK SMILES CCCCCCCCCCCC(=O)[O-]
REMARK SMILES IDX 7 1 8 2 9 3 10 4 11 5 12 6 13 7 14 8 6 9 5 10 4 11 3 12 2 13
REMARK SMILES IDX 1 14
REMARK H PARENT
REMARK Flexibility Score: inf
ROOT
ATOM      1  C   UNL     1       5.842   3.808  -5.752  1.00  0.00     0.000 C 
ENDROOT
BRANCH   1   2
ATOM      2  C   UNL     1       7.165   4.334  -5.175  1.00  0.00     0.000 C 
BRANCH   2   3
ATOM      3  C   UNL     1       7.709   3.387  -4.098  1.00  0.00     0.000 C 
BRANCH   3   4
ATOM      4  C   UNL     1       9.086   2.835  -4.495  1.00  0.00     0.006 C 
BRANCH   4   5
ATOM      5  C   UNL     1       9.013   1.924  -5.728  1.00  0.00     0.053 C 
BRANCH   5   6
ATOM      6  C   UNL     1       8.364   0.612  -5.410  1.00  0.00     0.041 C 
ATOM      7  O   UNL     1       7.125   0.459  -5.582  1.00  0.00    -0.550 OA
ATOM      8  O   UNL     1       9.121  -0.432  -4.895  1.00  0.00    -0.550 OA
ENDBRANCH   5   6
ENDBRANCH   4   5
ENDBRANCH   3   4
ENDBRANCH   2   3
ENDBRANCH   1   2
BRANCH   1   9
ATOM      9  C   UNL     1       5.970   3.356  -7.215  1.00  0.00     0.000 C 
BRANCH   9  10
ATOM     10  C   UNL     1       7.013   4.172  -7.996  1.00  0.00    -0.000 C 
BRANCH  10  11
ATOM     11  C   UNL     1       6.783   4.124  -9.516  1.00  0.00    -0.000 C 
BRANCH  11  12
ATOM     12  C   UNL     1       6.347   5.479 -10.094  1.00  0.00    -0.000 C 
BRANCH  12  13
ATOM     13  C   UNL     1       4.820   5.612 -10.088  1.00  0.00    -0.003 C 
ATOM     14  C   UNL     1       4.155   4.365 -10.663  1.00  0.00     0.004 C 
ENDBRANCH  12  13
ENDBRANCH  11  12
ENDBRANCH  10  11
ENDBRANCH   9  10
ENDBRANCH   1   9
TORSDOF 10
ENDMDL
MODEL 4
REMARK VINA RESULT:    -3.783      3.166      5.027
REMARK INTER + INTRA:          -7.324
REMARK INTER:                  -6.006
REMARK INTRA:                  -1.319
REMARK UNBOUND:                -1.330
REMARK SMILES CCCCCCCCCCCC(=O)[O-]
REMARK SMILES IDX 7 1 8 2 9 3 10 4 11 5 12 6 13 7 14 8 6 9 5 10 4 11 3 12 2 13
REMARK SMILES IDX 1 14
REMARK H PARENT
REMARK Flexibility Score: inf
ROOT
ATOM      1  C   UNL     1      -4.564  12.986  -3.111  1.00  0.00     0.000 C 
ENDROOT
BRANCH   1   2
ATOM      2  C   UNL     1      -5.780  13.765  -2.584  1.00  0.00     0.000 C 
BRANCH   2   3
ATOM      3  C   UNL     1      -6.873  13.863  -3.655  1.00  0.00     0.000 C 
BRANCH   3   4
ATOM      4  C   UNL     1      -8.079  12.983  -3.291  1.00  0.00     0.006 C 
BRANCH   4   5
ATOM      5  C   UNL     1      -8.442  12.003  -4.415  1.00  0.00     0.053 C 
BRANCH   5   6
ATOM      6  C   UNL     1      -7.830  10.653  -4.194  1.00  0.00     0.041 C 
ATOM      7  O   UNL     1      -6.616  10.456  -4.465  1.00  0.00    -0.550 OA
ATOM      8  O   UNL     1      -8.609   9.606  -3.717  1.00  0.00    -0.550 OA
ENDBRANCH   5   6
ENDBRANCH   4   5
ENDBRANCH   3   4
ENDBRANCH   2   3
ENDBRANCH   1   2
BRANCH   1   9
ATOM      9  C   UNL     1      -3.480  13.904  -3.699  1.00  0.00     0.000 C 
BRANCH   9  10
ATOM     10  C   UNL     1      -3.130  13.547  -5.154  1.00  0.00    -0.000 C 
BRANCH  10  11
ATOM     11  C   UNL     1      -3.703  12.186  -5.582  1.00  0.00    -0.000 C 
BRANCH  11  12
ATOM     12  C   UNL     1      -4.334  12.221  -6.983  1.00  0.00    -0.000 C 
BRANCH  12  13
ATOM     13  C   UNL     1      -5.650  13.006  -6.971  1.00  0.00    -0.003 C 
ATOM     14  C   UNL     1      -6.767  12.222  -7.654  1.00  0.00     0.004 C 
ENDBRANCH  12  13
ENDBRANCH  11  12
ENDBRANCH  10  11
ENDBRANCH   9  10
ENDBRANCH   1   9
TORSDOF 10
ENDMDL
MODEL 5
REMARK VINA RESULT:    -3.706     13.177     15.356
REMARK INTER + INTRA:          -7.202
REMARK INTER:                  -6.514
REMARK INTRA:                  -0.688
REMARK UNBOUND:                -1.330
REMARK SMILES CCCCCCCCCCCC(=O)[O-]
REMARK SMILES IDX 7 1 8 2 9 3 10 4 11 5 12 6 13 7 14 8 6 9 5 10 4 11 3 12 2 13
REMARK SMILES IDX 1 14
REMARK H PARENT
REMARK Flexibility Score: inf
ROOT
ATOM      1  C   UNL     1       6.037   3.144  -5.770  1.00  0.00     0.000 C 
ENDROOT
BRANCH   1   2
ATOM      2  C   UNL     1       7.025   4.055  -5.025  1.00  0.00     0.000 C 
BRANCH   2   3
ATOM      3  C   UNL     1       8.129   3.230  -4.351  1.00  0.00     0.000 C 
BRANCH   3   4
ATOM      4  C   UNL     1       8.312   1.877  -5.055  1.00  0.00     0.006 C 
BRANCH   4   5
ATOM      5  C   UNL     1       9.707   1.284  -4.819  1.00  0.00     0.053 C 
BRANCH   5   6
ATOM      6  C   UNL     1       9.783  -0.147  -5.256  1.00  0.00     0.041 C 
ATOM      7  O   UNL     1       9.718  -1.074  -4.406  1.00  0.00    -0.550 OA
ATOM      8  O   UNL     1       9.955  -0.455  -6.600  1.00  0.00    -0.550 OA
ENDBRANCH   5   6
ENDBRANCH   4   5
ENDBRANCH   3   4
ENDBRANCH   2   3
ENDBRANCH   1   2
BRANCH   1   9
ATOM      9  C   UNL     1       5.737   3.633  -7.195  1.00  0.00     0.000 C 
BRANCH   9  10
ATOM     10  C   UNL     1       6.893   4.453  -7.794  1.00  0.00    -0.000 C 
BRANCH  10  11
ATOM     11  C   UNL     1       6.424   5.796  -8.377  1.00  0.00    -0.000 C 
BRANCH  11  12
ATOM     12  C   UNL     1       6.435   6.930  -7.341  1.00  0.00    -0.000 C 
BRANCH  12  13
ATOM     13  C   UNL     1       7.643   7.850  -7.546  1.00  0.00    -0.003 C 
ATOM     14  C   UNL     1       7.204   9.285  -7.824  1.00  0.00     0.004 C 
ENDBRANCH  12  13
ENDBRANCH  11  12
ENDBRANCH  10  11
ENDBRANCH   9  10
ENDBRANCH   1   9
TORSDOF 10
ENDMDL
MODEL 6
REMARK VINA RESULT:    -3.678     13.435     15.586
REMARK INTER + INTRA:          -7.159
REMARK INTER:                  -5.847
REMARK INTRA:                  -1.312
REMARK UNBOUND:                -1.330
REMARK SMILES CCCCCCCCCCCC(=O)[O-]
REMARK SMILES IDX 7 1 8 2 9 3 10 4 11 5 12 6 13 7 14 8 6 9 5 10 4 11 3 12 2 13
REMARK SMILES IDX 1 14
REMARK H PARENT
REMARK Flexibility Score: inf
ROOT
ATOM      1  C   UNL     1       7.340   3.623  -9.674  1.00  0.00     0.000 C 
ENDROOT
BRANCH   1   2
ATOM      2  C   UNL     1       7.814   2.477  -8.766  1.00  0.00     0.000 C 
BRANCH   2   3
ATOM      3  C   UNL     1       9.311   2.605  -8.458  1.00  0.00     0.000 C 
BRANCH   3   4
ATOM      4  C   UNL     1       9.701   1.734  -7.254  1.00  0.00     0.006 C 
BRANCH   4   5
ATOM      5  C   UNL     1       8.475   1.241  -6.473  1.00  0.00     0.053 C 
BRANCH   5   6
ATOM      6  C   UNL     1       8.856   0.704  -5.127  1.00  0.00     0.041 C 
ATOM      7  O   UNL     1       9.148  -0.513  -4.990  1.00  0.00    -0.550 OA
ATOM      8  O   UNL     1       8.857   1.542  -4.019  1.00  0.00    -0.550 OA
ENDBRANCH   5   6
ENDBRANCH   4   5
ENDBRANCH   3   4
ENDBRANCH   2   3
ENDBRANCH   1   2
BRANCH   1   9
ATOM      9  C   UNL     1       6.112   4.357  -9.113  1.00  0.00     0.000 C 
BRANCH   9  10
ATOM     10  C   UNL     1       6.427   5.806  -8.703  1.00  0.00    -0.000 C 
BRANCH  10  11
ATOM     11  C   UNL     1       7.290   5.888  -7.434  1.00  0.00    -0.000 C 
BRANCH  11  12
ATOM     12  C   UNL     1       6.465   5.751  -6.145  1.00  0.00    -0.000 C 
BRANCH  12  13
ATOM     13  C   UNL     1       6.789   4.438  -5.423  1.00  0.00    -0.003 C 
ATOM     14  C   UNL     1       5.639   3.443  -5.542  1.00  0.00     0.004 C 
ENDBRANCH  12  13
ENDBRANCH  11  12
ENDBRANCH  10  11
ENDBRANCH   9  10
ENDBRANCH   1   9
TORSDOF 10
ENDMDL
MODEL 7
REMARK VINA RESULT:    -3.612      2.865      5.340
REMARK INTER + INTRA:          -7.053
REMARK INTER:                  -6.387
REMARK INTRA:                  -0.666
REMARK UNBOUND:                -1.330
REMARK SMILES CCCCCCCCCCCC(=O)[O-]
REMARK SMILES IDX 7 1 8 2 9 3 10 4 11 5 12 6 13 7 14 8 6 9 5 10 4 11 3 12 2 13
REMARK SMILES IDX 1 14
REMARK H PARENT
REMARK Flexibility Score: inf
ROOT
ATOM      1  C   UNL     1      -4.310  12.695  -3.586  1.00  0.00     0.000 C 
ENDROOT
BRANCH   1   2
ATOM      2  C   UNL     1      -4.867  13.750  -2.616  1.00  0.00     0.000 C 
BRANCH   2   3
ATOM      3  C   UNL     1      -6.399  13.791  -2.674  1.00  0.00     0.000 C 
BRANCH   3   4
ATOM      4  C   UNL     1      -6.912  13.300  -4.036  1.00  0.00     0.006 C 
BRANCH   4   5
ATOM      5  C   UNL     1      -7.965  12.192  -3.895  1.00  0.00     0.053 C 
BRANCH   5   6
ATOM      6  C   UNL     1      -7.506  10.909  -4.518  1.00  0.00     0.041 C 
ATOM      7  O   UNL     1      -6.704  10.927  -5.489  1.00  0.00    -0.550 OA
ATOM      8  O   UNL     1      -7.989   9.695  -4.046  1.00  0.00    -0.550 OA
ENDBRANCH   5   6
ENDBRANCH   4   5
ENDBRANCH   3   4
ENDBRANCH   2   3
ENDBRANCH   1   2
BRANCH   1   9
ATOM      9  C   UNL     1      -3.285  13.278  -4.572  1.00  0.00     0.000 C 
BRANCH   9  10
ATOM     10  C   UNL     1      -3.724  13.127  -6.038  1.00  0.00    -0.000 C 
BRANCH  10  11
ATOM     11  C   UNL     1      -3.326  11.768  -6.637  1.00  0.00    -0.000 C 
BRANCH  11  12
ATOM     12  C   UNL     1      -2.605  11.902  -7.988  1.00  0.00    -0.000 C 
BRANCH  12  13
ATOM     13  C   UNL     1      -1.984  10.567  -8.412  1.00  0.00    -0.003 C 
ATOM     14  C   UNL     1      -2.073  10.372  -9.923  1.00  0.00     0.004 C 
ENDBRANCH  12  13
ENDBRANCH  11  12
ENDBRANCH  10  11
ENDBRANCH   9  10
ENDBRANCH   1   9
TORSDOF 10
ENDMDL
MODEL 8
REMARK VINA RESULT:    -3.609      2.011      2.918
REMARK INTER + INTRA:          -7.050
REMARK INTER:                  -5.959
REMARK INTRA:                  -1.090
REMARK UNBOUND:                -1.330
REMARK SMILES CCCCCCCCCCCC(=O)[O-]
REMARK SMILES IDX 7 1 8 2 9 3 10 4 11 5 12 6 13 7 14 8 6 9 5 10 4 11 3 12 2 13
REMARK SMILES IDX 1 14
REMARK H PARENT
REMARK Flexibility Score: inf
ROOT
ATOM      1  C   UNL     1      -5.403  13.770  -2.262  1.00  0.00     0.000 C 
ENDROOT
BRANCH   1   2
ATOM      2  C   UNL     1      -4.471  12.998  -3.210  1.00  0.00     0.000 C 
BRANCH   2   3
ATOM      3  C   UNL     1      -3.403  13.925  -3.804  1.00  0.00     0.000 C 
BRANCH   3   4
ATOM      4  C   UNL     1      -2.928  13.411  -5.171  1.00  0.00     0.006 C 
BRANCH   4   5
ATOM      5  C   UNL     1      -3.670  12.139  -5.603  1.00  0.00     0.053 C 
BRANCH   5   6
ATOM      6  C   UNL     1      -4.182  12.246  -7.007  1.00  0.00     0.041 C 
ATOM      7  O   UNL     1      -5.339  12.693  -7.227  1.00  0.00    -0.550 OA
ATOM      8  O   UNL     1      -3.394  11.824  -8.069  1.00  0.00    -0.550 OA
ENDBRANCH   5   6
ENDBRANCH   4   5
ENDBRANCH   3   4
ENDBRANCH   2   3
ENDBRANCH   1   2
BRANCH   1   9
ATOM      9  C   UNL     1      -6.864  13.772  -2.737  1.00  0.00     0.000 C 
BRANCH   9  10
ATOM     10  C   UNL     1      -7.031  13.155  -4.136  1.00  0.00    -0.000 C 
BRANCH  10  11
ATOM     11  C   UNL     1      -7.844  11.850  -4.113  1.00  0.00    -0.000 C 
BRANCH  11  12
ATOM     12  C   UNL     1      -7.106  10.678  -4.777  1.00  0.00    -0.000 C 
BRANCH  12  13
ATOM     13  C   UNL     1      -8.022   9.938  -5.758  1.00  0.00    -0.003 C 
ATOM     14  C   UNL     1      -8.288  10.777  -7.005  1.00  0.00     0.004 C 
ENDBRANCH  12  13
ENDBRANCH  11  12
ENDBRANCH  10  11
ENDBRANCH   9  10
ENDBRANCH   1   9
TORSDOF 10
ENDMDL
MODEL 9
REMARK VINA RESULT:    -3.598     13.009     14.412
REMARK INTER + INTRA:          -7.032
REMARK INTER:                  -5.670
REMARK INTRA:                  -1.362
REMARK UNBOUND:                -1.330
REMARK SMILES CCCCCCCCCCCC(=O)[O-]
REMARK SMILES IDX 7 1 8 2 9 3 10 4 11 5 12 6 13 7 14 8 6 9 5 10 4 11 3 12 2 13
REMARK SMILES IDX 1 14
REMARK H PARENT
REMARK Flexibility Score: inf
ROOT
ATOM      1  C   UNL     1       6.486   6.288  -6.226  1.00  0.00     0.000 C 
ENDROOT
BRANCH   1   2
ATOM      2  C   UNL     1       6.988   4.939  -5.687  1.00  0.00     0.000 C 
BRANCH   2   3
ATOM      3  C   UNL     1       5.841   3.925  -5.595  1.00  0.00     0.000 C 
BRANCH   3   4
ATOM      4  C   UNL     1       6.381   2.496  -5.440  1.00  0.00     0.006 C 
BRANCH   4   5
ATOM      5  C   UNL     1       7.331   2.107  -6.581  1.00  0.00     0.053 C 
BRANCH   5   6
ATOM      6  C   UNL     1       8.663   1.656  -6.063  1.00  0.00     0.041 C 
ATOM      7  O   UNL     1       8.890   0.430  -5.882  1.00  0.00    -0.550 OA
ATOM      8  O   UNL     1       9.642   2.591  -5.753  1.00  0.00    -0.550 OA
ENDBRANCH   5   6
ENDBRANCH   4   5
ENDBRANCH   3   4
ENDBRANCH   2   3
ENDBRANCH   1   2
BRANCH   1   9
ATOM      9  C   UNL     1       6.460   6.341  -7.762  1.00  0.00     0.000 C 
BRANCH   9  10
ATOM     10  C   UNL     1       7.599   5.527  -8.401  1.00  0.00    -0.000 C 
BRANCH  10  11
ATOM     11  C   UNL     1       7.086   4.479  -9.401  1.00  0.00    -0.000 C 
BRANCH  11  12
ATOM     12  C   UNL     1       5.572   4.580  -9.645  1.00  0.00    -0.000 C 
BRANCH  12  13
ATOM     13  C   UNL     1       4.852   3.321  -9.150  1.00  0.00    -0.003 C 
ATOM     14  C   UNL     1       3.380   3.332  -9.553  1.00  0.00     0.004 C 
ENDBRANCH  12  13
ENDBRANCH  11  12
ENDBRANCH  10  11
ENDBRANCH   9  10
ENDBRANCH   1   9
TORSDOF 10
ENDMDL
