MODEL 1
REMARK VINA RESULT:    -1.841      0.000      0.000
REMARK INTER + INTRA:          -1.747
REMARK INTER:                  -2.217
REMARK INTRA:                   0.471
REMARK UNBOUND:                 0.471
REMARK SMILES O=c1c(O)c(-c2ccc(O)c(O)c2)oc2cc(O)cc(O)c12
REMARK SMILES IDX 5 1 3 2 2 3 1 4 22 5 20 6 19 7 17 8 16 9 15 10 14 11 6 12
REMARK SMILES IDX 7 13 8 14 9 15 13 16 11 17 10 18 12 20 4 22 21 24 18 26
REMARK H PARENT 10 19 12 21 4 23 21 25 18 27
REMARK Flexibility Score: inf
ROOT
ATOM      1  C   UNL     1     -13.542   9.021  16.784  1.00  0.00     0.180 A 
ATOM      2  C   UNL     1     -12.437   8.972  17.652  1.00  0.00     0.208 A 
ATOM      3  C   UNL     1     -12.662   8.902  19.037  1.00  0.00     0.238 A 
ATOM      4  O   UNL     1     -11.670   8.913  19.812  1.00  0.00    -0.285 OA
ATOM      5  C   UNL     1     -13.987   8.866  19.535  1.00  0.00     0.111 A 
ATOM      6  C   UNL     1     -14.331   8.755  20.915  1.00  0.00     0.134 A 
ATOM      7  C   UNL     1     -15.673   8.861  21.304  1.00  0.00     0.093 A 
ATOM      8  C   UNL     1     -16.687   9.007  20.354  1.00  0.00     0.123 A 
ATOM      9  C   UNL     1     -16.367   9.056  19.000  1.00  0.00     0.094 A 
ATOM     10  C   UNL     1     -15.034   8.990  18.585  1.00  0.00     0.146 A 
ATOM     11  O   UNL     1     -14.771   9.051  17.285  1.00  0.00    -0.452 OA
ENDROOT
BRANCH   1  12
ATOM     12  C   UNL     1     -13.385   9.070  15.312  1.00  0.00     0.025 A 
ATOM     13  C   UNL     1     -12.115   9.103  14.712  1.00  0.00     0.016 A 
ATOM     14  C   UNL     1     -11.991   9.125  13.320  1.00  0.00     0.051 A 
ATOM     15  C   UNL     1     -13.133   9.101  12.509  1.00  0.00     0.157 A 
ATOM     16  C   UNL     1     -14.526   9.025  14.494  1.00  0.00     0.062 A 
ATOM     17  C   UNL     1     -14.407   9.048  13.100  1.00  0.00     0.158 A 
BRANCH  15  18
ATOM     18  O   UNL     1     -13.007   9.125  11.121  1.00  0.00    -0.504 OA
ATOM     19  H   UNL     1     -13.744   9.487  10.526  1.00  0.00     0.293 HD
ENDBRANCH  15  18
BRANCH  17  20
ATOM     20  O   UNL     1     -15.562   9.016  12.321  1.00  0.00    -0.504 OA
ATOM     21  H   UNL     1     -15.599   8.530  11.432  1.00  0.00     0.293 HD
ENDBRANCH  17  20
ENDBRANCH   1  12
BRANCH   2  22
ATOM     22  O   UNL     1     -11.138   9.031  17.141  1.00  0.00    -0.502 OA
ATOM     23  H   UNL     1     -10.404   8.405  17.449  1.00  0.00     0.293 HD
ENDBRANCH   2  22
BRANCH   6  24
ATOM     24  O   UNL     1     -13.405   8.515  21.934  1.00  0.00    -0.507 OA
ATOM     25  H   UNL     1     -13.437   7.731  22.568  1.00  0.00     0.293 HD
ENDBRANCH   6  24
BRANCH   8  26
ATOM     26  O   UNL     1     -18.021   9.095  20.747  1.00  0.00    -0.508 OA
ATOM     27  H   UNL     1     -18.313   8.857  21.688  1.00  0.00     0.293 HD
ENDBRANCH   8  26
TORSDOF 6
ENDMDL
MODEL 2
REMARK VINA RESULT:    -0.200      5.331      7.175
REMARK INTER + INTRA:           0.230
REMARK INTER:                   0.517
REMARK INTRA:                  -0.288
REMARK UNBOUND:                 0.471
REMARK SMILES O=c1c(O)c(-c2ccc(O)c(O)c2)oc2cc(O)cc(O)c12
REMARK SMILES IDX 5 1 3 2 2 3 1 4 22 5 20 6 19 7 17 8 16 9 15 10 14 11 6 12
REMARK SMILES IDX 7 13 8 14 9 15 13 16 11 17 10 18 12 20 4 22 21 24 18 26
REMARK H PARENT 10 19 12 21 4 23 21 25 18 27
REMARK Flexibility Score: inf
ROOT
ATOM      1  C   UNL     1     -15.797   6.614  21.291  1.00  0.00     0.180 A 
ATOM      2  C   UNL     1     -14.647   7.367  21.583  1.00  0.00     0.208 A 
ATOM      3  C   UNL     1     -13.418   6.702  21.731  1.00  0.00     0.238 A 
ATOM      4  O   UNL     1     -12.402   7.375  22.047  1.00  0.00    -0.285 OA
ATOM      5  C   UNL     1     -13.352   5.297  21.569  1.00  0.00     0.111 A 
ATOM      6  C   UNL     1     -12.154   4.527  21.656  1.00  0.00     0.134 A 
ATOM      7  C   UNL     1     -12.227   3.129  21.608  1.00  0.00     0.093 A 
ATOM      8  C   UNL     1     -13.447   2.478  21.409  1.00  0.00     0.123 A 
ATOM      9  C   UNL     1     -14.614   3.224  21.262  1.00  0.00     0.094 A 
ATOM     10  C   UNL     1     -14.578   4.618  21.343  1.00  0.00     0.146 A 
ATOM     11  O   UNL     1     -15.715   5.291  21.208  1.00  0.00    -0.452 OA
ENDROOT
BRANCH   1  12
ATOM     12  C   UNL     1     -17.123   7.245  21.095  1.00  0.00     0.025 A 
ATOM     13  C   UNL     1     -18.081   7.268  22.124  1.00  0.00     0.016 A 
ATOM     14  C   UNL     1     -19.316   7.890  21.924  1.00  0.00     0.051 A 
ATOM     15  C   UNL     1     -19.607   8.508  20.701  1.00  0.00     0.157 A 
ATOM     16  C   UNL     1     -17.411   7.883  19.879  1.00  0.00     0.062 A 
ATOM     17  C   UNL     1     -18.648   8.506  19.674  1.00  0.00     0.158 A 
BRANCH  15  18
ATOM     18  O   UNL     1     -20.841   9.125  20.504  1.00  0.00    -0.504 OA
ATOM     19  H   UNL     1     -21.580   8.678  19.972  1.00  0.00     0.293 HD
ENDBRANCH  15  18
BRANCH  17  20
ATOM     20  O   UNL     1     -18.904   9.118  18.448  1.00  0.00    -0.504 OA
ATOM     21  H   UNL     1     -19.841   9.197  18.071  1.00  0.00     0.293 HD
ENDBRANCH  17  20
ENDBRANCH   1  12
BRANCH   2  22
ATOM     22  O   UNL     1     -14.737   8.750  21.762  1.00  0.00    -0.502 OA
ATOM     23  H   UNL     1     -14.614   9.406  21.000  1.00  0.00     0.293 HD
ENDBRANCH   2  22
BRANCH   6  24
ATOM     24  O   UNL     1     -10.875   5.081  21.763  1.00  0.00    -0.507 OA
ATOM     25  H   UNL     1     -10.102   4.864  21.151  1.00  0.00     0.293 HD
ENDBRANCH   6  24
BRANCH   8  26
ATOM     26  O   UNL     1     -13.509   1.088  21.346  1.00  0.00    -0.508 OA
ATOM     27  H   UNL     1     -12.669   0.521  21.305  1.00  0.00     0.293 HD
ENDBRANCH   8  26
TORSDOF 6
ENDMDL
