MODEL 1
REMARK VINA RESULT:    -3.658      0.000      0.000
REMARK INTER + INTRA:          -5.195
REMARK INTER:                  -4.941
REMARK INTRA:                  -0.253
REMARK UNBOUND:                -0.253
REMARK SMILES C=C1CCC=C(C)CC[C@H]2[C@H]1CC2(C)C
REMARK SMILES IDX 11 1 12 2 13 3 10 4 14 5 15 6 9 7 8 8 6 9 7 10 5 11 2 13
REMARK SMILES IDX 1 14 3 15 4 16
REMARK H PARENT
REMARK Flexibility Score: 70.00
ROOT
ATOM      1  C   UNL     1      31.148   7.790  28.238  1.00  0.00     0.018 C 
ATOM      2  C   UNL     1      31.617   6.715  29.228  1.00  0.00     0.015 C 
ATOM      3  C   UNL     1      30.488   7.110  30.199  1.00  0.00    -0.031 C 
ATOM      4  C   UNL     1      29.941   8.105  29.137  1.00  0.00     0.002 C 
ATOM      5  C   UNL     1      31.043   7.721  31.505  1.00  0.00     0.011 C 
ATOM      6  C   UNL     1      29.513   5.961  30.514  1.00  0.00     0.011 C 
ENDROOT
BRANCH   4   7
ATOM      7  C   UNL     1      29.794   9.589  29.556  1.00  0.00     0.009 C 
BRANCH   7   8
ATOM      8  C   UNL     1      28.861  10.429  28.661  1.00  0.00     0.030 C 
BRANCH   8   9
ATOM      9  C   UNL     1      29.567  11.182  27.544  1.00  0.00    -0.077 C 
ATOM     10  C   UNL     1      29.947  12.618  27.792  1.00  0.00     0.039 C 
ATOM     11  C   UNL     1      29.860  10.645  26.333  1.00  0.00    -0.028 CG0
ATOM     12  G   UNL     1      29.471   9.261  25.850  1.00  0.00     0.000 G0
ENDBRANCH   8   9
ENDBRANCH   7   8
ENDBRANCH   4   7
BRANCH   1  13
ATOM     13  C   UNL     1      30.781   7.306  26.837  1.00  0.00    -0.074 C 
ATOM     14  C   UNL     1      30.489   6.017  26.576  1.00  0.00     0.008 C 
BRANCH  13  15
ATOM     15  C   UNL     1      30.690   8.318  25.712  1.00  0.00     0.035 C 
BRANCH  15  16
ATOM     16  C   UNL     1      29.482   9.258  25.842  1.00  0.00     0.032 CG0
ATOM     17  G   UNL     1      29.871  10.636  26.342  1.00  0.00     0.000 G0
ENDBRANCH  15  16
ENDBRANCH  13  15
ENDBRANCH   1  13
TORSDOF 0
ENDMDL
MODEL 2
REMARK VINA RESULT:    -3.435      2.052      3.346
REMARK INTER + INTRA:          -4.892
REMARK INTER:                  -4.659
REMARK INTRA:                  -0.233
REMARK UNBOUND:                -0.253
REMARK SMILES C=C1CCC=C(C)CC[C@H]2[C@H]1CC2(C)C
REMARK SMILES IDX 11 1 12 2 13 3 10 4 14 5 15 6 9 7 8 8 6 9 7 10 5 11 2 13
REMARK SMILES IDX 1 14 3 15 4 16
REMARK H PARENT
REMARK Flexibility Score: 70.00
ROOT
ATOM      1  C   UNL     1      30.120   9.245  27.767  1.00  0.00     0.018 C 
ATOM      2  C   UNL     1      30.390   7.979  26.942  1.00  0.00     0.015 C 
ATOM      3  C   UNL     1      30.199   7.113  28.203  1.00  0.00    -0.031 C 
ATOM      4  C   UNL     1      29.800   8.385  29.001  1.00  0.00     0.002 C 
ATOM      5  C   UNL     1      31.511   6.413  28.619  1.00  0.00     0.011 C 
ATOM      6  C   UNL     1      29.057   6.088  28.082  1.00  0.00     0.011 C 
ENDROOT
BRANCH   4   7
ATOM      7  C   UNL     1      30.619   8.719  30.273  1.00  0.00     0.009 C 
BRANCH   7   8
ATOM      8  C   UNL     1      29.994   9.790  31.188  1.00  0.00     0.030 C 
BRANCH   8   9
ATOM      9  C   UNL     1      30.476  11.207  30.919  1.00  0.00    -0.077 C 
ATOM     10  C   UNL     1      31.655  11.713  31.709  1.00  0.00     0.039 C 
ATOM     11  C   UNL     1      29.899  12.050  30.026  1.00  0.00    -0.028 CG0
ATOM     12  G   UNL     1      28.648  11.773  29.214  1.00  0.00     0.000 G0
ENDBRANCH   8   9
ENDBRANCH   7   8
ENDBRANCH   4   7
BRANCH   1  13
ATOM     13  C   UNL     1      28.965  10.126  27.296  1.00  0.00    -0.074 C 
ATOM     14  C   UNL     1      27.945   9.642  26.564  1.00  0.00     0.008 C 
BRANCH  13  15
ATOM     15  C   UNL     1      28.939  11.585  27.711  1.00  0.00     0.035 C 
BRANCH  15  16
ATOM     16  C   UNL     1      28.639  11.782  29.205  1.00  0.00     0.032 CG0
ATOM     17  G   UNL     1      29.891  12.065  30.014  1.00  0.00     0.000 G0
ENDBRANCH  15  16
ENDBRANCH  13  15
ENDBRANCH   1  13
TORSDOF 0
ENDMDL
MODEL 3
REMARK VINA RESULT:    -3.421      6.185      8.715
REMARK INTER + INTRA:          -4.874
REMARK INTER:                  -4.810
REMARK INTRA:                  -0.064
REMARK UNBOUND:                -0.253
REMARK SMILES C=C1CCC=C(C)CC[C@H]2[C@H]1CC2(C)C
REMARK SMILES IDX 11 1 12 2 13 3 10 4 14 5 15 6 9 7 8 8 6 9 7 10 5 11 2 13
REMARK SMILES IDX 1 14 3 15 4 16
REMARK H PARENT
REMARK Flexibility Score: 70.00
ROOT
ATOM      1  C   UNL     1      30.723   7.955  34.833  1.00  0.00     0.018 C 
ATOM      2  C   UNL     1      31.569   7.753  33.569  1.00  0.00     0.015 C 
ATOM      3  C   UNL     1      31.462   9.257  33.252  1.00  0.00    -0.031 C 
ATOM      4  C   UNL     1      30.719   9.474  34.599  1.00  0.00     0.002 C 
ATOM      5  C   UNL     1      30.655   9.514  31.961  1.00  0.00     0.011 C 
ATOM      6  C   UNL     1      32.824   9.973  33.187  1.00  0.00     0.011 C 
ENDROOT
BRANCH   4   7
ATOM      7  C   UNL     1      29.318  10.134  34.545  1.00  0.00     0.009 C 
BRANCH   7   8
ATOM      8  C   UNL     1      28.541  10.125  35.877  1.00  0.00     0.030 C 
BRANCH   8   9
ATOM      9  C   UNL     1      29.203  10.911  36.998  1.00  0.00    -0.077 C 
ATOM     10  C   UNL     1      29.005  12.405  37.024  1.00  0.00     0.039 C 
ATOM     11  C   UNL     1      29.974  10.354  37.965  1.00  0.00    -0.028 CG0
ATOM     12  G   UNL     1      30.379   8.895  38.057  1.00  0.00     0.000 G0
ENDBRANCH   8   9
ENDBRANCH   7   8
ENDBRANCH   4   7
BRANCH   1  13
ATOM     13  C   UNL     1      31.361   7.522  36.152  1.00  0.00    -0.074 C 
ATOM     14  C   UNL     1      31.739   6.250  36.382  1.00  0.00     0.008 C 
BRANCH  13  15
ATOM     15  C   UNL     1      31.626   8.568  37.217  1.00  0.00     0.035 C 
BRANCH  15  16
ATOM     16  C   UNL     1      30.386   8.890  38.067  1.00  0.00     0.032 CG0
ATOM     17  G   UNL     1      29.972  10.345  37.958  1.00  0.00     0.000 G0
ENDBRANCH  15  16
ENDBRANCH  13  15
ENDBRANCH   1  13
TORSDOF 0
ENDMDL
MODEL 4
REMARK VINA RESULT:    -3.292      4.264      6.818
REMARK INTER + INTRA:          -4.699
REMARK INTER:                  -4.436
REMARK INTRA:                  -0.263
REMARK UNBOUND:                -0.253
REMARK SMILES C=C1CCC=C(C)CC[C@H]2[C@H]1CC2(C)C
REMARK SMILES IDX 11 1 12 2 13 3 10 4 14 5 15 6 9 7 8 8 6 9 7 10 5 11 2 13
REMARK SMILES IDX 1 14 3 15 4 16
REMARK H PARENT
REMARK Flexibility Score: 70.00
ROOT
ATOM      1  C   UNL     1      29.371   9.014  34.992  1.00  0.00     0.018 C 
ATOM      2  C   UNL     1      29.254   8.578  36.459  1.00  0.00     0.015 C 
ATOM      3  C   UNL     1      30.748   8.199  36.469  1.00  0.00    -0.031 C 
ATOM      4  C   UNL     1      30.887   8.763  35.027  1.00  0.00     0.002 C 
ATOM      5  C   UNL     1      30.951   6.678  36.645  1.00  0.00     0.011 C 
ATOM      6  C   UNL     1      31.576   8.977  37.508  1.00  0.00     0.011 C 
ENDROOT
BRANCH   4   7
ATOM      7  C   UNL     1      31.428   7.807  33.934  1.00  0.00     0.009 C 
BRANCH   7   8
ATOM      8  C   UNL     1      31.961   8.503  32.666  1.00  0.00     0.030 C 
BRANCH   8   9
ATOM      9  C   UNL     1      30.941   8.640  31.546  1.00  0.00    -0.077 C 
ATOM     10  C   UNL     1      30.926   7.583  30.472  1.00  0.00     0.039 C 
ATOM     11  C   UNL     1      30.055   9.663  31.445  1.00  0.00    -0.028 CG0
ATOM     12  G   UNL     1      29.977  10.872  32.357  1.00  0.00     0.000 G0
ENDBRANCH   8   9
ENDBRANCH   7   8
ENDBRANCH   4   7
BRANCH   1  13
ATOM     13  C   UNL     1      28.977  10.457  34.681  1.00  0.00    -0.074 C 
ATOM     14  C   UNL     1      28.918  11.406  35.634  1.00  0.00     0.008 C 
BRANCH  13  15
ATOM     15  C   UNL     1      28.695  10.845  33.242  1.00  0.00     0.035 C 
BRANCH  15  16
ATOM     16  C   UNL     1      29.958  10.876  32.367  1.00  0.00     0.032 CG0
ATOM     17  G   UNL     1      30.054   9.673  31.448  1.00  0.00     0.000 G0
ENDBRANCH  15  16
ENDBRANCH  13  15
ENDBRANCH   1  13
TORSDOF 0
ENDMDL
MODEL 5
REMARK VINA RESULT:    -3.280      3.207      6.015
REMARK INTER + INTRA:          -4.684
REMARK INTER:                  -4.641
REMARK INTRA:                  -0.043
REMARK UNBOUND:                -0.253
REMARK SMILES C=C1CCC=C(C)CC[C@H]2[C@H]1CC2(C)C
REMARK SMILES IDX 11 1 12 2 13 3 10 4 14 5 15 6 9 7 8 8 6 9 7 10 5 11 2 13
REMARK SMILES IDX 1 14 3 15 4 16
REMARK H PARENT
REMARK Flexibility Score: 70.00
ROOT
ATOM      1  C   UNL     1      31.349  10.483  31.305  1.00  0.00     0.018 C 
ATOM      2  C   UNL     1      30.707  11.875  31.229  1.00  0.00     0.015 C 
ATOM      3  C   UNL     1      29.444  11.261  30.593  1.00  0.00    -0.031 C 
ATOM      4  C   UNL     1      30.048   9.843  30.794  1.00  0.00     0.002 C 
ATOM      5  C   UNL     1      29.248  11.735  29.137  1.00  0.00     0.011 C 
ATOM      6  C   UNL     1      28.162  11.497  31.413  1.00  0.00     0.011 C 
ENDROOT
BRANCH   4   7
ATOM      7  C   UNL     1      30.197   8.944  29.541  1.00  0.00     0.009 C 
BRANCH   7   8
ATOM      8  C   UNL     1      30.883   7.586  29.791  1.00  0.00     0.030 C 
BRANCH   8   9
ATOM      9  C   UNL     1      30.185   6.707  30.817  1.00  0.00    -0.077 C 
ATOM     10  C   UNL     1      29.017   5.875  30.355  1.00  0.00     0.039 C 
ATOM     11  C   UNL     1      30.538   6.639  32.125  1.00  0.00    -0.028 CG0
ATOM     12  G   UNL     1      31.609   7.468  32.807  1.00  0.00     0.000 G0
ENDBRANCH   8   9
ENDBRANCH   7   8
ENDBRANCH   4   7
BRANCH   1  13
ATOM     13  C   UNL     1      31.781  10.012  32.693  1.00  0.00    -0.074 C 
ATOM     14  C   UNL     1      32.730  10.649  33.404  1.00  0.00     0.008 C 
BRANCH  13  15
ATOM     15  C   UNL     1      31.082   8.817  33.312  1.00  0.00     0.035 C 
BRANCH  15  16
ATOM     16  C   UNL     1      31.623   7.471  32.803  1.00  0.00     0.032 CG0
ATOM     17  G   UNL     1      30.550   6.631  32.138  1.00  0.00     0.000 G0
ENDBRANCH  15  16
ENDBRANCH  13  15
ENDBRANCH   1  13
TORSDOF 0
ENDMDL
MODEL 6
REMARK VINA RESULT:    -3.249      1.988      4.622
REMARK INTER + INTRA:          -4.641
REMARK INTER:                  -4.689
REMARK INTRA:                   0.048
REMARK UNBOUND:                -0.253
REMARK SMILES C=C1CCC=C(C)CC[C@H]2[C@H]1CC2(C)C
REMARK SMILES IDX 11 1 12 2 13 3 10 4 14 5 15 6 9 7 8 8 6 9 7 10 5 11 2 13
REMARK SMILES IDX 1 14 3 15 4 16
REMARK H PARENT
REMARK Flexibility Score: 70.00
ROOT
ATOM      1  C   UNL     1      29.953   8.993  27.279  1.00  0.00     0.018 C 
ATOM      2  C   UNL     1      29.522  10.150  28.192  1.00  0.00     0.015 C 
ATOM      3  C   UNL     1      28.650  10.724  27.058  1.00  0.00    -0.031 C 
ATOM      4  C   UNL     1      28.988   9.482  26.187  1.00  0.00     0.002 C 
ATOM      5  C   UNL     1      29.180  12.088  26.564  1.00  0.00     0.011 C 
ATOM      6  C   UNL     1      27.156  10.826  27.419  1.00  0.00     0.011 C 
ENDROOT
BRANCH   4   7
ATOM      7  C   UNL     1      29.628   9.735  24.799  1.00  0.00     0.009 C 
BRANCH   7   8
ATOM      8  C   UNL     1      30.616   8.649  24.330  1.00  0.00     0.030 C 
BRANCH   8   9
ATOM      9  C   UNL     1      29.959   7.415  23.732  1.00  0.00    -0.077 C 
ATOM     10  C   UNL     1      29.463   7.498  22.311  1.00  0.00     0.039 C 
ATOM     11  C   UNL     1      29.775   6.250  24.403  1.00  0.00    -0.028 CG0
ATOM     12  G   UNL     1      30.105   5.997  25.862  1.00  0.00     0.000 G0
ENDBRANCH   8   9
ENDBRANCH   7   8
ENDBRANCH   4   7
BRANCH   1  13
ATOM     13  C   UNL     1      29.664   7.583  27.791  1.00  0.00    -0.074 C 
ATOM     14  C   UNL     1      29.872   7.228  29.072  1.00  0.00     0.008 C 
BRANCH  13  15
ATOM     15  C   UNL     1      29.074   6.563  26.835  1.00  0.00     0.035 C 
BRANCH  15  16
ATOM     16  C   UNL     1      30.111   5.974  25.866  1.00  0.00     0.032 CG0
ATOM     17  G   UNL     1      29.773   6.257  24.415  1.00  0.00     0.000 G0
ENDBRANCH  15  16
ENDBRANCH  13  15
ENDBRANCH   1  13
TORSDOF 0
ENDMDL
MODEL 7
REMARK VINA RESULT:    -3.225      1.599      2.419
REMARK INTER + INTRA:          -4.609
REMARK INTER:                  -4.391
REMARK INTRA:                  -0.218
REMARK UNBOUND:                -0.253
REMARK SMILES C=C1CCC=C(C)CC[C@H]2[C@H]1CC2(C)C
REMARK SMILES IDX 11 1 12 2 13 3 10 4 14 5 15 6 9 7 8 8 6 9 7 10 5 11 2 13
REMARK SMILES IDX 1 14 3 15 4 16
REMARK H PARENT
REMARK Flexibility Score: 70.00
ROOT
ATOM      1  C   UNL     1      30.497   8.050  25.887  1.00  0.00     0.018 C 
ATOM      2  C   UNL     1      30.499   6.582  26.334  1.00  0.00     0.015 C 
ATOM      3  C   UNL     1      29.338   6.872  27.305  1.00  0.00    -0.031 C 
ATOM      4  C   UNL     1      29.256   8.322  26.753  1.00  0.00     0.002 C 
ATOM      5  C   UNL     1      29.770   6.711  28.779  1.00  0.00     0.011 C 
ATOM      6  C   UNL     1      28.073   6.041  27.020  1.00  0.00     0.011 C 
ENDROOT
BRANCH   4   7
ATOM      7  C   UNL     1      29.396   9.484  27.768  1.00  0.00     0.009 C 
BRANCH   7   8
ATOM      8  C   UNL     1      28.679  10.789  27.369  1.00  0.00     0.030 C 
BRANCH   8   9
ATOM      9  C   UNL     1      29.559  11.793  26.641  1.00  0.00    -0.077 C 
ATOM     10  C   UNL     1      30.092  12.964  27.426  1.00  0.00     0.039 C 
ATOM     11  C   UNL     1      29.879  11.710  25.325  1.00  0.00    -0.028 CG0
ATOM     12  G   UNL     1      29.363  10.677  24.342  1.00  0.00     0.000 G0
ENDBRANCH   8   9
ENDBRANCH   7   8
ENDBRANCH   4   7
BRANCH   1  13
ATOM     13  C   UNL     1      30.292   8.303  24.394  1.00  0.00    -0.074 C 
ATOM     14  C   UNL     1      29.913   7.329  23.547  1.00  0.00     0.008 C 
BRANCH  13  15
ATOM     15  C   UNL     1      30.472   9.710  23.858  1.00  0.00     0.035 C 
BRANCH  15  16
ATOM     16  C   UNL     1      29.370  10.677  24.320  1.00  0.00     0.032 CG0
ATOM     17  G   UNL     1      29.878  11.701  25.316  1.00  0.00     0.000 G0
ENDBRANCH  15  16
ENDBRANCH  13  15
ENDBRANCH   1  13
TORSDOF 0
ENDMDL
MODEL 8
REMARK VINA RESULT:    -3.149      2.512      4.889
REMARK INTER + INTRA:          -4.507
REMARK INTER:                  -4.266
REMARK INTRA:                  -0.241
REMARK UNBOUND:                -0.253
REMARK SMILES C=C1CCC=C(C)CC[C@H]2[C@H]1CC2(C)C
REMARK SMILES IDX 11 1 12 2 13 3 10 4 14 5 15 6 9 7 8 8 6 9 7 10 5 11 2 13
REMARK SMILES IDX 1 14 3 15 4 16
REMARK H PARENT
REMARK Flexibility Score: 70.00
ROOT
ATOM      1  C   UNL     1      28.435  10.955  25.925  1.00  0.00     0.018 C 
ATOM      2  C   UNL     1      28.105  11.944  27.052  1.00  0.00     0.015 C 
ATOM      3  C   UNL     1      29.343  11.467  27.837  1.00  0.00    -0.031 C 
ATOM      4  C   UNL     1      29.741  10.564  26.636  1.00  0.00     0.002 C 
ATOM      5  C   UNL     1      28.948  10.750  29.147  1.00  0.00     0.011 C 
ATOM      6  C   UNL     1      30.362  12.585  28.122  1.00  0.00     0.011 C 
ENDROOT
BRANCH   4   7
ATOM      7  C   UNL     1      29.922   9.050  26.908  1.00  0.00     0.009 C 
BRANCH   7   8
ATOM      8  C   UNL     1      30.800   8.304  25.883  1.00  0.00     0.030 C 
BRANCH   8   9
ATOM      9  C   UNL     1      30.026   7.643  24.753  1.00  0.00    -0.077 C 
ATOM     10  C   UNL     1      29.717   6.173  24.875  1.00  0.00     0.039 C 
ATOM     11  C   UNL     1      29.612   8.291  23.635  1.00  0.00    -0.028 CG0
ATOM     12  G   UNL     1      29.910   9.733  23.274  1.00  0.00     0.000 G0
ENDBRANCH   8   9
ENDBRANCH   7   8
ENDBRANCH   4   7
BRANCH   1  13
ATOM     13  C   UNL     1      28.630  11.555  24.534  1.00  0.00    -0.074 C 
ATOM     14  C   UNL     1      28.829  12.872  24.341  1.00  0.00     0.008 C 
BRANCH  13  15
ATOM     15  C   UNL     1      28.652  10.628  23.333  1.00  0.00     0.035 C 
BRANCH  15  16
ATOM     16  C   UNL     1      29.910   9.748  23.273  1.00  0.00     0.032 CG0
ATOM     17  G   UNL     1      29.624   8.304  23.635  1.00  0.00     0.000 G0
ENDBRANCH  15  16
ENDBRANCH  13  15
ENDBRANCH   1  13
TORSDOF 0
ENDMDL
MODEL 9
REMARK VINA RESULT:    -3.043      2.002      5.353
REMARK INTER + INTRA:          -4.363
REMARK INTER:                  -4.118
REMARK INTRA:                  -0.245
REMARK UNBOUND:                -0.253
REMARK SMILES C=C1CCC=C(C)CC[C@H]2[C@H]1CC2(C)C
REMARK SMILES IDX 11 1 12 2 13 3 10 4 14 5 15 6 9 7 8 8 6 9 7 10 5 11 2 13
REMARK SMILES IDX 1 14 3 15 4 16
REMARK H PARENT
REMARK Flexibility Score: 70.00
ROOT
ATOM      1  C   UNL     1      30.424  10.890  25.089  1.00  0.00     0.018 C 
ATOM      2  C   UNL     1      30.860  11.040  23.625  1.00  0.00     0.015 C 
ATOM      3  C   UNL     1      30.171   9.706  23.279  1.00  0.00    -0.031 C 
ATOM      4  C   UNL     1      29.623   9.627  24.731  1.00  0.00     0.002 C 
ATOM      5  C   UNL     1      31.192   8.626  22.860  1.00  0.00     0.011 C 
ATOM      6  C   UNL     1      29.063   9.839  22.218  1.00  0.00     0.011 C 
ENDROOT
BRANCH   4   7
ATOM      7  C   UNL     1      29.970   8.365  25.560  1.00  0.00     0.009 C 
BRANCH   7   8
ATOM      8  C   UNL     1      29.062   8.118  26.782  1.00  0.00     0.030 C 
BRANCH   8   9
ATOM      9  C   UNL     1      29.596   8.684  28.088  1.00  0.00    -0.077 C 
ATOM     10  C   UNL     1      30.365   7.760  28.996  1.00  0.00     0.039 C 
ATOM     11  C   UNL     1      29.408   9.965  28.494  1.00  0.00    -0.028 CG0
ATOM     12  G   UNL     1      28.580  11.017  27.782  1.00  0.00     0.000 G0
ENDBRANCH   8   9
ENDBRANCH   7   8
ENDBRANCH   4   7
BRANCH   1  13
ATOM     13  C   UNL     1      29.583  12.028  25.665  1.00  0.00    -0.074 C 
ATOM     14  C   UNL     1      28.931  12.907  24.880  1.00  0.00     0.008 C 
BRANCH  13  15
ATOM     15  C   UNL     1      29.434  12.141  27.169  1.00  0.00     0.035 C 
BRANCH  15  16
ATOM     16  C   UNL     1      28.570  11.024  27.776  1.00  0.00     0.032 CG0
ATOM     17  G   UNL     1      29.400   9.972  28.487  1.00  0.00     0.000 G0
ENDBRANCH  15  16
ENDBRANCH  13  15
ENDBRANCH   1  13
TORSDOF 0
ENDMDL
