MODEL 1
REMARK VINA RESULT:    -3.528      0.000      0.000
REMARK INTER + INTRA:          -6.813
REMARK INTER:                  -5.385
REMARK INTRA:                  -1.429
REMARK UNBOUND:                -1.429
REMARK SMILES CCCCCCCCCCC(=O)[O-]
REMARK SMILES IDX 7 1 8 2 9 3 10 4 11 5 12 6 13 7 6 8 5 9 4 10 3 11 2 12 1 13
REMARK H PARENT
REMARK Flexibility Score: inf
ROOT
ATOM      1  C   UNL     1     143.157 127.799 115.114  1.00  0.00     0.000 C 
ENDROOT
BRANCH   1   2
ATOM      2  C   UNL     1     142.617 127.764 116.551  1.00  0.00     0.000 C 
BRANCH   2   3
ATOM      3  C   UNL     1     143.640 127.132 117.507  1.00  0.00     0.006 C 
BRANCH   3   4
ATOM      4  C   UNL     1     144.138 128.125 118.565  1.00  0.00     0.053 C 
BRANCH   4   5
ATOM      5  C   UNL     1     145.581 127.902 118.899  1.00  0.00     0.041 C 
ATOM      6  O   UNL     1     146.076 128.409 119.939  1.00  0.00    -0.550 OA
ATOM      7  O   UNL     1     146.371 127.108 118.077  1.00  0.00    -0.550 OA
ENDBRANCH   4   5
ENDBRANCH   3   4
ENDBRANCH   2   3
ENDBRANCH   1   2
BRANCH   1   8
ATOM      8  C   UNL     1     144.521 127.103 114.973  1.00  0.00     0.000 C 
BRANCH   8   9
ATOM      9  C   UNL     1     145.618 128.051 114.460  1.00  0.00    -0.000 C 
BRANCH   9  10
ATOM     10  C   UNL     1     145.292 129.531 114.727  1.00  0.00    -0.000 C 
BRANCH  10  11
ATOM     11  C   UNL     1     146.138 130.129 115.861  1.00  0.00    -0.000 C 
BRANCH  11  12
ATOM     12  C   UNL     1     145.391 131.273 116.556  1.00  0.00    -0.003 C 
ATOM     13  C   UNL     1     143.915 131.284 116.171  1.00  0.00     0.004 C 
ENDBRANCH  11  12
ENDBRANCH  10  11
ENDBRANCH   9  10
ENDBRANCH   8   9
ENDBRANCH   1   8
TORSDOF 9
ENDMDL
MODEL 2
REMARK VINA RESULT:    -3.378      1.138      3.025
REMARK INTER + INTRA:          -6.584
REMARK INTER:                  -5.240
REMARK INTRA:                  -1.343
REMARK UNBOUND:                -1.429
REMARK SMILES CCCCCCCCCCC(=O)[O-]
REMARK SMILES IDX 7 1 8 2 9 3 10 4 11 5 12 6 13 7 6 8 5 9 4 10 3 11 2 12 1 13
REMARK H PARENT
REMARK Flexibility Score: inf
ROOT
ATOM      1  C   UNL     1     144.461 130.920 116.293  1.00  0.00     0.000 C 
ENDROOT
BRANCH   1   2
ATOM      2  C   UNL     1     144.221 130.226 117.643  1.00  0.00     0.000 C 
BRANCH   2   3
ATOM      3  C   UNL     1     145.505 129.551 118.148  1.00  0.00     0.006 C 
BRANCH   3   4
ATOM      4  C   UNL     1     145.226 128.192 118.805  1.00  0.00     0.053 C 
BRANCH   4   5
ATOM      5  C   UNL     1     145.519 128.215 120.273  1.00  0.00     0.041 C 
ATOM      6  O   UNL     1     146.687 128.002 120.691  1.00  0.00    -0.550 OA
ATOM      7  O   UNL     1     144.506 128.505 121.179  1.00  0.00    -0.550 OA
ENDBRANCH   4   5
ENDBRANCH   3   4
ENDBRANCH   2   3
ENDBRANCH   1   2
BRANCH   1   8
ATOM      8  C   UNL     1     145.628 130.302 115.505  1.00  0.00     0.000 C 
BRANCH   8   9
ATOM      9  C   UNL     1     145.152 129.426 114.334  1.00  0.00    -0.000 C 
BRANCH   9  10
ATOM     10  C   UNL     1     145.550 127.950 114.500  1.00  0.00    -0.000 C 
BRANCH  10  11
ATOM     11  C   UNL     1     144.513 127.140 115.292  1.00  0.00    -0.000 C 
BRANCH  11  12
ATOM     12  C   UNL     1     143.095 127.659 115.028  1.00  0.00    -0.003 C 
ATOM     13  C   UNL     1     142.180 127.399 116.221  1.00  0.00     0.004 C 
ENDBRANCH  11  12
ENDBRANCH  10  11
ENDBRANCH   9  10
ENDBRANCH   8   9
ENDBRANCH   1   8
TORSDOF 9
ENDMDL
MODEL 3
REMARK VINA RESULT:    -3.308      3.593      4.797
REMARK INTER + INTRA:          -6.477
REMARK INTER:                  -5.274
REMARK INTRA:                  -1.202
REMARK UNBOUND:                -1.429
REMARK SMILES CCCCCCCCCCC(=O)[O-]
REMARK SMILES IDX 7 1 8 2 9 3 10 4 11 5 12 6 13 7 6 8 5 9 4 10 3 11 2 12 1 13
REMARK H PARENT
REMARK Flexibility Score: inf
ROOT
ATOM      1  C   UNL     1     143.191 129.946 116.051  1.00  0.00     0.000 C 
ENDROOT
BRANCH   1   2
ATOM      2  C   UNL     1     142.122 128.873 116.307  1.00  0.00     0.000 C 
BRANCH   2   3
ATOM      3  C   UNL     1     141.830 128.074 115.027  1.00  0.00     0.006 C 
BRANCH   3   4
ATOM      4  C   UNL     1     140.910 126.875 115.288  1.00  0.00     0.053 C 
BRANCH   4   5
ATOM      5  C   UNL     1     139.465 127.243 115.142  1.00  0.00     0.041 C 
ATOM      6  O   UNL     1     138.627 126.875 116.006  1.00  0.00    -0.550 OA
ATOM      7  O   UNL     1     139.051 128.019 114.067  1.00  0.00    -0.550 OA
ENDBRANCH   4   5
ENDBRANCH   3   4
ENDBRANCH   2   3
ENDBRANCH   1   2
BRANCH   1   8
ATOM      8  C   UNL     1     143.830 129.831 114.658  1.00  0.00     0.000 C 
BRANCH   8   9
ATOM      9  C   UNL     1     145.300 129.383 114.716  1.00  0.00    -0.000 C 
BRANCH   9  10
ATOM     10  C   UNL     1     145.503 127.952 114.192  1.00  0.00    -0.000 C 
BRANCH  10  11
ATOM     11  C   UNL     1     145.275 126.885 115.273  1.00  0.00    -0.000 C 
BRANCH  11  12
ATOM     12  C   UNL     1     145.935 127.295 116.594  1.00  0.00    -0.003 C 
ATOM     13  C   UNL     1     145.054 126.935 117.787  1.00  0.00     0.004 C 
ENDBRANCH  11  12
ENDBRANCH  10  11
ENDBRANCH   9  10
ENDBRANCH   8   9
ENDBRANCH   1   8
TORSDOF 9
ENDMDL
MODEL 4
REMARK VINA RESULT:    -3.303      1.628      3.014
REMARK INTER + INTRA:          -6.469
REMARK INTER:                  -5.211
REMARK INTRA:                  -1.257
REMARK UNBOUND:                -1.429
REMARK SMILES CCCCCCCCCCC(=O)[O-]
REMARK SMILES IDX 7 1 8 2 9 3 10 4 11 5 12 6 13 7 6 8 5 9 4 10 3 11 2 12 1 13
REMARK H PARENT
REMARK Flexibility Score: inf
ROOT
ATOM      1  C   UNL     1     145.921 128.500 115.807  1.00  0.00     0.000 C 
ENDROOT
BRANCH   1   2
ATOM      2  C   UNL     1     145.783 127.035 116.248  1.00  0.00     0.000 C 
BRANCH   2   3
ATOM      3  C   UNL     1     145.591 126.936 117.769  1.00  0.00     0.006 C 
BRANCH   3   4
ATOM      4  C   UNL     1     145.400 128.311 118.422  1.00  0.00     0.053 C 
BRANCH   4   5
ATOM      5  C   UNL     1     145.468 128.230 119.916  1.00  0.00     0.041 C 
ATOM      6  O   UNL     1     146.575 128.068 120.493  1.00  0.00    -0.550 OA
ATOM      7  O   UNL     1     144.310 128.366 120.672  1.00  0.00    -0.550 OA
ENDBRANCH   4   5
ENDBRANCH   3   4
ENDBRANCH   2   3
ENDBRANCH   1   2
BRANCH   1   8
ATOM      8  C   UNL     1     145.292 128.769 114.430  1.00  0.00     0.000 C 
BRANCH   8   9
ATOM      9  C   UNL     1     144.193 129.844 114.482  1.00  0.00    -0.000 C 
BRANCH   9  10
ATOM     10  C   UNL     1     143.108 129.529 115.526  1.00  0.00    -0.000 C 
BRANCH  10  11
ATOM     11  C   UNL     1     142.125 128.448 115.053  1.00  0.00    -0.000 C 
BRANCH  11  12
ATOM     12  C   UNL     1     142.053 127.295 116.060  1.00  0.00    -0.003 C 
ATOM     13  C   UNL     1     141.902 127.816 117.486  1.00  0.00     0.004 C 
ENDBRANCH  11  12
ENDBRANCH  10  11
ENDBRANCH   9  10
ENDBRANCH   8   9
ENDBRANCH   1   8
TORSDOF 9
ENDMDL
MODEL 5
REMARK VINA RESULT:    -3.234      3.244      5.054
REMARK INTER + INTRA:          -6.363
REMARK INTER:                  -5.784
REMARK INTRA:                  -0.579
REMARK UNBOUND:                -1.429
REMARK SMILES CCCCCCCCCCC(=O)[O-]
REMARK SMILES IDX 7 1 8 2 9 3 10 4 11 5 12 6 13 7 6 8 5 9 4 10 3 11 2 12 1 13
REMARK H PARENT
REMARK Flexibility Score: inf
ROOT
ATOM      1  C   UNL     1     145.166 129.673 114.858  1.00  0.00     0.000 C 
ENDROOT
BRANCH   1   2
ATOM      2  C   UNL     1     146.201 129.945 115.960  1.00  0.00     0.000 C 
BRANCH   2   3
ATOM      3  C   UNL     1     146.809 131.348 115.807  1.00  0.00     0.006 C 
BRANCH   3   4
ATOM      4  C   UNL     1     145.778 132.458 116.048  1.00  0.00     0.053 C 
BRANCH   4   5
ATOM      5  C   UNL     1     146.383 133.819 115.898  1.00  0.00     0.041 C 
ATOM      6  O   UNL     1     146.363 134.403 114.783  1.00  0.00    -0.550 OA
ATOM      7  O   UNL     1     146.942 134.456 116.999  1.00  0.00    -0.550 OA
ENDBRANCH   4   5
ENDBRANCH   3   4
ENDBRANCH   2   3
ENDBRANCH   1   2
BRANCH   1   8
ATOM      8  C   UNL     1     145.285 128.259 114.266  1.00  0.00     0.000 C 
BRANCH   8   9
ATOM      9  C   UNL     1     144.444 127.225 115.033  1.00  0.00    -0.000 C 
BRANCH   9  10
ATOM     10  C   UNL     1     143.171 127.835 115.644  1.00  0.00    -0.000 C 
BRANCH  10  11
ATOM     11  C   UNL     1     141.887 127.164 115.134  1.00  0.00    -0.000 C 
BRANCH  11  12
ATOM     12  C   UNL     1     140.810 128.210 114.823  1.00  0.00    -0.003 C 
ATOM     13  C   UNL     1     141.420 129.598 114.653  1.00  0.00     0.004 C 
ENDBRANCH  11  12
ENDBRANCH  10  11
ENDBRANCH   9  10
ENDBRANCH   8   9
ENDBRANCH   1   8
TORSDOF 9
ENDMDL
MODEL 6
REMARK VINA RESULT:    -3.228      2.147      4.118
REMARK INTER + INTRA:          -6.355
REMARK INTER:                  -5.600
REMARK INTRA:                  -0.755
REMARK UNBOUND:                -1.429
REMARK SMILES CCCCCCCCCCC(=O)[O-]
REMARK SMILES IDX 7 1 8 2 9 3 10 4 11 5 12 6 13 7 6 8 5 9 4 10 3 11 2 12 1 13
REMARK H PARENT
REMARK Flexibility Score: inf
ROOT
ATOM      1  C   UNL     1     144.354 129.724 114.855  1.00  0.00     0.000 C 
ENDROOT
BRANCH   1   2
ATOM      2  C   UNL     1     145.130 128.515 114.311  1.00  0.00     0.000 C 
BRANCH   2   3
ATOM      3  C   UNL     1     145.938 127.835 115.427  1.00  0.00     0.006 C 
BRANCH   3   4
ATOM      4  C   UNL     1     145.739 128.517 116.786  1.00  0.00     0.053 C 
BRANCH   4   5
ATOM      5  C   UNL     1     145.437 127.524 117.867  1.00  0.00     0.041 C 
ATOM      6  O   UNL     1     144.349 126.893 117.861  1.00  0.00    -0.550 OA
ATOM      7  O   UNL     1     146.373 127.275 118.862  1.00  0.00    -0.550 OA
ENDBRANCH   4   5
ENDBRANCH   3   4
ENDBRANCH   2   3
ENDBRANCH   1   2
BRANCH   1   8
ATOM      8  C   UNL     1     142.832 129.566 114.714  1.00  0.00     0.000 C 
BRANCH   8   9
ATOM      9  C   UNL     1     142.243 128.577 115.735  1.00  0.00    -0.000 C 
BRANCH   9  10
ATOM     10  C   UNL     1     141.855 127.232 115.098  1.00  0.00    -0.000 C 
BRANCH  10  11
ATOM     11  C   UNL     1     140.378 126.875 115.317  1.00  0.00    -0.000 C 
BRANCH  11  12
ATOM     12  C   UNL     1     139.469 128.050 114.941  1.00  0.00    -0.003 C 
ATOM     13  C   UNL     1     138.851 127.852 113.560  1.00  0.00     0.004 C 
ENDBRANCH  11  12
ENDBRANCH  10  11
ENDBRANCH   9  10
ENDBRANCH   8   9
ENDBRANCH   1   8
TORSDOF 9
ENDMDL
MODEL 7
REMARK VINA RESULT:    -3.189      3.024      4.706
REMARK INTER + INTRA:          -6.296
REMARK INTER:                  -5.587
REMARK INTRA:                  -0.709
REMARK UNBOUND:                -1.429
REMARK SMILES CCCCCCCCCCC(=O)[O-]
REMARK SMILES IDX 7 1 8 2 9 3 10 4 11 5 12 6 13 7 6 8 5 9 4 10 3 11 2 12 1 13
REMARK H PARENT
REMARK Flexibility Score: inf
ROOT
ATOM      1  C   UNL     1     141.984 127.429 115.905  1.00  0.00     0.000 C 
ENDROOT
BRANCH   1   2
ATOM      2  C   UNL     1     143.060 128.177 115.102  1.00  0.00     0.000 C 
BRANCH   2   3
ATOM      3  C   UNL     1     144.346 127.344 115.000  1.00  0.00     0.006 C 
BRANCH   3   4
ATOM      4  C   UNL     1     145.602 128.176 115.293  1.00  0.00     0.053 C 
BRANCH   4   5
ATOM      5  C   UNL     1     145.731 128.490 116.752  1.00  0.00     0.041 C 
ATOM      6  O   UNL     1     145.489 129.651 117.174  1.00  0.00    -0.550 OA
ATOM      7  O   UNL     1     146.089 127.492 117.649  1.00  0.00    -0.550 OA
ENDBRANCH   4   5
ENDBRANCH   3   4
ENDBRANCH   2   3
ENDBRANCH   1   2
BRANCH   1   8
ATOM      8  C   UNL     1     140.856 126.878 115.020  1.00  0.00     0.000 C 
BRANCH   8   9
ATOM      9  C   UNL     1     139.461 127.114 115.624  1.00  0.00    -0.000 C 
BRANCH   9  10
ATOM     10  C   UNL     1     138.364 127.226 114.551  1.00  0.00    -0.000 C 
BRANCH  10  11
ATOM     11  C   UNL     1     138.766 128.139 113.384  1.00  0.00    -0.000 C 
BRANCH  11  12
ATOM     12  C   UNL     1     138.735 129.613 113.805  1.00  0.00    -0.003 C 
ATOM     13  C   UNL     1     140.075 130.292 113.541  1.00  0.00     0.004 C 
ENDBRANCH  11  12
ENDBRANCH  10  11
ENDBRANCH   9  10
ENDBRANCH   8   9
ENDBRANCH   1   8
TORSDOF 9
ENDMDL
MODEL 8
REMARK VINA RESULT:    -3.186      1.616      3.529
REMARK INTER + INTRA:          -6.291
REMARK INTER:                  -5.164
REMARK INTRA:                  -1.127
REMARK UNBOUND:                -1.429
REMARK SMILES CCCCCCCCCCC(=O)[O-]
REMARK SMILES IDX 7 1 8 2 9 3 10 4 11 5 12 6 13 7 6 8 5 9 4 10 3 11 2 12 1 13
REMARK H PARENT
REMARK Flexibility Score: inf
ROOT
ATOM      1  C   UNL     1     145.626 128.188 114.520  1.00  0.00     0.000 C 
ENDROOT
BRANCH   1   2
ATOM      2  C   UNL     1     145.262 129.670 114.691  1.00  0.00     0.000 C 
BRANCH   2   3
ATOM      3  C   UNL     1     146.090 130.313 115.814  1.00  0.00     0.006 C 
BRANCH   3   4
ATOM      4  C   UNL     1     145.208 130.979 116.878  1.00  0.00     0.053 C 
BRANCH   4   5
ATOM      5  C   UNL     1     145.123 130.154 118.125  1.00  0.00     0.041 C 
ATOM      6  O   UNL     1     145.987 129.270 118.361  1.00  0.00    -0.550 OA
ATOM      7  O   UNL     1     144.106 130.386 119.043  1.00  0.00    -0.550 OA
ENDBRANCH   4   5
ENDBRANCH   3   4
ENDBRANCH   2   3
ENDBRANCH   1   2
BRANCH   1   8
ATOM      8  C   UNL     1     144.442 127.248 114.799  1.00  0.00     0.000 C 
BRANCH   8   9
ATOM      9  C   UNL     1     144.021 127.251 116.279  1.00  0.00    -0.000 C 
BRANCH   9  10
ATOM     10  C   UNL     1     142.549 127.652 116.473  1.00  0.00    -0.000 C 
BRANCH  10  11
ATOM     11  C   UNL     1     141.761 127.676 115.154  1.00  0.00    -0.000 C 
BRANCH  11  12
ATOM     12  C   UNL     1     140.919 128.951 115.043  1.00  0.00    -0.003 C 
ATOM     13  C   UNL     1     141.667 130.044 114.285  1.00  0.00     0.004 C 
ENDBRANCH  11  12
ENDBRANCH  10  11
ENDBRANCH   9  10
ENDBRANCH   8   9
ENDBRANCH   1   8
TORSDOF 9
ENDMDL
