MODEL 1
REMARK VINA RESULT:    -0.482      0.000      0.000
REMARK INTER + INTRA:          -1.397
REMARK INTER:                  -0.819
REMARK INTRA:                  -0.577
REMARK UNBOUND:                -0.577
REMARK SMILES CCCCCCCCCCCCCC(=O)[O-]
REMARK SMILES IDX 8 1 9 2 10 3 11 4 12 5 13 6 14 7 15 8 16 9 7 10 6 11 5 12
REMARK SMILES IDX 4 13 3 14 2 15 1 16
REMARK H PARENT
REMARK Flexibility Score: inf
ROOT
ATOM      1  C   UNL     1     -16.390  34.343 -20.583  1.00  0.00     0.000 C 
ENDROOT
BRANCH   1   2
ATOM      2  C   UNL     1     -17.807  34.766 -21.003  1.00  0.00     0.000 C 
BRANCH   2   3
ATOM      3  C   UNL     1     -18.903  33.984 -20.257  1.00  0.00     0.000 C 
BRANCH   3   4
ATOM      4  C   UNL     1     -20.196  34.798 -20.087  1.00  0.00     0.000 C 
BRANCH   4   5
ATOM      5  C   UNL     1     -20.721  34.783 -18.642  1.00  0.00     0.006 C 
BRANCH   5   6
ATOM      6  C   UNL     1     -20.455  36.123 -17.950  1.00  0.00     0.053 C 
BRANCH   6   7
ATOM      7  C   UNL     1     -19.418  35.965 -16.884  1.00  0.00     0.041 C 
ATOM      8  O   UNL     1     -19.724  36.124 -15.673  1.00  0.00    -0.550 OA
ATOM      9  O   UNL     1     -18.122  35.595 -17.223  1.00  0.00    -0.550 OA
ENDBRANCH   6   7
ENDBRANCH   5   6
ENDBRANCH   4   5
ENDBRANCH   3   4
ENDBRANCH   2   3
ENDBRANCH   1   2
BRANCH   1  10
ATOM     10  C   UNL     1     -16.393  33.251 -19.503  1.00  0.00     0.000 C 
BRANCH  10  11
ATOM     11  C   UNL     1     -15.004  33.104 -18.867  1.00  0.00    -0.000 C 
BRANCH  11  12
ATOM     12  C   UNL     1     -14.263  34.449 -18.847  1.00  0.00    -0.000 C 
BRANCH  12  13
ATOM     13  C   UNL     1     -14.972  35.513 -17.989  1.00  0.00    -0.000 C 
BRANCH  13  14
ATOM     14  C   UNL     1     -14.112  36.120 -16.866  1.00  0.00    -0.000 C 
BRANCH  14  15
ATOM     15  C   UNL     1     -13.837  35.133 -15.723  1.00  0.00    -0.003 C 
ATOM     16  C   UNL     1     -12.935  35.758 -14.662  1.00  0.00     0.004 C 
ENDBRANCH  14  15
ENDBRANCH  13  14
ENDBRANCH  12  13
ENDBRANCH  11  12
ENDBRANCH  10  11
ENDBRANCH   1  10
TORSDOF 12
ENDMDL
MODEL 2
REMARK VINA RESULT:     0.292      2.393      5.848
REMARK INTER + INTRA:          -0.081
REMARK INTER:                   0.761
REMARK INTRA:                  -0.842
REMARK UNBOUND:                -0.577
REMARK SMILES CCCCCCCCCCCCCC(=O)[O-]
REMARK SMILES IDX 8 1 9 2 10 3 11 4 12 5 13 6 14 7 15 8 16 9 7 10 6 11 5 12
REMARK SMILES IDX 4 13 3 14 2 15 1 16
REMARK H PARENT
REMARK Flexibility Score: inf
ROOT
ATOM      1  C   UNL     1     -17.283  34.249 -19.283  1.00  0.00     0.000 C 
ENDROOT
BRANCH   1   2
ATOM      2  C   UNL     1     -16.030  33.360 -19.337  1.00  0.00     0.000 C 
BRANCH   2   3
ATOM      3  C   UNL     1     -14.726  34.172 -19.258  1.00  0.00     0.000 C 
BRANCH   3   4
ATOM      4  C   UNL     1     -14.765  35.247 -18.160  1.00  0.00     0.000 C 
BRANCH   4   5
ATOM      5  C   UNL     1     -14.155  34.764 -16.835  1.00  0.00     0.006 C 
BRANCH   5   6
ATOM      6  C   UNL     1     -13.841  35.948 -15.914  1.00  0.00     0.053 C 
BRANCH   6   7
ATOM      7  C   UNL     1     -13.022  35.500 -14.746  1.00  0.00     0.041 C 
ATOM      8  O   UNL     1     -11.976  36.125 -14.428  1.00  0.00    -0.550 OA
ATOM      9  O   UNL     1     -13.438  34.419 -13.978  1.00  0.00    -0.550 OA
ENDBRANCH   6   7
ENDBRANCH   5   6
ENDBRANCH   4   5
ENDBRANCH   3   4
ENDBRANCH   2   3
ENDBRANCH   1   2
BRANCH   1  10
ATOM     10  C   UNL     1     -18.184  34.080 -20.516  1.00  0.00     0.000 C 
BRANCH  10  11
ATOM     11  C   UNL     1     -18.965  35.368 -20.806  1.00  0.00    -0.000 C 
BRANCH  11  12
ATOM     12  C   UNL     1     -20.471  35.161 -20.586  1.00  0.00    -0.000 C 
BRANCH  12  13
ATOM     13  C   UNL     1     -21.031  36.012 -19.431  1.00  0.00    -0.000 C 
BRANCH  13  14
ATOM     14  C   UNL     1     -21.107  35.295 -18.072  1.00  0.00    -0.000 C 
BRANCH  14  15
ATOM     15  C   UNL     1     -20.471  36.104 -16.933  1.00  0.00    -0.003 C 
ATOM     16  C   UNL     1     -18.958  35.907 -16.895  1.00  0.00     0.004 C 
ENDBRANCH  14  15
ENDBRANCH  13  14
ENDBRANCH  12  13
ENDBRANCH  11  12
ENDBRANCH  10  11
ENDBRANCH   1  10
TORSDOF 12
ENDMDL
MODEL 3
REMARK VINA RESULT:     0.373      1.797      2.430
REMARK INTER + INTRA:           0.058
REMARK INTER:                   1.062
REMARK INTRA:                  -1.004
REMARK UNBOUND:                -0.577
REMARK SMILES CCCCCCCCCCCCCC(=O)[O-]
REMARK SMILES IDX 8 1 9 2 10 3 11 4 12 5 13 6 14 7 15 8 16 9 7 10 6 11 5 12
REMARK SMILES IDX 4 13 3 14 2 15 1 16
REMARK H PARENT
REMARK Flexibility Score: inf
ROOT
ATOM      1  C   UNL     1     -16.618  33.799 -19.078  1.00  0.00     0.000 C 
ENDROOT
BRANCH   1   2
ATOM      2  C   UNL     1     -17.521  33.926 -20.316  1.00  0.00     0.000 C 
BRANCH   2   3
ATOM      3  C   UNL     1     -17.378  35.290 -21.014  1.00  0.00     0.000 C 
BRANCH   3   4
ATOM      4  C   UNL     1     -18.691  36.089 -21.023  1.00  0.00     0.000 C 
BRANCH   4   5
ATOM      5  C   UNL     1     -19.379  36.116 -19.649  1.00  0.00     0.006 C 
BRANCH   5   6
ATOM      6  C   UNL     1     -20.859  35.741 -19.771  1.00  0.00     0.053 C 
BRANCH   6   7
ATOM      7  C   UNL     1     -21.040  34.263 -19.625  1.00  0.00     0.041 C 
ATOM      8  O   UNL     1     -21.119  33.530 -20.645  1.00  0.00    -0.550 OA
ATOM      9  O   UNL     1     -21.072  33.689 -18.360  1.00  0.00    -0.550 OA
ENDBRANCH   6   7
ENDBRANCH   5   6
ENDBRANCH   4   5
ENDBRANCH   3   4
ENDBRANCH   2   3
ENDBRANCH   1   2
BRANCH   1  10
ATOM     10  C   UNL     1     -15.169  33.435 -19.435  1.00  0.00     0.000 C 
BRANCH  10  11
ATOM     11  C   UNL     1     -14.177  34.353 -18.709  1.00  0.00    -0.000 C 
BRANCH  11  12
ATOM     12  C   UNL     1     -14.822  35.706 -18.374  1.00  0.00    -0.000 C 
BRANCH  12  13
ATOM     13  C   UNL     1     -14.611  36.125 -16.908  1.00  0.00    -0.000 C 
BRANCH  13  14
ATOM     14  C   UNL     1     -13.918  35.072 -16.024  1.00  0.00    -0.000 C 
BRANCH  14  15
ATOM     15  C   UNL     1     -13.041  35.695 -14.928  1.00  0.00    -0.003 C 
ATOM     16  C   UNL     1     -12.647  34.655 -13.883  1.00  0.00     0.004 C 
ENDBRANCH  14  15
ENDBRANCH  13  14
ENDBRANCH  12  13
ENDBRANCH  11  12
ENDBRANCH  10  11
ENDBRANCH   1  10
TORSDOF 12
ENDMDL
MODEL 4
REMARK VINA RESULT:     0.872      2.451      5.978
REMARK INTER + INTRA:           0.907
REMARK INTER:                   0.141
REMARK INTRA:                   0.766
REMARK UNBOUND:                -0.577
REMARK SMILES CCCCCCCCCCCCCC(=O)[O-]
REMARK SMILES IDX 8 1 9 2 10 3 11 4 12 5 13 6 14 7 15 8 16 9 7 10 6 11 5 12
REMARK SMILES IDX 4 13 3 14 2 15 1 16
REMARK H PARENT
REMARK Flexibility Score: inf
ROOT
ATOM      1  C   UNL     1     -17.348  35.146 -19.062  1.00  0.00     0.000 C 
ENDROOT
BRANCH   1   2
ATOM      2  C   UNL     1     -16.179  36.124 -18.864  1.00  0.00     0.000 C 
BRANCH   2   3
ATOM      3  C   UNL     1     -15.647  36.124 -17.420  1.00  0.00     0.000 C 
BRANCH   3   4
ATOM      4  C   UNL     1     -14.212  35.583 -17.320  1.00  0.00     0.000 C 
BRANCH   4   5
ATOM      5  C   UNL     1     -13.830  34.690 -18.510  1.00  0.00     0.006 C 
BRANCH   5   6
ATOM      6  C   UNL     1     -14.446  33.294 -18.367  1.00  0.00     0.053 C 
BRANCH   6   7
ATOM      7  C   UNL     1     -15.238  32.943 -19.586  1.00  0.00     0.041 C 
ATOM      8  O   UNL     1     -15.136  33.638 -20.630  1.00  0.00    -0.550 OA
ATOM      9  O   UNL     1     -16.055  31.819 -19.584  1.00  0.00    -0.550 OA
ENDBRANCH   6   7
ENDBRANCH   5   6
ENDBRANCH   4   5
ENDBRANCH   3   4
ENDBRANCH   2   3
ENDBRANCH   1   2
BRANCH   1  10
ATOM     10  C   UNL     1     -17.993  35.267 -20.451  1.00  0.00     0.000 C 
BRANCH  10  11
ATOM     11  C   UNL     1     -19.315  36.042 -20.377  1.00  0.00    -0.000 C 
BRANCH  11  12
ATOM     12  C   UNL     1     -20.457  35.248 -21.030  1.00  0.00    -0.000 C 
BRANCH  12  13
ATOM     13  C   UNL     1     -21.124  34.252 -20.063  1.00  0.00    -0.000 C 
BRANCH  13  14
ATOM     14  C   UNL     1     -20.705  34.397 -18.589  1.00  0.00    -0.000 C 
BRANCH  14  15
ATOM     15  C   UNL     1     -20.992  35.793 -18.020  1.00  0.00    -0.003 C 
ATOM     16  C   UNL     1     -20.352  35.969 -16.645  1.00  0.00     0.004 C 
ENDBRANCH  14  15
ENDBRANCH  13  14
ENDBRANCH  12  13
ENDBRANCH  11  12
ENDBRANCH  10  11
ENDBRANCH   1  10
TORSDOF 12
ENDMDL
MODEL 5
REMARK VINA RESULT:     0.973      1.571      2.746
REMARK INTER + INTRA:           1.078
REMARK INTER:                   1.377
REMARK INTRA:                  -0.299
REMARK UNBOUND:                -0.577
REMARK SMILES CCCCCCCCCCCCCC(=O)[O-]
REMARK SMILES IDX 8 1 9 2 10 3 11 4 12 5 13 6 14 7 15 8 16 9 7 10 6 11 5 12
REMARK SMILES IDX 4 13 3 14 2 15 1 16
REMARK H PARENT
REMARK Flexibility Score: inf
ROOT
ATOM      1  C   UNL     1     -17.251  34.654 -20.098  1.00  0.00     0.000 C 
ENDROOT
BRANCH   1   2
ATOM      2  C   UNL     1     -18.499  34.571 -20.991  1.00  0.00     0.000 C 
BRANCH   2   3
ATOM      3  C   UNL     1     -19.223  35.922 -21.123  1.00  0.00     0.000 C 
BRANCH   3   4
ATOM      4  C   UNL     1     -20.731  35.814 -20.846  1.00  0.00     0.000 C 
BRANCH   4   5
ATOM      5  C   UNL     1     -21.084  36.077 -19.374  1.00  0.00     0.006 C 
BRANCH   5   6
ATOM      6  C   UNL     1     -20.677  34.891 -18.493  1.00  0.00     0.053 C 
BRANCH   6   7
ATOM      7  C   UNL     1     -20.171  35.370 -17.170  1.00  0.00     0.041 C 
ATOM      8  O   UNL     1     -20.919  36.038 -16.409  1.00  0.00    -0.550 OA
ATOM      9  O   UNL     1     -18.887  35.038 -16.755  1.00  0.00    -0.550 OA
ENDBRANCH   6   7
ENDBRANCH   5   6
ENDBRANCH   4   5
ENDBRANCH   3   4
ENDBRANCH   2   3
ENDBRANCH   1   2
BRANCH   1  10
ATOM     10  C   UNL     1     -16.959  36.084 -19.619  1.00  0.00     0.000 C 
BRANCH  10  11
ATOM     11  C   UNL     1     -16.203  36.072 -18.284  1.00  0.00    -0.000 C 
BRANCH  11  12
ATOM     12  C   UNL     1     -14.704  35.812 -18.501  1.00  0.00    -0.000 C 
BRANCH  12  13
ATOM     13  C   UNL     1     -14.293  34.365 -18.174  1.00  0.00    -0.000 C 
BRANCH  13  14
ATOM     14  C   UNL     1     -14.154  33.436 -19.393  1.00  0.00    -0.000 C 
BRANCH  14  15
ATOM     15  C   UNL     1     -15.360  32.505 -19.576  1.00  0.00    -0.003 C 
ATOM     16  C   UNL     1     -15.134  31.168 -18.876  1.00  0.00     0.004 C 
ENDBRANCH  14  15
ENDBRANCH  13  14
ENDBRANCH  12  13
ENDBRANCH  11  12
ENDBRANCH  10  11
ENDBRANCH   1  10
TORSDOF 12
ENDMDL
MODEL 6
REMARK VINA RESULT:     1.097      1.957      3.781
REMARK INTER + INTRA:           1.290
REMARK INTER:                   1.065
REMARK INTRA:                   0.225
REMARK UNBOUND:                -0.577
REMARK SMILES CCCCCCCCCCCCCC(=O)[O-]
REMARK SMILES IDX 8 1 9 2 10 3 11 4 12 5 13 6 14 7 15 8 16 9 7 10 6 11 5 12
REMARK SMILES IDX 4 13 3 14 2 15 1 16
REMARK H PARENT
REMARK Flexibility Score: inf
ROOT
ATOM      1  C   UNL     1     -15.723  34.356 -20.049  1.00  0.00     0.000 C 
ENDROOT
BRANCH   1   2
ATOM      2  C   UNL     1     -16.889  33.359 -19.954  1.00  0.00     0.000 C 
BRANCH   2   3
ATOM      3  C   UNL     1     -18.214  33.949 -20.467  1.00  0.00     0.000 C 
BRANCH   3   4
ATOM      4  C   UNL     1     -18.222  35.487 -20.450  1.00  0.00     0.000 C 
BRANCH   4   5
ATOM      5  C   UNL     1     -19.474  36.082 -21.114  1.00  0.00     0.006 C 
BRANCH   5   6
ATOM      6  C   UNL     1     -20.714  35.856 -20.243  1.00  0.00     0.053 C 
BRANCH   6   7
ATOM      7  C   UNL     1     -20.982  34.394 -20.082  1.00  0.00     0.041 C 
ATOM      8  O   UNL     1     -21.116  33.659 -21.095  1.00  0.00    -0.550 OA
ATOM      9  O   UNL     1     -21.039  33.833 -18.812  1.00  0.00    -0.550 OA
ENDBRANCH   6   7
ENDBRANCH   5   6
ENDBRANCH   4   5
ENDBRANCH   3   4
ENDBRANCH   2   3
ENDBRANCH   1   2
BRANCH   1  10
ATOM     10  C   UNL     1     -14.778  34.280 -18.840  1.00  0.00     0.000 C 
BRANCH  10  11
ATOM     11  C   UNL     1     -14.661  35.644 -18.148  1.00  0.00    -0.000 C 
BRANCH  11  12
ATOM     12  C   UNL     1     -15.704  35.786 -17.029  1.00  0.00    -0.000 C 
BRANCH  12  13
ATOM     13  C   UNL     1     -17.112  36.111 -17.560  1.00  0.00    -0.000 C 
BRANCH  13  14
ATOM     14  C   UNL     1     -18.269  35.467 -16.775  1.00  0.00    -0.000 C 
BRANCH  14  15
ATOM     15  C   UNL     1     -19.626  36.125 -17.061  1.00  0.00    -0.003 C 
ATOM     16  C   UNL     1     -20.587  35.934 -15.891  1.00  0.00     0.004 C 
ENDBRANCH  14  15
ENDBRANCH  13  14
ENDBRANCH  12  13
ENDBRANCH  11  12
ENDBRANCH  10  11
ENDBRANCH   1  10
TORSDOF 12
ENDMDL
