MODEL 1
REMARK VINA RESULT:    -4.591      0.000      0.000
REMARK INTER + INTRA:          -5.198
REMARK INTER:                  -4.994
REMARK INTRA:                  -0.204
REMARK UNBOUND:                -0.204
REMARK SMILES CC(C)(C)[C@@H]1C=C[C@H](O)CC1
REMARK SMILES IDX 5 1 11 2 10 3 8 4 7 5 6 6 2 7 1 8 3 9 4 10 9 11
REMARK H PARENT 9 12
REMARK Flexibility Score: inf
ROOT
ATOM      1  C   UNL     1     181.392 179.423 185.772  1.00  0.00     0.017 C 
ATOM      2  C   UNL     1     182.949 179.488 185.850  1.00  0.00     0.011 C 
ATOM      3  C   UNL     1     183.506 180.179 187.126  1.00  0.00     0.037 C 
ATOM      4  C   UNL     1     182.419 180.514 188.166  1.00  0.00     0.137 C 
ATOM      5  C   UNL     1     181.259 181.197 187.490  1.00  0.00     0.000 C 
ATOM      6  C   UNL     1     180.788 180.699 186.340  1.00  0.00    -0.025 C 
ENDROOT
BRANCH   1   7
ATOM      7  C   UNL     1     180.829 179.037 184.352  1.00  0.00    -0.032 C 
ATOM      8  C   UNL     1     180.863 177.510 184.100  1.00  0.00     0.011 C 
ATOM      9  C   UNL     1     181.664 179.737 183.252  1.00  0.00     0.011 C 
ATOM     10  C   UNL     1     179.369 179.525 184.204  1.00  0.00     0.011 C 
ENDBRANCH   1   7
BRANCH   4  11
ATOM     11  O   UNL     1     182.938 181.309 189.203  1.00  0.00    -0.389 OA
ATOM     12  H   UNL     1     183.138 182.205 188.825  1.00  0.00     0.211 HD
ENDBRANCH   4  11
TORSDOF 2
ENDMDL
MODEL 2
REMARK VINA RESULT:    -4.588      3.883      5.153
REMARK INTER + INTRA:          -5.194
REMARK INTER:                  -4.994
REMARK INTRA:                  -0.200
REMARK UNBOUND:                -0.204
REMARK SMILES CC(C)(C)[C@@H]1C=C[C@H](O)CC1
REMARK SMILES IDX 5 1 11 2 10 3 8 4 7 5 6 6 2 7 1 8 3 9 4 10 9 11
REMARK H PARENT 9 12
REMARK Flexibility Score: inf
ROOT
ATOM      1  C   UNL     1     179.771 181.941 183.398  1.00  0.00     0.017 C 
ATOM      2  C   UNL     1     178.626 182.231 182.378  1.00  0.00     0.011 C 
ATOM      3  C   UNL     1     177.887 183.580 182.601  1.00  0.00     0.037 C 
ATOM      4  C   UNL     1     178.539 184.467 183.679  1.00  0.00     0.137 C 
ATOM      5  C   UNL     1     178.818 183.647 184.913  1.00  0.00     0.000 C 
ATOM      6  C   UNL     1     179.376 182.438 184.781  1.00  0.00    -0.025 C 
ENDROOT
BRANCH   1   7
ATOM      7  C   UNL     1     180.288 180.452 183.386  1.00  0.00    -0.032 C 
ATOM      8  C   UNL     1     180.408 179.881 181.953  1.00  0.00     0.011 C 
ATOM      9  C   UNL     1     179.317 179.557 184.194  1.00  0.00     0.011 C 
ATOM     10  C   UNL     1     181.674 180.361 184.068  1.00  0.00     0.011 C 
ENDBRANCH   1   7
BRANCH   4  11
ATOM     11  O   UNL     1     177.729 185.575 183.982  1.00  0.00    -0.389 OA
ATOM     12  H   UNL     1     178.265 186.198 184.537  1.00  0.00     0.211 HD
ENDBRANCH   4  11
TORSDOF 2
ENDMDL
MODEL 3
REMARK VINA RESULT:    -4.558      2.712      3.691
REMARK INTER + INTRA:          -5.162
REMARK INTER:                  -4.962
REMARK INTRA:                  -0.200
REMARK UNBOUND:                -0.204
REMARK SMILES CC(C)(C)[C@@H]1C=C[C@H](O)CC1
REMARK SMILES IDX 5 1 11 2 10 3 8 4 7 5 6 6 2 7 1 8 3 9 4 10 9 11
REMARK H PARENT 9 12
REMARK Flexibility Score: inf
ROOT
ATOM      1  C   UNL     1     181.418 178.699 183.520  1.00  0.00     0.017 C 
ATOM      2  C   UNL     1     180.365 179.481 182.675  1.00  0.00     0.011 C 
ATOM      3  C   UNL     1     179.467 180.450 183.493  1.00  0.00     0.037 C 
ATOM      4  C   UNL     1     179.902 180.595 184.964  1.00  0.00     0.137 C 
ATOM      5  C   UNL     1     180.132 179.232 185.564  1.00  0.00     0.000 C 
ATOM      6  C   UNL     1     180.827 178.321 184.870  1.00  0.00    -0.025 C 
ENDROOT
BRANCH   1   7
ATOM      7  C   UNL     1     182.088 177.490 182.764  1.00  0.00    -0.032 C 
ATOM      8  C   UNL     1     181.629 176.120 183.320  1.00  0.00     0.011 C 
ATOM      9  C   UNL     1     183.628 177.584 182.892  1.00  0.00     0.011 C 
ATOM     10  C   UNL     1     181.746 177.546 181.256  1.00  0.00     0.011 C 
ENDBRANCH   1   7
BRANCH   4  11
ATOM     11  O   UNL     1     178.951 181.318 185.705  1.00  0.00    -0.389 OA
ATOM     12  H   UNL     1     179.431 181.789 186.434  1.00  0.00     0.211 HD
ENDBRANCH   4  11
TORSDOF 2
ENDMDL
MODEL 4
REMARK VINA RESULT:    -4.523      1.175      1.395
REMARK INTER + INTRA:          -5.124
REMARK INTER:                  -4.919
REMARK INTRA:                  -0.205
REMARK UNBOUND:                -0.204
REMARK SMILES CC(C)(C)[C@@H]1C=C[C@H](O)CC1
REMARK SMILES IDX 5 1 11 2 10 3 8 4 7 5 6 6 2 7 1 8 3 9 4 10 9 11
REMARK H PARENT 9 12
REMARK Flexibility Score: inf
ROOT
ATOM      1  C   UNL     1     181.962 179.812 186.641  1.00  0.00     0.017 C 
ATOM      2  C   UNL     1     183.464 179.807 186.221  1.00  0.00     0.011 C 
ATOM      3  C   UNL     1     184.452 180.228 187.345  1.00  0.00     0.037 C 
ATOM      4  C   UNL     1     183.780 180.400 188.720  1.00  0.00     0.137 C 
ATOM      5  C   UNL     1     182.535 181.238 188.578  1.00  0.00     0.000 C 
ATOM      6  C   UNL     1     181.685 180.979 187.577  1.00  0.00    -0.025 C 
ENDROOT
BRANCH   1   7
ATOM      7  C   UNL     1     180.951 179.716 185.436  1.00  0.00    -0.032 C 
ATOM      8  C   UNL     1     180.780 178.266 184.923  1.00  0.00     0.011 C 
ATOM      9  C   UNL     1     181.451 180.598 184.265  1.00  0.00     0.011 C 
ATOM     10  C   UNL     1     179.563 180.253 185.857  1.00  0.00     0.011 C 
ENDBRANCH   1   7
BRANCH   4  11
ATOM     11  O   UNL     1     184.668 180.970 189.650  1.00  0.00    -0.389 OA
ATOM     12  H   UNL     1     184.213 181.750 190.062  1.00  0.00     0.211 HD
ENDBRANCH   4  11
TORSDOF 2
ENDMDL
MODEL 5
REMARK VINA RESULT:    -4.516      3.100      4.317
REMARK INTER + INTRA:          -5.117
REMARK INTER:                  -4.915
REMARK INTRA:                  -0.202
REMARK UNBOUND:                -0.204
REMARK SMILES CC(C)(C)[C@@H]1C=C[C@H](O)CC1
REMARK SMILES IDX 5 1 11 2 10 3 8 4 7 5 6 6 2 7 1 8 3 9 4 10 9 11
REMARK H PARENT 9 12
REMARK Flexibility Score: inf
ROOT
ATOM      1  C   UNL     1     180.983 177.667 182.983  1.00  0.00     0.017 C 
ATOM      2  C   UNL     1     180.923 177.866 184.529  1.00  0.00     0.011 C 
ATOM      3  C   UNL     1     180.133 179.123 184.991  1.00  0.00     0.037 C 
ATOM      4  C   UNL     1     179.401 179.843 183.842  1.00  0.00     0.137 C 
ATOM      5  C   UNL     1     180.341 180.036 182.680  1.00  0.00     0.000 C 
ATOM      6  C   UNL     1     181.112 179.014 182.288  1.00  0.00    -0.025 C 
ENDROOT
BRANCH   1   7
ATOM      7  C   UNL     1     182.046 176.606 182.507  1.00  0.00    -0.032 C 
ATOM      8  C   UNL     1     181.932 175.269 183.278  1.00  0.00     0.011 C 
ATOM      9  C   UNL     1     183.473 177.172 182.709  1.00  0.00     0.011 C 
ATOM     10  C   UNL     1     181.874 176.317 180.997  1.00  0.00     0.011 C 
ENDBRANCH   1   7
BRANCH   4  11
ATOM     11  O   UNL     1     178.872 181.073 184.271  1.00  0.00    -0.389 OA
ATOM     12  H   UNL     1     177.889 180.966 184.356  1.00  0.00     0.211 HD
ENDBRANCH   4  11
TORSDOF 2
ENDMDL
MODEL 6
REMARK VINA RESULT:    -4.452      4.113      5.358
REMARK INTER + INTRA:          -5.047
REMARK INTER:                  -4.845
REMARK INTRA:                  -0.201
REMARK UNBOUND:                -0.204
REMARK SMILES CC(C)(C)[C@@H]1C=C[C@H](O)CC1
REMARK SMILES IDX 5 1 11 2 10 3 8 4 7 5 6 6 2 7 1 8 3 9 4 10 9 11
REMARK H PARENT 9 12
REMARK Flexibility Score: inf
ROOT
ATOM      1  C   UNL     1     179.035 181.883 183.687  1.00  0.00     0.017 C 
ATOM      2  C   UNL     1     179.543 182.850 184.801  1.00  0.00     0.011 C 
ATOM      3  C   UNL     1     178.835 184.233 184.830  1.00  0.00     0.037 C 
ATOM      4  C   UNL     1     177.637 184.330 183.867  1.00  0.00     0.137 C 
ATOM      5  C   UNL     1     178.031 183.811 182.508  1.00  0.00     0.000 C 
ATOM      6  C   UNL     1     178.719 182.665 182.421  1.00  0.00    -0.025 C 
ENDROOT
BRANCH   1   7
ATOM      7  C   UNL     1     179.963 180.633 183.440  1.00  0.00    -0.032 C 
ATOM      8  C   UNL     1     180.090 180.280 181.939  1.00  0.00     0.011 C 
ATOM      9  C   UNL     1     179.394 179.405 184.190  1.00  0.00     0.011 C 
ATOM     10  C   UNL     1     181.380 180.900 184.002  1.00  0.00     0.011 C 
ENDBRANCH   1   7
BRANCH   4  11
ATOM     11  O   UNL     1     177.159 185.649 183.784  1.00  0.00    -0.389 OA
ATOM     12  H   UNL     1     176.775 185.774 182.877  1.00  0.00     0.211 HD
ENDBRANCH   4  11
TORSDOF 2
ENDMDL
MODEL 7
REMARK VINA RESULT:    -4.442      2.329      4.271
REMARK INTER + INTRA:          -5.035
REMARK INTER:                  -4.835
REMARK INTRA:                  -0.201
REMARK UNBOUND:                -0.204
REMARK SMILES CC(C)(C)[C@@H]1C=C[C@H](O)CC1
REMARK SMILES IDX 5 1 11 2 10 3 8 4 7 5 6 6 2 7 1 8 3 9 4 10 9 11
REMARK H PARENT 9 12
REMARK Flexibility Score: inf
ROOT
ATOM      1  C   UNL     1     182.105 180.528 186.217  1.00  0.00     0.017 C 
ATOM      2  C   UNL     1     181.898 179.102 185.618  1.00  0.00     0.011 C 
ATOM      3  C   UNL     1     180.570 178.915 184.833  1.00  0.00     0.037 C 
ATOM      4  C   UNL     1     179.783 180.225 184.638  1.00  0.00     0.137 C 
ATOM      5  C   UNL     1     179.685 180.962 185.949  1.00  0.00     0.000 C 
ATOM      6  C   UNL     1     180.778 181.083 186.713  1.00  0.00    -0.025 C 
ENDROOT
BRANCH   1   7
ATOM      7  C   UNL     1     183.265 180.623 187.279  1.00  0.00    -0.032 C 
ATOM      8  C   UNL     1     183.501 182.073 187.766  1.00  0.00     0.011 C 
ATOM      9  C   UNL     1     184.581 180.089 186.663  1.00  0.00     0.011 C 
ATOM     10  C   UNL     1     182.940 179.741 188.508  1.00  0.00     0.011 C 
ENDBRANCH   1   7
BRANCH   4  11
ATOM     11  O   UNL     1     178.507 179.975 184.104  1.00  0.00    -0.389 OA
ATOM     12  H   UNL     1     178.545 179.108 183.623  1.00  0.00     0.211 HD
ENDBRANCH   4  11
TORSDOF 2
ENDMDL
MODEL 8
REMARK VINA RESULT:    -4.278      0.555      2.083
REMARK INTER + INTRA:          -4.858
REMARK INTER:                  -4.658
REMARK INTRA:                  -0.200
REMARK UNBOUND:                -0.204
REMARK SMILES CC(C)(C)[C@@H]1C=C[C@H](O)CC1
REMARK SMILES IDX 5 1 11 2 10 3 8 4 7 5 6 6 2 7 1 8 3 9 4 10 9 11
REMARK H PARENT 9 12
REMARK Flexibility Score: inf
ROOT
ATOM      1  C   UNL     1     181.461 180.253 185.412  1.00  0.00     0.017 C 
ATOM      2  C   UNL     1     180.468 180.848 186.458  1.00  0.00     0.011 C 
ATOM      3  C   UNL     1     181.129 181.317 187.784  1.00  0.00     0.037 C 
ATOM      4  C   UNL     1     182.668 181.273 187.753  1.00  0.00     0.137 C 
ATOM      5  C   UNL     1     183.130 179.944 187.211  1.00  0.00     0.000 C 
ATOM      6  C   UNL     1     182.540 179.445 186.118  1.00  0.00    -0.025 C 
ENDROOT
BRANCH   1   7
ATOM      7  C   UNL     1     180.768 179.480 184.227  1.00  0.00    -0.032 C 
ATOM      8  C   UNL     1     179.296 179.910 184.024  1.00  0.00     0.011 C 
ATOM      9  C   UNL     1     180.804 177.957 184.505  1.00  0.00     0.011 C 
ATOM     10  C   UNL     1     181.537 179.725 182.906  1.00  0.00     0.011 C 
ENDBRANCH   1   7
BRANCH   4  11
ATOM     11  O   UNL     1     183.209 181.512 189.028  1.00  0.00    -0.389 OA
ATOM     12  H   UNL     1     183.080 182.474 189.235  1.00  0.00     0.211 HD
ENDBRANCH   4  11
TORSDOF 2
ENDMDL
MODEL 9
REMARK VINA RESULT:    -4.253      3.767      5.494
REMARK INTER + INTRA:          -4.830
REMARK INTER:                  -4.629
REMARK INTRA:                  -0.201
REMARK UNBOUND:                -0.204
REMARK SMILES CC(C)(C)[C@@H]1C=C[C@H](O)CC1
REMARK SMILES IDX 5 1 11 2 10 3 8 4 7 5 6 6 2 7 1 8 3 9 4 10 9 11
REMARK H PARENT 9 12
REMARK Flexibility Score: inf
ROOT
ATOM      1  C   UNL     1     180.751 178.076 183.185  1.00  0.00     0.017 C 
ATOM      2  C   UNL     1     181.655 178.399 181.956  1.00  0.00     0.011 C 
ATOM      3  C   UNL     1     182.201 177.152 181.207  1.00  0.00     0.037 C 
ATOM      4  C   UNL     1     181.602 175.824 181.709  1.00  0.00     0.137 C 
ATOM      5  C   UNL     1     181.658 175.776 183.214  1.00  0.00     0.000 C 
ATOM      6  C   UNL     1     181.282 176.852 183.916  1.00  0.00    -0.025 C 
ENDROOT
BRANCH   1   7
ATOM      7  C   UNL     1     180.478 179.306 184.131  1.00  0.00    -0.032 C 
ATOM      8  C   UNL     1     180.540 178.923 185.629  1.00  0.00     0.011 C 
ATOM      9  C   UNL     1     179.078 179.895 183.830  1.00  0.00     0.011 C 
ATOM     10  C   UNL     1     181.515 180.424 183.868  1.00  0.00     0.011 C 
ENDBRANCH   1   7
BRANCH   4  11
ATOM     11  O   UNL     1     182.268 174.722 181.144  1.00  0.00    -0.389 OA
ATOM     12  H   UNL     1     183.176 175.022 180.878  1.00  0.00     0.211 HD
ENDBRANCH   4  11
TORSDOF 2
ENDMDL
