MODEL 1
REMARK VINA RESULT:    -4.439      0.000      0.000
REMARK INTER + INTRA:          -5.021
REMARK INTER:                  -4.828
REMARK INTRA:                  -0.193
REMARK UNBOUND:                -0.193
REMARK SMILES C=C(C)[C@@H]1CC[C@@H](C)C[C@@H]1O
REMARK SMILES IDX 8 1 7 2 6 3 5 4 4 5 10 6 9 7 11 8 2 10 1 11 3 12
REMARK H PARENT 11 9
REMARK Flexibility Score: inf
ROOT
ATOM      1  C   UNL     1     140.230 140.438 142.404  1.00  0.00     0.008 C 
ATOM      2  C   UNL     1     139.942 141.448 143.521  1.00  0.00    -0.012 C 
ATOM      3  C   UNL     1     140.834 141.167 144.745  1.00  0.00     0.004 C 
ATOM      4  C   UNL     1     140.537 142.150 145.885  1.00  0.00     0.011 C 
ATOM      5  C   UNL     1     139.045 142.101 146.273  1.00  0.00     0.043 C 
ATOM      6  C   UNL     1     138.136 142.392 145.055  1.00  0.00     0.121 C 
ATOM      7  C   UNL     1     138.449 141.406 143.913  1.00  0.00     0.035 C 
ENDROOT
BRANCH   6   8
ATOM      8  O   UNL     1     138.310 143.712 144.608  1.00  0.00    -0.392 OA
ATOM      9  H   UNL     1     138.076 143.722 143.643  1.00  0.00     0.210 HD
ENDBRANCH   6   8
BRANCH   5  10
ATOM     10  C   UNL     1     138.726 143.007 147.459  1.00  0.00    -0.075 C 
ATOM     11  C   UNL     1     137.538 142.962 148.087  1.00  0.00     0.008 C 
ATOM     12  C   UNL     1     139.756 143.993 147.951  1.00  0.00     0.039 C 
ENDBRANCH   5  10
TORSDOF 2
ENDMDL
MODEL 2
REMARK VINA RESULT:    -4.242      1.516      2.363
REMARK INTER + INTRA:          -4.806
REMARK INTER:                  -4.705
REMARK INTRA:                  -0.101
REMARK UNBOUND:                -0.193
REMARK SMILES C=C(C)[C@@H]1CC[C@@H](C)C[C@@H]1O
REMARK SMILES IDX 8 1 7 2 6 3 5 4 4 5 10 6 9 7 11 8 2 10 1 11 3 12
REMARK H PARENT 11 9
REMARK Flexibility Score: inf
ROOT
ATOM      1  C   UNL     1     138.347 140.748 142.047  1.00  0.00     0.008 C 
ATOM      2  C   UNL     1     138.202 141.094 143.533  1.00  0.00    -0.012 C 
ATOM      3  C   UNL     1     137.744 142.556 143.704  1.00  0.00     0.004 C 
ATOM      4  C   UNL     1     137.622 142.928 145.187  1.00  0.00     0.011 C 
ATOM      5  C   UNL     1     138.957 142.684 145.922  1.00  0.00     0.043 C 
ATOM      6  C   UNL     1     139.425 141.218 145.768  1.00  0.00     0.121 C 
ATOM      7  C   UNL     1     139.533 140.850 144.275  1.00  0.00     0.035 C 
ENDROOT
BRANCH   6   8
ATOM      8  O   UNL     1     138.536 140.341 146.413  1.00  0.00    -0.392 OA
ATOM      9  H   UNL     1     138.867 139.420 146.244  1.00  0.00     0.210 HD
ENDBRANCH   6   8
BRANCH   5  10
ATOM     10  C   UNL     1     138.900 143.120 147.384  1.00  0.00    -0.075 C 
ATOM     11  C   UNL     1     139.980 143.604 148.022  1.00  0.00     0.008 C 
ATOM     12  C   UNL     1     137.608 143.004 148.153  1.00  0.00     0.039 C 
ENDBRANCH   5  10
TORSDOF 2
ENDMDL
MODEL 3
REMARK VINA RESULT:    -4.103      1.605      4.491
REMARK INTER + INTRA:          -4.656
REMARK INTER:                  -4.527
REMARK INTRA:                  -0.129
REMARK UNBOUND:                -0.193
REMARK SMILES C=C(C)[C@@H]1CC[C@@H](C)C[C@@H]1O
REMARK SMILES IDX 8 1 7 2 6 3 5 4 4 5 10 6 9 7 11 8 2 10 1 11 3 12
REMARK H PARENT 11 9
REMARK Flexibility Score: inf
ROOT
ATOM      1  C   UNL     1     136.872 143.119 148.883  1.00  0.00     0.008 C 
ATOM      2  C   UNL     1     137.952 142.941 147.810  1.00  0.00    -0.012 C 
ATOM      3  C   UNL     1     137.310 142.751 146.422  1.00  0.00     0.004 C 
ATOM      4  C   UNL     1     138.378 142.542 145.341  1.00  0.00     0.011 C 
ATOM      5  C   UNL     1     139.283 141.342 145.693  1.00  0.00     0.043 C 
ATOM      6  C   UNL     1     139.943 141.524 147.080  1.00  0.00     0.121 C 
ATOM      7  C   UNL     1     138.863 141.744 148.157  1.00  0.00     0.035 C 
ENDROOT
BRANCH   6   8
ATOM      8  O   UNL     1     140.836 142.608 147.069  1.00  0.00    -0.392 OA
ATOM      9  H   UNL     1     140.839 142.969 146.144  1.00  0.00     0.210 HD
ENDBRANCH   6   8
BRANCH   5  10
ATOM     10  C   UNL     1     140.307 141.051 144.600  1.00  0.00    -0.075 C 
ATOM     11  C   UNL     1     140.203 141.585 143.371  1.00  0.00     0.008 C 
ATOM     12  C   UNL     1     141.472 140.135 144.885  1.00  0.00     0.039 C 
ENDBRANCH   5  10
TORSDOF 2
ENDMDL
MODEL 4
REMARK VINA RESULT:    -4.041      2.016      4.196
REMARK INTER + INTRA:          -4.588
REMARK INTER:                  -4.426
REMARK INTRA:                  -0.161
REMARK UNBOUND:                -0.193
REMARK SMILES C=C(C)[C@@H]1CC[C@@H](C)C[C@@H]1O
REMARK SMILES IDX 8 1 7 2 6 3 5 4 4 5 10 6 9 7 11 8 2 10 1 11 3 12
REMARK H PARENT 11 9
REMARK Flexibility Score: inf
ROOT
ATOM      1  C   UNL     1     140.078 144.493 148.367  1.00  0.00     0.008 C 
ATOM      2  C   UNL     1     139.427 143.253 147.744  1.00  0.00    -0.012 C 
ATOM      3  C   UNL     1     139.882 141.978 148.478  1.00  0.00     0.004 C 
ATOM      4  C   UNL     1     139.262 140.724 147.848  1.00  0.00     0.011 C 
ATOM      5  C   UNL     1     139.606 140.642 146.345  1.00  0.00     0.043 C 
ATOM      6  C   UNL     1     139.145 141.912 145.593  1.00  0.00     0.121 C 
ATOM      7  C   UNL     1     139.764 143.167 146.240  1.00  0.00     0.035 C 
ENDROOT
BRANCH   6   8
ATOM      8  O   UNL     1     137.744 142.014 145.598  1.00  0.00    -0.392 OA
ATOM      9  H   UNL     1     137.457 142.081 144.650  1.00  0.00     0.210 HD
ENDBRANCH   6   8
BRANCH   5  10
ATOM     10  C   UNL     1     139.075 139.365 145.700  1.00  0.00    -0.075 C 
ATOM     11  C   UNL     1     138.555 138.364 146.432  1.00  0.00     0.008 C 
ATOM     12  C   UNL     1     139.134 139.198 144.202  1.00  0.00     0.039 C 
ENDBRANCH   5  10
TORSDOF 2
ENDMDL
MODEL 5
REMARK VINA RESULT:    -4.041      1.840      2.233
REMARK INTER + INTRA:          -4.587
REMARK INTER:                  -4.412
REMARK INTRA:                  -0.175
REMARK UNBOUND:                -0.193
REMARK SMILES C=C(C)[C@@H]1CC[C@@H](C)C[C@@H]1O
REMARK SMILES IDX 8 1 7 2 6 3 5 4 4 5 10 6 9 7 11 8 2 10 1 11 3 12
REMARK H PARENT 11 9
REMARK Flexibility Score: inf
ROOT
ATOM      1  C   UNL     1     141.494 139.402 143.330  1.00  0.00     0.008 C 
ATOM      2  C   UNL     1     141.108 140.074 144.652  1.00  0.00    -0.012 C 
ATOM      3  C   UNL     1     140.238 139.129 145.504  1.00  0.00     0.004 C 
ATOM      4  C   UNL     1     139.818 139.797 146.819  1.00  0.00     0.011 C 
ATOM      5  C   UNL     1     139.078 141.123 146.545  1.00  0.00     0.043 C 
ATOM      6  C   UNL     1     139.943 142.086 145.700  1.00  0.00     0.121 C 
ATOM      7  C   UNL     1     140.370 141.403 144.386  1.00  0.00     0.035 C 
ENDROOT
BRANCH   6   8
ATOM      8  O   UNL     1     141.080 142.494 146.417  1.00  0.00    -0.392 OA
ATOM      9  H   UNL     1     141.366 143.364 146.034  1.00  0.00     0.210 HD
ENDBRANCH   6   8
BRANCH   5  10
ATOM     10  C   UNL     1     138.571 141.778 147.828  1.00  0.00    -0.075 C 
ATOM     11  C   UNL     1     139.042 141.424 149.037  1.00  0.00     0.008 C 
ATOM     12  C   UNL     1     137.509 142.846 147.759  1.00  0.00     0.039 C 
ENDBRANCH   5  10
TORSDOF 2
ENDMDL
MODEL 6
REMARK VINA RESULT:    -4.023      2.731      4.613
REMARK INTER + INTRA:          -4.569
REMARK INTER:                  -4.385
REMARK INTRA:                  -0.184
REMARK UNBOUND:                -0.193
REMARK SMILES C=C(C)[C@@H]1CC[C@@H](C)C[C@@H]1O
REMARK SMILES IDX 8 1 7 2 6 3 5 4 4 5 10 6 9 7 11 8 2 10 1 11 3 12
REMARK H PARENT 11 9
REMARK Flexibility Score: inf
ROOT
ATOM      1  C   UNL     1     139.988 144.267 148.017  1.00  0.00     0.008 C 
ATOM      2  C   UNL     1     140.021 142.902 147.320  1.00  0.00    -0.012 C 
ATOM      3  C   UNL     1     138.848 142.774 146.328  1.00  0.00     0.004 C 
ATOM      4  C   UNL     1     138.850 141.401 145.643  1.00  0.00     0.011 C 
ATOM      5  C   UNL     1     138.807 140.268 146.690  1.00  0.00     0.043 C 
ATOM      6  C   UNL     1     139.986 140.378 147.686  1.00  0.00     0.121 C 
ATOM      7  C   UNL     1     139.982 141.764 148.361  1.00  0.00     0.035 C 
ENDROOT
BRANCH   6   8
ATOM      8  O   UNL     1     141.211 140.168 147.033  1.00  0.00    -0.392 OA
ATOM      9  H   UNL     1     141.894 140.029 147.740  1.00  0.00     0.210 HD
ENDBRANCH   6   8
BRANCH   5  10
ATOM     10  C   UNL     1     138.725 138.888 146.044  1.00  0.00    -0.075 C 
ATOM     11  C   UNL     1     138.613 138.734 144.713  1.00  0.00     0.008 C 
ATOM     12  C   UNL     1     138.761 137.651 146.906  1.00  0.00     0.039 C 
ENDBRANCH   5  10
TORSDOF 2
ENDMDL
MODEL 7
REMARK VINA RESULT:    -3.959      1.612      4.076
REMARK INTER + INTRA:          -4.499
REMARK INTER:                  -4.306
REMARK INTRA:                  -0.193
REMARK UNBOUND:                -0.193
REMARK SMILES C=C(C)[C@@H]1CC[C@@H](C)C[C@@H]1O
REMARK SMILES IDX 8 1 7 2 6 3 5 4 4 5 10 6 9 7 11 8 2 10 1 11 3 12
REMARK H PARENT 11 9
REMARK Flexibility Score: inf
ROOT
ATOM      1  C   UNL     1     139.983 141.520 148.775  1.00  0.00     0.008 C 
ATOM      2  C   UNL     1     139.636 142.060 147.383  1.00  0.00    -0.012 C 
ATOM      3  C   UNL     1     138.134 142.389 147.290  1.00  0.00     0.004 C 
ATOM      4  C   UNL     1     137.764 142.903 145.893  1.00  0.00     0.011 C 
ATOM      5  C   UNL     1     138.168 141.880 144.810  1.00  0.00     0.043 C 
ATOM      6  C   UNL     1     139.677 141.548 144.885  1.00  0.00     0.121 C 
ATOM      7  C   UNL     1     140.040 141.043 146.294  1.00  0.00     0.035 C 
ENDROOT
BRANCH   6   8
ATOM      8  O   UNL     1     140.451 142.676 144.567  1.00  0.00    -0.392 OA
ATOM      9  H   UNL     1     140.362 142.820 143.588  1.00  0.00     0.210 HD
ENDBRANCH   6   8
BRANCH   5  10
ATOM     10  C   UNL     1     137.742 142.320 143.412  1.00  0.00    -0.075 C 
ATOM     11  C   UNL     1     137.804 141.487 142.358  1.00  0.00     0.008 C 
ATOM     12  C   UNL     1     137.245 143.725 143.184  1.00  0.00     0.039 C 
ENDBRANCH   5  10
TORSDOF 2
ENDMDL
MODEL 8
REMARK VINA RESULT:    -3.910      2.092      4.441
REMARK INTER + INTRA:          -4.446
REMARK INTER:                  -4.263
REMARK INTRA:                  -0.183
REMARK UNBOUND:                -0.193
REMARK SMILES C=C(C)[C@@H]1CC[C@@H](C)C[C@@H]1O
REMARK SMILES IDX 8 1 7 2 6 3 5 4 4 5 10 6 9 7 11 8 2 10 1 11 3 12
REMARK H PARENT 11 9
REMARK Flexibility Score: inf
ROOT
ATOM      1  C   UNL     1     137.359 143.042 148.029  1.00  0.00     0.008 C 
ATOM      2  C   UNL     1     138.136 141.870 147.419  1.00  0.00    -0.012 C 
ATOM      3  C   UNL     1     139.425 141.602 148.219  1.00  0.00     0.004 C 
ATOM      4  C   UNL     1     140.230 140.450 147.604  1.00  0.00     0.011 C 
ATOM      5  C   UNL     1     140.556 140.741 146.124  1.00  0.00     0.043 C 
ATOM      6  C   UNL     1     139.269 141.001 145.306  1.00  0.00     0.121 C 
ATOM      7  C   UNL     1     138.463 142.153 145.937  1.00  0.00     0.035 C 
ENDROOT
BRANCH   6   8
ATOM      8  O   UNL     1     138.478 139.843 145.240  1.00  0.00    -0.392 OA
ATOM      9  H   UNL     1     137.753 139.951 145.911  1.00  0.00     0.210 HD
ENDBRANCH   6   8
BRANCH   5  10
ATOM     10  C   UNL     1     141.426 139.654 145.499  1.00  0.00    -0.075 C 
ATOM     11  C   UNL     1     141.845 139.727 144.224  1.00  0.00     0.008 C 
ATOM     12  C   UNL     1     141.831 138.452 146.316  1.00  0.00     0.039 C 
ENDBRANCH   5  10
TORSDOF 2
ENDMDL
MODEL 9
REMARK VINA RESULT:    -3.870      1.787      3.971
REMARK INTER + INTRA:          -4.402
REMARK INTER:                  -4.333
REMARK INTRA:                  -0.068
REMARK UNBOUND:                -0.193
REMARK SMILES C=C(C)[C@@H]1CC[C@@H](C)C[C@@H]1O
REMARK SMILES IDX 8 1 7 2 6 3 5 4 4 5 10 6 9 7 11 8 2 10 1 11 3 12
REMARK H PARENT 11 9
REMARK Flexibility Score: inf
ROOT
ATOM      1  C   UNL     1     140.262 141.634 149.111  1.00  0.00     0.008 C 
ATOM      2  C   UNL     1     139.289 141.698 147.928  1.00  0.00    -0.012 C 
ATOM      3  C   UNL     1     139.907 141.032 146.684  1.00  0.00     0.004 C 
ATOM      4  C   UNL     1     138.957 141.114 145.482  1.00  0.00     0.011 C 
ATOM      5  C   UNL     1     138.578 142.580 145.185  1.00  0.00     0.043 C 
ATOM      6  C   UNL     1     137.947 143.259 146.423  1.00  0.00     0.121 C 
ATOM      7  C   UNL     1     138.903 143.162 147.628  1.00  0.00     0.035 C 
ENDROOT
BRANCH   6   8
ATOM      8  O   UNL     1     136.714 142.666 146.743  1.00  0.00    -0.392 OA
ATOM      9  H   UNL     1     136.891 141.701 146.897  1.00  0.00     0.210 HD
ENDBRANCH   6   8
BRANCH   5  10
ATOM     10  C   UNL     1     137.698 142.710 143.945  1.00  0.00    -0.075 C 
ATOM     11  C   UNL     1     136.980 143.820 143.698  1.00  0.00     0.008 C 
ATOM     12  C   UNL     1     137.612 141.570 142.961  1.00  0.00     0.039 C 
ENDBRANCH   5  10
TORSDOF 2
ENDMDL
