MODEL 1
REMARK VINA RESULT:    -7.007      0.000      0.000
REMARK INTER + INTRA:          -9.261
REMARK INTER:                  -8.850
REMARK INTRA:                  -0.411
REMARK UNBOUND:                -0.411
REMARK SMILES Oc1ccc(CCc2cc(O)cc(O)c2)cc1
REMARK SMILES IDX 6 1 5 2 4 3 3 4 2 5 16 6 17 7 1 8 7 10 8 11 15 12 9 13 13 14
REMARK SMILES IDX 10 15 12 16 14 17 11 19
REMARK H PARENT 1 9 14 18 11 20
REMARK Flexibility Score: inf
ROOT
ATOM      1  C   UNL     1     -11.333  -2.048 -10.125  1.00  0.00     0.040 C 
ENDROOT
BRANCH   1   2
ATOM      2  C   UNL     1     -10.518  -3.293  -9.897  1.00  0.00    -0.047 A 
ATOM      3  C   UNL     1     -11.085  -4.560 -10.110  1.00  0.00     0.007 A 
ATOM      4  C   UNL     1     -10.318  -5.715  -9.930  1.00  0.00     0.046 A 
ATOM      5  C   UNL     1      -8.977  -5.615  -9.545  1.00  0.00     0.115 A 
ATOM      6  C   UNL     1      -9.169  -3.196  -9.523  1.00  0.00     0.007 A 
ATOM      7  C   UNL     1      -8.403  -4.353  -9.342  1.00  0.00     0.046 A 
BRANCH   5   8
ATOM      8  O   UNL     1      -8.224  -6.774  -9.368  1.00  0.00    -0.508 OA
ATOM      9  H   UNL     1      -7.258  -6.736  -9.064  1.00  0.00     0.293 HD
ENDBRANCH   5   8
ENDBRANCH   1   2
BRANCH   1  10
ATOM     10  C   UNL     1     -10.501  -0.798  -9.826  1.00  0.00     0.040 C 
BRANCH  10  11
ATOM     11  C   UNL     1     -11.384   0.418  -9.738  1.00  0.00    -0.040 A 
ATOM     12  C   UNL     1     -10.818   1.695  -9.595  1.00  0.00     0.050 A 
ATOM     13  C   UNL     1     -12.782   0.279  -9.741  1.00  0.00     0.050 A 
ATOM     14  C   UNL     1     -11.641   2.825  -9.479  1.00  0.00     0.119 A 
ATOM     15  C   UNL     1     -13.605   1.407  -9.625  1.00  0.00     0.119 A 
ATOM     16  C   UNL     1     -13.031   2.678  -9.497  1.00  0.00     0.092 A 
BRANCH  14  17
ATOM     17  O   UNL     1     -11.086   4.094  -9.343  1.00  0.00    -0.508 OA
ATOM     18  H   UNL     1     -10.082   4.235  -9.315  1.00  0.00     0.293 HD
ENDBRANCH  14  17
BRANCH  15  19
ATOM     19  O   UNL     1     -14.992   1.278  -9.633  1.00  0.00    -0.508 OA
ATOM     20  H   UNL     1     -15.525   1.237  -8.773  1.00  0.00     0.293 HD
ENDBRANCH  15  19
ENDBRANCH  10  11
ENDBRANCH   1  10
TORSDOF 6
ENDMDL
MODEL 2
REMARK VINA RESULT:    -6.856     16.232     18.674
REMARK INTER + INTRA:          -9.071
REMARK INTER:                  -8.664
REMARK INTRA:                  -0.407
REMARK UNBOUND:                -0.411
REMARK SMILES Oc1ccc(CCc2cc(O)cc(O)c2)cc1
REMARK SMILES IDX 6 1 5 2 4 3 3 4 2 5 16 6 17 7 1 8 7 10 8 11 15 12 9 13 13 14
REMARK SMILES IDX 10 15 12 16 14 17 11 19
REMARK H PARENT 1 9 14 18 11 20
REMARK Flexibility Score: inf
ROOT
ATOM      1  C   UNL     1      -9.448   6.953   5.071  1.00  0.00     0.040 C 
ENDROOT
BRANCH   1   2
ATOM      2  C   UNL     1      -9.223   8.402   5.412  1.00  0.00    -0.047 A 
ATOM      3  C   UNL     1     -10.267   9.332   5.279  1.00  0.00     0.007 A 
ATOM      4  C   UNL     1     -10.066  10.671   5.628  1.00  0.00     0.046 A 
ATOM      5  C   UNL     1      -8.826  11.091   6.119  1.00  0.00     0.115 A 
ATOM      6  C   UNL     1      -7.984   8.825   5.918  1.00  0.00     0.007 A 
ATOM      7  C   UNL     1      -7.784  10.166   6.265  1.00  0.00     0.046 A 
BRANCH   5   8
ATOM      8  O   UNL     1      -8.640  12.429   6.461  1.00  0.00    -0.508 OA
ATOM      9  H   UNL     1      -7.807  12.935   6.185  1.00  0.00     0.293 HD
ENDBRANCH   5   8
ENDBRANCH   1   2
BRANCH   1  10
ATOM     10  C   UNL     1      -9.525   6.106   6.344  1.00  0.00     0.040 C 
BRANCH  10  11
ATOM     11  C   UNL     1     -10.437   4.926   6.141  1.00  0.00    -0.040 A 
ATOM     12  C   UNL     1     -10.796   4.114   7.229  1.00  0.00     0.050 A 
ATOM     13  C   UNL     1     -10.889   4.594   4.854  1.00  0.00     0.050 A 
ATOM     14  C   UNL     1     -11.618   2.995   7.036  1.00  0.00     0.119 A 
ATOM     15  C   UNL     1     -11.711   3.476   4.659  1.00  0.00     0.119 A 
ATOM     16  C   UNL     1     -12.075   2.681   5.752  1.00  0.00     0.092 A 
BRANCH  14  17
ATOM     17  O   UNL     1     -11.983   2.189   8.110  1.00  0.00    -0.508 OA
ATOM     18  H   UNL     1     -12.493   1.323   7.975  1.00  0.00     0.293 HD
ENDBRANCH  14  17
BRANCH  15  19
ATOM     19  O   UNL     1     -12.168   3.144   3.386  1.00  0.00    -0.508 OA
ATOM     20  H   UNL     1     -11.733   2.408   2.842  1.00  0.00     0.293 HD
ENDBRANCH  15  19
ENDBRANCH  10  11
ENDBRANCH   1  10
TORSDOF 6
ENDMDL
MODEL 3
REMARK VINA RESULT:    -6.856     16.249     18.683
REMARK INTER + INTRA:          -9.070
REMARK INTER:                  -8.663
REMARK INTRA:                  -0.407
REMARK UNBOUND:                -0.411
REMARK SMILES Oc1ccc(CCc2cc(O)cc(O)c2)cc1
REMARK SMILES IDX 6 1 5 2 4 3 3 4 2 5 16 6 17 7 1 8 7 10 8 11 15 12 9 13 13 14
REMARK SMILES IDX 10 15 12 16 14 17 11 19
REMARK H PARENT 1 9 14 18 11 20
REMARK Flexibility Score: inf
ROOT
ATOM      1  C   UNL     1      -9.467   6.948   5.094  1.00  0.00     0.040 C 
ENDROOT
BRANCH   1   2
ATOM      2  C   UNL     1      -9.230   8.395   5.436  1.00  0.00    -0.047 A 
ATOM      3  C   UNL     1     -10.261   9.337   5.283  1.00  0.00     0.007 A 
ATOM      4  C   UNL     1     -10.050  10.675   5.632  1.00  0.00     0.046 A 
ATOM      5  C   UNL     1      -8.814  11.082   6.144  1.00  0.00     0.115 A 
ATOM      6  C   UNL     1      -7.995   8.806   5.962  1.00  0.00     0.007 A 
ATOM      7  C   UNL     1      -7.786  10.144   6.309  1.00  0.00     0.046 A 
BRANCH   5   8
ATOM      8  O   UNL     1      -8.618  12.419   6.486  1.00  0.00    -0.508 OA
ATOM      9  H   UNL     1      -8.954  12.795   7.364  1.00  0.00     0.293 HD
ENDBRANCH   5   8
ENDBRANCH   1   2
BRANCH   1  10
ATOM     10  C   UNL     1      -9.547   6.102   6.367  1.00  0.00     0.040 C 
BRANCH  10  11
ATOM     11  C   UNL     1     -10.440   4.909   6.154  1.00  0.00    -0.040 A 
ATOM     12  C   UNL     1     -10.923   4.607   4.870  1.00  0.00     0.050 A 
ATOM     13  C   UNL     1     -10.844   4.122   7.245  1.00  0.00     0.050 A 
ATOM     14  C   UNL     1     -11.783   3.517   4.676  1.00  0.00     0.119 A 
ATOM     15  C   UNL     1     -11.702   3.032   7.052  1.00  0.00     0.119 A 
ATOM     16  C   UNL     1     -12.167   2.731   5.767  1.00  0.00     0.092 A 
BRANCH  14  17
ATOM     17  O   UNL     1     -12.261   3.208   3.405  1.00  0.00    -0.508 OA
ATOM     18  H   UNL     1     -12.777   3.885   2.854  1.00  0.00     0.293 HD
ENDBRANCH  14  17
BRANCH  15  19
ATOM     19  O   UNL     1     -12.102   2.244   8.129  1.00  0.00    -0.508 OA
ATOM     20  H   UNL     1     -11.550   2.186   8.977  1.00  0.00     0.293 HD
ENDBRANCH  15  19
ENDBRANCH  10  11
ENDBRANCH   1  10
TORSDOF 6
ENDMDL
MODEL 4
REMARK VINA RESULT:    -6.789      3.547      4.428
REMARK INTER + INTRA:          -8.986
REMARK INTER:                  -8.581
REMARK INTRA:                  -0.405
REMARK UNBOUND:                -0.411
REMARK SMILES Oc1ccc(CCc2cc(O)cc(O)c2)cc1
REMARK SMILES IDX 6 1 5 2 4 3 3 4 2 5 16 6 17 7 1 8 7 10 8 11 15 12 9 13 13 14
REMARK SMILES IDX 10 15 12 16 14 17 11 19
REMARK H PARENT 1 9 14 18 11 20
REMARK Flexibility Score: inf
ROOT
ATOM      1  C   UNL     1     -14.632  -0.561  -9.354  1.00  0.00     0.040 C 
ENDROOT
BRANCH   1   2
ATOM      2  C   UNL     1     -14.844  -2.050  -9.307  1.00  0.00    -0.047 A 
ATOM      3  C   UNL     1     -15.908  -2.592  -8.567  1.00  0.00     0.007 A 
ATOM      4  C   UNL     1     -16.125  -3.973  -8.550  1.00  0.00     0.046 A 
ATOM      5  C   UNL     1     -15.288  -4.825  -9.279  1.00  0.00     0.115 A 
ATOM      6  C   UNL     1     -14.015  -2.907 -10.048  1.00  0.00     0.007 A 
ATOM      7  C   UNL     1     -14.232  -4.289 -10.029  1.00  0.00     0.046 A 
BRANCH   5   8
ATOM      8  O   UNL     1     -15.514  -6.199  -9.253  1.00  0.00    -0.508 OA
ATOM      9  H   UNL     1     -14.754  -6.862  -9.342  1.00  0.00     0.293 HD
ENDBRANCH   5   8
ENDBRANCH   1   2
BRANCH   1  10
ATOM     10  C   UNL     1     -13.338  -0.226 -10.100  1.00  0.00     0.040 C 
BRANCH  10  11
ATOM     11  C   UNL     1     -12.785   1.095  -9.635  1.00  0.00    -0.040 A 
ATOM     12  C   UNL     1     -13.653   2.150  -9.309  1.00  0.00     0.050 A 
ATOM     13  C   UNL     1     -11.397   1.302  -9.579  1.00  0.00     0.050 A 
ATOM     14  C   UNL     1     -13.139   3.391  -8.908  1.00  0.00     0.119 A 
ATOM     15  C   UNL     1     -10.882   2.542  -9.178  1.00  0.00     0.119 A 
ATOM     16  C   UNL     1     -11.755   3.582  -8.841  1.00  0.00     0.092 A 
BRANCH  14  17
ATOM     17  O   UNL     1     -13.994   4.439  -8.578  1.00  0.00    -0.508 OA
ATOM     18  H   UNL     1     -15.001   4.321  -8.571  1.00  0.00     0.293 HD
ENDBRANCH  14  17
BRANCH  15  19
ATOM     19  O   UNL     1      -9.507   2.752  -9.114  1.00  0.00    -0.508 OA
ATOM     20  H   UNL     1      -8.946   2.367  -8.363  1.00  0.00     0.293 HD
ENDBRANCH  15  19
ENDBRANCH  10  11
ENDBRANCH   1  10
TORSDOF 6
ENDMDL
MODEL 5
REMARK VINA RESULT:    -6.538     16.927     18.362
REMARK INTER + INTRA:          -8.669
REMARK INTER:                  -8.274
REMARK INTRA:                  -0.395
REMARK UNBOUND:                -0.411
REMARK SMILES Oc1ccc(CCc2cc(O)cc(O)c2)cc1
REMARK SMILES IDX 6 1 5 2 4 3 3 4 2 5 16 6 17 7 1 8 7 10 8 11 15 12 9 13 13 14
REMARK SMILES IDX 10 15 12 16 14 17 11 19
REMARK H PARENT 1 9 14 18 11 20
REMARK Flexibility Score: inf
ROOT
ATOM      1  C   UNL     1      -9.397   6.120   6.363  1.00  0.00     0.040 C 
ENDROOT
BRANCH   1   2
ATOM      2  C   UNL     1     -10.431   5.071   6.677  1.00  0.00    -0.047 A 
ATOM      3  C   UNL     1     -10.795   4.811   8.008  1.00  0.00     0.007 A 
ATOM      4  C   UNL     1     -11.780   3.861   8.296  1.00  0.00     0.046 A 
ATOM      5  C   UNL     1     -12.415   3.169   7.259  1.00  0.00     0.115 A 
ATOM      6  C   UNL     1     -11.080   4.385   5.638  1.00  0.00     0.007 A 
ATOM      7  C   UNL     1     -12.063   3.433   5.929  1.00  0.00     0.046 A 
BRANCH   5   8
ATOM      8  O   UNL     1     -13.393   2.224   7.561  1.00  0.00    -0.508 OA
ATOM      9  H   UNL     1     -13.785   1.623   6.847  1.00  0.00     0.293 HD
ENDBRANCH   5   8
ENDBRANCH   1   2
BRANCH   1  10
ATOM     10  C   UNL     1      -9.935   7.114   5.331  1.00  0.00     0.040 C 
BRANCH  10  11
ATOM     11  C   UNL     1      -9.229   8.438   5.454  1.00  0.00    -0.040 A 
ATOM     12  C   UNL     1      -7.896   8.492   5.891  1.00  0.00     0.050 A 
ATOM     13  C   UNL     1      -9.916   9.634   5.188  1.00  0.00     0.050 A 
ATOM     14  C   UNL     1      -7.249   9.727   6.039  1.00  0.00     0.119 A 
ATOM     15  C   UNL     1      -9.270  10.869   5.335  1.00  0.00     0.119 A 
ATOM     16  C   UNL     1      -7.937  10.911   5.757  1.00  0.00     0.092 A 
BRANCH  14  17
ATOM     17  O   UNL     1      -5.925   9.787   6.466  1.00  0.00    -0.508 OA
ATOM     18  H   UNL     1      -5.496  10.663   6.743  1.00  0.00     0.293 HD
ENDBRANCH  14  17
BRANCH  15  19
ATOM     19  O   UNL     1      -9.943  12.059   5.066  1.00  0.00    -0.508 OA
ATOM     20  H   UNL     1     -10.952  12.125   5.138  1.00  0.00     0.293 HD
ENDBRANCH  15  19
ENDBRANCH  10  11
ENDBRANCH   1  10
TORSDOF 6
ENDMDL
MODEL 6
REMARK VINA RESULT:    -6.482     16.916     18.365
REMARK INTER + INTRA:          -8.598
REMARK INTER:                  -8.206
REMARK INTRA:                  -0.392
REMARK UNBOUND:                -0.411
REMARK SMILES Oc1ccc(CCc2cc(O)cc(O)c2)cc1
REMARK SMILES IDX 6 1 5 2 4 3 3 4 2 5 16 6 17 7 1 8 7 10 8 11 15 12 9 13 13 14
REMARK SMILES IDX 10 15 12 16 14 17 11 19
REMARK H PARENT 1 9 14 18 11 20
REMARK Flexibility Score: inf
ROOT
ATOM      1  C   UNL     1      -9.410   6.072   6.321  1.00  0.00     0.040 C 
ENDROOT
BRANCH   1   2
ATOM      2  C   UNL     1     -10.471   5.052   6.638  1.00  0.00    -0.047 A 
ATOM      3  C   UNL     1     -10.795   4.759   7.973  1.00  0.00     0.007 A 
ATOM      4  C   UNL     1     -11.803   3.836   8.267  1.00  0.00     0.046 A 
ATOM      5  C   UNL     1     -12.501   3.204   7.233  1.00  0.00     0.115 A 
ATOM      6  C   UNL     1     -11.183   4.425   5.604  1.00  0.00     0.007 A 
ATOM      7  C   UNL     1     -12.190   3.501   5.900  1.00  0.00     0.046 A 
BRANCH   5   8
ATOM      8  O   UNL     1     -13.502   2.285   7.541  1.00  0.00    -0.508 OA
ATOM      9  H   UNL     1     -13.615   1.919   8.478  1.00  0.00     0.293 HD
ENDBRANCH   5   8
ENDBRANCH   1   2
BRANCH   1  10
ATOM     10  C   UNL     1      -9.921   7.071   5.279  1.00  0.00     0.040 C 
BRANCH  10  11
ATOM     11  C   UNL     1      -9.237   8.402   5.442  1.00  0.00    -0.040 A 
ATOM     12  C   UNL     1      -9.920   9.591   5.137  1.00  0.00     0.050 A 
ATOM     13  C   UNL     1      -7.893   8.463   5.847  1.00  0.00     0.050 A 
ATOM     14  C   UNL     1      -9.273  10.829   5.256  1.00  0.00     0.119 A 
ATOM     15  C   UNL     1      -7.246   9.700   5.967  1.00  0.00     0.119 A 
ATOM     16  C   UNL     1      -7.939  10.880   5.674  1.00  0.00     0.092 A 
BRANCH  14  17
ATOM     17  O   UNL     1      -9.945  12.012   4.960  1.00  0.00    -0.508 OA
ATOM     18  H   UNL     1     -10.958  12.058   4.949  1.00  0.00     0.293 HD
ENDBRANCH  14  17
BRANCH  15  19
ATOM     19  O   UNL     1      -5.915   9.768   6.374  1.00  0.00    -0.508 OA
ATOM     20  H   UNL     1      -5.357   8.933   6.502  1.00  0.00     0.293 HD
ENDBRANCH  15  19
ENDBRANCH  10  11
ENDBRANCH   1  10
TORSDOF 6
ENDMDL
MODEL 7
REMARK VINA RESULT:    -6.270     16.340     18.552
REMARK INTER + INTRA:          -8.330
REMARK INTER:                  -7.808
REMARK INTRA:                  -0.522
REMARK UNBOUND:                -0.411
REMARK SMILES Oc1ccc(CCc2cc(O)cc(O)c2)cc1
REMARK SMILES IDX 6 1 5 2 4 3 3 4 2 5 16 6 17 7 1 8 7 10 8 11 15 12 9 13 13 14
REMARK SMILES IDX 10 15 12 16 14 17 11 19
REMARK H PARENT 1 9 14 18 11 20
REMARK Flexibility Score: inf
ROOT
ATOM      1  C   UNL     1      -9.333   7.041   4.836  1.00  0.00     0.040 C 
ENDROOT
BRANCH   1   2
ATOM      2  C   UNL     1      -9.192   8.489   5.221  1.00  0.00    -0.047 A 
ATOM      3  C   UNL     1     -10.316   9.332   5.234  1.00  0.00     0.007 A 
ATOM      4  C   UNL     1     -10.191  10.669   5.624  1.00  0.00     0.046 A 
ATOM      5  C   UNL     1      -8.945  11.174   6.011  1.00  0.00     0.115 A 
ATOM      6  C   UNL     1      -7.947   8.997   5.623  1.00  0.00     0.007 A 
ATOM      7  C   UNL     1      -7.822  10.335   6.011  1.00  0.00     0.046 A 
BRANCH   5   8
ATOM      8  O   UNL     1      -8.834  12.509   6.395  1.00  0.00    -0.508 OA
ATOM      9  H   UNL     1      -8.544  12.768   7.330  1.00  0.00     0.293 HD
ENDBRANCH   5   8
ENDBRANCH   1   2
BRANCH   1  10
ATOM     10  C   UNL     1      -9.694   6.193   6.059  1.00  0.00     0.040 C 
BRANCH  10  11
ATOM     11  C   UNL     1     -10.983   5.451   5.827  1.00  0.00    -0.040 A 
ATOM     12  C   UNL     1     -12.197   6.152   5.738  1.00  0.00     0.050 A 
ATOM     13  C   UNL     1     -10.990   4.048   5.756  1.00  0.00     0.050 A 
ATOM     14  C   UNL     1     -13.402   5.460   5.556  1.00  0.00     0.119 A 
ATOM     15  C   UNL     1     -12.194   3.355   5.574  1.00  0.00     0.119 A 
ATOM     16  C   UNL     1     -13.397   4.064   5.471  1.00  0.00     0.092 A 
BRANCH  14  17
ATOM     17  O   UNL     1     -14.608   6.148   5.461  1.00  0.00    -0.508 OA
ATOM     18  H   UNL     1     -15.132   6.183   4.593  1.00  0.00     0.293 HD
ENDBRANCH  14  17
BRANCH  15  19
ATOM     19  O   UNL     1     -12.208   1.964   5.496  1.00  0.00    -0.508 OA
ATOM     20  H   UNL     1     -12.150   1.386   6.326  1.00  0.00     0.293 HD
ENDBRANCH  15  19
ENDBRANCH  10  11
ENDBRANCH   1  10
TORSDOF 6
ENDMDL
