MODEL 1
REMARK VINA RESULT:    -5.593      0.000      0.000
REMARK INTER + INTRA:          -8.639
REMARK INTER:                  -7.882
REMARK INTRA:                  -0.758
REMARK UNBOUND:                -0.758
REMARK SMILES COc1ccc(-c2cc(=O)c3c(OC)c(OC)c(OC)c(OC)c3o2)cc1OC
REMARK SMILES IDX 7 1 8 2 9 3 10 4 11 5 24 6 25 7 21 8 18 9 15 10 12 11 6 12
REMARK SMILES IDX 3 13 27 14 4 15 26 16 5 17 2 18 1 19 28 20 29 21 22 22 23 23
REMARK SMILES IDX 13 24 14 25 19 26 20 27 16 28 17 29
REMARK H PARENT
REMARK Flexibility Score: inf
ROOT
ATOM      1  C   UNL     1      -7.693  -1.550  -6.652  1.00  0.00     0.138 A 
ATOM      2  C   UNL     1      -6.584  -1.662  -7.497  1.00  0.00     0.100 A 
ATOM      3  C   UNL     1      -6.266  -2.902  -8.044  1.00  0.00     0.197 A 
ATOM      4  O   UNL     1      -5.284  -2.980  -8.829  1.00  0.00    -0.289 OA
ATOM      5  C   UNL     1      -7.055  -4.032  -7.728  1.00  0.00     0.115 A 
ATOM      6  C   UNL     1      -8.168  -3.842  -6.871  1.00  0.00     0.188 A 
ATOM      7  O   UNL     1      -8.419  -2.630  -6.379  1.00  0.00    -0.452 OA
ATOM      8  C   UNL     1      -9.016  -4.930  -6.549  1.00  0.00     0.209 A 
ATOM      9  C   UNL     1      -8.763  -6.200  -7.128  1.00  0.00     0.211 A 
ATOM     10  C   UNL     1      -7.670  -6.382  -7.986  1.00  0.00     0.208 A 
ATOM     11  C   UNL     1      -6.777  -5.320  -8.235  1.00  0.00     0.179 A 
ENDROOT
BRANCH   1  12
ATOM     12  C   UNL     1      -8.079  -0.251  -6.050  1.00  0.00     0.021 A 
ATOM     13  C   UNL     1      -8.817   2.243  -4.951  1.00  0.00     0.160 A 
ATOM     14  C   UNL     1      -7.874   1.440  -4.292  1.00  0.00     0.161 A 
ATOM     15  C   UNL     1      -9.379   1.799  -6.162  1.00  0.00     0.051 A 
ATOM     16  C   UNL     1      -7.507   0.197  -4.845  1.00  0.00     0.062 A 
ATOM     17  C   UNL     1      -9.010   0.568  -6.705  1.00  0.00     0.016 A 
BRANCH  13  18
ATOM     18  O   UNL     1      -9.167   3.473  -4.374  1.00  0.00    -0.493 OA
ATOM     19  C   UNL     1     -10.125   3.634  -3.334  1.00  0.00     0.278 C 
ENDBRANCH  13  18
BRANCH  14  20
ATOM     20  O   UNL     1      -7.321   1.915  -3.092  1.00  0.00    -0.493 OA
ATOM     21  C   UNL     1      -7.279   1.178  -1.875  1.00  0.00     0.278 C 
ENDBRANCH  14  20
ENDBRANCH   1  12
BRANCH   8  22
ATOM     22  O   UNL     1     -10.123  -4.798  -5.688  1.00  0.00    -0.490 OA
ATOM     23  C   UNL     1     -10.104  -4.714  -4.267  1.00  0.00     0.278 C 
ENDBRANCH   8  22
BRANCH  11  24
ATOM     24  O   UNL     1      -5.601  -5.553  -8.954  1.00  0.00    -0.492 OA
ATOM     25  C   UNL     1      -4.501  -6.233  -8.359  1.00  0.00     0.278 C 
ENDBRANCH  11  24
BRANCH   9  26
ATOM     26  O   UNL     1      -9.565  -7.337  -6.898  1.00  0.00    -0.490 OA
ATOM     27  C   UNL     1      -9.546  -8.190  -5.759  1.00  0.00     0.279 C 
ENDBRANCH   9  26
BRANCH  10  28
ATOM     28  O   UNL     1      -7.521  -7.658  -8.563  1.00  0.00    -0.490 OA
ATOM     29  C   UNL     1      -7.883  -8.018  -9.892  1.00  0.00     0.278 C 
ENDBRANCH  10  28
TORSDOF 7
ENDMDL
MODEL 2
REMARK VINA RESULT:    -5.053      0.975      3.295
REMARK INTER + INTRA:          -7.878
REMARK INTER:                  -7.359
REMARK INTRA:                  -0.519
REMARK UNBOUND:                -0.758
REMARK SMILES COc1ccc(-c2cc(=O)c3c(OC)c(OC)c(OC)c(OC)c3o2)cc1OC
REMARK SMILES IDX 7 1 8 2 9 3 10 4 11 5 24 6 25 7 21 8 18 9 15 10 12 11 6 12
REMARK SMILES IDX 3 13 27 14 4 15 26 16 5 17 2 18 1 19 28 20 29 21 22 22 23 23
REMARK SMILES IDX 13 24 14 25 19 26 20 27 16 28 17 29
REMARK H PARENT
REMARK Flexibility Score: inf
ROOT
ATOM      1  C   UNL     1      -8.510  -1.883  -5.610  1.00  0.00     0.138 A 
ATOM      2  C   UNL     1      -9.338  -2.821  -4.985  1.00  0.00     0.100 A 
ATOM      3  C   UNL     1      -9.345  -4.136  -5.441  1.00  0.00     0.197 A 
ATOM      4  O   UNL     1     -10.073  -4.976  -4.847  1.00  0.00    -0.289 OA
ATOM      5  C   UNL     1      -8.531  -4.504  -6.536  1.00  0.00     0.115 A 
ATOM      6  C   UNL     1      -7.711  -3.503  -7.115  1.00  0.00     0.188 A 
ATOM      7  O   UNL     1      -7.750  -2.262  -6.634  1.00  0.00    -0.452 OA
ATOM      8  C   UNL     1      -6.845  -3.822  -8.190  1.00  0.00     0.209 A 
ATOM      9  C   UNL     1      -6.778  -5.161  -8.651  1.00  0.00     0.211 A 
ATOM     10  C   UNL     1      -7.580  -6.152  -8.068  1.00  0.00     0.208 A 
ATOM     11  C   UNL     1      -8.504  -5.816  -7.057  1.00  0.00     0.179 A 
ENDROOT
BRANCH   1  12
ATOM     12  C   UNL     1      -8.459  -0.472  -5.158  1.00  0.00     0.021 A 
ATOM     13  C   UNL     1      -8.356   2.231  -4.348  1.00  0.00     0.160 A 
ATOM     14  C   UNL     1      -7.799   1.235  -3.532  1.00  0.00     0.161 A 
ATOM     15  C   UNL     1      -8.952   1.872  -5.571  1.00  0.00     0.051 A 
ATOM     16  C   UNL     1      -7.852  -0.113  -3.941  1.00  0.00     0.062 A 
ATOM     17  C   UNL     1      -8.999   0.536  -5.971  1.00  0.00     0.016 A 
BRANCH  13  18
ATOM     18  O   UNL     1      -8.293   3.564  -3.913  1.00  0.00    -0.493 OA
ATOM     19  C   UNL     1      -9.415   4.323  -3.475  1.00  0.00     0.278 C 
ENDBRANCH  13  18
BRANCH  14  20
ATOM     20  O   UNL     1      -7.199   1.625  -2.324  1.00  0.00    -0.493 OA
ATOM     21  C   UNL     1      -7.097   0.798  -1.169  1.00  0.00     0.278 C 
ENDBRANCH  14  20
ENDBRANCH   1  12
BRANCH   8  22
ATOM     22  O   UNL     1      -6.025  -2.860  -8.812  1.00  0.00    -0.490 OA
ATOM     23  C   UNL     1      -6.394  -1.949  -9.841  1.00  0.00     0.278 C 
ENDBRANCH   8  22
BRANCH  11  24
ATOM     24  O   UNL     1      -9.414  -6.772  -6.600  1.00  0.00    -0.492 OA
ATOM     25  C   UNL     1      -9.016  -7.781  -5.677  1.00  0.00     0.278 C 
ENDBRANCH  11  24
BRANCH   9  26
ATOM     26  O   UNL     1      -5.927  -5.588  -9.691  1.00  0.00    -0.490 OA
ATOM     27  C   UNL     1      -4.538  -5.888  -9.602  1.00  0.00     0.279 C 
ENDBRANCH   9  26
BRANCH  10  28
ATOM     28  O   UNL     1      -7.413  -7.466  -8.545  1.00  0.00    -0.490 OA
ATOM     29  C   UNL     1      -8.308  -8.159  -9.409  1.00  0.00     0.278 C 
ENDBRANCH  10  28
TORSDOF 7
ENDMDL
MODEL 3
REMARK VINA RESULT:    -3.642     15.808     18.694
REMARK INTER + INTRA:          -5.890
REMARK INTER:                  -5.333
REMARK INTRA:                  -0.557
REMARK UNBOUND:                -0.758
REMARK SMILES COc1ccc(-c2cc(=O)c3c(OC)c(OC)c(OC)c(OC)c3o2)cc1OC
REMARK SMILES IDX 7 1 8 2 9 3 10 4 11 5 24 6 25 7 21 8 18 9 15 10 12 11 6 12
REMARK SMILES IDX 3 13 27 14 4 15 26 16 5 17 2 18 1 19 28 20 29 21 22 22 23 23
REMARK SMILES IDX 13 24 14 25 19 26 20 27 16 28 17 29
REMARK H PARENT
REMARK Flexibility Score: inf
ROOT
ATOM      1  C   UNL     1      -6.123   2.772   9.329  1.00  0.00     0.138 A 
ATOM      2  C   UNL     1      -7.332   3.276   9.819  1.00  0.00     0.100 A 
ATOM      3  C   UNL     1      -7.618   4.630   9.666  1.00  0.00     0.197 A 
ATOM      4  O   UNL     1      -8.726   5.062  10.083  1.00  0.00    -0.289 OA
ATOM      5  C   UNL     1      -6.681   5.479   9.035  1.00  0.00     0.115 A 
ATOM      6  C   UNL     1      -5.480   4.897   8.557  1.00  0.00     0.188 A 
ATOM      7  O   UNL     1      -5.264   3.595   8.735  1.00  0.00    -0.452 OA
ATOM      8  C   UNL     1      -4.520   5.692   7.883  1.00  0.00     0.209 A 
ATOM      9  C   UNL     1      -4.794   7.064   7.656  1.00  0.00     0.211 A 
ATOM     10  C   UNL     1      -5.988   7.635   8.117  1.00  0.00     0.208 A 
ATOM     11  C   UNL     1      -6.903   6.863   8.864  1.00  0.00     0.179 A 
ENDROOT
BRANCH   1  12
ATOM     12  C   UNL     1      -5.773   1.337   9.460  1.00  0.00     0.021 A 
ATOM     13  C   UNL     1      -5.057  -1.384   9.697  1.00  0.00     0.160 A 
ATOM     14  C   UNL     1      -6.296  -1.033   9.141  1.00  0.00     0.161 A 
ATOM     15  C   UNL     1      -4.177  -0.372  10.122  1.00  0.00     0.051 A 
ATOM     16  C   UNL     1      -6.649   0.326   9.023  1.00  0.00     0.062 A 
ATOM     17  C   UNL     1      -4.532   0.972  10.001  1.00  0.00     0.016 A 
BRANCH  13  18
ATOM     18  O   UNL     1      -4.734  -2.745   9.807  1.00  0.00    -0.493 OA
ATOM     19  C   UNL     1      -4.011  -3.484   8.828  1.00  0.00     0.278 C 
ENDBRANCH  13  18
BRANCH  14  20
ATOM     20  O   UNL     1      -7.147  -2.064   8.713  1.00  0.00    -0.493 OA
ATOM     21  C   UNL     1      -8.245  -2.570   9.466  1.00  0.00     0.278 C 
ENDBRANCH  14  20
ENDBRANCH   1  12
BRANCH   8  22
ATOM     22  O   UNL     1      -3.303   5.166   7.406  1.00  0.00    -0.490 OA
ATOM     23  C   UNL     1      -2.060   5.105   8.098  1.00  0.00     0.278 C 
ENDBRANCH   8  22
BRANCH  11  24
ATOM     24  O   UNL     1      -8.006   7.477   9.462  1.00  0.00    -0.492 OA
ATOM     25  C   UNL     1      -9.054   8.030   8.672  1.00  0.00     0.278 C 
ENDBRANCH  11  24
BRANCH   9  26
ATOM     26  O   UNL     1      -3.921   7.932   6.968  1.00  0.00    -0.490 OA
ATOM     27  C   UNL     1      -2.751   8.563   7.480  1.00  0.00     0.279 C 
ENDBRANCH   9  26
BRANCH  10  28
ATOM     28  O   UNL     1      -6.209   8.989   7.802  1.00  0.00    -0.490 OA
ATOM     29  C   UNL     1      -6.020  10.091   8.683  1.00  0.00     0.278 C 
ENDBRANCH  10  28
TORSDOF 7
ENDMDL
MODEL 4
REMARK VINA RESULT:    -3.635      2.102      8.148
REMARK INTER + INTRA:          -5.880
REMARK INTER:                  -5.492
REMARK INTRA:                  -0.388
REMARK UNBOUND:                -0.758
REMARK SMILES COc1ccc(-c2cc(=O)c3c(OC)c(OC)c(OC)c(OC)c3o2)cc1OC
REMARK SMILES IDX 7 1 8 2 9 3 10 4 11 5 24 6 25 7 21 8 18 9 15 10 12 11 6 12
REMARK SMILES IDX 3 13 27 14 4 15 26 16 5 17 2 18 1 19 28 20 29 21 22 22 23 23
REMARK SMILES IDX 13 24 14 25 19 26 20 27 16 28 17 29
REMARK H PARENT
REMARK Flexibility Score: inf
ROOT
ATOM      1  C   UNL     1      -7.002  -4.045  -8.570  1.00  0.00     0.138 A 
ATOM      2  C   UNL     1      -7.029  -3.048  -9.550  1.00  0.00     0.100 A 
ATOM      3  C   UNL     1      -7.566  -1.802  -9.239  1.00  0.00     0.197 A 
ATOM      4  O   UNL     1      -7.555  -0.904 -10.123  1.00  0.00    -0.289 OA
ATOM      5  C   UNL     1      -8.089  -1.565  -7.947  1.00  0.00     0.115 A 
ATOM      6  C   UNL     1      -8.020  -2.620  -7.003  1.00  0.00     0.188 A 
ATOM      7  O   UNL     1      -7.495  -3.790  -7.362  1.00  0.00    -0.452 OA
ATOM      8  C   UNL     1      -8.493  -2.427  -5.681  1.00  0.00     0.209 A 
ATOM      9  C   UNL     1      -8.997  -1.157  -5.304  1.00  0.00     0.211 A 
ATOM     10  C   UNL     1      -9.052  -0.111  -6.236  1.00  0.00     0.208 A 
ATOM     11  C   UNL     1      -8.661  -0.329  -7.574  1.00  0.00     0.179 A 
ENDROOT
BRANCH   1  12
ATOM     12  C   UNL     1      -6.434  -5.387  -8.847  1.00  0.00     0.021 A 
ATOM     13  C   UNL     1      -5.313  -7.919  -9.396  1.00  0.00     0.160 A 
ATOM     14  C   UNL     1      -6.700  -7.734  -9.494  1.00  0.00     0.161 A 
ATOM     15  C   UNL     1      -4.492  -6.836  -9.035  1.00  0.00     0.051 A 
ATOM     16  C   UNL     1      -7.256  -6.467  -9.220  1.00  0.00     0.062 A 
ATOM     17  C   UNL     1      -5.048  -5.584  -8.767  1.00  0.00     0.016 A 
BRANCH  13  18
ATOM     18  O   UNL     1      -4.788  -9.192  -9.670  1.00  0.00    -0.493 OA
ATOM     19  C   UNL     1      -4.106 -10.005  -8.720  1.00  0.00     0.278 C 
ENDBRANCH  13  18
BRANCH  14  20
ATOM     20  O   UNL     1      -7.492  -8.830  -9.870  1.00  0.00    -0.493 OA
ATOM     21  C   UNL     1      -8.717  -9.194  -9.242  1.00  0.00     0.278 C 
ENDBRANCH  14  20
ENDBRANCH   1  12
BRANCH   8  22
ATOM     22  O   UNL     1      -8.464  -3.449  -4.711  1.00  0.00    -0.490 OA
ATOM     23  C   UNL     1      -9.577  -4.037  -4.046  1.00  0.00     0.278 C 
ENDBRANCH   8  22
BRANCH  11  24
ATOM     24  O   UNL     1      -8.875   0.665  -8.532  1.00  0.00    -0.492 OA
ATOM     25  C   UNL     1     -10.125   0.777  -9.205  1.00  0.00     0.278 C 
ENDBRANCH  11  24
BRANCH   9  26
ATOM     26  O   UNL     1      -9.461  -0.853  -4.008  1.00  0.00    -0.490 OA
ATOM     27  C   UNL     1      -8.727  -0.252  -2.947  1.00  0.00     0.279 C 
ENDBRANCH   9  26
BRANCH  10  28
ATOM     28  O   UNL     1      -9.512   1.134  -5.768  1.00  0.00    -0.490 OA
ATOM     29  C   UNL     1      -8.693   2.216  -5.336  1.00  0.00     0.278 C 
ENDBRANCH  10  28
TORSDOF 7
ENDMDL
MODEL 5
REMARK VINA RESULT:    -3.255     17.332     19.072
REMARK INTER + INTRA:          -5.345
REMARK INTER:                  -5.225
REMARK INTRA:                  -0.120
REMARK UNBOUND:                -0.758
REMARK SMILES COc1ccc(-c2cc(=O)c3c(OC)c(OC)c(OC)c(OC)c3o2)cc1OC
REMARK SMILES IDX 7 1 8 2 9 3 10 4 11 5 24 6 25 7 21 8 18 9 15 10 12 11 6 12
REMARK SMILES IDX 3 13 27 14 4 15 26 16 5 17 2 18 1 19 28 20 29 21 22 22 23 23
REMARK SMILES IDX 13 24 14 25 19 26 20 27 16 28 17 29
REMARK H PARENT
REMARK Flexibility Score: inf
ROOT
ATOM      1  C   UNL     1      -3.961   5.105   8.774  1.00  0.00     0.138 A 
ATOM      2  C   UNL     1      -4.962   4.228   9.203  1.00  0.00     0.100 A 
ATOM      3  C   UNL     1      -6.293   4.627   9.137  1.00  0.00     0.197 A 
ATOM      4  O   UNL     1      -7.185   3.813   9.497  1.00  0.00    -0.289 OA
ATOM      5  C   UNL     1      -6.617   5.915   8.654  1.00  0.00     0.115 A 
ATOM      6  C   UNL     1      -5.551   6.748   8.228  1.00  0.00     0.188 A 
ATOM      7  O   UNL     1      -4.298   6.309   8.319  1.00  0.00    -0.452 OA
ATOM      8  C   UNL     1      -5.818   8.035   7.699  1.00  0.00     0.209 A 
ATOM      9  C   UNL     1      -7.163   8.462   7.561  1.00  0.00     0.211 A 
ATOM     10  C   UNL     1      -8.216   7.631   7.970  1.00  0.00     0.208 A 
ATOM     11  C   UNL     1      -7.946   6.387   8.576  1.00  0.00     0.179 A 
ENDROOT
BRANCH   1  12
ATOM     12  C   UNL     1      -2.528   4.726   8.817  1.00  0.00     0.021 A 
ATOM     13  C   UNL     1       0.201   4.015   8.950  1.00  0.00     0.160 A 
ATOM     14  C   UNL     1      -0.290   4.692   7.824  1.00  0.00     0.161 A 
ATOM     15  C   UNL     1      -0.672   3.706  10.009  1.00  0.00     0.051 A 
ATOM     16  C   UNL     1      -1.653   5.047   7.762  1.00  0.00     0.062 A 
ATOM     17  C   UNL     1      -2.020   4.061   9.942  1.00  0.00     0.016 A 
BRANCH  13  18
ATOM     18  O   UNL     1       1.561   3.670   8.981  1.00  0.00    -0.493 OA
ATOM     19  C   UNL     1       2.238   3.159  10.125  1.00  0.00     0.278 C 
ENDBRANCH  13  18
BRANCH  14  20
ATOM     20  O   UNL     1       0.607   4.998   6.789  1.00  0.00    -0.493 OA
ATOM     21  C   UNL     1       0.440   6.068   5.865  1.00  0.00     0.278 C 
ENDBRANCH  14  20
ENDBRANCH   1  12
BRANCH   8  22
ATOM     22  O   UNL     1      -4.794   8.908   7.281  1.00  0.00    -0.490 OA
ATOM     23  C   UNL     1      -3.769   9.481   8.085  1.00  0.00     0.278 C 
ENDBRANCH   8  22
BRANCH  11  24
ATOM     24  O   UNL     1      -8.989   5.642   9.131  1.00  0.00    -0.492 OA
ATOM     25  C   UNL     1      -9.842   6.201  10.124  1.00  0.00     0.278 C 
ENDBRANCH  11  24
BRANCH   9  26
ATOM     26  O   UNL     1      -7.536   9.709   7.018  1.00  0.00    -0.490 OA
ATOM     27  C   UNL     1      -7.546  10.083   5.644  1.00  0.00     0.279 C 
ENDBRANCH   9  26
BRANCH  10  28
ATOM     28  O   UNL     1      -9.523   8.105   7.747  1.00  0.00    -0.490 OA
ATOM     29  C   UNL     1     -10.122   9.226   8.388  1.00  0.00     0.278 C 
ENDBRANCH  10  28
TORSDOF 7
ENDMDL
MODEL 6
REMARK VINA RESULT:    -3.246      2.400      8.439
REMARK INTER + INTRA:          -5.332
REMARK INTER:                  -5.494
REMARK INTRA:                   0.162
REMARK UNBOUND:                -0.758
REMARK SMILES COc1ccc(-c2cc(=O)c3c(OC)c(OC)c(OC)c(OC)c3o2)cc1OC
REMARK SMILES IDX 7 1 8 2 9 3 10 4 11 5 24 6 25 7 21 8 18 9 15 10 12 11 6 12
REMARK SMILES IDX 3 13 27 14 4 15 26 16 5 17 2 18 1 19 28 20 29 21 22 22 23 23
REMARK SMILES IDX 13 24 14 25 19 26 20 27 16 28 17 29
REMARK H PARENT
REMARK Flexibility Score: inf
ROOT
ATOM      1  C   UNL     1      -9.265  -4.594  -6.048  1.00  0.00     0.138 A 
ATOM      2  C   UNL     1      -9.007  -4.395  -4.688  1.00  0.00     0.100 A 
ATOM      3  C   UNL     1      -8.995  -3.100  -4.179  1.00  0.00     0.197 A 
ATOM      4  O   UNL     1      -8.793  -2.940  -2.945  1.00  0.00    -0.289 OA
ATOM      5  C   UNL     1      -9.229  -2.004  -5.040  1.00  0.00     0.115 A 
ATOM      6  C   UNL     1      -9.492  -2.282  -6.405  1.00  0.00     0.188 A 
ATOM      7  O   UNL     1      -9.487  -3.543  -6.832  1.00  0.00    -0.452 OA
ATOM      8  C   UNL     1      -9.770  -1.226  -7.308  1.00  0.00     0.209 A 
ATOM      9  C   UNL     1      -9.824   0.105  -6.821  1.00  0.00     0.211 A 
ATOM     10  C   UNL     1      -9.577   0.376  -5.468  1.00  0.00     0.208 A 
ATOM     11  C   UNL     1      -9.215  -0.666  -4.590  1.00  0.00     0.179 A 
ENDROOT
BRANCH   1  12
ATOM     12  C   UNL     1      -9.295  -5.953  -6.640  1.00  0.00     0.021 A 
ATOM     13  C   UNL     1      -9.370  -8.520  -7.813  1.00  0.00     0.160 A 
ATOM     14  C   UNL     1      -9.731  -8.356  -6.467  1.00  0.00     0.161 A 
ATOM     15  C   UNL     1      -8.983  -7.399  -8.569  1.00  0.00     0.051 A 
ATOM     16  C   UNL     1      -9.694  -7.072  -5.886  1.00  0.00     0.062 A 
ATOM     17  C   UNL     1      -8.950  -6.131  -7.988  1.00  0.00     0.016 A 
BRANCH  13  18
ATOM     18  O   UNL     1      -9.412  -9.811  -8.363  1.00  0.00    -0.493 OA
ATOM     19  C   UNL     1      -9.507 -10.092  -9.755  1.00  0.00     0.278 C 
ENDBRANCH  13  18
BRANCH  14  20
ATOM     20  O   UNL     1     -10.125  -9.491  -5.742  1.00  0.00    -0.493 OA
ATOM     21  C   UNL     1      -9.427 -10.013  -4.616  1.00  0.00     0.278 C 
ENDBRANCH  14  20
ENDBRANCH   1  12
BRANCH   8  22
ATOM     22  O   UNL     1     -10.019  -1.447  -8.677  1.00  0.00    -0.490 OA
ATOM     23  C   UNL     1      -9.164  -2.092  -9.615  1.00  0.00     0.278 C 
ENDBRANCH   8  22
BRANCH  11  24
ATOM     24  O   UNL     1      -8.809  -0.367  -3.286  1.00  0.00    -0.492 OA
ATOM     25  C   UNL     1      -7.525   0.191  -3.029  1.00  0.00     0.278 C 
ENDBRANCH  11  24
BRANCH   9  26
ATOM     26  O   UNL     1     -10.125   1.221  -7.629  1.00  0.00    -0.490 OA
ATOM     27  C   UNL     1      -9.967   1.332  -9.040  1.00  0.00     0.279 C 
ENDBRANCH   9  26
BRANCH  10  28
ATOM     28  O   UNL     1      -9.706   1.715  -5.054  1.00  0.00    -0.490 OA
ATOM     29  C   UNL     1      -8.657   2.676  -5.006  1.00  0.00     0.278 C 
ENDBRANCH  10  28
TORSDOF 7
ENDMDL
MODEL 7
REMARK VINA RESULT:    -3.181     13.203     15.294
REMARK INTER + INTRA:          -5.240
REMARK INTER:                  -5.152
REMARK INTRA:                  -0.088
REMARK UNBOUND:                -0.758
REMARK SMILES COc1ccc(-c2cc(=O)c3c(OC)c(OC)c(OC)c(OC)c3o2)cc1OC
REMARK SMILES IDX 7 1 8 2 9 3 10 4 11 5 24 6 25 7 21 8 18 9 15 10 12 11 6 12
REMARK SMILES IDX 3 13 27 14 4 15 26 16 5 17 2 18 1 19 28 20 29 21 22 22 23 23
REMARK SMILES IDX 13 24 14 25 19 26 20 27 16 28 17 29
REMARK H PARENT
REMARK Flexibility Score: inf
ROOT
ATOM      1  C   UNL     1      -4.325  -4.975   8.639  1.00  0.00     0.138 A 
ATOM      2  C   UNL     1      -3.392  -5.507   9.535  1.00  0.00     0.100 A 
ATOM      3  C   UNL     1      -2.708  -6.671   9.195  1.00  0.00     0.197 A 
ATOM      4  O   UNL     1      -1.848  -7.120  10.000  1.00  0.00    -0.289 OA
ATOM      5  C   UNL     1      -2.973  -7.307   7.961  1.00  0.00     0.115 A 
ATOM      6  C   UNL     1      -3.925  -6.706   7.100  1.00  0.00     0.188 A 
ATOM      7  O   UNL     1      -4.548  -5.593   7.483  1.00  0.00    -0.452 OA
ATOM      8  C   UNL     1      -4.204  -7.278   5.833  1.00  0.00     0.209 A 
ATOM      9  C   UNL     1      -3.489  -8.432   5.423  1.00  0.00     0.211 A 
ATOM     10  C   UNL     1      -2.539  -9.016   6.271  1.00  0.00     0.208 A 
ATOM     11  C   UNL     1      -2.325  -8.497   7.565  1.00  0.00     0.179 A 
ENDROOT
BRANCH   1  12
ATOM     12  C   UNL     1      -5.075  -3.734   8.949  1.00  0.00     0.021 A 
ATOM     13  C   UNL     1      -6.461  -1.351   9.559  1.00  0.00     0.160 A 
ATOM     14  C   UNL     1      -7.109  -2.589   9.688  1.00  0.00     0.161 A 
ATOM     15  C   UNL     1      -5.120  -1.312   9.136  1.00  0.00     0.051 A 
ATOM     16  C   UNL     1      -6.413  -3.776   9.384  1.00  0.00     0.062 A 
ATOM     17  C   UNL     1      -4.436  -2.491   8.838  1.00  0.00     0.016 A 
BRANCH  13  18
ATOM     18  O   UNL     1      -7.180  -0.185   9.864  1.00  0.00    -0.493 OA
ATOM     19  C   UNL     1      -6.794   1.127   9.470  1.00  0.00     0.278 C 
ENDBRANCH  13  18
BRANCH  14  20
ATOM     20  O   UNL     1      -8.443  -2.597  10.125  1.00  0.00    -0.493 OA
ATOM     21  C   UNL     1      -9.529  -3.157   9.394  1.00  0.00     0.278 C 
ENDBRANCH  14  20
ENDBRANCH   1  12
BRANCH   8  22
ATOM     22  O   UNL     1      -5.154  -6.730   4.949  1.00  0.00    -0.490 OA
ATOM     23  C   UNL     1      -6.349  -7.345   4.481  1.00  0.00     0.278 C 
ENDBRANCH   8  22
BRANCH  11  24
ATOM     24  O   UNL     1      -1.502  -9.182   8.462  1.00  0.00    -0.492 OA
ATOM     25  C   UNL     1      -2.056 -10.005   9.483  1.00  0.00     0.278 C 
ENDBRANCH  11  24
BRANCH   9  26
ATOM     26  O   UNL     1      -3.669  -9.057   4.172  1.00  0.00    -0.490 OA
ATOM     27  C   UNL     1      -2.991  -8.763   2.955  1.00  0.00     0.279 C 
ENDBRANCH   9  26
BRANCH  10  28
ATOM     28  O   UNL     1      -1.833 -10.125   5.766  1.00  0.00    -0.490 OA
ATOM     29  C   UNL     1      -0.587 -10.076   5.079  1.00  0.00     0.278 C 
ENDBRANCH  10  28
TORSDOF 7
ENDMDL
MODEL 8
REMARK VINA RESULT:    -2.824      2.455      8.474
REMARK INTER + INTRA:          -4.737
REMARK INTER:                  -5.499
REMARK INTRA:                   0.762
REMARK UNBOUND:                -0.758
REMARK SMILES COc1ccc(-c2cc(=O)c3c(OC)c(OC)c(OC)c(OC)c3o2)cc1OC
REMARK SMILES IDX 7 1 8 2 9 3 10 4 11 5 24 6 25 7 21 8 18 9 15 10 12 11 6 12
REMARK SMILES IDX 3 13 27 14 4 15 26 16 5 17 2 18 1 19 28 20 29 21 22 22 23 23
REMARK SMILES IDX 13 24 14 25 19 26 20 27 16 28 17 29
REMARK H PARENT
REMARK Flexibility Score: inf
ROOT
ATOM      1  C   UNL     1      -9.324  -4.021  -5.934  1.00  0.00     0.138 A 
ATOM      2  C   UNL     1      -9.021  -4.060  -4.569  1.00  0.00     0.100 A 
ATOM      3  C   UNL     1      -8.884  -2.867  -3.867  1.00  0.00     0.197 A 
ATOM      4  O   UNL     1      -8.643  -2.919  -2.631  1.00  0.00    -0.289 OA
ATOM      5  C   UNL     1      -9.035  -1.634  -4.541  1.00  0.00     0.115 A 
ATOM      6  C   UNL     1      -9.349  -1.671  -5.923  1.00  0.00     0.188 A 
ATOM      7  O   UNL     1      -9.466  -2.846  -6.539  1.00  0.00    -0.452 OA
ATOM      8  C   UNL     1      -9.550  -0.467  -6.643  1.00  0.00     0.209 A 
ATOM      9  C   UNL     1      -9.475   0.771  -5.956  1.00  0.00     0.211 A 
ATOM     10  C   UNL     1      -9.177   0.805  -4.586  1.00  0.00     0.208 A 
ATOM     11  C   UNL     1      -8.892  -0.388  -3.891  1.00  0.00     0.179 A 
ENDROOT
BRANCH   1  12
ATOM     12  C   UNL     1      -9.488  -5.264  -6.727  1.00  0.00     0.021 A 
ATOM     13  C   UNL     1      -9.829  -7.602  -8.271  1.00  0.00     0.160 A 
ATOM     14  C   UNL     1      -9.834  -7.683  -6.870  1.00  0.00     0.161 A 
ATOM     15  C   UNL     1      -9.664  -6.351  -8.893  1.00  0.00     0.051 A 
ATOM     16  C   UNL     1      -9.665  -6.513  -6.103  1.00  0.00     0.062 A 
ATOM     17  C   UNL     1      -9.499  -5.196  -8.127  1.00  0.00     0.016 A 
BRANCH  13  18
ATOM     18  O   UNL     1      -9.995  -8.785  -9.009  1.00  0.00    -0.493 OA
ATOM     19  C   UNL     1      -8.926  -9.605  -9.469  1.00  0.00     0.278 C 
ENDBRANCH  13  18
BRANCH  14  20
ATOM     20  O   UNL     1     -10.014  -8.943  -6.279  1.00  0.00    -0.493 OA
ATOM     21  C   UNL     1      -9.787  -9.229  -4.903  1.00  0.00     0.278 C 
ENDBRANCH  14  20
ENDBRANCH   1  12
BRANCH   8  22
ATOM     22  O   UNL     1      -9.845  -0.449  -8.020  1.00  0.00    -0.490 OA
ATOM     23  C   UNL     1      -8.953  -0.151  -9.089  1.00  0.00     0.278 C 
ENDBRANCH   8  22
BRANCH  11  24
ATOM     24  O   UNL     1      -8.434  -0.333  -2.572  1.00  0.00    -0.492 OA
ATOM     25  C   UNL     1      -7.109   0.094  -2.273  1.00  0.00     0.278 C 
ENDBRANCH  11  24
BRANCH   9  26
ATOM     26  O   UNL     1      -9.690   2.021  -6.572  1.00  0.00    -0.490 OA
ATOM     27  C   UNL     1     -10.125   3.226  -5.951  1.00  0.00     0.279 C 
ENDBRANCH   9  26
BRANCH  10  28
ATOM     28  O   UNL     1      -9.177   2.069  -3.967  1.00  0.00    -0.490 OA
ATOM     29  C   UNL     1      -9.977   2.451  -2.853  1.00  0.00     0.278 C 
ENDBRANCH  10  28
TORSDOF 7
ENDMDL
