MODEL 1
REMARK VINA RESULT:    -4.012      0.000      0.000
REMARK INTER + INTRA:          -9.056
REMARK INTER:                  -7.295
REMARK INTRA:                  -1.762
REMARK UNBOUND:                -1.762
REMARK SMILES CCCCCCCCCCCCCC[C@H](C)C(=O)[O-]
REMARK SMILES IDX 9 1 10 2 11 3 12 4 13 5 14 6 15 7 16 8 17 9 18 10 19 11 8 12
REMARK SMILES IDX 7 13 6 14 5 15 4 16 3 17 2 18 1 19
REMARK H PARENT
REMARK Flexibility Score: inf
ROOT
ATOM      1  C   UNL     1      17.348  14.431  31.572  1.00  0.00     0.000 C 
ENDROOT
BRANCH   1   2
ATOM      2  C   UNL     1      17.052  12.958  31.243  1.00  0.00     0.000 C 
BRANCH   2   3
ATOM      3  C   UNL     1      15.630  12.538  31.654  1.00  0.00     0.000 C 
BRANCH   3   4
ATOM      4  C   UNL     1      14.612  12.697  30.511  1.00  0.00     0.000 C 
BRANCH   4   5
ATOM      5  C   UNL     1      13.264  13.259  30.994  1.00  0.00     0.001 C 
BRANCH   5   6
ATOM      6  C   UNL     1      12.840  14.522  30.221  1.00  0.00     0.009 C 
BRANCH   6   7
ATOM      7  C   UNL     1      11.413  14.977  30.592  1.00  0.00     0.032 C 
ATOM      8  C   UNL     1      11.020  14.447  31.974  1.00  0.00     0.014 C 
BRANCH   7   9
ATOM      9  C   UNL     1      10.408  14.516  29.569  1.00  0.00     0.044 C 
ATOM     10  O   UNL     1       9.779  13.438  29.744  1.00  0.00    -0.550 OA
ATOM     11  O   UNL     1      10.172  15.270  28.426  1.00  0.00    -0.550 OA
ENDBRANCH   7   9
ENDBRANCH   6   7
ENDBRANCH   5   6
ENDBRANCH   4   5
ENDBRANCH   3   4
ENDBRANCH   2   3
ENDBRANCH   1   2
BRANCH   1  12
ATOM     12  C   UNL     1      17.536  15.290  30.310  1.00  0.00     0.000 C 
BRANCH  12  13
ATOM     13  C   UNL     1      16.237  15.973  29.856  1.00  0.00    -0.000 C 
BRANCH  13  14
ATOM     14  C   UNL     1      15.936  15.659  28.387  1.00  0.00    -0.000 C 
BRANCH  14  15
ATOM     15  C   UNL     1      16.952  14.655  27.819  1.00  0.00    -0.000 C 
BRANCH  15  16
ATOM     16  C   UNL     1      16.829  14.483  26.297  1.00  0.00    -0.000 C 
BRANCH  16  17
ATOM     17  C   UNL     1      17.130  15.778  25.529  1.00  0.00    -0.000 C 
BRANCH  17  18
ATOM     18  C   UNL     1      15.935  16.191  24.661  1.00  0.00    -0.003 C 
ATOM     19  C   UNL     1      15.326  14.985  23.951  1.00  0.00     0.004 C 
ENDBRANCH  17  18
ENDBRANCH  16  17
ENDBRANCH  15  16
ENDBRANCH  14  15
ENDBRANCH  13  14
ENDBRANCH  12  13
ENDBRANCH   1  12
TORSDOF 14
ENDMDL
MODEL 2
REMARK VINA RESULT:    -3.990      3.882      6.068
REMARK INTER + INTRA:          -9.017
REMARK INTER:                  -6.605
REMARK INTRA:                  -2.411
REMARK UNBOUND:                -1.762
REMARK SMILES CCCCCCCCCCCCCC[C@H](C)C(=O)[O-]
REMARK SMILES IDX 9 1 10 2 11 3 12 4 13 5 14 6 15 7 16 8 17 9 18 10 19 11 8 12
REMARK SMILES IDX 7 13 6 14 5 15 4 16 3 17 2 18 1 19
REMARK H PARENT
REMARK Flexibility Score: inf
ROOT
ATOM      1  C   UNL     1      16.570  13.906  30.929  1.00  0.00     0.000 C 
ENDROOT
BRANCH   1   2
ATOM      2  C   UNL     1      16.954  15.380  30.717  1.00  0.00     0.000 C 
BRANCH   2   3
ATOM      3  C   UNL     1      16.182  16.029  29.556  1.00  0.00     0.000 C 
BRANCH   3   4
ATOM      4  C   UNL     1      15.340  15.013  28.763  1.00  0.00     0.000 C 
BRANCH   4   5
ATOM      5  C   UNL     1      15.662  15.023  27.259  1.00  0.00     0.001 C 
BRANCH   5   6
ATOM      6  C   UNL     1      17.138  15.354  26.973  1.00  0.00     0.009 C 
BRANCH   6   7
ATOM      7  C   UNL     1      17.352  15.847  25.527  1.00  0.00     0.032 C 
ATOM      8  C   UNL     1      16.018  16.248  24.891  1.00  0.00     0.014 C 
BRANCH   7   9
ATOM      9  C   UNL     1      18.019  14.795  24.682  1.00  0.00     0.044 C 
ATOM     10  O   UNL     1      17.477  14.408  23.612  1.00  0.00    -0.550 OA
ATOM     11  O   UNL     1      19.230  14.238  25.077  1.00  0.00    -0.550 OA
ENDBRANCH   7   9
ENDBRANCH   6   7
ENDBRANCH   5   6
ENDBRANCH   4   5
ENDBRANCH   3   4
ENDBRANCH   2   3
ENDBRANCH   1   2
BRANCH   1  12
ATOM     12  C   UNL     1      17.378  13.243  32.058  1.00  0.00     0.000 C 
BRANCH  12  13
ATOM     13  C   UNL     1      18.600  14.072  32.480  1.00  0.00    -0.000 C 
BRANCH  13  14
ATOM     14  C   UNL     1      19.896  13.444  31.957  1.00  0.00    -0.000 C 
BRANCH  14  15
ATOM     15  C   UNL     1      20.384  14.161  30.689  1.00  0.00    -0.000 C 
BRANCH  15  16
ATOM     16  C   UNL     1      20.598  13.200  29.509  1.00  0.00    -0.000 C 
BRANCH  16  17
ATOM     17  C   UNL     1      19.371  13.106  28.591  1.00  0.00    -0.000 C 
BRANCH  17  18
ATOM     18  C   UNL     1      18.673  11.749  28.745  1.00  0.00    -0.003 C 
ATOM     19  C   UNL     1      17.325  11.737  28.031  1.00  0.00     0.004 C 
ENDBRANCH  17  18
ENDBRANCH  16  17
ENDBRANCH  15  16
ENDBRANCH  14  15
ENDBRANCH  13  14
ENDBRANCH  12  13
ENDBRANCH   1  12
TORSDOF 14
ENDMDL
MODEL 3
REMARK VINA RESULT:    -3.951      3.070      5.212
REMARK INTER + INTRA:          -8.947
REMARK INTER:                  -6.044
REMARK INTRA:                  -2.903
REMARK UNBOUND:                -1.762
REMARK SMILES CCCCCCCCCCCCCC[C@H](C)C(=O)[O-]
REMARK SMILES IDX 9 1 10 2 11 3 12 4 13 5 14 6 15 7 16 8 17 9 18 10 19 11 8 12
REMARK SMILES IDX 7 13 6 14 5 15 4 16 3 17 2 18 1 19
REMARK H PARENT
REMARK Flexibility Score: inf
ROOT
ATOM      1  C   UNL     1      17.738  14.455  31.669  1.00  0.00     0.000 C 
ENDROOT
BRANCH   1   2
ATOM      2  C   UNL     1      16.662  13.367  31.508  1.00  0.00     0.000 C 
BRANCH   2   3
ATOM      3  C   UNL     1      15.403  13.886  30.793  1.00  0.00     0.000 C 
BRANCH   3   4
ATOM      4  C   UNL     1      15.711  15.018  29.797  1.00  0.00     0.000 C 
BRANCH   4   5
ATOM      5  C   UNL     1      15.598  14.565  28.331  1.00  0.00     0.001 C 
BRANCH   5   6
ATOM      6  C   UNL     1      15.985  15.675  27.337  1.00  0.00     0.009 C 
BRANCH   6   7
ATOM      7  C   UNL     1      16.607  15.106  26.046  1.00  0.00     0.032 C 
ATOM      8  C   UNL     1      17.817  15.942  25.616  1.00  0.00     0.014 C 
BRANCH   7   9
ATOM      9  C   UNL     1      15.600  15.062  24.927  1.00  0.00     0.044 C 
ATOM     10  O   UNL     1      14.842  14.064  24.799  1.00  0.00    -0.550 OA
ATOM     11  O   UNL     1      15.505  16.115  24.025  1.00  0.00    -0.550 OA
ENDBRANCH   7   9
ENDBRANCH   6   7
ENDBRANCH   5   6
ENDBRANCH   4   5
ENDBRANCH   3   4
ENDBRANCH   2   3
ENDBRANCH   1   2
BRANCH   1  12
ATOM     12  C   UNL     1      19.137  13.868  31.921  1.00  0.00     0.000 C 
BRANCH  12  13
ATOM     13  C   UNL     1      20.064  13.994  30.703  1.00  0.00    -0.000 C 
BRANCH  13  14
ATOM     14  C   UNL     1      19.490  14.979  29.677  1.00  0.00    -0.000 C 
BRANCH  14  15
ATOM     15  C   UNL     1      19.428  14.344  28.279  1.00  0.00    -0.000 C 
BRANCH  15  16
ATOM     16  C   UNL     1      19.536  12.812  28.318  1.00  0.00    -0.000 C 
BRANCH  16  17
ATOM     17  C   UNL     1      18.301  12.116  27.729  1.00  0.00    -0.000 C 
BRANCH  17  18
ATOM     18  C   UNL     1      17.550  11.326  28.807  1.00  0.00    -0.003 C 
ATOM     19  C   UNL     1      18.519  10.668  29.786  1.00  0.00     0.004 C 
ENDBRANCH  17  18
ENDBRANCH  16  17
ENDBRANCH  15  16
ENDBRANCH  14  15
ENDBRANCH  13  14
ENDBRANCH  12  13
ENDBRANCH   1  12
TORSDOF 14
ENDMDL
MODEL 4
REMARK VINA RESULT:    -3.929      3.013      6.195
REMARK INTER + INTRA:          -8.907
REMARK INTER:                  -6.055
REMARK INTRA:                  -2.852
REMARK UNBOUND:                -1.762
REMARK SMILES CCCCCCCCCCCCCC[C@H](C)C(=O)[O-]
REMARK SMILES IDX 9 1 10 2 11 3 12 4 13 5 14 6 15 7 16 8 17 9 18 10 19 11 8 12
REMARK SMILES IDX 7 13 6 14 5 15 4 16 3 17 2 18 1 19
REMARK H PARENT
REMARK Flexibility Score: inf
ROOT
ATOM      1  C   UNL     1      15.744  12.130  28.552  1.00  0.00     0.000 C 
ENDROOT
BRANCH   1   2
ATOM      2  C   UNL     1      17.269  12.028  28.376  1.00  0.00     0.000 C 
BRANCH   2   3
ATOM      3  C   UNL     1      17.768  12.764  27.122  1.00  0.00     0.000 C 
BRANCH   3   4
ATOM      4  C   UNL     1      18.772  13.884  27.451  1.00  0.00     0.000 C 
BRANCH   4   5
ATOM      5  C   UNL     1      18.347  15.247  26.880  1.00  0.00     0.001 C 
BRANCH   5   6
ATOM      6  C   UNL     1      18.217  15.230  25.345  1.00  0.00     0.009 C 
BRANCH   6   7
ATOM      7  C   UNL     1      16.900  15.874  24.868  1.00  0.00     0.032 C 
ATOM      8  C   UNL     1      16.065  16.345  26.063  1.00  0.00     0.014 C 
BRANCH   7   9
ATOM      9  C   UNL     1      16.092  14.915  24.034  1.00  0.00     0.044 C 
ATOM     10  O   UNL     1      16.601  14.386  23.010  1.00  0.00    -0.550 OA
ATOM     11  O   UNL     1      14.781  14.613  24.382  1.00  0.00    -0.550 OA
ENDBRANCH   7   9
ENDBRANCH   6   7
ENDBRANCH   5   6
ENDBRANCH   4   5
ENDBRANCH   3   4
ENDBRANCH   2   3
ENDBRANCH   1   2
BRANCH   1  12
ATOM     12  C   UNL     1      15.119  13.212  27.655  1.00  0.00     0.000 C 
BRANCH  12  13
ATOM     13  C   UNL     1      14.221  14.184  28.436  1.00  0.00    -0.000 C 
BRANCH  13  14
ATOM     14  C   UNL     1      14.857  14.559  29.779  1.00  0.00    -0.000 C 
BRANCH  14  15
ATOM     15  C   UNL     1      15.915  15.659  29.600  1.00  0.00    -0.000 C 
BRANCH  15  16
ATOM     16  C   UNL     1      17.188  15.397  30.419  1.00  0.00    -0.000 C 
BRANCH  16  17
ATOM     17  C   UNL     1      17.028  14.230  31.404  1.00  0.00    -0.000 C 
BRANCH  17  18
ATOM     18  C   UNL     1      18.346  13.945  32.135  1.00  0.00    -0.003 C 
ATOM     19  C   UNL     1      19.529  13.976  31.171  1.00  0.00     0.004 C 
ENDBRANCH  17  18
ENDBRANCH  16  17
ENDBRANCH  15  16
ENDBRANCH  14  15
ENDBRANCH  13  14
ENDBRANCH  12  13
ENDBRANCH   1  12
TORSDOF 14
ENDMDL
MODEL 5
REMARK VINA RESULT:    -3.887      1.575      3.852
REMARK INTER + INTRA:          -8.830
REMARK INTER:                  -6.415
REMARK INTRA:                  -2.415
REMARK UNBOUND:                -1.762
REMARK SMILES CCCCCCCCCCCCCC[C@H](C)C(=O)[O-]
REMARK SMILES IDX 9 1 10 2 11 3 12 4 13 5 14 6 15 7 16 8 17 9 18 10 19 11 8 12
REMARK SMILES IDX 7 13 6 14 5 15 4 16 3 17 2 18 1 19
REMARK H PARENT
REMARK Flexibility Score: inf
ROOT
ATOM      1  C   UNL     1      16.446  13.004  27.825  1.00  0.00     0.000 C 
ENDROOT
BRANCH   1   2
ATOM      2  C   UNL     1      15.972  12.115  28.987  1.00  0.00     0.000 C 
BRANCH   2   3
ATOM      3  C   UNL     1      14.504  12.371  29.365  1.00  0.00     0.000 C 
BRANCH   3   4
ATOM      4  C   UNL     1      14.316  12.636  30.869  1.00  0.00     0.000 C 
BRANCH   4   5
ATOM      5  C   UNL     1      13.067  13.481  31.170  1.00  0.00     0.001 C 
BRANCH   5   6
ATOM      6  C   UNL     1      12.567  14.257  29.938  1.00  0.00     0.009 C 
BRANCH   6   7
ATOM      7  C   UNL     1      11.283  15.058  30.237  1.00  0.00     0.032 C 
ATOM      8  C   UNL     1      10.807  14.797  31.670  1.00  0.00     0.014 C 
BRANCH   7   9
ATOM      9  C   UNL     1      10.183  14.712  29.269  1.00  0.00     0.044 C 
ATOM     10  O   UNL     1       9.001  14.569  29.681  1.00  0.00    -0.550 OA
ATOM     11  O   UNL     1      10.464  14.543  27.918  1.00  0.00    -0.550 OA
ENDBRANCH   7   9
ENDBRANCH   6   7
ENDBRANCH   5   6
ENDBRANCH   4   5
ENDBRANCH   3   4
ENDBRANCH   2   3
ENDBRANCH   1   2
BRANCH   1  12
ATOM     12  C   UNL     1      15.498  14.186  27.563  1.00  0.00     0.000 C 
BRANCH  12  13
ATOM     13  C   UNL     1      16.106  15.537  27.971  1.00  0.00    -0.000 C 
BRANCH  13  14
ATOM     14  C   UNL     1      15.867  15.819  29.458  1.00  0.00    -0.000 C 
BRANCH  14  15
ATOM     15  C   UNL     1      17.191  15.824  30.237  1.00  0.00    -0.000 C 
BRANCH  15  16
ATOM     16  C   UNL     1      17.271  14.698  31.279  1.00  0.00    -0.000 C 
BRANCH  16  17
ATOM     17  C   UNL     1      18.636  13.995  31.289  1.00  0.00    -0.000 C 
BRANCH  17  18
ATOM     18  C   UNL     1      18.507  12.553  31.793  1.00  0.00    -0.003 C 
ATOM     19  C   UNL     1      17.325  12.406  32.748  1.00  0.00     0.004 C 
ENDBRANCH  17  18
ENDBRANCH  16  17
ENDBRANCH  15  16
ENDBRANCH  14  15
ENDBRANCH  13  14
ENDBRANCH  12  13
ENDBRANCH   1  12
TORSDOF 14
ENDMDL
MODEL 6
REMARK VINA RESULT:    -3.885      3.210      6.050
REMARK INTER + INTRA:          -8.826
REMARK INTER:                  -6.459
REMARK INTRA:                  -2.366
REMARK UNBOUND:                -1.762
REMARK SMILES CCCCCCCCCCCCCC[C@H](C)C(=O)[O-]
REMARK SMILES IDX 9 1 10 2 11 3 12 4 13 5 14 6 15 7 16 8 17 9 18 10 19 11 8 12
REMARK SMILES IDX 7 13 6 14 5 15 4 16 3 17 2 18 1 19
REMARK H PARENT
REMARK Flexibility Score: inf
ROOT
ATOM      1  C   UNL     1      18.646  13.220  28.566  1.00  0.00     0.000 C 
ENDROOT
BRANCH   1   2
ATOM      2  C   UNL     1      18.259  13.766  27.180  1.00  0.00     0.000 C 
BRANCH   2   3
ATOM      3  C   UNL     1      18.881  15.143  26.896  1.00  0.00     0.000 C 
BRANCH   3   4
ATOM      4  C   UNL     1      18.173  15.889  25.751  1.00  0.00     0.000 C 
BRANCH   4   5
ATOM      5  C   UNL     1      16.650  15.975  25.953  1.00  0.00     0.001 C 
BRANCH   5   6
ATOM      6  C   UNL     1      15.880  16.027  24.621  1.00  0.00     0.009 C 
BRANCH   6   7
ATOM      7  C   UNL     1      15.188  14.687  24.298  1.00  0.00     0.032 C 
ATOM      8  C   UNL     1      14.888  13.912  25.585  1.00  0.00     0.014 C 
BRANCH   7   9
ATOM      9  C   UNL     1      16.033  13.840  23.383  1.00  0.00     0.044 C 
ATOM     10  O   UNL     1      16.644  12.836  23.838  1.00  0.00    -0.550 OA
ATOM     11  O   UNL     1      16.152  14.163  22.037  1.00  0.00    -0.550 OA
ENDBRANCH   7   9
ENDBRANCH   6   7
ENDBRANCH   5   6
ENDBRANCH   4   5
ENDBRANCH   3   4
ENDBRANCH   2   3
ENDBRANCH   1   2
BRANCH   1  12
ATOM     12  C   UNL     1      19.209  14.309  29.493  1.00  0.00     0.000 C 
BRANCH  12  13
ATOM     13  C   UNL     1      18.726  14.163  30.944  1.00  0.00    -0.000 C 
BRANCH  13  14
ATOM     14  C   UNL     1      17.236  14.502  31.063  1.00  0.00    -0.000 C 
BRANCH  14  15
ATOM     15  C   UNL     1      16.912  15.820  30.342  1.00  0.00    -0.000 C 
BRANCH  15  16
ATOM     16  C   UNL     1      15.758  15.680  29.339  1.00  0.00    -0.000 C 
BRANCH  16  17
ATOM     17  C   UNL     1      15.167  14.263  29.311  1.00  0.00    -0.000 C 
BRANCH  17  18
ATOM     18  C   UNL     1      13.649  14.297  29.527  1.00  0.00    -0.003 C 
ATOM     19  C   UNL     1      13.267  13.667  30.863  1.00  0.00     0.004 C 
ENDBRANCH  17  18
ENDBRANCH  16  17
ENDBRANCH  15  16
ENDBRANCH  14  15
ENDBRANCH  13  14
ENDBRANCH  12  13
ENDBRANCH   1  12
TORSDOF 14
ENDMDL
MODEL 7
REMARK VINA RESULT:    -3.861      3.469      6.286
REMARK INTER + INTRA:          -8.782
REMARK INTER:                  -6.390
REMARK INTRA:                  -2.392
REMARK UNBOUND:                -1.762
REMARK SMILES CCCCCCCCCCCCCC[C@H](C)C(=O)[O-]
REMARK SMILES IDX 9 1 10 2 11 3 12 4 13 5 14 6 15 7 16 8 17 9 18 10 19 11 8 12
REMARK SMILES IDX 7 13 6 14 5 15 4 16 3 17 2 18 1 19
REMARK H PARENT
REMARK Flexibility Score: inf
ROOT
ATOM      1  C   UNL     1      14.950  12.058  28.337  1.00  0.00     0.000 C 
ENDROOT
BRANCH   1   2
ATOM      2  C   UNL     1      15.841  13.092  27.627  1.00  0.00     0.000 C 
BRANCH   2   3
ATOM      3  C   UNL     1      15.142  14.450  27.451  1.00  0.00     0.000 C 
BRANCH   3   4
ATOM      4  C   UNL     1      15.931  15.610  28.085  1.00  0.00     0.000 C 
BRANCH   4   5
ATOM      5  C   UNL     1      15.748  15.687  29.610  1.00  0.00     0.001 C 
BRANCH   5   6
ATOM      6  C   UNL     1      17.086  15.818  30.360  1.00  0.00     0.009 C 
BRANCH   6   7
ATOM      7  C   UNL     1      17.816  14.465  30.485  1.00  0.00     0.032 C 
ATOM      8  C   UNL     1      17.907  14.035  31.952  1.00  0.00     0.014 C 
BRANCH   7   9
ATOM      9  C   UNL     1      19.198  14.531  29.891  1.00  0.00     0.044 C 
ATOM     10  O   UNL     1      19.364  14.987  28.728  1.00  0.00    -0.550 OA
ATOM     11  O   UNL     1      20.297  14.085  30.615  1.00  0.00    -0.550 OA
ENDBRANCH   7   9
ENDBRANCH   6   7
ENDBRANCH   5   6
ENDBRANCH   4   5
ENDBRANCH   3   4
ENDBRANCH   2   3
ENDBRANCH   1   2
BRANCH   1  12
ATOM     12  C   UNL     1      15.546  11.584  29.673  1.00  0.00     0.000 C 
BRANCH  12  13
ATOM     13  C   UNL     1      14.482  11.399  30.766  1.00  0.00    -0.000 C 
BRANCH  13  14
ATOM     14  C   UNL     1      14.342  12.668  31.616  1.00  0.00    -0.000 C 
BRANCH  14  15
ATOM     15  C   UNL     1      12.913  13.228  31.538  1.00  0.00    -0.000 C 
BRANCH  15  16
ATOM     16  C   UNL     1      12.744  14.267  30.419  1.00  0.00    -0.000 C 
BRANCH  16  17
ATOM     17  C   UNL     1      11.385  14.979  30.472  1.00  0.00    -0.000 C 
BRANCH  17  18
ATOM     18  C   UNL     1      10.646  14.851  29.135  1.00  0.00    -0.003 C 
ATOM     19  C   UNL     1      11.417  13.965  28.160  1.00  0.00     0.004 C 
ENDBRANCH  17  18
ENDBRANCH  16  17
ENDBRANCH  15  16
ENDBRANCH  14  15
ENDBRANCH  13  14
ENDBRANCH  12  13
ENDBRANCH   1  12
TORSDOF 14
ENDMDL
MODEL 8
REMARK VINA RESULT:    -3.811      2.668      6.300
REMARK INTER + INTRA:          -8.692
REMARK INTER:                  -6.705
REMARK INTRA:                  -1.988
REMARK UNBOUND:                -1.762
REMARK SMILES CCCCCCCCCCCCCC[C@H](C)C(=O)[O-]
REMARK SMILES IDX 9 1 10 2 11 3 12 4 13 5 14 6 15 7 16 8 17 9 18 10 19 11 8 12
REMARK SMILES IDX 7 13 6 14 5 15 4 16 3 17 2 18 1 19
REMARK H PARENT
REMARK Flexibility Score: inf
ROOT
ATOM      1  C   UNL     1      16.165  12.479  30.508  1.00  0.00     0.000 C 
ENDROOT
BRANCH   1   2
ATOM      2  C   UNL     1      16.597  13.381  31.678  1.00  0.00     0.000 C 
BRANCH   2   3
ATOM      3  C   UNL     1      17.663  14.409  31.265  1.00  0.00     0.000 C 
BRANCH   3   4
ATOM      4  C   UNL     1      17.073  15.588  30.469  1.00  0.00     0.000 C 
BRANCH   4   5
ATOM      5  C   UNL     1      17.256  15.428  28.951  1.00  0.00     0.001 C 
BRANCH   5   6
ATOM      6  C   UNL     1      15.980  15.774  28.162  1.00  0.00     0.009 C 
BRANCH   6   7
ATOM      7  C   UNL     1      15.912  15.029  26.813  1.00  0.00     0.032 C 
ATOM      8  C   UNL     1      16.589  13.659  26.919  1.00  0.00     0.014 C 
BRANCH   7   9
ATOM      9  C   UNL     1      16.558  15.828  25.712  1.00  0.00     0.044 C 
ATOM     10  O   UNL     1      15.844  16.415  24.856  1.00  0.00    -0.550 OA
ATOM     11  O   UNL     1      17.942  15.919  25.629  1.00  0.00    -0.550 OA
ENDBRANCH   7   9
ENDBRANCH   6   7
ENDBRANCH   5   6
ENDBRANCH   4   5
ENDBRANCH   3   4
ENDBRANCH   2   3
ENDBRANCH   1   2
BRANCH   1  12
ATOM     12  C   UNL     1      14.636  12.363  30.388  1.00  0.00     0.000 C 
BRANCH  12  13
ATOM     13  C   UNL     1      13.934  13.730  30.405  1.00  0.00    -0.000 C 
BRANCH  13  14
ATOM     14  C   UNL     1      13.094  13.931  29.138  1.00  0.00    -0.000 C 
BRANCH  14  15
ATOM     15  C   UNL     1      11.598  14.021  29.477  1.00  0.00    -0.000 C 
BRANCH  15  16
ATOM     16  C   UNL     1      11.273  15.190  30.420  1.00  0.00    -0.000 C 
BRANCH  16  17
ATOM     17  C   UNL     1      10.378  14.771  31.595  1.00  0.00    -0.000 C 
BRANCH  17  18
ATOM     18  C   UNL     1      10.771  13.383  32.116  1.00  0.00    -0.003 C 
ATOM     19  C   UNL     1      11.488  13.480  33.460  1.00  0.00     0.004 C 
ENDBRANCH  17  18
ENDBRANCH  16  17
ENDBRANCH  15  16
ENDBRANCH  14  15
ENDBRANCH  13  14
ENDBRANCH  12  13
ENDBRANCH   1  12
TORSDOF 14
ENDMDL
MODEL 9
REMARK VINA RESULT:    -3.786      3.110      6.200
REMARK INTER + INTRA:          -8.647
REMARK INTER:                  -6.917
REMARK INTRA:                  -1.730
REMARK UNBOUND:                -1.762
REMARK SMILES CCCCCCCCCCCCCC[C@H](C)C(=O)[O-]
REMARK SMILES IDX 9 1 10 2 11 3 12 4 13 5 14 6 15 7 16 8 17 9 18 10 19 11 8 12
REMARK SMILES IDX 7 13 6 14 5 15 4 16 3 17 2 18 1 19
REMARK H PARENT
REMARK Flexibility Score: inf
ROOT
ATOM      1  C   UNL     1      17.225  13.931  31.705  1.00  0.00     0.000 C 
ENDROOT
BRANCH   1   2
ATOM      2  C   UNL     1      17.612  14.762  30.469  1.00  0.00     0.000 C 
BRANCH   2   3
ATOM      3  C   UNL     1      16.647  15.933  30.221  1.00  0.00     0.000 C 
BRANCH   3   4
ATOM      4  C   UNL     1      15.895  15.810  28.884  1.00  0.00     0.000 C 
BRANCH   4   5
ATOM      5  C   UNL     1      16.186  14.484  28.161  1.00  0.00     0.001 C 
BRANCH   5   6
ATOM      6  C   UNL     1      15.834  14.538  26.663  1.00  0.00     0.009 C 
BRANCH   6   7
ATOM      7  C   UNL     1      16.609  15.648  25.925  1.00  0.00     0.032 C 
ATOM      8  C   UNL     1      15.900  16.025  24.620  1.00  0.00     0.014 C 
BRANCH   7   9
ATOM      9  C   UNL     1      18.023  15.225  25.627  1.00  0.00     0.044 C 
ATOM     10  O   UNL     1      18.243  14.150  25.007  1.00  0.00    -0.550 OA
ATOM     11  O   UNL     1      19.094  16.010  26.039  1.00  0.00    -0.550 OA
ENDBRANCH   7   9
ENDBRANCH   6   7
ENDBRANCH   5   6
ENDBRANCH   4   5
ENDBRANCH   3   4
ENDBRANCH   2   3
ENDBRANCH   1   2
BRANCH   1  12
ATOM     12  C   UNL     1      16.738  12.520  31.337  1.00  0.00     0.000 C 
BRANCH  12  13
ATOM     13  C   UNL     1      15.332  12.217  31.877  1.00  0.00    -0.000 C 
BRANCH  13  14
ATOM     14  C   UNL     1      14.260  12.929  31.044  1.00  0.00    -0.000 C 
BRANCH  14  15
ATOM     15  C   UNL     1      13.001  13.199  31.883  1.00  0.00    -0.000 C 
BRANCH  15  16
ATOM     16  C   UNL     1      11.995  14.112  31.165  1.00  0.00    -0.000 C 
BRANCH  16  17
ATOM     17  C   UNL     1      12.391  14.401  29.710  1.00  0.00    -0.000 C 
BRANCH  17  18
ATOM     18  C   UNL     1      11.163  14.774  28.871  1.00  0.00    -0.003 C 
ATOM     19  C   UNL     1       9.869  14.441  29.609  1.00  0.00     0.004 C 
ENDBRANCH  17  18
ENDBRANCH  16  17
ENDBRANCH  15  16
ENDBRANCH  14  15
ENDBRANCH  13  14
ENDBRANCH  12  13
ENDBRANCH   1  12
TORSDOF 14
ENDMDL
