MODEL 1
REMARK VINA RESULT:    -4.865      0.000      0.000
REMARK INTER + INTRA:          -6.168
REMARK INTER:                  -5.860
REMARK INTRA:                  -0.308
REMARK UNBOUND:                -0.308
REMARK SMILES NC(=O)C[C@H]([NH3+])C(=O)[O-]
REMARK SMILES IDX 4 1 5 2 6 3 7 7 8 8 9 9 2 10 3 11 1 12
REMARK H PARENT 6 4 6 5 6 6 1 13 1 14
REMARK Flexibility Score: inf
ROOT
ATOM      1  C   UNL     1       4.310   0.729  16.742  1.00  0.00     0.171 C 
ENDROOT
BRANCH   1   2
ATOM      2  C   UNL     1       4.814   1.282  18.090  1.00  0.00     0.237 C 
BRANCH   2   3
ATOM      3  N   UNL     1       6.204   1.749  17.993  1.00  0.00    -0.350 N 
ATOM      4  H   UNL     1       6.224   2.771  17.772  1.00  0.00     0.345 HD
ATOM      5  H   UNL     1       6.690   1.610  18.909  1.00  0.00     0.345 HD
ATOM      6  H   UNL     1       6.721   1.226  17.249  1.00  0.00     0.345 HD
ENDBRANCH   2   3
BRANCH   2   7
ATOM      7  C   UNL     1       4.701   0.216  19.147  1.00  0.00     0.100 C 
ATOM      8  O   UNL     1       5.699  -0.078  19.859  1.00  0.00    -0.544 OA
ATOM      9  O   UNL     1       3.494  -0.438  19.358  1.00  0.00    -0.544 OA
ENDBRANCH   2   7
ENDBRANCH   1   2
BRANCH   1  10
ATOM     10  C   UNL     1       5.442   0.244  15.883  1.00  0.00     0.223 C 
ATOM     11  O   UNL     1       6.189  -0.683  16.297  1.00  0.00    -0.275 OA
ATOM     12  N   UNL     1       5.657   0.799  14.586  1.00  0.00    -0.369 N 
ATOM     13  H   UNL     1       6.439   0.452  13.987  1.00  0.00     0.159 HD
ATOM     14  H   UNL     1       5.033   1.551  14.217  1.00  0.00     0.159 HD
ENDBRANCH   1  10
TORSDOF 4
ENDMDL
MODEL 2
REMARK VINA RESULT:    -4.785      1.970      4.279
REMARK INTER + INTRA:          -6.072
REMARK INTER:                  -5.732
REMARK INTRA:                  -0.340
REMARK UNBOUND:                -0.308
REMARK SMILES NC(=O)C[C@H]([NH3+])C(=O)[O-]
REMARK SMILES IDX 4 1 5 2 6 3 7 7 8 8 9 9 2 10 3 11 1 12
REMARK H PARENT 6 4 6 5 6 6 1 13 1 14
REMARK Flexibility Score: inf
ROOT
ATOM      1  C   UNL     1       6.868   1.226  16.468  1.00  0.00     0.171 C 
ENDROOT
BRANCH   1   2
ATOM      2  C   UNL     1       6.756   0.942  14.957  1.00  0.00     0.237 C 
BRANCH   2   3
ATOM      3  N   UNL     1       5.370   0.643  14.568  1.00  0.00    -0.350 N 
ATOM      4  H   UNL     1       4.733   0.763  15.390  1.00  0.00     0.345 HD
ATOM      5  H   UNL     1       5.059   1.308  13.822  1.00  0.00     0.345 HD
ATOM      6  H   UNL     1       5.287  -0.336  14.210  1.00  0.00     0.345 HD
ENDBRANCH   2   3
BRANCH   2   7
ATOM      7  C   UNL     1       7.653  -0.210  14.591  1.00  0.00     0.100 C 
ATOM      8  O   UNL     1       7.703  -0.620  13.401  1.00  0.00    -0.544 OA
ATOM      9  O   UNL     1       8.443  -0.819  15.558  1.00  0.00    -0.544 OA
ENDBRANCH   2   7
ENDBRANCH   1   2
BRANCH   1  10
ATOM     10  C   UNL     1       5.711   0.647  17.230  1.00  0.00     0.223 C 
ATOM     11  O   UNL     1       5.553  -0.602  17.274  1.00  0.00    -0.275 OA
ATOM     12  N   UNL     1       4.808   1.500  17.934  1.00  0.00    -0.369 N 
ATOM     13  H   UNL     1       4.010   1.092  18.471  1.00  0.00     0.159 HD
ATOM     14  H   UNL     1       4.937   2.536  17.928  1.00  0.00     0.159 HD
ENDBRANCH   1  10
TORSDOF 4
ENDMDL
MODEL 3
REMARK VINA RESULT:    -4.755      3.523      4.719
REMARK INTER + INTRA:          -6.036
REMARK INTER:                  -5.900
REMARK INTRA:                  -0.136
REMARK UNBOUND:                -0.308
REMARK SMILES NC(=O)C[C@H]([NH3+])C(=O)[O-]
REMARK SMILES IDX 4 1 5 2 6 3 7 7 8 8 9 9 2 10 3 11 1 12
REMARK H PARENT 6 4 6 5 6 6 1 13 1 14
REMARK Flexibility Score: inf
ROOT
ATOM      1  C   UNL     1       7.332   1.476  16.485  1.00  0.00     0.171 C 
ENDROOT
BRANCH   1   2
ATOM      2  C   UNL     1       6.971   1.054  15.047  1.00  0.00     0.237 C 
BRANCH   2   3
ATOM      3  N   UNL     1       5.516   0.947  14.868  1.00  0.00    -0.350 N 
ATOM      4  H   UNL     1       5.023   1.319  15.712  1.00  0.00     0.345 HD
ATOM      5  H   UNL     1       5.217   1.519  14.044  1.00  0.00     0.345 HD
ATOM      6  H   UNL     1       5.233  -0.048  14.714  1.00  0.00     0.345 HD
ENDBRANCH   2   3
BRANCH   2   7
ATOM      7  C   UNL     1       7.628  -0.262  14.727  1.00  0.00     0.100 C 
ATOM      8  O   UNL     1       8.045  -1.004  15.656  1.00  0.00    -0.544 OA
ATOM      9  O   UNL     1       7.764  -0.675  13.407  1.00  0.00    -0.544 OA
ENDBRANCH   2   7
ENDBRANCH   1   2
BRANCH   1  10
ATOM     10  C   UNL     1       8.636   2.219  16.536  1.00  0.00     0.223 C 
ATOM     11  O   UNL     1       8.637   3.471  16.680  1.00  0.00    -0.275 OA
ATOM     12  N   UNL     1       9.874   1.514  16.458  1.00  0.00    -0.369 N 
ATOM     13  H   UNL     1      10.779   2.034  16.504  1.00  0.00     0.159 HD
ATOM     14  H   UNL     1       9.893   0.474  16.363  1.00  0.00     0.159 HD
ENDBRANCH   1  10
TORSDOF 4
ENDMDL
MODEL 4
REMARK VINA RESULT:    -4.686      2.319      2.875
REMARK INTER + INTRA:          -5.953
REMARK INTER:                  -5.601
REMARK INTRA:                  -0.352
REMARK UNBOUND:                -0.308
REMARK SMILES NC(=O)C[C@H]([NH3+])C(=O)[O-]
REMARK SMILES IDX 4 1 5 2 6 3 7 7 8 8 9 9 2 10 3 11 1 12
REMARK H PARENT 6 4 6 5 6 6 1 13 1 14
REMARK Flexibility Score: inf
ROOT
ATOM      1  C   UNL     1       6.482  -0.044  14.866  1.00  0.00     0.171 C 
ENDROOT
BRANCH   1   2
ATOM      2  C   UNL     1       6.650   1.175  15.794  1.00  0.00     0.237 C 
BRANCH   2   3
ATOM      3  N   UNL     1       8.068   1.484  16.026  1.00  0.00    -0.350 N 
ATOM      4  H   UNL     1       8.190   1.928  16.965  1.00  0.00     0.345 HD
ATOM      5  H   UNL     1       8.630   0.601  16.013  1.00  0.00     0.345 HD
ATOM      6  H   UNL     1       8.432   2.132  15.289  1.00  0.00     0.345 HD
ENDBRANCH   2   3
BRANCH   2   7
ATOM      7  C   UNL     1       5.959   0.910  17.105  1.00  0.00     0.100 C 
ATOM      8  O   UNL     1       5.636  -0.265  17.425  1.00  0.00    -0.544 OA
ATOM      9  O   UNL     1       5.689   1.956  17.980  1.00  0.00    -0.544 OA
ENDBRANCH   2   7
ENDBRANCH   1   2
BRANCH   1  10
ATOM     10  C   UNL     1       7.776  -0.783  14.681  1.00  0.00     0.223 C 
ATOM     11  O   UNL     1       8.250  -1.463  15.630  1.00  0.00    -0.275 OA
ATOM     12  N   UNL     1       8.457  -0.750  13.426  1.00  0.00    -0.369 N 
ATOM     13  H   UNL     1       9.351  -1.274  13.299  1.00  0.00     0.159 HD
ATOM     14  H   UNL     1       8.067  -0.212  12.621  1.00  0.00     0.159 HD
ENDBRANCH   1  10
TORSDOF 4
ENDMDL
MODEL 5
REMARK VINA RESULT:    -4.608      1.823      3.704
REMARK INTER + INTRA:          -5.859
REMARK INTER:                  -5.580
REMARK INTRA:                  -0.279
REMARK UNBOUND:                -0.308
REMARK SMILES NC(=O)C[C@H]([NH3+])C(=O)[O-]
REMARK SMILES IDX 4 1 5 2 6 3 7 7 8 8 9 9 2 10 3 11 1 12
REMARK H PARENT 6 4 6 5 6 6 1 13 1 14
REMARK Flexibility Score: inf
ROOT
ATOM      1  C   UNL     1       4.783   0.804  16.177  1.00  0.00     0.171 C 
ENDROOT
BRANCH   1   2
ATOM      2  C   UNL     1       5.899   0.762  15.115  1.00  0.00     0.237 C 
BRANCH   2   3
ATOM      3  N   UNL     1       5.863  -0.491  14.347  1.00  0.00    -0.350 N 
ATOM      4  H   UNL     1       4.904  -0.907  14.385  1.00  0.00     0.345 HD
ATOM      5  H   UNL     1       6.090  -0.300  13.344  1.00  0.00     0.345 HD
ATOM      6  H   UNL     1       6.551  -1.181  14.729  1.00  0.00     0.345 HD
ENDBRANCH   2   3
BRANCH   2   7
ATOM      7  C   UNL     1       7.239   0.918  15.784  1.00  0.00     0.100 C 
ATOM      8  O   UNL     1       7.482   1.937  16.483  1.00  0.00    -0.544 OA
ATOM      9  O   UNL     1       8.209  -0.067  15.649  1.00  0.00    -0.544 OA
ENDBRANCH   2   7
ENDBRANCH   1   2
BRANCH   1  10
ATOM     10  C   UNL     1       5.128  -0.026  17.380  1.00  0.00     0.223 C 
ATOM     11  O   UNL     1       5.222  -1.278  17.270  1.00  0.00    -0.275 OA
ATOM     12  N   UNL     1       5.386   0.595  18.639  1.00  0.00    -0.369 N 
ATOM     13  H   UNL     1       5.636   0.015  19.471  1.00  0.00     0.159 HD
ATOM     14  H   UNL     1       5.336   1.633  18.743  1.00  0.00     0.159 HD
ENDBRANCH   1  10
TORSDOF 4
ENDMDL
MODEL 6
REMARK VINA RESULT:    -4.565      1.928      3.822
REMARK INTER + INTRA:          -5.807
REMARK INTER:                  -5.543
REMARK INTRA:                  -0.264
REMARK UNBOUND:                -0.308
REMARK SMILES NC(=O)C[C@H]([NH3+])C(=O)[O-]
REMARK SMILES IDX 4 1 5 2 6 3 7 7 8 8 9 9 2 10 3 11 1 12
REMARK H PARENT 6 4 6 5 6 6 1 13 1 14
REMARK Flexibility Score: inf
ROOT
ATOM      1  C   UNL     1       5.069   0.736  15.923  1.00  0.00     0.171 C 
ENDROOT
BRANCH   1   2
ATOM      2  C   UNL     1       6.491   0.266  15.557  1.00  0.00     0.237 C 
BRANCH   2   3
ATOM      3  N   UNL     1       7.014   0.993  14.391  1.00  0.00    -0.350 N 
ATOM      4  H   UNL     1       8.000   0.703  14.200  1.00  0.00     0.345 HD
ATOM      5  H   UNL     1       6.443   0.763  13.545  1.00  0.00     0.345 HD
ATOM      6  H   UNL     1       6.984   2.026  14.554  1.00  0.00     0.345 HD
ENDBRANCH   2   3
BRANCH   2   7
ATOM      7  C   UNL     1       6.478  -1.213  15.279  1.00  0.00     0.100 C 
ATOM      8  O   UNL     1       6.551  -1.635  14.094  1.00  0.00    -0.544 OA
ATOM      9  O   UNL     1       6.403  -2.123  16.326  1.00  0.00    -0.544 OA
ENDBRANCH   2   7
ENDBRANCH   1   2
BRANCH   1  10
ATOM     10  C   UNL     1       4.847   0.731  17.408  1.00  0.00     0.223 C 
ATOM     11  O   UNL     1       5.071   1.774  18.078  1.00  0.00    -0.275 OA
ATOM     12  N   UNL     1       4.351  -0.437  18.062  1.00  0.00    -0.369 N 
ATOM     13  H   UNL     1       4.188  -0.433  19.094  1.00  0.00     0.159 HD
ATOM     14  H   UNL     1       4.137  -1.303  17.519  1.00  0.00     0.159 HD
ENDBRANCH   1  10
TORSDOF 4
ENDMDL
MODEL 7
REMARK VINA RESULT:    -4.552      3.869      5.121
REMARK INTER + INTRA:          -5.791
REMARK INTER:                  -5.489
REMARK INTRA:                  -0.302
REMARK UNBOUND:                -0.308
REMARK SMILES NC(=O)C[C@H]([NH3+])C(=O)[O-]
REMARK SMILES IDX 4 1 5 2 6 3 7 7 8 8 9 9 2 10 3 11 1 12
REMARK H PARENT 6 4 6 5 6 6 1 13 1 14
REMARK Flexibility Score: inf
ROOT
ATOM      1  C   UNL     1       7.517  -2.402  15.222  1.00  0.00     0.171 C 
ENDROOT
BRANCH   1   2
ATOM      2  C   UNL     1       7.724  -1.157  14.338  1.00  0.00     0.237 C 
BRANCH   2   3
ATOM      3  N   UNL     1       9.150  -0.909  14.083  1.00  0.00    -0.350 N 
ATOM      4  H   UNL     1       9.512  -1.593  13.379  1.00  0.00     0.345 HD
ATOM      5  H   UNL     1       9.279   0.053  13.693  1.00  0.00     0.345 HD
ATOM      6  H   UNL     1       9.705  -0.998  14.966  1.00  0.00     0.345 HD
ENDBRANCH   2   3
BRANCH   2   7
ATOM      7  C   UNL     1       7.102   0.043  15.001  1.00  0.00     0.100 C 
ATOM      8  O   UNL     1       6.881   1.090  14.336  1.00  0.00    -0.544 OA
ATOM      9  O   UNL     1       6.754  -0.001  16.345  1.00  0.00    -0.544 OA
ENDBRANCH   2   7
ENDBRANCH   1   2
BRANCH   1  10
ATOM     10  C   UNL     1       8.787  -3.187  15.382  1.00  0.00     0.223 C 
ATOM     11  O   UNL     1       9.681  -2.778  16.170  1.00  0.00    -0.275 OA
ATOM     12  N   UNL     1       8.975  -4.413  14.674  1.00  0.00    -0.369 N 
ATOM     13  H   UNL     1       9.856  -4.961  14.796  1.00  0.00     0.159 HD
ATOM     14  H   UNL     1       8.235  -4.780  14.035  1.00  0.00     0.159 HD
ENDBRANCH   1  10
TORSDOF 4
ENDMDL
MODEL 8
REMARK VINA RESULT:    -4.449      7.868      8.469
REMARK INTER + INTRA:          -5.668
REMARK INTER:                  -5.535
REMARK INTRA:                  -0.133
REMARK UNBOUND:                -0.308
REMARK SMILES NC(=O)C[C@H]([NH3+])C(=O)[O-]
REMARK SMILES IDX 4 1 5 2 6 3 7 7 8 8 9 9 2 10 3 11 1 12
REMARK H PARENT 6 4 6 5 6 6 1 13 1 14
REMARK Flexibility Score: inf
ROOT
ATOM      1  C   UNL     1      -1.267  -2.387  19.230  1.00  0.00     0.171 C 
ENDROOT
BRANCH   1   2
ATOM      2  C   UNL     1      -1.986  -3.457  20.076  1.00  0.00     0.237 C 
BRANCH   2   3
ATOM      3  N   UNL     1      -1.662  -3.319  21.504  1.00  0.00    -0.350 N 
ATOM      4  H   UNL     1      -0.774  -3.827  21.720  1.00  0.00     0.345 HD
ATOM      5  H   UNL     1      -1.519  -2.309  21.739  1.00  0.00     0.345 HD
ATOM      6  H   UNL     1      -2.433  -3.704  22.098  1.00  0.00     0.345 HD
ENDBRANCH   2   3
BRANCH   2   7
ATOM      7  C   UNL     1      -1.601  -4.828  19.591  1.00  0.00     0.100 C 
ATOM      8  O   UNL     1      -2.460  -5.749  19.547  1.00  0.00    -0.544 OA
ATOM      9  O   UNL     1      -0.301  -5.085  19.171  1.00  0.00    -0.544 OA
ENDBRANCH   2   7
ENDBRANCH   1   2
BRANCH   1  10
ATOM     10  C   UNL     1      -2.045  -2.042  17.993  1.00  0.00     0.223 C 
ATOM     11  O   UNL     1      -1.764  -2.602  16.900  1.00  0.00    -0.275 OA
ATOM     12  N   UNL     1      -3.125  -1.110  18.053  1.00  0.00    -0.369 N 
ATOM     13  H   UNL     1      -3.671  -0.881  17.192  1.00  0.00     0.159 HD
ATOM     14  H   UNL     1      -3.388  -0.654  18.955  1.00  0.00     0.159 HD
ENDBRANCH   1  10
TORSDOF 4
ENDMDL
