MODEL 1
REMARK VINA RESULT:    -5.383      0.000      0.000
REMARK INTER + INTRA:          -5.383
REMARK INTER:                  -5.383
REMARK INTRA:                   0.000
REMARK UNBOUND:                 0.000
REMARK SMILES O=c1ccc2ccccc2o1
REMARK SMILES IDX 7 1 8 2 9 3 10 4 5 5 6 6 4 7 3 8 2 9 1 10 11 11
REMARK H PARENT
REMARK Flexibility Score: inf
ROOT
ATOM      1  C   UNL     1      -5.050  -2.140   6.092  1.00  0.00     0.001 A 
ATOM      2  C   UNL     1      -3.912  -2.822   5.648  1.00  0.00     0.004 A 
ATOM      3  C   UNL     1      -2.750  -2.114   5.320  1.00  0.00     0.048 A 
ATOM      4  C   UNL     1      -2.724  -0.720   5.436  1.00  0.00     0.138 A 
ATOM      5  C   UNL     1      -3.873  -0.031   5.884  1.00  0.00     0.018 A 
ATOM      6  C   UNL     1      -5.034  -0.747   6.211  1.00  0.00     0.012 A 
ATOM      7  C   UNL     1      -3.816   1.362   5.989  1.00  0.00     0.019 A 
ATOM      8  C   UNL     1      -2.637   2.026   5.651  1.00  0.00     0.094 A 
ATOM      9  C   UNL     1      -1.538   1.279   5.215  1.00  0.00     0.336 A 
ATOM     10  O   UNL     1      -0.466   1.861   4.906  1.00  0.00    -0.246 OA
ATOM     11  O   UNL     1      -1.618  -0.047   5.124  1.00  0.00    -0.423 OA
ENDROOT
TORSDOF 0
ENDMDL
MODEL 2
REMARK VINA RESULT:    -5.199     11.933     13.586
REMARK INTER + INTRA:          -5.199
REMARK INTER:                  -5.199
REMARK INTRA:                   0.000
REMARK UNBOUND:                 0.000
REMARK SMILES O=c1ccc2ccccc2o1
REMARK SMILES IDX 7 1 8 2 9 3 10 4 5 5 6 6 4 7 3 8 2 9 1 10 11 11
REMARK H PARENT
REMARK Flexibility Score: inf
ROOT
ATOM      1  C   UNL     1       8.519   0.005  -4.820  1.00  0.00     0.001 A 
ATOM      2  C   UNL     1       7.850  -1.220  -4.729  1.00  0.00     0.004 A 
ATOM      3  C   UNL     1       7.306  -1.636  -3.508  1.00  0.00     0.048 A 
ATOM      4  C   UNL     1       7.430  -0.826  -2.374  1.00  0.00     0.138 A 
ATOM      5  C   UNL     1       8.106   0.411  -2.466  1.00  0.00     0.018 A 
ATOM      6  C   UNL     1       8.649   0.822  -3.692  1.00  0.00     0.012 A 
ATOM      7  C   UNL     1       8.214   1.199  -1.315  1.00  0.00     0.019 A 
ATOM      8  C   UNL     1       7.657   0.744  -0.120  1.00  0.00     0.094 A 
ATOM      9  C   UNL     1       7.002  -0.492  -0.104  1.00  0.00     0.336 A 
ATOM     10  O   UNL     1       6.492  -0.919   0.965  1.00  0.00    -0.246 OA
ATOM     11  O   UNL     1       6.912  -1.222  -1.214  1.00  0.00    -0.423 OA
ENDROOT
TORSDOF 0
ENDMDL
MODEL 3
REMARK VINA RESULT:    -5.129     12.009     13.441
REMARK INTER + INTRA:          -5.129
REMARK INTER:                  -5.129
REMARK INTRA:                   0.000
REMARK UNBOUND:                 0.000
REMARK SMILES O=c1ccc2ccccc2o1
REMARK SMILES IDX 7 1 8 2 9 3 10 4 5 5 6 6 4 7 3 8 2 9 1 10 11 11
REMARK H PARENT
REMARK Flexibility Score: inf
ROOT
ATOM      1  C   UNL     1       7.297  -2.221  -0.313  1.00  0.00     0.001 A 
ATOM      2  C   UNL     1       7.315  -1.174   0.615  1.00  0.00     0.004 A 
ATOM      3  C   UNL     1       7.642   0.124   0.206  1.00  0.00     0.048 A 
ATOM      4  C   UNL     1       7.953   0.377  -1.135  1.00  0.00     0.138 A 
ATOM      5  C   UNL     1       7.934  -0.680  -2.072  1.00  0.00     0.018 A 
ATOM      6  C   UNL     1       7.605  -1.978  -1.655  1.00  0.00     0.012 A 
ATOM      7  C   UNL     1       8.249  -0.395  -3.404  1.00  0.00     0.019 A 
ATOM      8  C   UNL     1       8.569   0.913  -3.767  1.00  0.00     0.094 A 
ATOM      9  C   UNL     1       8.567   1.910  -2.785  1.00  0.00     0.336 A 
ATOM     10  O   UNL     1       8.853   3.096  -3.094  1.00  0.00    -0.246 OA
ATOM     11  O   UNL     1       8.263   1.612  -1.524  1.00  0.00    -0.423 OA
ENDROOT
TORSDOF 0
ENDMDL
MODEL 4
REMARK VINA RESULT:    -5.070     11.741     13.622
REMARK INTER + INTRA:          -5.070
REMARK INTER:                  -5.070
REMARK INTRA:                   0.000
REMARK UNBOUND:                 0.000
REMARK SMILES O=c1ccc2ccccc2o1
REMARK SMILES IDX 7 1 8 2 9 3 10 4 5 5 6 6 4 7 3 8 2 9 1 10 11 11
REMARK H PARENT
REMARK Flexibility Score: inf
ROOT
ATOM      1  C   UNL     1       8.647   0.972  -4.031  1.00  0.00     0.001 A 
ATOM      2  C   UNL     1       8.710   1.948  -3.030  1.00  0.00     0.004 A 
ATOM      3  C   UNL     1       8.357   1.630  -1.714  1.00  0.00     0.048 A 
ATOM      4  C   UNL     1       7.939   0.333  -1.395  1.00  0.00     0.138 A 
ATOM      5  C   UNL     1       7.875  -0.652  -2.406  1.00  0.00     0.018 A 
ATOM      6  C   UNL     1       8.231  -0.327  -3.723  1.00  0.00     0.012 A 
ATOM      7  C   UNL     1       7.455  -1.939  -2.056  1.00  0.00     0.019 A 
ATOM      8  C   UNL     1       7.112  -2.211  -0.732  1.00  0.00     0.094 A 
ATOM      9  C   UNL     1       7.199  -1.186   0.216  1.00  0.00     0.336 A 
ATOM     10  O   UNL     1       6.895  -1.412   1.416  1.00  0.00    -0.246 OA
ATOM     11  O   UNL     1       7.604   0.031  -0.143  1.00  0.00    -0.423 OA
ENDROOT
TORSDOF 0
ENDMDL
MODEL 5
REMARK VINA RESULT:    -4.999     11.996     13.678
REMARK INTER + INTRA:          -4.999
REMARK INTER:                  -4.999
REMARK INTRA:                   0.000
REMARK UNBOUND:                 0.000
REMARK SMILES O=c1ccc2ccccc2o1
REMARK SMILES IDX 7 1 8 2 9 3 10 4 5 5 6 6 4 7 3 8 2 9 1 10 11 11
REMARK H PARENT
REMARK Flexibility Score: inf
ROOT
ATOM      1  C   UNL     1       7.926  -1.191  -4.704  1.00  0.00     0.001 A 
ATOM      2  C   UNL     1       8.528   0.067  -4.811  1.00  0.00     0.004 A 
ATOM      3  C   UNL     1       8.628   0.897  -3.688  1.00  0.00     0.048 A 
ATOM      4  C   UNL     1       8.124   0.470  -2.455  1.00  0.00     0.138 A 
ATOM      5  C   UNL     1       7.515  -0.800  -2.347  1.00  0.00     0.018 A 
ATOM      6  C   UNL     1       7.419  -1.627  -3.476  1.00  0.00     0.012 A 
ATOM      7  C   UNL     1       7.021  -1.199  -1.101  1.00  0.00     0.019 A 
ATOM      8  C   UNL     1       7.142  -0.339  -0.010  1.00  0.00     0.094 A 
ATOM      9  C   UNL     1       7.756   0.905  -0.191  1.00  0.00     0.336 A 
ATOM     10  O   UNL     1       7.874   1.694   0.783  1.00  0.00    -0.246 OA
ATOM     11  O   UNL     1       8.219   1.260  -1.388  1.00  0.00    -0.423 OA
ENDROOT
TORSDOF 0
ENDMDL
MODEL 6
REMARK VINA RESULT:    -4.994      1.332      2.277
REMARK INTER + INTRA:          -4.994
REMARK INTER:                  -4.994
REMARK INTRA:                   0.000
REMARK UNBOUND:                 0.000
REMARK SMILES O=c1ccc2ccccc2o1
REMARK SMILES IDX 7 1 8 2 9 3 10 4 5 5 6 6 4 7 3 8 2 9 1 10 11 11
REMARK H PARENT
REMARK Flexibility Score: inf
ROOT
ATOM      1  C   UNL     1      -5.599  -2.034   6.417  1.00  0.00     0.001 A 
ATOM      2  C   UNL     1      -6.278  -0.856   6.745  1.00  0.00     0.004 A 
ATOM      3  C   UNL     1      -5.641   0.383   6.615  1.00  0.00     0.048 A 
ATOM      4  C   UNL     1      -4.320   0.447   6.157  1.00  0.00     0.138 A 
ATOM      5  C   UNL     1      -3.634  -0.743   5.826  1.00  0.00     0.018 A 
ATOM      6  C   UNL     1      -4.279  -1.981   5.958  1.00  0.00     0.012 A 
ATOM      7  C   UNL     1      -2.315  -0.647   5.371  1.00  0.00     0.019 A 
ATOM      8  C   UNL     1      -1.720   0.609   5.258  1.00  0.00     0.094 A 
ATOM      9  C   UNL     1      -2.460   1.745   5.604  1.00  0.00     0.336 A 
ATOM     10  O   UNL     1      -1.940   2.887   5.508  1.00  0.00    -0.246 OA
ATOM     11  O   UNL     1      -3.715   1.626   6.034  1.00  0.00    -0.423 OA
ENDROOT
TORSDOF 0
ENDMDL
MODEL 7
REMARK VINA RESULT:    -4.906     11.372     12.069
REMARK INTER + INTRA:          -4.906
REMARK INTER:                  -4.906
REMARK INTRA:                   0.000
REMARK UNBOUND:                 0.000
REMARK SMILES O=c1ccc2ccccc2o1
REMARK SMILES IDX 7 1 8 2 9 3 10 4 5 5 6 6 4 7 3 8 2 9 1 10 11 11
REMARK H PARENT
REMARK Flexibility Score: inf
ROOT
ATOM      1  C   UNL     1       8.551  -4.063   2.988  1.00  0.00     0.001 A 
ATOM      2  C   UNL     1       9.392  -2.996   3.321  1.00  0.00     0.004 A 
ATOM      3  C   UNL     1       9.269  -1.769   2.659  1.00  0.00     0.048 A 
ATOM      4  C   UNL     1       8.302  -1.606   1.660  1.00  0.00     0.138 A 
ATOM      5  C   UNL     1       7.453  -2.684   1.324  1.00  0.00     0.018 A 
ATOM      6  C   UNL     1       7.582  -3.910   1.991  1.00  0.00     0.012 A 
ATOM      7  C   UNL     1       6.497  -2.491   0.322  1.00  0.00     0.019 A 
ATOM      8  C   UNL     1       6.410  -1.252  -0.312  1.00  0.00     0.094 A 
ATOM      9  C   UNL     1       7.284  -0.229   0.073  1.00  0.00     0.336 A 
ATOM     10  O   UNL     1       7.220   0.896  -0.486  1.00  0.00    -0.246 OA
ATOM     11  O   UNL     1       8.185  -0.439   1.031  1.00  0.00    -0.423 OA
ENDROOT
TORSDOF 0
ENDMDL
MODEL 8
REMARK VINA RESULT:    -4.835     11.976     13.411
REMARK INTER + INTRA:          -4.835
REMARK INTER:                  -4.835
REMARK INTRA:                   0.000
REMARK UNBOUND:                 0.000
REMARK SMILES O=c1ccc2ccccc2o1
REMARK SMILES IDX 7 1 8 2 9 3 10 4 5 5 6 6 4 7 3 8 2 9 1 10 11 11
REMARK H PARENT
REMARK Flexibility Score: inf
ROOT
ATOM      1  C   UNL     1       6.966  -1.069   0.517  1.00  0.00     0.001 A 
ATOM      2  C   UNL     1       6.737  -2.151  -0.340  1.00  0.00     0.004 A 
ATOM      3  C   UNL     1       7.048  -2.050  -1.701  1.00  0.00     0.048 A 
ATOM      4  C   UNL     1       7.588  -0.864  -2.209  1.00  0.00     0.138 A 
ATOM      5  C   UNL     1       7.819   0.229  -1.344  1.00  0.00     0.018 A 
ATOM      6  C   UNL     1       7.506   0.121   0.018  1.00  0.00     0.012 A 
ATOM      7  C   UNL     1       8.360   1.401  -1.882  1.00  0.00     0.019 A 
ATOM      8  C   UNL     1       8.654   1.458  -3.244  1.00  0.00     0.094 A 
ATOM      9  C   UNL     1       8.399   0.336  -4.040  1.00  0.00     0.336 A 
ATOM     10  O   UNL     1       8.657   0.368  -5.271  1.00  0.00    -0.246 OA
ATOM     11  O   UNL     1       7.883  -0.768  -3.503  1.00  0.00    -0.423 OA
ENDROOT
TORSDOF 0
ENDMDL
MODEL 9
REMARK VINA RESULT:    -4.733     11.000     12.086
REMARK INTER + INTRA:          -4.733
REMARK INTER:                  -4.733
REMARK INTRA:                   0.000
REMARK UNBOUND:                 0.000
REMARK SMILES O=c1ccc2ccccc2o1
REMARK SMILES IDX 7 1 8 2 9 3 10 4 5 5 6 6 4 7 3 8 2 9 1 10 11 11
REMARK H PARENT
REMARK Flexibility Score: inf
ROOT
ATOM      1  C   UNL     1       9.699  -2.954   3.159  1.00  0.00     0.001 A 
ATOM      2  C   UNL     1       8.906  -4.107   3.154  1.00  0.00     0.004 A 
ATOM      3  C   UNL     1       7.774  -4.179   2.335  1.00  0.00     0.048 A 
ATOM      4  C   UNL     1       7.432  -3.096   1.517  1.00  0.00     0.138 A 
ATOM      5  C   UNL     1       8.232  -1.932   1.523  1.00  0.00     0.018 A 
ATOM      6  C   UNL     1       9.365  -1.866   2.346  1.00  0.00     0.012 A 
ATOM      7  C   UNL     1       7.864  -0.867   0.695  1.00  0.00     0.019 A 
ATOM      8  C   UNL     1       6.728  -0.982  -0.105  1.00  0.00     0.094 A 
ATOM      9  C   UNL     1       5.982  -2.166  -0.059  1.00  0.00     0.336 A 
ATOM     10  O   UNL     1       4.954  -2.289  -0.774  1.00  0.00    -0.246 OA
ATOM     11  O   UNL     1       6.355  -3.166   0.737  1.00  0.00    -0.423 OA
ENDROOT
TORSDOF 0
ENDMDL
