MODEL 1
REMARK VINA RESULT:    -2.741      0.000      0.000
REMARK INTER + INTRA:          -3.566
REMARK INTER:                  -3.302
REMARK INTRA:                  -0.264
REMARK UNBOUND:                -0.264
REMARK SMILES O=c1c(O)c(-c2ccc(O)cc2O)oc2cc(O)cc(O)c12
REMARK SMILES IDX 5 1 3 2 2 3 1 4 22 5 20 6 19 7 17 8 16 9 15 10 14 11 6 12
REMARK SMILES IDX 8 13 7 14 9 15 11 16 12 17 10 18 13 20 4 22 21 24 18 26
REMARK H PARENT 10 19 13 21 4 23 21 25 18 27
REMARK Flexibility Score: inf
ROOT
ATOM      1  C   UNL     1     -19.098   9.228  26.343  1.00  0.00     0.184 A 
ATOM      2  C   UNL     1     -17.717   9.174  26.587  1.00  0.00     0.208 A 
ATOM      3  C   UNL     1     -16.828   9.379  25.520  1.00  0.00     0.238 A 
ATOM      4  O   UNL     1     -15.592   9.276  25.735  1.00  0.00    -0.285 OA
ATOM      5  C   UNL     1     -17.334   9.649  24.226  1.00  0.00     0.111 A 
ATOM      6  C   UNL     1     -16.526   9.912  23.078  1.00  0.00     0.134 A 
ATOM      7  C   UNL     1     -17.131  10.039  21.822  1.00  0.00     0.093 A 
ATOM      8  C   UNL     1     -18.517   9.978  21.680  1.00  0.00     0.123 A 
ATOM      9  C   UNL     1     -19.320   9.781  22.804  1.00  0.00     0.094 A 
ATOM     10  C   UNL     1     -18.745   9.615  24.065  1.00  0.00     0.146 A 
ATOM     11  O   UNL     1     -19.543   9.419  25.108  1.00  0.00    -0.451 OA
ENDROOT
BRANCH   1  12
ATOM     12  C   UNL     1     -20.087   9.039  27.425  1.00  0.00     0.063 A 
ATOM     13  C   UNL     1     -21.826   9.982  28.837  1.00  0.00     0.047 A 
ATOM     14  C   UNL     1     -20.886  10.125  27.814  1.00  0.00     0.020 A 
ATOM     15  C   UNL     1     -21.970   8.757  29.494  1.00  0.00     0.119 A 
ATOM     16  C   UNL     1     -21.160   7.674  29.130  1.00  0.00     0.093 A 
ATOM     17  C   UNL     1     -20.211   7.811  28.107  1.00  0.00     0.130 A 
BRANCH  15  18
ATOM     18  O   UNL     1     -22.915   8.630  30.510  1.00  0.00    -0.508 OA
ATOM     19  H   UNL     1     -22.856   7.887  31.196  1.00  0.00     0.293 HD
ENDBRANCH  15  18
BRANCH  17  20
ATOM     20  O   UNL     1     -19.377   6.739  27.786  1.00  0.00    -0.507 OA
ATOM     21  H   UNL     1     -18.530   6.867  27.244  1.00  0.00     0.293 HD
ENDBRANCH  17  20
ENDBRANCH   1  12
BRANCH   2  22
ATOM     22  O   UNL     1     -17.245   8.887  27.872  1.00  0.00    -0.502 OA
ATOM     23  H   UNL     1     -17.478   8.029  28.356  1.00  0.00     0.293 HD
ENDBRANCH   2  22
BRANCH   6  24
ATOM     24  O   UNL     1     -15.140  10.083  23.123  1.00  0.00    -0.507 OA
ATOM     25  H   UNL     1     -14.628  10.775  22.596  1.00  0.00     0.293 HD
ENDBRANCH   6  24
BRANCH   8  26
ATOM     26  O   UNL     1     -19.086  10.124  20.417  1.00  0.00    -0.508 OA
ATOM     27  H   UNL     1     -18.837  10.897  19.809  1.00  0.00     0.293 HD
ENDBRANCH   8  26
TORSDOF 6
ENDMDL
MODEL 2
REMARK VINA RESULT:    -0.232      1.263      1.537
REMARK INTER + INTRA:          -0.544
REMARK INTER:                  -2.249
REMARK INTRA:                   1.705
REMARK UNBOUND:                -0.264
REMARK SMILES O=c1c(O)c(-c2ccc(O)cc2O)oc2cc(O)cc(O)c12
REMARK SMILES IDX 5 1 3 2 2 3 1 4 22 5 20 6 19 7 17 8 16 9 15 10 14 11 6 12
REMARK SMILES IDX 8 13 7 14 9 15 11 16 12 17 10 18 13 20 4 22 21 24 18 26
REMARK H PARENT 10 19 13 21 4 23 21 25 18 27
REMARK Flexibility Score: inf
ROOT
ATOM      1  C   UNL     1     -19.229   9.453  27.192  1.00  0.00     0.184 A 
ATOM      2  C   UNL     1     -17.921   9.078  27.540  1.00  0.00     0.208 A 
ATOM      3  C   UNL     1     -16.938   9.029  26.540  1.00  0.00     0.238 A 
ATOM      4  O   UNL     1     -15.781   8.640  26.848  1.00  0.00    -0.285 OA
ATOM      5  C   UNL     1     -17.273   9.369  25.207  1.00  0.00     0.111 A 
ATOM      6  C   UNL     1     -16.349   9.392  24.119  1.00  0.00     0.134 A 
ATOM      7  C   UNL     1     -16.818   9.618  22.819  1.00  0.00     0.093 A 
ATOM      8  C   UNL     1     -18.163   9.886  22.575  1.00  0.00     0.123 A 
ATOM      9  C   UNL     1     -19.066   9.925  23.638  1.00  0.00     0.094 A 
ATOM     10  C   UNL     1     -18.636   9.668  24.942  1.00  0.00     0.146 A 
ATOM     11  O   UNL     1     -19.528   9.704  25.924  1.00  0.00    -0.451 OA
ENDROOT
BRANCH   1  12
ATOM     12  C   UNL     1     -20.306   9.543  28.200  1.00  0.00     0.063 A 
ATOM     13  C   UNL     1     -22.678   9.436  28.719  1.00  0.00     0.047 A 
ATOM     14  C   UNL     1     -21.635   9.353  27.793  1.00  0.00     0.020 A 
ATOM     15  C   UNL     1     -22.408   9.723  30.060  1.00  0.00     0.119 A 
ATOM     16  C   UNL     1     -21.086   9.936  30.472  1.00  0.00     0.093 A 
ATOM     17  C   UNL     1     -20.034   9.860  29.547  1.00  0.00     0.130 A 
BRANCH  15  18
ATOM     18  O   UNL     1     -23.458   9.798  30.972  1.00  0.00    -0.508 OA
ATOM     19  H   UNL     1     -23.566  10.594  31.589  1.00  0.00     0.293 HD
ENDBRANCH  15  18
BRANCH  17  20
ATOM     20  O   UNL     1     -18.727  10.123  29.960  1.00  0.00    -0.507 OA
ATOM     21  H   UNL     1     -18.102   9.380  30.251  1.00  0.00     0.293 HD
ENDBRANCH  17  20
ENDBRANCH   1  12
BRANCH   2  22
ATOM     22  O   UNL     1     -17.622   8.729  28.861  1.00  0.00    -0.502 OA
ATOM     23  H   UNL     1     -18.072   9.171  29.653  1.00  0.00     0.293 HD
ENDBRANCH   2  22
BRANCH   6  24
ATOM     24  O   UNL     1     -14.968   9.228  24.265  1.00  0.00    -0.507 OA
ATOM     25  H   UNL     1     -14.293   9.977  24.228  1.00  0.00     0.293 HD
ENDBRANCH   6  24
BRANCH   8  26
ATOM     26  O   UNL     1     -18.592  10.122  21.270  1.00  0.00    -0.508 OA
ATOM     27  H   UNL     1     -18.188   9.629  20.482  1.00  0.00     0.293 HD
ENDBRANCH   8  26
TORSDOF 6
ENDMDL
