MODEL 1
REMARK VINA RESULT:    -4.563      0.000      0.000
REMARK INTER + INTRA:          -7.166
REMARK INTER:                  -6.963
REMARK INTRA:                  -0.203
REMARK UNBOUND:                -0.203
REMARK SMILES CC1=CCC[C@H](C)C(=O)C[C@@H](C(C)C)C(=O)C1
REMARK SMILES IDX 8 1 9 2 6 3 7 4 5 5 4 6 3 7 2 8 1 9 10 11 11 12 15 13 16 14
REMARK SMILES IDX 17 15 12 17 13 18 14 19
REMARK H PARENT
REMARK Flexibility Score: 70.00
ROOT
ATOM      1  C   UNL     1     109.556  46.938  63.662  1.00  0.00     0.136 C 
ATOM      2  O   UNL     1     109.526  45.830  63.150  1.00  0.00    -0.299 OA
ENDROOT
BRANCH   1   3
ATOM      3  C   UNL     1     108.664  47.213  64.883  1.00  0.00     0.053 C 
ATOM      4  C   UNL     1     109.486  47.486  66.147  1.00  0.00     0.016 C 
BRANCH   3   5
ATOM      5  C   UNL     1     107.827  48.394  64.460  1.00  0.00     0.015 C 
BRANCH   5   6
ATOM      6  C   UNL     1     107.561  49.678  65.190  1.00  0.00     0.028 C 
BRANCH   6   7
ATOM      7  C   UNL     1     107.250  50.755  64.141  1.00  0.00    -0.028 C 
ATOM      8  C   UNL     1     108.076  51.317  63.182  1.00  0.00    -0.070 CG0
ATOM      9  C   UNL     1     107.403  52.248  62.200  1.00  0.00     0.039 C 
ATOM     10  G   UNL     1     109.613  51.142  63.033  1.00  0.00     0.000 G0
ENDBRANCH   6   7
ENDBRANCH   5   6
ENDBRANCH   3   5
ENDBRANCH   1   3
BRANCH   1  11
ATOM     11  C   UNL     1     110.489  48.012  63.075  1.00  0.00     0.087 C 
BRANCH  11  12
ATOM     12  C   UNL     1     110.067  48.808  61.768  1.00  0.00     0.066 C 
BRANCH  12  13
ATOM     13  C   UNL     1     110.080  50.355  61.796  1.00  0.00     0.140 C 
ATOM     14  O   UNL     1     110.530  50.973  60.841  1.00  0.00    -0.299 OA
BRANCH  13  15
ATOM     15  C   UNL     1     109.612  51.150  63.025  1.00  0.00     0.106 CG0
ATOM     16  G   UNL     1     108.074  51.304  63.187  1.00  0.00     0.000 G0
ENDBRANCH  13  15
ENDBRANCH  12  13
BRANCH  12  17
ATOM     17  C   UNL     1     108.795  48.204  61.089  1.00  0.00    -0.006 C 
ATOM     18  C   UNL     1     107.832  49.254  60.515  1.00  0.00     0.008 C 
ATOM     19  C   UNL     1     109.150  47.155  60.021  1.00  0.00     0.008 C 
ENDBRANCH  12  17
ENDBRANCH  11  12
ENDBRANCH   1  11
TORSDOF 1
ENDMDL
MODEL 2
REMARK VINA RESULT:    -4.346      2.033      3.732
REMARK INTER + INTRA:          -6.836
REMARK INTER:                  -6.480
REMARK INTRA:                  -0.356
REMARK UNBOUND:                -0.203
REMARK SMILES CC1=CCC[C@H](C)C(=O)C[C@@H](C(C)C)C(=O)C1
REMARK SMILES IDX 8 1 9 2 6 3 7 4 5 5 4 6 3 7 2 8 1 9 10 11 11 12 15 13 16 14
REMARK SMILES IDX 17 15 12 17 13 18 14 19
REMARK H PARENT
REMARK Flexibility Score: 70.00
ROOT
ATOM      1  C   UNL     1     107.996  49.010  64.865  1.00  0.00     0.136 C 
ATOM      2  O   UNL     1     106.936  48.586  65.296  1.00  0.00    -0.299 OA
ENDROOT
BRANCH   1   3
ATOM      3  C   UNL     1     109.239  48.108  64.942  1.00  0.00     0.053 C 
ATOM      4  C   UNL     1     109.498  47.605  66.366  1.00  0.00     0.016 C 
BRANCH   3   5
ATOM      5  C   UNL     1     108.936  46.993  63.972  1.00  0.00     0.015 C 
BRANCH   5   6
ATOM      6  C   UNL     1     109.633  46.633  62.694  1.00  0.00     0.028 C 
BRANCH   6   7
ATOM      7  C   UNL     1     110.284  47.908  62.142  1.00  0.00    -0.028 C 
ATOM      8  C   UNL     1     109.712  48.966  61.457  1.00  0.00    -0.070 CG0
ATOM      9  C   UNL     1     110.619  50.146  61.192  1.00  0.00     0.039 C 
ATOM     10  G   UNL     1     108.269  49.058  60.886  1.00  0.00     0.000 G0
ENDBRANCH   6   7
ENDBRANCH   5   6
ENDBRANCH   3   5
ENDBRANCH   1   3
BRANCH   1  11
ATOM     11  C   UNL     1     108.049  50.420  64.250  1.00  0.00     0.087 C 
BRANCH  11  12
ATOM     12  C   UNL     1     107.378  50.700  62.838  1.00  0.00     0.066 C 
BRANCH  12  13
ATOM     13  C   UNL     1     107.172  49.519  61.860  1.00  0.00     0.140 C 
ATOM     14  O   UNL     1     106.133  48.875  61.901  1.00  0.00    -0.299 OA
BRANCH  13  15
ATOM     15  C   UNL     1     108.268  49.074  60.879  1.00  0.00     0.106 CG0
ATOM     16  G   UNL     1     109.702  48.965  61.468  1.00  0.00     0.000 G0
ENDBRANCH  13  15
ENDBRANCH  12  13
BRANCH  12  17
ATOM     17  C   UNL     1     107.944  51.987  62.156  1.00  0.00    -0.006 C 
ATOM     18  C   UNL     1     106.890  52.814  61.404  1.00  0.00     0.008 C 
ATOM     19  C   UNL     1     108.722  52.874  63.144  1.00  0.00     0.008 C 
ENDBRANCH  12  17
ENDBRANCH  11  12
ENDBRANCH   1  11
TORSDOF 1
ENDMDL
MODEL 3
REMARK VINA RESULT:    -4.278      1.911      4.762
REMARK INTER + INTRA:          -6.732
REMARK INTER:                  -6.749
REMARK INTRA:                   0.017
REMARK UNBOUND:                -0.203
REMARK SMILES CC1=CCC[C@H](C)C(=O)C[C@@H](C(C)C)C(=O)C1
REMARK SMILES IDX 8 1 9 2 6 3 7 4 5 5 4 6 3 7 2 8 1 9 10 11 11 12 15 13 16 14
REMARK SMILES IDX 17 15 12 17 13 18 14 19
REMARK H PARENT
REMARK Flexibility Score: 70.00
ROOT
ATOM      1  C   UNL     1     108.696  51.964  62.387  1.00  0.00     0.136 C 
ATOM      2  O   UNL     1     109.503  52.598  61.726  1.00  0.00    -0.299 OA
ENDROOT
BRANCH   1   3
ATOM      3  C   UNL     1     107.278  51.766  61.829  1.00  0.00     0.053 C 
ATOM      4  C   UNL     1     106.834  52.942  60.953  1.00  0.00     0.016 C 
BRANCH   3   5
ATOM      5  C   UNL     1     107.367  50.468  61.066  1.00  0.00     0.015 C 
BRANCH   5   6
ATOM      6  C   UNL     1     107.090  49.070  61.536  1.00  0.00     0.028 C 
BRANCH   6   7
ATOM      7  C   UNL     1     107.952  48.117  60.698  1.00  0.00    -0.028 C 
ATOM      8  C   UNL     1     109.136  47.478  61.025  1.00  0.00    -0.070 CG0
ATOM      9  C   UNL     1     109.645  46.477  60.013  1.00  0.00     0.039 C 
ATOM     10  G   UNL     1     110.023  47.709  62.280  1.00  0.00     0.000 G0
ENDBRANCH   6   7
ENDBRANCH   5   6
ENDBRANCH   3   5
ENDBRANCH   1   3
BRANCH   1  11
ATOM     11  C   UNL     1     109.129  51.377  63.742  1.00  0.00     0.087 C 
BRANCH  11  12
ATOM     12  C   UNL     1     109.585  49.860  63.845  1.00  0.00     0.066 C 
BRANCH  12  13
ATOM     13  C   UNL     1     110.257  49.195  62.621  1.00  0.00     0.140 C 
ATOM     14  O   UNL     1     110.954  49.869  61.875  1.00  0.00    -0.299 OA
BRANCH  13  15
ATOM     15  C   UNL     1     110.019  47.720  62.263  1.00  0.00     0.106 CG0
ATOM     16  G   UNL     1     109.135  47.460  61.012  1.00  0.00     0.000 G0
ENDBRANCH  13  15
ENDBRANCH  12  13
BRANCH  12  17
ATOM     17  C   UNL     1     108.506  48.960  64.532  1.00  0.00    -0.006 C 
ATOM     18  C   UNL     1     109.056  48.067  65.655  1.00  0.00     0.008 C 
ATOM     19  C   UNL     1     107.303  49.778  65.033  1.00  0.00     0.008 C 
ENDBRANCH  12  17
ENDBRANCH  11  12
ENDBRANCH   1  11
TORSDOF 1
ENDMDL
MODEL 4
REMARK VINA RESULT:    -3.599      1.773      3.638
REMARK INTER + INTRA:          -5.696
REMARK INTER:                  -5.935
REMARK INTRA:                   0.239
REMARK UNBOUND:                -0.203
REMARK SMILES CC1=CCC[C@H](C)C(=O)C[C@@H](C(C)C)C(=O)C1
REMARK SMILES IDX 8 1 9 2 6 3 7 4 5 5 4 6 3 7 2 8 1 9 10 11 11 12 15 13 16 14
REMARK SMILES IDX 17 15 12 17 13 18 14 19
REMARK H PARENT
REMARK Flexibility Score: 70.00
ROOT
ATOM      1  C   UNL     1     108.687  48.638  60.857  1.00  0.00     0.136 C 
ATOM      2  O   UNL     1     107.655  48.889  60.256  1.00  0.00    -0.299 OA
ENDROOT
BRANCH   1   3
ATOM      3  C   UNL     1     109.005  47.174  61.199  1.00  0.00     0.053 C 
ATOM      4  C   UNL     1     109.694  46.448  60.039  1.00  0.00     0.016 C 
BRANCH   3   5
ATOM      5  C   UNL     1     109.874  47.271  62.429  1.00  0.00     0.015 C 
BRANCH   5   6
ATOM      6  C   UNL     1     109.650  46.697  63.796  1.00  0.00     0.028 C 
BRANCH   6   7
ATOM      7  C   UNL     1     108.592  47.559  64.497  1.00  0.00    -0.028 C 
ATOM      8  C   UNL     1     108.545  48.932  64.669  1.00  0.00    -0.070 CG0
ATOM      9  C   UNL     1     107.271  49.475  65.276  1.00  0.00     0.039 C 
ATOM     10  G   UNL     1     109.663  49.966  64.359  1.00  0.00     0.000 G0
ENDBRANCH   6   7
ENDBRANCH   5   6
ENDBRANCH   3   5
ENDBRANCH   1   3
BRANCH   1  11
ATOM     11  C   UNL     1     109.634  49.790  61.239  1.00  0.00     0.087 C 
BRANCH  11  12
ATOM     12  C   UNL     1     109.069  51.075  61.979  1.00  0.00     0.066 C 
BRANCH  12  13
ATOM     13  C   UNL     1     109.244  51.194  63.512  1.00  0.00     0.140 C 
ATOM     14  O   UNL     1     109.112  52.283  64.052  1.00  0.00    -0.299 OA
BRANCH  13  15
ATOM     15  C   UNL     1     109.654  49.993  64.380  1.00  0.00     0.106 CG0
ATOM     16  G   UNL     1     108.543  48.942  64.652  1.00  0.00     0.000 G0
ENDBRANCH  13  15
ENDBRANCH  12  13
BRANCH  12  17
ATOM     17  C   UNL     1     107.641  51.469  61.479  1.00  0.00    -0.006 C 
ATOM     18  C   UNL     1     106.511  51.105  62.455  1.00  0.00     0.008 C 
ATOM     19  C   UNL     1     107.554  52.953  61.083  1.00  0.00     0.008 C 
ENDBRANCH  12  17
ENDBRANCH  11  12
ENDBRANCH   1  11
TORSDOF 1
ENDMDL
MODEL 5
REMARK VINA RESULT:    -3.586      2.129      4.368
REMARK INTER + INTRA:          -5.675
REMARK INTER:                  -6.374
REMARK INTRA:                   0.699
REMARK UNBOUND:                -0.203
REMARK SMILES CC1=CCC[C@H](C)C(=O)C[C@@H](C(C)C)C(=O)C1
REMARK SMILES IDX 8 1 9 2 6 3 7 4 5 5 4 6 3 7 2 8 1 9 10 11 11 12 15 13 16 14
REMARK SMILES IDX 17 15 12 17 13 18 14 19
REMARK H PARENT
REMARK Flexibility Score: 70.00
ROOT
ATOM      1  C   UNL     1     108.437  48.578  60.893  1.00  0.00     0.136 C 
ATOM      2  O   UNL     1     107.976  47.728  60.148  1.00  0.00    -0.299 OA
ENDROOT
BRANCH   1   3
ATOM      3  C   UNL     1     109.955  48.606  61.132  1.00  0.00     0.053 C 
ATOM      4  C   UNL     1     110.364  49.712  62.110  1.00  0.00     0.016 C 
BRANCH   3   5
ATOM      5  C   UNL     1     110.263  47.222  61.649  1.00  0.00     0.015 C 
BRANCH   5   6
ATOM      6  C   UNL     1     109.503  46.387  62.636  1.00  0.00     0.028 C 
BRANCH   6   7
ATOM      7  C   UNL     1     109.774  46.955  64.036  1.00  0.00    -0.028 C 
ATOM      8  C   UNL     1     108.935  47.665  64.878  1.00  0.00    -0.070 CG0
ATOM      9  C   UNL     1     109.475  47.942  66.262  1.00  0.00     0.039 C 
ATOM     10  G   UNL     1     107.533  48.250  64.548  1.00  0.00     0.000 G0
ENDBRANCH   6   7
ENDBRANCH   5   6
ENDBRANCH   3   5
ENDBRANCH   1   3
BRANCH   1  11
ATOM     11  C   UNL     1     107.488  49.595  61.553  1.00  0.00     0.087 C 
BRANCH  11  12
ATOM     12  C   UNL     1     107.920  50.337  62.889  1.00  0.00     0.066 C 
BRANCH  12  13
ATOM     13  C   UNL     1     107.474  49.751  64.249  1.00  0.00     0.140 C 
ATOM     14  O   UNL     1     107.118  50.504  65.144  1.00  0.00    -0.299 OA
BRANCH  13  15
ATOM     15  C   UNL     1     107.534  48.244  64.545  1.00  0.00     0.106 CG0
ATOM     16  G   UNL     1     108.940  47.675  64.885  1.00  0.00     0.000 G0
ENDBRANCH  13  15
ENDBRANCH  12  13
BRANCH  12  17
ATOM     17  C   UNL     1     107.749  51.888  62.788  1.00  0.00    -0.006 C 
ATOM     18  C   UNL     1     108.916  52.688  63.388  1.00  0.00     0.008 C 
ATOM     19  C   UNL     1     107.462  52.348  61.349  1.00  0.00     0.008 C 
ENDBRANCH  12  17
ENDBRANCH  11  12
ENDBRANCH   1  11
TORSDOF 1
ENDMDL
MODEL 6
REMARK VINA RESULT:    -3.562      1.903      4.086
REMARK INTER + INTRA:          -5.639
REMARK INTER:                  -6.166
REMARK INTRA:                   0.528
REMARK UNBOUND:                -0.203
REMARK SMILES CC1=CCC[C@H](C)C(=O)C[C@@H](C(C)C)C(=O)C1
REMARK SMILES IDX 8 1 9 2 6 3 7 4 5 5 4 6 3 7 2 8 1 9 10 11 11 12 15 13 16 14
REMARK SMILES IDX 17 15 12 17 13 18 14 19
REMARK H PARENT
REMARK Flexibility Score: 70.00
ROOT
ATOM      1  C   UNL     1     107.637  50.089  64.572  1.00  0.00     0.136 C 
ATOM      2  O   UNL     1     106.895  50.278  65.522  1.00  0.00    -0.299 OA
ENDROOT
BRANCH   1   3
ATOM      3  C   UNL     1     108.335  51.298  63.928  1.00  0.00     0.053 C 
ATOM      4  C   UNL     1     109.820  51.031  63.660  1.00  0.00     0.016 C 
BRANCH   3   5
ATOM      5  C   UNL     1     107.545  51.539  62.665  1.00  0.00     0.015 C 
BRANCH   5   6
ATOM      6  C   UNL     1     108.021  51.587  61.244  1.00  0.00     0.028 C 
BRANCH   6   7
ATOM      7  C   UNL     1     107.694  50.234  60.597  1.00  0.00    -0.028 C 
ATOM      8  C   UNL     1     108.379  49.033  60.669  1.00  0.00    -0.070 CG0
ATOM      9  C   UNL     1     107.693  47.846  60.033  1.00  0.00     0.039 C 
ATOM     10  G   UNL     1     109.786  48.779  61.278  1.00  0.00     0.000 G0
ENDBRANCH   6   7
ENDBRANCH   5   6
ENDBRANCH   3   5
ENDBRANCH   1   3
BRANCH   1  11
ATOM     11  C   UNL     1     107.856  48.653  64.062  1.00  0.00     0.087 C 
BRANCH  11  12
ATOM     12  C   UNL     1     109.328  48.097  63.855  1.00  0.00     0.066 C 
BRANCH  12  13
ATOM     13  C   UNL     1     109.796  47.727  62.427  1.00  0.00     0.140 C 
ATOM     14  O   UNL     1     110.255  46.615  62.211  1.00  0.00    -0.299 OA
BRANCH  13  15
ATOM     15  C   UNL     1     109.773  48.744  61.275  1.00  0.00     0.106 CG0
ATOM     16  G   UNL     1     108.375  49.049  60.667  1.00  0.00     0.000 G0
ENDBRANCH  13  15
ENDBRANCH  12  13
BRANCH  12  17
ATOM     17  C   UNL     1     109.722  47.039  64.936  1.00  0.00    -0.006 C 
ATOM     18  C   UNL     1     109.493  47.504  66.383  1.00  0.00     0.008 C 
ATOM     19  C   UNL     1     109.043  45.680  64.693  1.00  0.00     0.008 C 
ENDBRANCH  12  17
ENDBRANCH  11  12
ENDBRANCH   1  11
TORSDOF 1
ENDMDL
MODEL 7
REMARK VINA RESULT:    -3.521      1.773      3.548
REMARK INTER + INTRA:          -5.577
REMARK INTER:                  -5.752
REMARK INTRA:                   0.176
REMARK UNBOUND:                -0.203
REMARK SMILES CC1=CCC[C@H](C)C(=O)C[C@@H](C(C)C)C(=O)C1
REMARK SMILES IDX 8 1 9 2 6 3 7 4 5 5 4 6 3 7 2 8 1 9 10 11 11 12 15 13 16 14
REMARK SMILES IDX 17 15 12 17 13 18 14 19
REMARK H PARENT
REMARK Flexibility Score: 70.00
ROOT
ATOM      1  C   UNL     1     107.847  48.750  64.639  1.00  0.00     0.136 C 
ATOM      2  O   UNL     1     106.866  48.061  64.871  1.00  0.00    -0.299 OA
ENDROOT
BRANCH   1   3
ATOM      3  C   UNL     1     109.236  48.209  65.016  1.00  0.00     0.053 C 
ATOM      4  C   UNL     1     109.509  48.324  66.519  1.00  0.00     0.016 C 
BRANCH   3   5
ATOM      5  C   UNL     1     109.210  46.781  64.532  1.00  0.00     0.015 C 
BRANCH   5   6
ATOM      6  C   UNL     1     109.848  46.181  63.314  1.00  0.00     0.028 C 
BRANCH   6   7
ATOM      7  C   UNL     1     109.083  46.695  62.086  1.00  0.00    -0.028 C 
ATOM      8  C   UNL     1     109.339  47.793  61.283  1.00  0.00    -0.070 CG0
ATOM      9  C   UNL     1     108.470  47.925  60.053  1.00  0.00     0.039 C 
ATOM     10  G   UNL     1     110.374  48.926  61.527  1.00  0.00     0.000 G0
ENDBRANCH   6   7
ENDBRANCH   5   6
ENDBRANCH   3   5
ENDBRANCH   1   3
BRANCH   1  11
ATOM     11  C   UNL     1     107.660  50.123  63.968  1.00  0.00     0.087 C 
BRANCH  11  12
ATOM     12  C   UNL     1     108.494  50.496  62.670  1.00  0.00     0.066 C 
BRANCH  12  13
ATOM     13  C   UNL     1     109.954  49.999  62.549  1.00  0.00     0.140 C 
ATOM     14  O   UNL     1     110.824  50.504  63.244  1.00  0.00    -0.299 OA
BRANCH  13  15
ATOM     15  C   UNL     1     110.368  48.932  61.522  1.00  0.00     0.106 CG0
ATOM     16  G   UNL     1     109.340  47.793  61.276  1.00  0.00     0.000 G0
ENDBRANCH  13  15
ENDBRANCH  12  13
BRANCH  12  17
ATOM     17  C   UNL     1     108.304  51.990  62.250  1.00  0.00    -0.006 C 
ATOM     18  C   UNL     1     109.251  52.453  61.132  1.00  0.00     0.008 C 
ATOM     19  C   UNL     1     106.843  52.309  61.887  1.00  0.00     0.008 C 
ENDBRANCH  12  17
ENDBRANCH  11  12
ENDBRANCH   1  11
TORSDOF 1
ENDMDL
MODEL 8
REMARK VINA RESULT:    -3.046      1.710      3.720
REMARK INTER + INTRA:          -4.851
REMARK INTER:                  -5.375
REMARK INTRA:                   0.524
REMARK UNBOUND:                -0.203
REMARK SMILES CC1=CCC[C@H](C)C(=O)C[C@@H](C(C)C)C(=O)C1
REMARK SMILES IDX 8 1 9 2 6 3 7 4 5 5 4 6 3 7 2 8 1 9 10 11 11 12 15 13 16 14
REMARK SMILES IDX 17 15 12 17 13 18 14 19
REMARK H PARENT
REMARK Flexibility Score: 70.00
ROOT
ATOM      1  C   UNL     1     108.758  47.746  61.184  1.00  0.00     0.136 C 
ATOM      2  O   UNL     1     109.129  46.843  60.451  1.00  0.00    -0.299 OA
ENDROOT
BRANCH   1   3
ATOM      3  C   UNL     1     107.635  48.677  60.699  1.00  0.00     0.053 C 
ATOM      4  C   UNL     1     106.486  48.767  61.708  1.00  0.00     0.016 C 
BRANCH   3   5
ATOM      5  C   UNL     1     108.331  49.998  60.482  1.00  0.00     0.015 C 
BRANCH   5   6
ATOM      6  C   UNL     1     109.572  50.534  61.131  1.00  0.00     0.028 C 
BRANCH   6   7
ATOM      7  C   UNL     1     109.151  51.667  62.077  1.00  0.00    -0.028 C 
ATOM      8  C   UNL     1     109.152  51.707  63.461  1.00  0.00    -0.070 CG0
ATOM      9  C   UNL     1     108.818  53.044  64.081  1.00  0.00     0.039 C 
ATOM     10  G   UNL     1     109.405  50.530  64.444  1.00  0.00     0.000 G0
ENDBRANCH   6   7
ENDBRANCH   5   6
ENDBRANCH   3   5
ENDBRANCH   1   3
BRANCH   1  11
ATOM     11  C   UNL     1     109.416  47.912  62.565  1.00  0.00     0.087 C 
BRANCH  11  12
ATOM     12  C   UNL     1     108.516  48.049  63.866  1.00  0.00     0.066 C 
BRANCH  12  13
ATOM     13  C   UNL     1     108.322  49.447  64.499  1.00  0.00     0.140 C 
ATOM     14  O   UNL     1     107.250  49.734  65.013  1.00  0.00    -0.299 OA
BRANCH  13  15
ATOM     15  C   UNL     1     109.414  50.527  64.438  1.00  0.00     0.106 CG0
ATOM     16  G   UNL     1     109.159  51.693  63.442  1.00  0.00     0.000 G0
ENDBRANCH  13  15
ENDBRANCH  12  13
BRANCH  12  17
ATOM     17  C   UNL     1     108.807  46.923  64.911  1.00  0.00    -0.006 C 
ATOM     18  C   UNL     1     109.500  45.684  64.323  1.00  0.00     0.008 C 
ATOM     19  C   UNL     1     109.585  47.449  66.129  1.00  0.00     0.008 C 
ENDBRANCH  12  17
ENDBRANCH  11  12
ENDBRANCH   1  11
TORSDOF 1
ENDMDL
MODEL 9
REMARK VINA RESULT:    -2.824      2.041      4.463
REMARK INTER + INTRA:          -4.512
REMARK INTER:                  -5.753
REMARK INTRA:                   1.240
REMARK UNBOUND:                -0.203
REMARK SMILES CC1=CCC[C@H](C)C(=O)C[C@@H](C(C)C)C(=O)C1
REMARK SMILES IDX 8 1 9 2 6 3 7 4 5 5 4 6 3 7 2 8 1 9 10 11 11 12 15 13 16 14
REMARK SMILES IDX 17 15 12 17 13 18 14 19
REMARK H PARENT
REMARK Flexibility Score: 70.00
ROOT
ATOM      1  C   UNL     1     109.364  51.239  63.438  1.00  0.00     0.136 C 
ATOM      2  O   UNL     1     108.563  51.718  64.225  1.00  0.00    -0.299 OA
ENDROOT
BRANCH   1   3
ATOM      3  C   UNL     1     109.671  52.002  62.139  1.00  0.00     0.053 C 
ATOM      4  C   UNL     1     110.409  51.129  61.119  1.00  0.00     0.016 C 
BRANCH   3   5
ATOM      5  C   UNL     1     108.314  52.450  61.655  1.00  0.00     0.015 C 
BRANCH   5   6
ATOM      6  C   UNL     1     107.180  51.629  61.117  1.00  0.00     0.028 C 
BRANCH   6   7
ATOM      7  C   UNL     1     107.756  50.280  60.662  1.00  0.00    -0.028 C 
ATOM      8  C   UNL     1     107.545  49.012  61.176  1.00  0.00    -0.070 CG0
ATOM      9  C   UNL     1     108.150  47.874  60.386  1.00  0.00     0.039 C 
ATOM     10  G   UNL     1     106.808  48.632  62.490  1.00  0.00     0.000 G0
ENDBRANCH   6   7
ENDBRANCH   5   6
ENDBRANCH   3   5
ENDBRANCH   1   3
BRANCH   1  11
ATOM     11  C   UNL     1     110.044  49.901  63.779  1.00  0.00     0.087 C 
BRANCH  11  12
ATOM     12  C   UNL     1     109.221  48.546  63.700  1.00  0.00     0.066 C 
BRANCH  12  13
ATOM     13  C   UNL     1     107.677  48.603  63.761  1.00  0.00     0.140 C 
ATOM     14  O   UNL     1     107.113  48.566  64.846  1.00  0.00    -0.299 OA
BRANCH  13  15
ATOM     15  C   UNL     1     106.812  48.628  62.491  1.00  0.00     0.106 CG0
ATOM     16  G   UNL     1     107.547  49.020  61.179  1.00  0.00     0.000 G0
ENDBRANCH  13  15
ENDBRANCH  12  13
BRANCH  12  17
ATOM     17  C   UNL     1     109.842  47.420  64.590  1.00  0.00    -0.006 C 
ATOM     18  C   UNL     1     109.499  47.539  66.083  1.00  0.00     0.008 C 
ATOM     19  C   UNL     1     109.502  46.013  64.068  1.00  0.00     0.008 C 
ENDBRANCH  12  17
ENDBRANCH  11  12
ENDBRANCH   1  11
TORSDOF 1
ENDMDL
