MODEL 1
REMARK VINA RESULT:    -4.113      0.000      0.000
REMARK INTER + INTRA:          -9.375
REMARK INTER:                  -7.479
REMARK INTRA:                  -1.896
REMARK UNBOUND:                -1.896
REMARK SMILES CCCCCCCCCCCCCCCC(=O)[O-]
REMARK SMILES IDX 9 1 10 2 11 3 12 4 13 5 14 6 15 7 16 8 17 9 18 10 8 11 7 12
REMARK SMILES IDX 6 13 5 14 4 15 3 16 2 17 1 18
REMARK H PARENT
REMARK Flexibility Score: inf
ROOT
ATOM      1  C   UNL     1      97.540  84.238  80.168  1.00  0.00     0.000 C 
ENDROOT
BRANCH   1   2
ATOM      2  C   UNL     1      96.840  85.490  80.728  1.00  0.00     0.000 C 
BRANCH   2   3
ATOM      3  C   UNL     1      96.074  86.330  79.690  1.00  0.00     0.000 C 
BRANCH   3   4
ATOM      4  C   UNL     1      95.184  85.480  78.768  1.00  0.00     0.000 C 
BRANCH   4   5
ATOM      5  C   UNL     1      93.941  84.932  79.489  1.00  0.00     0.000 C 
BRANCH   5   6
ATOM      6  C   UNL     1      93.795  83.407  79.343  1.00  0.00     0.006 C 
BRANCH   6   7
ATOM      7  C   UNL     1      93.338  82.743  80.648  1.00  0.00     0.053 C 
BRANCH   7   8
ATOM      8  C   UNL     1      92.251  83.525  81.320  1.00  0.00     0.041 C 
ATOM      9  O   UNL     1      91.083  83.520  80.849  1.00  0.00    -0.550 OA
ATOM     10  O   UNL     1      92.536  84.288  82.445  1.00  0.00    -0.550 OA
ENDBRANCH   7   8
ENDBRANCH   6   7
ENDBRANCH   5   6
ENDBRANCH   4   5
ENDBRANCH   3   4
ENDBRANCH   2   3
ENDBRANCH   1   2
BRANCH   1  11
ATOM     11  C   UNL     1      97.072  82.938  80.839  1.00  0.00     0.000 C 
BRANCH  11  12
ATOM     12  C   UNL     1      98.207  82.300  81.654  1.00  0.00    -0.000 C 
BRANCH  12  13
ATOM     13  C   UNL     1      99.568  82.962  81.389  1.00  0.00    -0.000 C 
BRANCH  13  14
ATOM     14  C   UNL     1     100.301  83.347  82.686  1.00  0.00    -0.000 C 
BRANCH  14  15
ATOM     15  C   UNL     1     100.043  84.805  83.108  1.00  0.00    -0.000 C 
BRANCH  15  16
ATOM     16  C   UNL     1      99.523  84.979  84.546  1.00  0.00    -0.000 C 
BRANCH  16  17
ATOM     17  C   UNL     1      98.139  85.643  84.605  1.00  0.00    -0.003 C 
ATOM     18  C   UNL     1      97.029  84.622  84.377  1.00  0.00     0.004 C 
ENDBRANCH  16  17
ENDBRANCH  15  16
ENDBRANCH  14  15
ENDBRANCH  13  14
ENDBRANCH  12  13
ENDBRANCH  11  12
ENDBRANCH   1  11
TORSDOF 14
ENDMDL
MODEL 2
REMARK VINA RESULT:    -4.104      1.963      4.081
REMARK INTER + INTRA:          -9.359
REMARK INTER:                  -8.109
REMARK INTRA:                  -1.250
REMARK UNBOUND:                -1.896
REMARK SMILES CCCCCCCCCCCCCCCC(=O)[O-]
REMARK SMILES IDX 9 1 10 2 11 3 12 4 13 5 14 6 15 7 16 8 17 9 18 10 8 11 7 12
REMARK SMILES IDX 6 13 5 14 4 15 3 16 2 17 1 18
REMARK H PARENT
REMARK Flexibility Score: inf
ROOT
ATOM      1  C   UNL     1      93.905  83.392  79.438  1.00  0.00     0.000 C 
ENDROOT
BRANCH   1   2
ATOM      2  C   UNL     1      93.064  83.051  80.681  1.00  0.00     0.000 C 
BRANCH   2   3
ATOM      3  C   UNL     1      92.836  84.218  81.659  1.00  0.00     0.000 C 
BRANCH   3   4
ATOM      4  C   UNL     1      91.393  84.288  82.185  1.00  0.00     0.000 C 
BRANCH   4   5
ATOM      5  C   UNL     1      90.561  83.057  81.788  1.00  0.00     0.000 C 
BRANCH   5   6
ATOM      6  C   UNL     1      89.280  83.430  81.021  1.00  0.00     0.006 C 
BRANCH   6   7
ATOM      7  C   UNL     1      89.513  83.501  79.506  1.00  0.00     0.053 C 
BRANCH   7   8
ATOM      8  C   UNL     1      89.640  84.916  79.028  1.00  0.00     0.041 C 
ATOM      9  O   UNL     1      88.609  85.602  78.800  1.00  0.00    -0.550 OA
ATOM     10  O   UNL     1      90.896  85.464  78.801  1.00  0.00    -0.550 OA
ENDBRANCH   7   8
ENDBRANCH   6   7
ENDBRANCH   5   6
ENDBRANCH   4   5
ENDBRANCH   3   4
ENDBRANCH   2   3
ENDBRANCH   1   2
BRANCH   1  11
ATOM     11  C   UNL     1      94.554  84.782  79.515  1.00  0.00     0.000 C 
BRANCH  11  12
ATOM     12  C   UNL     1      96.084  84.671  79.583  1.00  0.00    -0.000 C 
BRANCH  12  13
ATOM     13  C   UNL     1      96.580  84.171  80.949  1.00  0.00    -0.000 C 
BRANCH  13  14
ATOM     14  C   UNL     1      96.814  82.651  80.973  1.00  0.00    -0.000 C 
BRANCH  14  15
ATOM     15  C   UNL     1      98.271  82.274  81.297  1.00  0.00    -0.000 C 
BRANCH  15  16
ATOM     16  C   UNL     1      99.214  83.470  81.519  1.00  0.00    -0.000 C 
BRANCH  16  17
ATOM     17  C   UNL     1     100.513  83.082  82.240  1.00  0.00    -0.003 C 
ATOM     18  C   UNL     1     101.098  84.270  82.997  1.00  0.00     0.004 C 
ENDBRANCH  16  17
ENDBRANCH  15  16
ENDBRANCH  14  15
ENDBRANCH  13  14
ENDBRANCH  12  13
ENDBRANCH  11  12
ENDBRANCH   1  11
TORSDOF 14
ENDMDL
MODEL 3
REMARK VINA RESULT:    -4.061      3.698      8.121
REMARK INTER + INTRA:          -9.280
REMARK INTER:                  -8.470
REMARK INTRA:                  -0.810
REMARK UNBOUND:                -1.896
REMARK SMILES CCCCCCCCCCCCCCCC(=O)[O-]
REMARK SMILES IDX 9 1 10 2 11 3 12 4 13 5 14 6 15 7 16 8 17 9 18 10 8 11 7 12
REMARK SMILES IDX 6 13 5 14 4 15 3 16 2 17 1 18
REMARK H PARENT
REMARK Flexibility Score: inf
ROOT
ATOM      1  C   UNL     1      93.501  84.424  80.636  1.00  0.00     0.000 C 
ENDROOT
BRANCH   1   2
ATOM      2  C   UNL     1      94.839  85.183  80.667  1.00  0.00     0.000 C 
BRANCH   2   3
ATOM      3  C   UNL     1      95.859  84.757  79.596  1.00  0.00     0.000 C 
BRANCH   3   4
ATOM      4  C   UNL     1      97.141  84.155  80.195  1.00  0.00     0.000 C 
BRANCH   4   5
ATOM      5  C   UNL     1      96.923  82.740  80.755  1.00  0.00     0.000 C 
BRANCH   5   6
ATOM      6  C   UNL     1      98.131  82.227  81.559  1.00  0.00     0.006 C 
BRANCH   6   7
ATOM      7  C   UNL     1      99.307  83.211  81.525  1.00  0.00     0.053 C 
BRANCH   7   8
ATOM      8  C   UNL     1      99.638  83.731  82.891  1.00  0.00     0.041 C 
ATOM      9  O   UNL     1     100.629  83.274  83.519  1.00  0.00    -0.550 OA
ATOM     10  O   UNL     1      98.832  84.694  83.483  1.00  0.00    -0.550 OA
ENDBRANCH   7   8
ENDBRANCH   6   7
ENDBRANCH   5   6
ENDBRANCH   4   5
ENDBRANCH   3   4
ENDBRANCH   2   3
ENDBRANCH   1   2
BRANCH   1  11
ATOM     11  C   UNL     1      92.905  84.313  79.225  1.00  0.00     0.000 C 
BRANCH  11  12
ATOM     12  C   UNL     1      91.459  83.801  79.276  1.00  0.00    -0.000 C 
BRANCH  12  13
ATOM     13  C   UNL     1      90.910  83.723  80.710  1.00  0.00    -0.000 C 
BRANCH  13  14
ATOM     14  C   UNL     1      89.379  83.861  80.766  1.00  0.00    -0.000 C 
BRANCH  14  15
ATOM     15  C   UNL     1      88.659  82.505  80.863  1.00  0.00    -0.000 C 
BRANCH  15  16
ATOM     16  C   UNL     1      87.951  82.054  79.573  1.00  0.00    -0.000 C 
BRANCH  16  17
ATOM     17  C   UNL     1      87.160  80.749  79.749  1.00  0.00    -0.003 C 
ATOM     18  C   UNL     1      86.692  80.580  81.190  1.00  0.00     0.004 C 
ENDBRANCH  16  17
ENDBRANCH  15  16
ENDBRANCH  14  15
ENDBRANCH  13  14
ENDBRANCH  12  13
ENDBRANCH  11  12
ENDBRANCH   1  11
TORSDOF 14
ENDMDL
MODEL 4
REMARK VINA RESULT:    -4.043      1.837      2.856
REMARK INTER + INTRA:          -9.247
REMARK INTER:                  -8.120
REMARK INTRA:                  -1.127
REMARK UNBOUND:                -1.896
REMARK SMILES CCCCCCCCCCCCCCCC(=O)[O-]
REMARK SMILES IDX 9 1 10 2 11 3 12 4 13 5 14 6 15 7 16 8 17 9 18 10 8 11 7 12
REMARK SMILES IDX 6 13 5 14 4 15 3 16 2 17 1 18
REMARK H PARENT
REMARK Flexibility Score: inf
ROOT
ATOM      1  C   UNL     1      96.784  85.436  80.439  1.00  0.00     0.000 C 
ENDROOT
BRANCH   1   2
ATOM      2  C   UNL     1      95.321  85.000  80.631  1.00  0.00     0.000 C 
BRANCH   2   3
ATOM      3  C   UNL     1      94.540  84.736  79.329  1.00  0.00     0.000 C 
BRANCH   3   4
ATOM      4  C   UNL     1      93.700  83.449  79.385  1.00  0.00     0.000 C 
BRANCH   4   5
ATOM      5  C   UNL     1      93.054  83.225  80.762  1.00  0.00     0.000 C 
BRANCH   5   6
ATOM      6  C   UNL     1      91.541  83.507  80.759  1.00  0.00     0.006 C 
BRANCH   6   7
ATOM      7  C   UNL     1      91.231  85.000  80.588  1.00  0.00     0.053 C 
BRANCH   7   8
ATOM      8  C   UNL     1      90.527  85.278  79.294  1.00  0.00     0.041 C 
ATOM      9  O   UNL     1      89.270  85.245  79.238  1.00  0.00    -0.550 OA
ATOM     10  O   UNL     1      91.261  85.538  78.144  1.00  0.00    -0.550 OA
ENDBRANCH   7   8
ENDBRANCH   6   7
ENDBRANCH   5   6
ENDBRANCH   4   5
ENDBRANCH   3   4
ENDBRANCH   2   3
ENDBRANCH   1   2
BRANCH   1  11
ATOM     11  C   UNL     1      97.726  84.261  80.137  1.00  0.00     0.000 C 
BRANCH  11  12
ATOM     12  C   UNL     1      97.189  82.956  80.742  1.00  0.00    -0.000 C 
BRANCH  12  13
ATOM     13  C   UNL     1      98.213  82.262  81.655  1.00  0.00    -0.000 C 
BRANCH  13  14
ATOM     14  C   UNL     1      99.610  82.900  81.567  1.00  0.00    -0.000 C 
BRANCH  14  15
ATOM     15  C   UNL     1     100.128  83.397  82.929  1.00  0.00    -0.000 C 
BRANCH  15  16
ATOM     16  C   UNL     1     100.446  84.901  82.990  1.00  0.00    -0.000 C 
BRANCH  16  17
ATOM     17  C   UNL     1     101.836  85.195  83.574  1.00  0.00    -0.003 C 
ATOM     18  C   UNL     1     102.860  85.426  82.468  1.00  0.00     0.004 C 
ENDBRANCH  16  17
ENDBRANCH  15  16
ENDBRANCH  14  15
ENDBRANCH  13  14
ENDBRANCH  12  13
ENDBRANCH  11  12
ENDBRANCH   1  11
TORSDOF 14
ENDMDL
MODEL 5
REMARK VINA RESULT:    -3.988      3.518      6.976
REMARK INTER + INTRA:          -9.148
REMARK INTER:                  -7.988
REMARK INTRA:                  -1.161
REMARK UNBOUND:                -1.896
REMARK SMILES CCCCCCCCCCCCCCCC(=O)[O-]
REMARK SMILES IDX 9 1 10 2 11 3 12 4 13 5 14 6 15 7 16 8 17 9 18 10 8 11 7 12
REMARK SMILES IDX 6 13 5 14 4 15 3 16 2 17 1 18
REMARK H PARENT
REMARK Flexibility Score: inf
ROOT
ATOM      1  C   UNL     1      94.809  83.006  80.452  1.00  0.00     0.000 C 
ENDROOT
BRANCH   1   2
ATOM      2  C   UNL     1      95.501  84.362  80.678  1.00  0.00     0.000 C 
BRANCH   2   3
ATOM      3  C   UNL     1      96.742  84.618  79.801  1.00  0.00     0.000 C 
BRANCH   3   4
ATOM      4  C   UNL     1      98.006  84.918  80.625  1.00  0.00     0.000 C 
BRANCH   4   5
ATOM      5  C   UNL     1      97.958  84.291  82.028  1.00  0.00     0.000 C 
BRANCH   5   6
ATOM      6  C   UNL     1      98.627  82.906  82.081  1.00  0.00     0.006 C 
BRANCH   6   7
ATOM      7  C   UNL     1     100.122  82.973  81.743  1.00  0.00     0.053 C 
BRANCH   7   8
ATOM      8  C   UNL     1     100.912  83.620  82.839  1.00  0.00     0.041 C 
ATOM      9  O   UNL     1     101.726  84.543  82.573  1.00  0.00    -0.550 OA
ATOM     10  O   UNL     1     100.776  83.180  84.150  1.00  0.00    -0.550 OA
ENDBRANCH   7   8
ENDBRANCH   6   7
ENDBRANCH   5   6
ENDBRANCH   4   5
ENDBRANCH   3   4
ENDBRANCH   2   3
ENDBRANCH   1   2
BRANCH   1  11
ATOM     11  C   UNL     1      93.762  83.046  79.329  1.00  0.00     0.000 C 
BRANCH  11  12
ATOM     12  C   UNL     1      92.821  84.249  79.497  1.00  0.00    -0.000 C 
BRANCH  12  13
ATOM     13  C   UNL     1      91.441  84.013  78.862  1.00  0.00    -0.000 C 
BRANCH  13  14
ATOM     14  C   UNL     1      90.324  83.875  79.911  1.00  0.00    -0.000 C 
BRANCH  14  15
ATOM     15  C   UNL     1      90.800  83.197  81.207  1.00  0.00    -0.000 C 
BRANCH  15  16
ATOM     16  C   UNL     1      90.590  84.027  82.487  1.00  0.00    -0.000 C 
BRANCH  16  17
ATOM     17  C   UNL     1      91.885  84.238  83.283  1.00  0.00    -0.003 C 
ATOM     18  C   UNL     1      91.646  84.061  84.779  1.00  0.00     0.004 C 
ENDBRANCH  16  17
ENDBRANCH  15  16
ENDBRANCH  14  15
ENDBRANCH  13  14
ENDBRANCH  12  13
ENDBRANCH  11  12
ENDBRANCH   1  11
TORSDOF 14
ENDMDL
MODEL 6
REMARK VINA RESULT:    -3.987      3.738      7.992
REMARK INTER + INTRA:          -9.146
REMARK INTER:                  -8.099
REMARK INTRA:                  -1.047
REMARK UNBOUND:                -1.896
REMARK SMILES CCCCCCCCCCCCCCCC(=O)[O-]
REMARK SMILES IDX 9 1 10 2 11 3 12 4 13 5 14 6 15 7 16 8 17 9 18 10 8 11 7 12
REMARK SMILES IDX 6 13 5 14 4 15 3 16 2 17 1 18
REMARK H PARENT
REMARK Flexibility Score: inf
ROOT
ATOM      1  C   UNL     1      94.318  82.844  80.419  1.00  0.00     0.000 C 
ENDROOT
BRANCH   1   2
ATOM      2  C   UNL     1      95.240  84.009  80.017  1.00  0.00     0.000 C 
BRANCH   2   3
ATOM      3  C   UNL     1      96.709  83.864  80.456  1.00  0.00     0.000 C 
BRANCH   3   4
ATOM      4  C   UNL     1      97.138  82.399  80.639  1.00  0.00     0.000 C 
BRANCH   4   5
ATOM      5  C   UNL     1      98.254  82.237  81.684  1.00  0.00     0.000 C 
BRANCH   5   6
ATOM      6  C   UNL     1      99.255  83.406  81.667  1.00  0.00     0.006 C 
BRANCH   6   7
ATOM      7  C   UNL     1     100.437  83.167  82.615  1.00  0.00     0.053 C 
BRANCH   7   8
ATOM      8  C   UNL     1     101.109  84.449  83.002  1.00  0.00     0.041 C 
ATOM      9  O   UNL     1     100.651  85.144  83.947  1.00  0.00    -0.550 OA
ATOM     10  O   UNL     1     102.220  84.894  82.296  1.00  0.00    -0.550 OA
ENDBRANCH   7   8
ENDBRANCH   6   7
ENDBRANCH   5   6
ENDBRANCH   4   5
ENDBRANCH   3   4
ENDBRANCH   2   3
ENDBRANCH   1   2
BRANCH   1  11
ATOM     11  C   UNL     1      92.874  83.288  80.694  1.00  0.00     0.000 C 
BRANCH  11  12
ATOM     12  C   UNL     1      92.559  84.609  79.979  1.00  0.00    -0.000 C 
BRANCH  12  13
ATOM     13  C   UNL     1      91.652  84.416  78.753  1.00  0.00    -0.000 C 
BRANCH  13  14
ATOM     14  C   UNL     1      90.787  85.654  78.457  1.00  0.00    -0.000 C 
BRANCH  14  15
ATOM     15  C   UNL     1      89.282  85.392  78.648  1.00  0.00    -0.000 C 
BRANCH  15  16
ATOM     16  C   UNL     1      88.861  85.060  80.090  1.00  0.00    -0.000 C 
BRANCH  16  17
ATOM     17  C   UNL     1      88.307  83.635  80.240  1.00  0.00    -0.003 C 
ATOM     18  C   UNL     1      89.195  82.793  81.151  1.00  0.00     0.004 C 
ENDBRANCH  16  17
ENDBRANCH  15  16
ENDBRANCH  14  15
ENDBRANCH  13  14
ENDBRANCH  12  13
ENDBRANCH  11  12
ENDBRANCH   1  11
TORSDOF 14
ENDMDL
MODEL 7
REMARK VINA RESULT:    -3.981      1.526      3.545
REMARK INTER + INTRA:          -9.136
REMARK INTER:                  -6.980
REMARK INTRA:                  -2.156
REMARK UNBOUND:                -1.896
REMARK SMILES CCCCCCCCCCCCCCCC(=O)[O-]
REMARK SMILES IDX 9 1 10 2 11 3 12 4 13 5 14 6 15 7 16 8 17 9 18 10 8 11 7 12
REMARK SMILES IDX 6 13 5 14 4 15 3 16 2 17 1 18
REMARK H PARENT
REMARK Flexibility Score: inf
ROOT
ATOM      1  C   UNL     1     100.522  83.492  82.964  1.00  0.00     0.000 C 
ENDROOT
BRANCH   1   2
ATOM      2  C   UNL     1      99.825  82.988  81.688  1.00  0.00     0.000 C 
BRANCH   2   3
ATOM      3  C   UNL     1      98.374  82.508  81.880  1.00  0.00     0.000 C 
BRANCH   3   4
ATOM      4  C   UNL     1      97.521  82.653  80.609  1.00  0.00     0.000 C 
BRANCH   4   5
ATOM      5  C   UNL     1      97.302  84.122  80.210  1.00  0.00     0.000 C 
BRANCH   5   6
ATOM      6  C   UNL     1      95.886  84.622  80.547  1.00  0.00     0.006 C 
BRANCH   6   7
ATOM      7  C   UNL     1      94.931  84.504  79.352  1.00  0.00     0.053 C 
BRANCH   7   8
ATOM      8  C   UNL     1      93.834  83.517  79.611  1.00  0.00     0.041 C 
ATOM      9  O   UNL     1      94.077  82.448  80.229  1.00  0.00    -0.550 OA
ATOM     10  O   UNL     1      92.551  83.762  79.138  1.00  0.00    -0.550 OA
ENDBRANCH   7   8
ENDBRANCH   6   7
ENDBRANCH   5   6
ENDBRANCH   4   5
ENDBRANCH   3   4
ENDBRANCH   2   3
ENDBRANCH   1   2
BRANCH   1  11
ATOM     11  C   UNL     1     101.526  84.622  82.694  1.00  0.00     0.000 C 
BRANCH  11  12
ATOM     12  C   UNL     1     100.946  85.983  83.105  1.00  0.00    -0.000 C 
BRANCH  12  13
ATOM     13  C   UNL     1     100.153  86.653  81.972  1.00  0.00    -0.000 C 
BRANCH  13  14
ATOM     14  C   UNL     1      98.662  86.821  82.314  1.00  0.00    -0.000 C 
BRANCH  14  15
ATOM     15  C   UNL     1      98.333  86.430  83.766  1.00  0.00    -0.000 C 
BRANCH  15  16
ATOM     16  C   UNL     1      97.109  85.512  83.928  1.00  0.00    -0.000 C 
BRANCH  16  17
ATOM     17  C   UNL     1      97.356  84.350  84.901  1.00  0.00    -0.003 C 
ATOM     18  C   UNL     1      96.850  84.688  86.300  1.00  0.00     0.004 C 
ENDBRANCH  16  17
ENDBRANCH  15  16
ENDBRANCH  14  15
ENDBRANCH  13  14
ENDBRANCH  12  13
ENDBRANCH  11  12
ENDBRANCH   1  11
TORSDOF 14
ENDMDL
MODEL 8
REMARK VINA RESULT:    -3.981      3.471      6.939
REMARK INTER + INTRA:          -9.135
REMARK INTER:                  -7.550
REMARK INTRA:                  -1.585
REMARK UNBOUND:                -1.896
REMARK SMILES CCCCCCCCCCCCCCCC(=O)[O-]
REMARK SMILES IDX 9 1 10 2 11 3 12 4 13 5 14 6 15 7 16 8 17 9 18 10 8 11 7 12
REMARK SMILES IDX 6 13 5 14 4 15 3 16 2 17 1 18
REMARK H PARENT
REMARK Flexibility Score: inf
ROOT
ATOM      1  C   UNL     1      96.990  82.931  80.726  1.00  0.00     0.000 C 
ENDROOT
BRANCH   1   2
ATOM      2  C   UNL     1      98.099  82.433  81.669  1.00  0.00     0.000 C 
BRANCH   2   3
ATOM      3  C   UNL     1      99.457  83.142  81.515  1.00  0.00     0.000 C 
BRANCH   3   4
ATOM      4  C   UNL     1      99.820  84.013  82.730  1.00  0.00     0.000 C 
BRANCH   4   5
ATOM      5  C   UNL     1      98.591  84.391  83.573  1.00  0.00     0.000 C 
BRANCH   5   6
ATOM      6  C   UNL     1      98.969  84.925  84.966  1.00  0.00     0.006 C 
BRANCH   6   7
ATOM      7  C   UNL     1     100.487  85.066  85.138  1.00  0.00     0.053 C 
BRANCH   7   8
ATOM      8  C   UNL     1     101.035  84.056  86.100  1.00  0.00     0.041 C 
ATOM      9  O   UNL     1     100.983  82.828  85.826  1.00  0.00    -0.550 OA
ATOM     10  O   UNL     1     101.570  84.468  87.314  1.00  0.00    -0.550 OA
ENDBRANCH   7   8
ENDBRANCH   6   7
ENDBRANCH   5   6
ENDBRANCH   4   5
ENDBRANCH   3   4
ENDBRANCH   2   3
ENDBRANCH   1   2
BRANCH   1  11
ATOM     11  C   UNL     1      97.325  84.273  80.060  1.00  0.00     0.000 C 
BRANCH  11  12
ATOM     12  C   UNL     1      96.536  85.420  80.708  1.00  0.00    -0.000 C 
BRANCH  12  13
ATOM     13  C   UNL     1      95.727  86.233  79.685  1.00  0.00    -0.000 C 
BRANCH  13  14
ATOM     14  C   UNL     1      95.056  85.346  78.622  1.00  0.00    -0.000 C 
BRANCH  14  15
ATOM     15  C   UNL     1      93.641  84.895  79.026  1.00  0.00    -0.000 C 
BRANCH  15  16
ATOM     16  C   UNL     1      93.553  83.467  79.592  1.00  0.00    -0.000 C 
BRANCH  16  17
ATOM     17  C   UNL     1      92.657  83.370  80.836  1.00  0.00    -0.003 C 
ATOM     18  C   UNL     1      93.104  84.352  81.914  1.00  0.00     0.004 C 
ENDBRANCH  16  17
ENDBRANCH  15  16
ENDBRANCH  14  15
ENDBRANCH  13  14
ENDBRANCH  12  13
ENDBRANCH  11  12
ENDBRANCH   1  11
TORSDOF 14
ENDMDL
MODEL 9
REMARK VINA RESULT:    -3.961      3.504      7.338
REMARK INTER + INTRA:          -9.098
REMARK INTER:                  -7.959
REMARK INTRA:                  -1.139
REMARK UNBOUND:                -1.896
REMARK SMILES CCCCCCCCCCCCCCCC(=O)[O-]
REMARK SMILES IDX 9 1 10 2 11 3 12 4 13 5 14 6 15 7 16 8 17 9 18 10 8 11 7 12
REMARK SMILES IDX 6 13 5 14 4 15 3 16 2 17 1 18
REMARK H PARENT
REMARK Flexibility Score: inf
ROOT
ATOM      1  C   UNL     1      96.748  85.298  80.505  1.00  0.00     0.000 C 
ENDROOT
BRANCH   1   2
ATOM      2  C   UNL     1      97.570  84.134  79.922  1.00  0.00     0.000 C 
BRANCH   2   3
ATOM      3  C   UNL     1      97.405  82.787  80.649  1.00  0.00     0.000 C 
BRANCH   3   4
ATOM      4  C   UNL     1      98.091  82.759  82.026  1.00  0.00     0.000 C 
BRANCH   4   5
ATOM      5  C   UNL     1      99.616  82.927  81.928  1.00  0.00     0.000 C 
BRANCH   5   6
ATOM      6  C   UNL     1     100.109  84.244  82.553  1.00  0.00     0.006 C 
BRANCH   6   7
ATOM      7  C   UNL     1      99.614  84.420  83.994  1.00  0.00     0.053 C 
BRANCH   7   8
ATOM      8  C   UNL     1     100.703  84.167  84.992  1.00  0.00     0.041 C 
ATOM      9  O   UNL     1     101.372  85.126  85.456  1.00  0.00    -0.550 OA
ATOM     10  O   UNL     1     101.000  82.867  85.382  1.00  0.00    -0.550 OA
ENDBRANCH   7   8
ENDBRANCH   6   7
ENDBRANCH   5   6
ENDBRANCH   4   5
ENDBRANCH   3   4
ENDBRANCH   2   3
ENDBRANCH   1   2
BRANCH   1  11
ATOM     11  C   UNL     1      95.274  84.934  80.737  1.00  0.00     0.000 C 
BRANCH  11  12
ATOM     12  C   UNL     1      94.570  84.618  79.409  1.00  0.00    -0.000 C 
BRANCH  12  13
ATOM     13  C   UNL     1      93.780  83.300  79.459  1.00  0.00    -0.000 C 
BRANCH  13  14
ATOM     14  C   UNL     1      92.997  83.129  80.772  1.00  0.00    -0.000 C 
BRANCH  14  15
ATOM     15  C   UNL     1      91.634  83.843  80.753  1.00  0.00    -0.000 C 
BRANCH  15  16
ATOM     16  C   UNL     1      90.568  83.227  81.677  1.00  0.00    -0.000 C 
BRANCH  16  17
ATOM     17  C   UNL     1      89.246  82.932  80.953  1.00  0.00    -0.003 C 
ATOM     18  C   UNL     1      89.205  83.607  79.585  1.00  0.00     0.004 C 
ENDBRANCH  16  17
ENDBRANCH  15  16
ENDBRANCH  14  15
ENDBRANCH  13  14
ENDBRANCH  12  13
ENDBRANCH  11  12
ENDBRANCH   1  11
TORSDOF 14
ENDMDL
