MODEL 1
REMARK VINA RESULT:    18.391      0.000      0.000
REMARK INTER + INTRA:          22.379
REMARK INTER:                  21.078
REMARK INTRA:                   1.300
REMARK UNBOUND:                 1.300
REMARK SMILES C=C(C)[C@H]1CC[C@]2(C(=O)[O-])CC[C@@]3(C)[C@H](CC[C@H]4[C@@]5(C)CC[C@@H](O)C(C)(C)[C@H]5CC[C@]43C)[C@@H]12
REMARK SMILES IDX 7 1 6 2 33 3 11 4 5 5 15 6 4 7 12 8 16 9 13 10 17 11 31 12
REMARK SMILES IDX 14 13 18 14 30 15 32 16 19 17 29 18 21 19 20 20 28 21 22 22
REMARK SMILES IDX 25 23 23 24 26 25 27 26 8 27 9 28 10 29 2 30 3 31 1 32 24 33
REMARK H PARENT 24 34
REMARK Flexibility Score: inf
ROOT
ATOM      1  C   UNL     1       7.957 -54.805 577.178  1.00  0.00     0.014 C 
ATOM      2  C   UNL     1       9.117 -54.041 577.849  1.00  0.00     0.014 C 
ATOM      3  C   UNL     1       7.698 -53.872 575.972  1.00  0.00     0.012 C 
ATOM      4  C   UNL     1       8.326 -56.242 576.702  1.00  0.00     0.014 C 
ATOM      5  C   UNL     1       8.751 -52.549 577.728  1.00  0.00     0.009 C 
ATOM      6  C   UNL     1       6.597 -54.392 575.008  1.00  0.00     0.000 C 
ATOM      7  C   UNL     1       7.811 -52.418 576.502  1.00  0.00     0.018 C 
ATOM      8  C   UNL     1       8.231 -56.443 575.174  1.00  0.00     0.008 C 
ATOM      9  C   UNL     1       6.309 -53.403 573.890  1.00  0.00     0.005 C 
ATOM     10  C   UNL     1       6.915 -55.879 574.477  1.00  0.00    -0.024 C 
ATOM     11  C   UNL     1       5.319 -54.012 572.909  1.00  0.00     0.005 C 
ATOM     12  C   UNL     1       7.028 -56.022 572.838  1.00  0.00    -0.024 C 
ATOM     13  C   UNL     1       5.738 -56.775 574.986  1.00  0.00     0.012 C 
ATOM     14  C   UNL     1       5.933 -55.155 572.058  1.00  0.00     0.002 C 
ATOM     15  C   UNL     1       8.420 -55.596 572.297  1.00  0.00     0.008 C 
ATOM     16  C   UNL     1       6.863 -57.547 572.470  1.00  0.00     0.012 C 
ATOM     17  C   UNL     1       6.262 -54.666 570.550  1.00  0.00    -0.026 C 
ATOM     18  C   UNL     1       8.600 -55.693 570.763  1.00  0.00     0.005 C 
ATOM     19  C   UNL     1       6.800 -53.189 570.460  1.00  0.00     0.010 C 
ATOM     20  C   UNL     1       4.892 -54.734 569.802  1.00  0.00     0.012 C 
ATOM     21  C   UNL     1       7.317 -55.602 569.870  1.00  0.00     0.003 C 
ATOM     22  C   UNL     1       7.724 -52.854 569.265  1.00  0.00     0.033 C 
ATOM     23  C   UNL     1       7.654 -55.256 568.335  1.00  0.00    -0.006 C 
ATOM     24  C   UNL     1       7.488 -53.721 568.027  1.00  0.00     0.120 C 
ATOM     25  C   UNL     1       6.709 -56.053 567.391  1.00  0.00     0.014 C 
ATOM     26  C   UNL     1       9.089 -55.729 567.942  1.00  0.00     0.014 C 
ENDROOT
BRANCH   1  27
ATOM     27  C   UNL     1       6.814 -54.930 578.188  1.00  0.00     0.048 C 
ATOM     28  O   UNL     1       6.137 -55.984 578.298  1.00  0.00    -0.550 OA
ATOM     29  O   UNL     1       6.585 -53.907 579.103  1.00  0.00    -0.550 OA
ENDBRANCH   1  27
BRANCH   7  30
ATOM     30  C   UNL     1       6.519 -51.637 576.781  1.00  0.00    -0.077 C 
ATOM     31  C   UNL     1       5.258 -51.997 576.030  1.00  0.00     0.039 C 
ATOM     32  C   UNL     1       6.472 -50.539 577.555  1.00  0.00     0.008 C 
ENDBRANCH   7  30
BRANCH  24  33
ATOM     33  O   UNL     1       8.366 -53.292 567.015  1.00  0.00    -0.393 OA
ATOM     34  H   UNL     1       8.389 -54.007 566.326  1.00  0.00     0.210 HD
ENDBRANCH  24  33
TORSDOF 3
ENDMDL
MODEL 2
REMARK VINA RESULT:    20.315      1.763      3.766
REMARK INTER + INTRA:          24.584
REMARK INTER:                  23.832
REMARK INTRA:                   0.752
REMARK UNBOUND:                 1.300
REMARK SMILES C=C(C)[C@H]1CC[C@]2(C(=O)[O-])CC[C@@]3(C)[C@H](CC[C@H]4[C@@]5(C)CC[C@@H](O)C(C)(C)[C@H]5CC[C@]43C)[C@@H]12
REMARK SMILES IDX 7 1 6 2 33 3 11 4 5 5 15 6 4 7 12 8 16 9 13 10 17 11 31 12
REMARK SMILES IDX 14 13 18 14 30 15 32 16 19 17 29 18 21 19 20 20 28 21 22 22
REMARK SMILES IDX 25 23 23 24 26 25 27 26 8 27 9 28 10 29 2 30 3 31 1 32 24 33
REMARK H PARENT 24 34
REMARK Flexibility Score: inf
ROOT
ATOM      1  C   UNL     1       6.377 -52.769 576.713  1.00  0.00     0.014 C 
ATOM      2  C   UNL     1       5.030 -52.799 577.463  1.00  0.00     0.014 C 
ATOM      3  C   UNL     1       6.273 -54.104 575.940  1.00  0.00     0.012 C 
ATOM      4  C   UNL     1       6.538 -51.568 575.733  1.00  0.00     0.014 C 
ATOM      5  C   UNL     1       4.839 -54.263 577.905  1.00  0.00     0.009 C 
ATOM      6  C   UNL     1       7.475 -54.371 574.993  1.00  0.00     0.000 C 
ATOM      7  C   UNL     1       5.655 -55.138 576.918  1.00  0.00     0.018 C 
ATOM      8  C   UNL     1       6.680 -51.979 574.252  1.00  0.00     0.008 C 
ATOM      9  C   UNL     1       7.377 -55.732 574.324  1.00  0.00     0.005 C 
ATOM     10  C   UNL     1       7.700 -53.164 573.950  1.00  0.00    -0.024 C 
ATOM     11  C   UNL     1       8.507 -55.891 573.318  1.00  0.00     0.005 C 
ATOM     12  C   UNL     1       7.625 -53.596 572.361  1.00  0.00    -0.024 C 
ATOM     13  C   UNL     1       9.125 -52.596 574.257  1.00  0.00     0.012 C 
ATOM     14  C   UNL     1       8.330 -55.000 572.061  1.00  0.00     0.002 C 
ATOM     15  C   UNL     1       6.166 -53.694 571.838  1.00  0.00     0.008 C 
ATOM     16  C   UNL     1       8.318 -52.459 571.515  1.00  0.00     0.012 C 
ATOM     17  C   UNL     1       7.830 -55.861 570.784  1.00  0.00    -0.026 C 
ATOM     18  C   UNL     1       6.014 -54.106 570.354  1.00  0.00     0.005 C 
ATOM     19  C   UNL     1       6.800 -56.997 571.143  1.00  0.00     0.010 C 
ATOM     20  C   UNL     1       9.124 -56.534 570.226  1.00  0.00     0.012 C 
ATOM     21  C   UNL     1       7.169 -54.940 569.705  1.00  0.00     0.003 C 
ATOM     22  C   UNL     1       5.803 -57.411 570.035  1.00  0.00     0.033 C 
ATOM     23  C   UNL     1       6.712 -55.684 568.353  1.00  0.00    -0.006 C 
ATOM     24  C   UNL     1       6.317 -57.185 568.612  1.00  0.00     0.120 C 
ATOM     25  C   UNL     1       7.867 -55.651 567.312  1.00  0.00     0.014 C 
ATOM     26  C   UNL     1       5.534 -54.932 567.655  1.00  0.00     0.014 C 
ENDROOT
BRANCH   1  27
ATOM     27  C   UNL     1       7.502 -52.678 577.746  1.00  0.00     0.048 C 
ATOM     28  O   UNL     1       8.690 -52.431 577.415  1.00  0.00    -0.550 OA
ATOM     29  O   UNL     1       7.202 -52.743 579.103  1.00  0.00    -0.550 OA
ENDBRANCH   1  27
BRANCH   7  30
ATOM     30  C   UNL     1       6.588 -56.149 577.599  1.00  0.00    -0.077 C 
ATOM     31  C   UNL     1       6.474 -56.378 579.089  1.00  0.00     0.039 C 
ATOM     32  C   UNL     1       7.615 -56.745 576.970  1.00  0.00     0.008 C 
ENDBRANCH   7  30
BRANCH  24  33
ATOM     33  O   UNL     1       5.331 -57.630 567.712  1.00  0.00    -0.393 OA
ATOM     34  H   UNL     1       5.742 -58.345 567.158  1.00  0.00     0.210 HD
ENDBRANCH  24  33
TORSDOF 3
ENDMDL
