MODEL 1
REMARK VINA RESULT:    -1.756      0.000      0.000
REMARK INTER + INTRA:          -2.601
REMARK INTER:                  -2.320
REMARK INTRA:                  -0.281
REMARK UNBOUND:                -0.281
REMARK SMILES C=CCC[C@@H](O)CCC
REMARK SMILES IDX 4 1 5 2 7 3 8 4 9 5 6 6 3 8 2 9 1 10
REMARK H PARENT 6 7
REMARK Flexibility Score: inf
ROOT
ATOM      1  C   UNL     1      95.069   7.877  63.233  1.00  0.00     0.036 C 
ENDROOT
BRANCH   1   2
ATOM      2  C   UNL     1      94.175   7.380  62.075  1.00  0.00     0.114 C 
BRANCH   2   3
ATOM      3  C   UNL     1      92.771   8.015  62.158  1.00  0.00     0.031 C 
BRANCH   3   4
ATOM      4  C   UNL     1      92.812   9.523  61.875  1.00  0.00    -0.001 C 
ATOM      5  C   UNL     1      91.409  10.122  61.879  1.00  0.00     0.004 C 
ENDBRANCH   3   4
ENDBRANCH   2   3
BRANCH   2   6
ATOM      6  O   UNL     1      94.084   5.977  62.073  1.00  0.00    -0.393 OA
ATOM      7  H   UNL     1      93.165   5.736  62.361  1.00  0.00     0.210 HD
ENDBRANCH   2   6
ENDBRANCH   1   2
BRANCH   1   8
ATOM      8  C   UNL     1      96.462   8.331  62.762  1.00  0.00     0.029 C 
BRANCH   8   9
ATOM      9  C   UNL     1      96.834   9.696  63.275  1.00  0.00    -0.035 C 
ATOM     10  C   UNL     1      96.880  10.762  62.471  1.00  0.00     0.004 C 
ENDBRANCH   8   9
ENDBRANCH   1   8
TORSDOF 6
ENDMDL
MODEL 2
REMARK VINA RESULT:    -1.752      1.579      4.047
REMARK INTER + INTRA:          -2.597
REMARK INTER:                  -2.544
REMARK INTRA:                  -0.053
REMARK UNBOUND:                -0.281
REMARK SMILES C=CCC[C@@H](O)CCC
REMARK SMILES IDX 4 1 5 2 7 3 8 4 9 5 6 6 3 8 2 9 1 10
REMARK H PARENT 6 7
REMARK Flexibility Score: inf
ROOT
ATOM      1  C   UNL     1      94.708   7.774  63.367  1.00  0.00     0.036 C 
ENDROOT
BRANCH   1   2
ATOM      2  C   UNL     1      95.896   8.757  63.455  1.00  0.00     0.114 C 
BRANCH   2   3
ATOM      3  C   UNL     1      96.164   9.414  62.085  1.00  0.00     0.031 C 
BRANCH   3   4
ATOM      4  C   UNL     1      96.870  10.769  62.234  1.00  0.00    -0.001 C 
ATOM      5  C   UNL     1      97.077  11.125  63.703  1.00  0.00     0.004 C 
ENDBRANCH   3   4
ENDBRANCH   2   3
BRANCH   2   6
ATOM      6  O   UNL     1      97.053   8.112  63.929  1.00  0.00    -0.393 OA
ATOM      7  H   UNL     1      97.080   8.232  64.915  1.00  0.00     0.210 HD
ENDBRANCH   2   6
ENDBRANCH   1   2
BRANCH   1   8
ATOM      8  C   UNL     1      94.152   7.631  61.940  1.00  0.00     0.029 C 
BRANCH   8   9
ATOM      9  C   UNL     1      92.660   7.819  61.875  1.00  0.00    -0.035 C 
ATOM     10  C   UNL     1      92.101   9.032  61.906  1.00  0.00     0.004 C 
ENDBRANCH   8   9
ENDBRANCH   1   8
TORSDOF 6
ENDMDL
MODEL 3
REMARK VINA RESULT:     0.654     17.698     18.240
REMARK INTER + INTRA:           0.583
REMARK INTER:                   0.514
REMARK INTRA:                   0.069
REMARK UNBOUND:                -0.281
REMARK SMILES C=CCC[C@@H](O)CCC
REMARK SMILES IDX 4 1 5 2 7 3 8 4 9 5 6 6 3 8 2 9 1 10
REMARK H PARENT 6 7
REMARK Flexibility Score: inf
ROOT
ATOM      1  C   UNL     1      78.362  -0.186  64.459  1.00  0.00     0.036 C 
ENDROOT
BRANCH   1   2
ATOM      2  C   UNL     1      78.174   1.165  63.733  1.00  0.00     0.114 C 
BRANCH   2   3
ATOM      3  C   UNL     1      76.915   1.136  62.842  1.00  0.00     0.031 C 
BRANCH   3   4
ATOM      4  C   UNL     1      76.875   2.327  61.876  1.00  0.00    -0.001 C 
ATOM      5  C   UNL     1      77.058   3.647  62.620  1.00  0.00     0.004 C 
ENDBRANCH   3   4
ENDBRANCH   2   3
BRANCH   2   6
ATOM      6  O   UNL     1      79.311   1.492  62.972  1.00  0.00    -0.393 OA
ATOM      7  H   UNL     1      79.040   2.180  62.309  1.00  0.00     0.210 HD
ENDBRANCH   2   6
ENDBRANCH   1   2
BRANCH   1   8
ATOM      8  C   UNL     1      79.510  -0.161  65.483  1.00  0.00     0.029 C 
BRANCH   8   9
ATOM      9  C   UNL     1      79.179  -0.910  66.747  1.00  0.00    -0.035 C 
ATOM     10  C   UNL     1      80.128  -1.461  67.508  1.00  0.00     0.004 C 
ENDBRANCH   8   9
ENDBRANCH   1   8
TORSDOF 6
ENDMDL
