MODEL 1
REMARK VINA RESULT:    -4.864      0.000      0.000
REMARK INTER + INTRA:          -5.609
REMARK INTER:                  -5.433
REMARK INTRA:                  -0.176
REMARK UNBOUND:                -0.176
REMARK SMILES O=C([O-])c1ccccc1C(=O)[O-]
REMARK SMILES IDX 4 1 9 2 5 3 8 4 6 5 7 6 2 7 1 8 3 9 10 10 11 11 12 12
REMARK H PARENT
REMARK Flexibility Score: inf
ROOT
ATOM      1  C   UNL     1      35.748  18.749  10.433  1.00  0.00     0.006 A 
ATOM      2  C   UNL     1      37.087  18.279  10.534  1.00  0.00     0.006 A 
ATOM      3  C   UNL     1      35.296  19.267   9.206  1.00  0.00     0.010 A 
ATOM      4  C   UNL     1      37.942  18.405   9.424  1.00  0.00     0.010 A 
ATOM      5  C   UNL     1      36.154  19.362   8.111  1.00  0.00     0.001 A 
ATOM      6  C   UNL     1      37.479  18.944   8.223  1.00  0.00     0.001 A 
ENDROOT
BRANCH   1   7
ATOM      7  C   UNL     1      34.818  18.783  11.585  1.00  0.00     0.072 C 
ATOM      8  O   UNL     1      34.513  19.873  12.137  1.00  0.00    -0.545 OA
ATOM      9  O   UNL     1      34.215  17.610  12.029  1.00  0.00    -0.545 OA
ENDBRANCH   1   7
BRANCH   2  10
ATOM     10  C   UNL     1      37.606  17.593  11.740  1.00  0.00     0.072 C 
ATOM     11  O   UNL     1      37.374  16.368  11.922  1.00  0.00    -0.545 OA
ATOM     12  O   UNL     1      38.297  18.301  12.716  1.00  0.00    -0.545 OA
ENDBRANCH   2  10
TORSDOF 2
ENDMDL
MODEL 2
REMARK VINA RESULT:    -4.853      0.075      3.140
REMARK INTER + INTRA:          -5.597
REMARK INTER:                  -5.433
REMARK INTRA:                  -0.164
REMARK UNBOUND:                -0.176
REMARK SMILES O=C([O-])c1ccccc1C(=O)[O-]
REMARK SMILES IDX 4 1 9 2 5 3 8 4 6 5 7 6 2 7 1 8 3 9 10 10 11 11 12 12
REMARK H PARENT
REMARK Flexibility Score: inf
ROOT
ATOM      1  C   UNL     1      37.095  18.232  10.530  1.00  0.00     0.006 A 
ATOM      2  C   UNL     1      35.769  18.731  10.403  1.00  0.00     0.006 A 
ATOM      3  C   UNL     1      37.971  18.332   9.434  1.00  0.00     0.010 A 
ATOM      4  C   UNL     1      35.348  19.251   9.165  1.00  0.00     0.010 A 
ATOM      5  C   UNL     1      37.540  18.872   8.222  1.00  0.00     0.001 A 
ATOM      6  C   UNL     1      36.227  19.319   8.084  1.00  0.00     0.001 A 
ENDROOT
BRANCH   1   7
ATOM      7  C   UNL     1      37.583  17.545  11.748  1.00  0.00     0.072 C 
ATOM      8  O   UNL     1      37.331  16.327  11.946  1.00  0.00    -0.545 OA
ATOM      9  O   UNL     1      38.387  18.224  12.657  1.00  0.00    -0.545 OA
ENDBRANCH   1   7
BRANCH   2  10
ATOM     10  C   UNL     1      34.824  18.795  11.542  1.00  0.00     0.072 C 
ATOM     11  O   UNL     1      34.605  19.890  12.124  1.00  0.00    -0.545 OA
ATOM     12  O   UNL     1      34.220  17.641  12.027  1.00  0.00    -0.545 OA
ENDBRANCH   2  10
TORSDOF 2
ENDMDL
MODEL 3
REMARK VINA RESULT:    -4.822      1.671      3.473
REMARK INTER + INTRA:          -5.562
REMARK INTER:                  -5.363
REMARK INTRA:                  -0.199
REMARK UNBOUND:                -0.176
REMARK SMILES O=C([O-])c1ccccc1C(=O)[O-]
REMARK SMILES IDX 4 1 9 2 5 3 8 4 6 5 7 6 2 7 1 8 3 9 10 10 11 11 12 12
REMARK H PARENT
REMARK Flexibility Score: inf
ROOT
ATOM      1  C   UNL     1      38.088  18.511   9.419  1.00  0.00     0.006 A 
ATOM      2  C   UNL     1      37.227  18.188  10.505  1.00  0.00     0.006 A 
ATOM      3  C   UNL     1      37.586  19.283   8.355  1.00  0.00     0.010 A 
ATOM      4  C   UNL     1      35.880  18.592  10.455  1.00  0.00     0.010 A 
ATOM      5  C   UNL     1      36.253  19.692   8.337  1.00  0.00     0.001 A 
ATOM      6  C   UNL     1      35.398  19.337   9.378  1.00  0.00     0.001 A 
ENDROOT
BRANCH   1   7
ATOM      7  C   UNL     1      39.479  18.014   9.319  1.00  0.00     0.072 C 
ATOM      8  O   UNL     1      39.754  16.999   8.626  1.00  0.00    -0.545 OA
ATOM      9  O   UNL     1      40.514  18.708   9.939  1.00  0.00    -0.545 OA
ENDBRANCH   1   7
BRANCH   2  10
ATOM     10  C   UNL     1      37.704  17.501  11.727  1.00  0.00     0.072 C 
ATOM     11  O   UNL     1      37.345  16.319  11.972  1.00  0.00    -0.545 OA
ATOM     12  O   UNL     1      38.497  18.170  12.653  1.00  0.00    -0.545 OA
ENDBRANCH   2  10
TORSDOF 2
ENDMDL
MODEL 4
REMARK VINA RESULT:    -4.771      1.580      2.544
REMARK INTER + INTRA:          -5.505
REMARK INTER:                  -5.318
REMARK INTRA:                  -0.186
REMARK UNBOUND:                -0.176
REMARK SMILES O=C([O-])c1ccccc1C(=O)[O-]
REMARK SMILES IDX 4 1 9 2 5 3 8 4 6 5 7 6 2 7 1 8 3 9 10 10 11 11 12 12
REMARK H PARENT
REMARK Flexibility Score: inf
ROOT
ATOM      1  C   UNL     1      35.351  18.858  11.507  1.00  0.00     0.006 A 
ATOM      2  C   UNL     1      36.021  18.721  10.259  1.00  0.00     0.006 A 
ATOM      3  C   UNL     1      34.238  19.714  11.595  1.00  0.00     0.010 A 
ATOM      4  C   UNL     1      35.594  19.495   9.164  1.00  0.00     0.010 A 
ATOM      5  C   UNL     1      33.818  20.455  10.490  1.00  0.00     0.001 A 
ATOM      6  C   UNL     1      34.502  20.355   9.280  1.00  0.00     0.001 A 
ENDROOT
BRANCH   1   7
ATOM      7  C   UNL     1      35.812  18.191  12.746  1.00  0.00     0.072 C 
ATOM      8  O   UNL     1      35.220  17.171  13.188  1.00  0.00    -0.545 OA
ATOM      9  O   UNL     1      36.951  18.647  13.401  1.00  0.00    -0.545 OA
ENDBRANCH   1   7
BRANCH   2  10
ATOM     10  C   UNL     1      37.111  17.742  10.039  1.00  0.00     0.072 C 
ATOM     11  O   UNL     1      36.851  16.512   9.954  1.00  0.00    -0.545 OA
ATOM     12  O   UNL     1      38.437  18.156   9.990  1.00  0.00    -0.545 OA
ENDBRANCH   2  10
TORSDOF 2
ENDMDL
MODEL 5
REMARK VINA RESULT:    -4.767      1.629      3.056
REMARK INTER + INTRA:          -5.501
REMARK INTER:                  -5.374
REMARK INTRA:                  -0.127
REMARK UNBOUND:                -0.176
REMARK SMILES O=C([O-])c1ccccc1C(=O)[O-]
REMARK SMILES IDX 4 1 9 2 5 3 8 4 6 5 7 6 2 7 1 8 3 9 10 10 11 11 12 12
REMARK H PARENT
REMARK Flexibility Score: inf
ROOT
ATOM      1  C   UNL     1      35.855  18.889  10.267  1.00  0.00     0.006 A 
ATOM      2  C   UNL     1      35.261  18.966  11.557  1.00  0.00     0.006 A 
ATOM      3  C   UNL     1      35.360  19.709   9.236  1.00  0.00     0.010 A 
ATOM      4  C   UNL     1      34.151  19.810  11.751  1.00  0.00     0.010 A 
ATOM      5  C   UNL     1      34.274  20.556   9.457  1.00  0.00     0.001 A 
ATOM      6  C   UNL     1      33.663  20.597  10.708  1.00  0.00     0.001 A 
ENDROOT
BRANCH   1   7
ATOM      7  C   UNL     1      36.935  17.932   9.933  1.00  0.00     0.072 C 
ATOM      8  O   UNL     1      38.078  18.340   9.596  1.00  0.00    -0.545 OA
ATOM      9  O   UNL     1      36.716  16.564  10.055  1.00  0.00    -0.545 OA
ENDBRANCH   1   7
BRANCH   2  10
ATOM     10  C   UNL     1      35.802  18.245  12.732  1.00  0.00     0.072 C 
ATOM     11  O   UNL     1      35.188  17.253  13.207  1.00  0.00    -0.545 OA
ATOM     12  O   UNL     1      36.956  18.691  13.367  1.00  0.00    -0.545 OA
ENDBRANCH   2  10
TORSDOF 2
ENDMDL
MODEL 6
REMARK VINA RESULT:    -4.736      2.427      3.436
REMARK INTER + INTRA:          -5.466
REMARK INTER:                  -5.365
REMARK INTRA:                  -0.101
REMARK UNBOUND:                -0.176
REMARK SMILES O=C([O-])c1ccccc1C(=O)[O-]
REMARK SMILES IDX 4 1 9 2 5 3 8 4 6 5 7 6 2 7 1 8 3 9 10 10 11 11 12 12
REMARK H PARENT
REMARK Flexibility Score: inf
ROOT
ATOM      1  C   UNL     1      35.319  19.511   9.416  1.00  0.00     0.006 A 
ATOM      2  C   UNL     1      35.647  18.752  10.574  1.00  0.00     0.006 A 
ATOM      3  C   UNL     1      34.361  20.537   9.520  1.00  0.00     0.010 A 
ATOM      4  C   UNL     1      34.958  19.003  11.775  1.00  0.00     0.010 A 
ATOM      5  C   UNL     1      33.707  20.783  10.727  1.00  0.00     0.001 A 
ATOM      6  C   UNL     1      33.996  20.010  11.849  1.00  0.00     0.001 A 
ENDROOT
BRANCH   1   7
ATOM      7  C   UNL     1      35.890  19.228   8.080  1.00  0.00     0.072 C 
ATOM      8  O   UNL     1      35.152  18.865   7.126  1.00  0.00    -0.545 OA
ATOM      9  O   UNL     1      37.247  19.427   7.845  1.00  0.00    -0.545 OA
ENDBRANCH   1   7
BRANCH   2  10
ATOM     10  C   UNL     1      36.738  17.750  10.592  1.00  0.00     0.072 C 
ATOM     11  O   UNL     1      36.475  16.524  10.462  1.00  0.00    -0.545 OA
ATOM     12  O   UNL     1      38.053  18.137  10.818  1.00  0.00    -0.545 OA
ENDBRANCH   2  10
TORSDOF 2
ENDMDL
MODEL 7
REMARK VINA RESULT:    -4.734      2.454      4.137
REMARK INTER + INTRA:          -5.463
REMARK INTER:                  -5.348
REMARK INTRA:                  -0.116
REMARK UNBOUND:                -0.176
REMARK SMILES O=C([O-])c1ccccc1C(=O)[O-]
REMARK SMILES IDX 4 1 9 2 5 3 8 4 6 5 7 6 2 7 1 8 3 9 10 10 11 11 12 12
REMARK H PARENT
REMARK Flexibility Score: inf
ROOT
ATOM      1  C   UNL     1      35.595  18.810  10.535  1.00  0.00     0.006 A 
ATOM      2  C   UNL     1      35.248  19.568   9.382  1.00  0.00     0.006 A 
ATOM      3  C   UNL     1      34.922  19.060  11.745  1.00  0.00     0.010 A 
ATOM      4  C   UNL     1      34.288  20.591   9.497  1.00  0.00     0.010 A 
ATOM      5  C   UNL     1      33.958  20.064  11.832  1.00  0.00     0.001 A 
ATOM      6  C   UNL     1      33.650  20.837  10.714  1.00  0.00     0.001 A 
ENDROOT
BRANCH   1   7
ATOM      7  C   UNL     1      36.687  17.810  10.542  1.00  0.00     0.072 C 
ATOM      8  O   UNL     1      36.440  16.584  10.388  1.00  0.00    -0.545 OA
ATOM      9  O   UNL     1      38.010  18.223  10.653  1.00  0.00    -0.545 OA
ENDBRANCH   1   7
BRANCH   2  10
ATOM     10  C   UNL     1      35.802  19.281   8.038  1.00  0.00     0.072 C 
ATOM     11  O   UNL     1      37.002  19.560   7.774  1.00  0.00    -0.545 OA
ATOM     12  O   UNL     1      34.994  18.764   7.033  1.00  0.00    -0.545 OA
ENDBRANCH   2  10
TORSDOF 2
ENDMDL
MODEL 8
REMARK VINA RESULT:    -4.688      7.191      8.401
REMARK INTER + INTRA:          -5.412
REMARK INTER:                  -5.180
REMARK INTRA:                  -0.231
REMARK UNBOUND:                -0.176
REMARK SMILES O=C([O-])c1ccccc1C(=O)[O-]
REMARK SMILES IDX 4 1 9 2 5 3 8 4 6 5 7 6 2 7 1 8 3 9 10 10 11 11 12 12
REMARK H PARENT
REMARK Flexibility Score: inf
ROOT
ATOM      1  C   UNL     1      31.399  14.658  14.763  1.00  0.00     0.006 A 
ATOM      2  C   UNL     1      31.681  13.278  14.960  1.00  0.00     0.006 A 
ATOM      3  C   UNL     1      32.457  15.585  14.800  1.00  0.00     0.010 A 
ATOM      4  C   UNL     1      33.000  12.883  15.252  1.00  0.00     0.010 A 
ATOM      5  C   UNL     1      33.761  15.169  15.069  1.00  0.00     0.001 A 
ATOM      6  C   UNL     1      34.031  13.822  15.306  1.00  0.00     0.001 A 
ENDROOT
BRANCH   1   7
ATOM      7  C   UNL     1      30.025  15.182  14.588  1.00  0.00     0.072 C 
ATOM      8  O   UNL     1      29.565  15.417  13.439  1.00  0.00    -0.545 OA
ATOM      9  O   UNL     1      29.199  15.357  15.693  1.00  0.00    -0.545 OA
ENDBRANCH   1   7
BRANCH   2  10
ATOM     10  C   UNL     1      30.656  12.220  14.801  1.00  0.00     0.072 C 
ATOM     11  O   UNL     1      30.396  11.755  13.660  1.00  0.00    -0.545 OA
ATOM     12  O   UNL     1      29.922  11.774  15.894  1.00  0.00    -0.545 OA
ENDBRANCH   2  10
TORSDOF 2
ENDMDL
MODEL 9
REMARK VINA RESULT:    -4.668      7.065      8.566
REMARK INTER + INTRA:          -5.389
REMARK INTER:                  -5.173
REMARK INTRA:                  -0.216
REMARK UNBOUND:                -0.176
REMARK SMILES O=C([O-])c1ccccc1C(=O)[O-]
REMARK SMILES IDX 4 1 9 2 5 3 8 4 6 5 7 6 2 7 1 8 3 9 10 10 11 11 12 12
REMARK H PARENT
REMARK Flexibility Score: inf
ROOT
ATOM      1  C   UNL     1      31.814  13.356  14.969  1.00  0.00     0.006 A 
ATOM      2  C   UNL     1      31.482  14.718  14.727  1.00  0.00     0.006 A 
ATOM      3  C   UNL     1      33.146  13.021  15.273  1.00  0.00     0.010 A 
ATOM      4  C   UNL     1      32.505  15.684  14.733  1.00  0.00     0.010 A 
ATOM      5  C   UNL     1      34.141  13.998  15.296  1.00  0.00     0.001 A 
ATOM      6  C   UNL     1      33.823  15.326  15.015  1.00  0.00     0.001 A 
ENDROOT
BRANCH   1   7
ATOM      7  C   UNL     1      30.832  12.254  14.849  1.00  0.00     0.072 C 
ATOM      8  O   UNL     1      30.587  11.726  13.732  1.00  0.00    -0.545 OA
ATOM      9  O   UNL     1      30.217  11.741  15.987  1.00  0.00    -0.545 OA
ENDBRANCH   1   7
BRANCH   2  10
ATOM     10  C   UNL     1      30.087  15.180  14.538  1.00  0.00     0.072 C 
ATOM     11  O   UNL     1      29.661  15.453  13.384  1.00  0.00    -0.545 OA
ATOM     12  O   UNL     1      29.252  15.383  15.630  1.00  0.00    -0.545 OA
ENDBRANCH   2  10
TORSDOF 2
ENDMDL
