MODEL 1
REMARK VINA RESULT:    -4.325      0.000      0.000
REMARK INTER + INTRA:          -6.334
REMARK INTER:                  -6.095
REMARK INTRA:                  -0.239
REMARK UNBOUND:                -0.239
REMARK SMILES C=CCCCCCCC(=O)[O-]
REMARK SMILES IDX 6 1 7 2 8 3 9 4 10 5 11 6 5 7 4 8 3 9 2 10 1 11
REMARK H PARENT
REMARK Flexibility Score: inf
ROOT
ATOM      1  C   UNL     1      14.362  13.874  37.465  1.00  0.00     0.000 C 
ENDROOT
BRANCH   1   2
ATOM      2  C   UNL     1      14.922  12.525  36.987  1.00  0.00     0.006 C 
BRANCH   2   3
ATOM      3  C   UNL     1      13.850  11.657  36.316  1.00  0.00     0.053 C 
BRANCH   3   4
ATOM      4  C   UNL     1      13.965  11.685  34.822  1.00  0.00     0.041 C 
ATOM      5  O   UNL     1      13.457  10.766  34.129  1.00  0.00    -0.550 OA
ATOM      6  O   UNL     1      14.665  12.711  34.200  1.00  0.00    -0.550 OA
ENDBRANCH   3   4
ENDBRANCH   2   3
ENDBRANCH   1   2
BRANCH   1   7
ATOM      7  C   UNL     1      14.680  14.105  38.947  1.00  0.00     0.000 C 
BRANCH   7   8
ATOM      8  C   UNL     1      15.970  13.375  39.354  1.00  0.00     0.004 C 
BRANCH   8   9
ATOM      9  C   UNL     1      16.476  13.818  40.735  1.00  0.00     0.027 C 
BRANCH   9  10
ATOM     10  C   UNL     1      17.689  13.045  41.176  1.00  0.00    -0.035 C 
ATOM     11  C   UNL     1      18.600  13.574  41.999  1.00  0.00     0.004 C 
ENDBRANCH   9  10
ENDBRANCH   8   9
ENDBRANCH   7   8
ENDBRANCH   1   7
TORSDOF 7
ENDMDL
MODEL 2
REMARK VINA RESULT:    -4.208      1.488      2.315
REMARK INTER + INTRA:          -6.169
REMARK INTER:                  -5.882
REMARK INTRA:                  -0.287
REMARK UNBOUND:                -0.239
REMARK SMILES C=CCCCCCCC(=O)[O-]
REMARK SMILES IDX 6 1 7 2 8 3 9 4 10 5 11 6 5 7 4 8 3 9 2 10 1 11
REMARK H PARENT
REMARK Flexibility Score: inf
ROOT
ATOM      1  C   UNL     1      13.710  11.619  36.680  1.00  0.00     0.000 C 
ENDROOT
BRANCH   1   2
ATOM      2  C   UNL     1      14.408  11.538  35.314  1.00  0.00     0.006 C 
BRANCH   2   3
ATOM      3  C   UNL     1      13.453  11.849  34.155  1.00  0.00     0.053 C 
BRANCH   3   4
ATOM      4  C   UNL     1      13.290  13.325  33.950  1.00  0.00     0.041 C 
ATOM      5  O   UNL     1      14.289  14.088  34.011  1.00  0.00    -0.550 OA
ATOM      6  O   UNL     1      12.028  13.860  33.725  1.00  0.00    -0.550 OA
ENDBRANCH   3   4
ENDBRANCH   2   3
ENDBRANCH   1   2
BRANCH   1   7
ATOM      7  C   UNL     1      14.051  12.933  37.393  1.00  0.00     0.000 C 
BRANCH   7   8
ATOM      8  C   UNL     1      15.546  13.001  37.738  1.00  0.00     0.004 C 
BRANCH   8   9
ATOM      9  C   UNL     1      15.861  14.124  38.737  1.00  0.00     0.027 C 
BRANCH   9  10
ATOM     10  C   UNL     1      15.978  13.619  40.150  1.00  0.00    -0.035 C 
ATOM     11  C   UNL     1      16.975  14.002  40.954  1.00  0.00     0.004 C 
ENDBRANCH   9  10
ENDBRANCH   8   9
ENDBRANCH   7   8
ENDBRANCH   1   7
TORSDOF 7
ENDMDL
MODEL 3
REMARK VINA RESULT:    -3.979      1.004      1.356
REMARK INTER + INTRA:          -5.847
REMARK INTER:                  -5.581
REMARK INTRA:                  -0.266
REMARK UNBOUND:                -0.239
REMARK SMILES C=CCCCCCCC(=O)[O-]
REMARK SMILES IDX 6 1 7 2 8 3 9 4 10 5 11 6 5 7 4 8 3 9 2 10 1 11
REMARK H PARENT
REMARK Flexibility Score: inf
ROOT
ATOM      1  C   UNL     1      15.442  13.427  38.116  1.00  0.00     0.000 C 
ENDROOT
BRANCH   1   2
ATOM      2  C   UNL     1      14.939  13.848  36.727  1.00  0.00     0.006 C 
BRANCH   2   3
ATOM      3  C   UNL     1      13.797  12.955  36.227  1.00  0.00     0.053 C 
BRANCH   3   4
ATOM      4  C   UNL     1      14.291  11.885  35.302  1.00  0.00     0.041 C 
ATOM      5  O   UNL     1      14.731  12.185  34.161  1.00  0.00    -0.550 OA
ATOM      6  O   UNL     1      14.235  10.552  35.688  1.00  0.00    -0.550 OA
ENDBRANCH   3   4
ENDBRANCH   2   3
ENDBRANCH   1   2
BRANCH   1   7
ATOM      7  C   UNL     1      14.642  14.124  39.223  1.00  0.00     0.000 C 
BRANCH   7   8
ATOM      8  C   UNL     1      15.397  14.079  40.560  1.00  0.00     0.004 C 
BRANCH   8   9
ATOM      9  C   UNL     1      16.854  13.623  40.388  1.00  0.00     0.027 C 
BRANCH   9  10
ATOM     10  C   UNL     1      17.708  13.967  41.578  1.00  0.00    -0.035 C 
ATOM     11  C   UNL     1      18.692  13.164  41.995  1.00  0.00     0.004 C 
ENDBRANCH   9  10
ENDBRANCH   8   9
ENDBRANCH   7   8
ENDBRANCH   1   7
TORSDOF 7
ENDMDL
MODEL 4
REMARK VINA RESULT:    -3.970      3.398      6.268
REMARK INTER + INTRA:          -5.833
REMARK INTER:                  -5.572
REMARK INTRA:                  -0.261
REMARK UNBOUND:                -0.239
REMARK SMILES C=CCCCCCCC(=O)[O-]
REMARK SMILES IDX 6 1 7 2 8 3 9 4 10 5 11 6 5 7 4 8 3 9 2 10 1 11
REMARK H PARENT
REMARK Flexibility Score: inf
ROOT
ATOM      1  C   UNL     1      14.402  13.690  36.988  1.00  0.00     0.000 C 
ENDROOT
BRANCH   1   2
ATOM      2  C   UNL     1      14.679  14.030  38.461  1.00  0.00     0.006 C 
BRANCH   2   3
ATOM      3  C   UNL     1      16.026  13.475  38.941  1.00  0.00     0.053 C 
BRANCH   3   4
ATOM      4  C   UNL     1      16.158  13.551  40.432  1.00  0.00     0.041 C 
ATOM      5  O   UNL     1      15.266  14.112  41.121  1.00  0.00    -0.550 OA
ATOM      6  O   UNL     1      17.285  13.032  41.056  1.00  0.00    -0.550 OA
ENDBRANCH   3   4
ENDBRANCH   2   3
ENDBRANCH   1   2
BRANCH   1   7
ATOM      7  C   UNL     1      14.706  12.215  36.700  1.00  0.00     0.000 C 
BRANCH   7   8
ATOM      8  C   UNL     1      13.647  11.606  35.768  1.00  0.00     0.004 C 
BRANCH   8   9
ATOM      9  C   UNL     1      14.110  11.578  34.304  1.00  0.00     0.027 C 
BRANCH   9  10
ATOM     10  C   UNL     1      14.002  12.925  33.641  1.00  0.00    -0.035 C 
ATOM     11  C   UNL     1      12.856  13.613  33.629  1.00  0.00     0.004 C 
ENDBRANCH   9  10
ENDBRANCH   8   9
ENDBRANCH   7   8
ENDBRANCH   1   7
TORSDOF 7
ENDMDL
MODEL 5
REMARK VINA RESULT:    -3.876      3.594      6.226
REMARK INTER + INTRA:          -5.701
REMARK INTER:                  -5.418
REMARK INTRA:                  -0.283
REMARK UNBOUND:                -0.239
REMARK SMILES C=CCCCCCCC(=O)[O-]
REMARK SMILES IDX 6 1 7 2 8 3 9 4 10 5 11 6 5 7 4 8 3 9 2 10 1 11
REMARK H PARENT
REMARK Flexibility Score: inf
ROOT
ATOM      1  C   UNL     1      14.756  14.076  38.866  1.00  0.00     0.000 C 
ENDROOT
BRANCH   1   2
ATOM      2  C   UNL     1      16.088  13.470  39.334  1.00  0.00     0.006 C 
BRANCH   2   3
ATOM      3  C   UNL     1      16.273  13.577  40.853  1.00  0.00     0.053 C 
BRANCH   3   4
ATOM      4  C   UNL     1      17.650  13.164  41.275  1.00  0.00     0.041 C 
ATOM      5  O   UNL     1      17.911  11.952  41.492  1.00  0.00    -0.550 OA
ATOM      6  O   UNL     1      18.636  14.125  41.463  1.00  0.00    -0.550 OA
ENDBRANCH   3   4
ENDBRANCH   2   3
ENDBRANCH   1   2
BRANCH   1   7
ATOM      7  C   UNL     1      14.534  13.825  37.370  1.00  0.00     0.000 C 
BRANCH   7   8
ATOM      8  C   UNL     1      14.991  12.412  36.975  1.00  0.00     0.004 C 
BRANCH   8   9
ATOM      9  C   UNL     1      13.818  11.525  36.534  1.00  0.00     0.027 C 
BRANCH   9  10
ATOM     10  C   UNL     1      13.376  11.815  35.125  1.00  0.00    -0.035 C 
ATOM     11  C   UNL     1      14.181  11.607  34.078  1.00  0.00     0.004 C 
ENDBRANCH   9  10
ENDBRANCH   8   9
ENDBRANCH   7   8
ENDBRANCH   1   7
TORSDOF 7
ENDMDL
MODEL 6
REMARK VINA RESULT:    -3.274      3.931      6.605
REMARK INTER + INTRA:          -4.853
REMARK INTER:                  -4.637
REMARK INTRA:                  -0.216
REMARK UNBOUND:                -0.239
REMARK SMILES C=CCCCCCCC(=O)[O-]
REMARK SMILES IDX 6 1 7 2 8 3 9 4 10 5 11 6 5 7 4 8 3 9 2 10 1 11
REMARK H PARENT
REMARK Flexibility Score: inf
ROOT
ATOM      1  C   UNL     1      15.864  13.187  39.406  1.00  0.00     0.000 C 
ENDROOT
BRANCH   1   2
ATOM      2  C   UNL     1      16.097  13.684  40.841  1.00  0.00     0.006 C 
BRANCH   2   3
ATOM      3  C   UNL     1      17.549  14.118  41.077  1.00  0.00     0.053 C 
BRANCH   3   4
ATOM      4  C   UNL     1      18.280  13.153  41.961  1.00  0.00     0.041 C 
ATOM      5  O   UNL     1      19.138  13.570  42.782  1.00  0.00    -0.550 OA
ATOM      6  O   UNL     1      18.037  11.790  41.853  1.00  0.00    -0.550 OA
ENDBRANCH   3   4
ENDBRANCH   2   3
ENDBRANCH   1   2
BRANCH   1   7
ATOM      7  C   UNL     1      14.825  14.055  38.686  1.00  0.00     0.000 C 
BRANCH   7   8
ATOM      8  C   UNL     1      14.977  13.945  37.161  1.00  0.00     0.004 C 
BRANCH   8   9
ATOM      9  C   UNL     1      13.939  12.998  36.542  1.00  0.00     0.027 C 
BRANCH   9  10
ATOM     10  C   UNL     1      14.551  12.042  35.554  1.00  0.00    -0.035 C 
ATOM     11  C   UNL     1      13.858  11.562  34.517  1.00  0.00     0.004 C 
ENDBRANCH   9  10
ENDBRANCH   8   9
ENDBRANCH   7   8
ENDBRANCH   1   7
TORSDOF 7
ENDMDL
