MODEL 1
REMARK VINA RESULT:    -4.620      0.000      0.000
REMARK INTER + INTRA:         -10.000
REMARK INTER:                  -8.131
REMARK INTRA:                  -1.870
REMARK UNBOUND:                -1.870
REMARK SMILES CCCCCCCCCCCCCCC(=O)[O-]
REMARK SMILES IDX 9 1 10 2 11 3 12 4 13 5 14 6 15 7 16 8 17 9 8 10 7 11 6 12
REMARK SMILES IDX 5 13 4 14 3 15 2 16 1 17
REMARK H PARENT
REMARK Flexibility Score: inf
ROOT
ATOM      1  C   UNL     1      19.711  19.949  37.426  1.00  0.00     0.000 C 
ENDROOT
BRANCH   1   2
ATOM      2  C   UNL     1      18.187  19.874  37.610  1.00  0.00     0.000 C 
BRANCH   2   3
ATOM      3  C   UNL     1      17.482  19.153  36.448  1.00  0.00     0.000 C 
BRANCH   3   4
ATOM      4  C   UNL     1      17.740  17.631  36.416  1.00  0.00     0.000 C 
BRANCH   4   5
ATOM      5  C   UNL     1      16.527  16.851  35.878  1.00  0.00     0.006 C 
BRANCH   5   6
ATOM      6  C   UNL     1      16.342  15.503  36.587  1.00  0.00     0.053 C 
BRANCH   6   7
ATOM      7  C   UNL     1      15.233  15.553  37.593  1.00  0.00     0.041 C 
ATOM      8  O   UNL     1      15.085  14.614  38.420  1.00  0.00    -0.550 OA
ATOM      9  O   UNL     1      14.385  16.651  37.639  1.00  0.00    -0.550 OA
ENDBRANCH   6   7
ENDBRANCH   5   6
ENDBRANCH   4   5
ENDBRANCH   3   4
ENDBRANCH   2   3
ENDBRANCH   1   2
BRANCH   1  10
ATOM     10  C   UNL     1      20.127  20.363  36.001  1.00  0.00     0.000 C 
BRANCH  10  11
ATOM     11  C   UNL     1      21.048  19.368  35.271  1.00  0.00    -0.000 C 
BRANCH  11  12
ATOM     12  C   UNL     1      20.448  18.847  33.953  1.00  0.00    -0.000 C 
BRANCH  12  13
ATOM     13  C   UNL     1      19.318  19.755  33.419  1.00  0.00    -0.000 C 
BRANCH  13  14
ATOM     14  C   UNL     1      18.519  19.134  32.256  1.00  0.00    -0.000 C 
BRANCH  14  15
ATOM     15  C   UNL     1      17.142  18.562  32.642  1.00  0.00    -0.000 C 
BRANCH  15  16
ATOM     16  C   UNL     1      16.903  17.104  32.212  1.00  0.00    -0.003 C 
ATOM     17  C   UNL     1      18.071  16.182  32.561  1.00  0.00     0.004 C 
ENDBRANCH  15  16
ENDBRANCH  14  15
ENDBRANCH  13  14
ENDBRANCH  12  13
ENDBRANCH  11  12
ENDBRANCH  10  11
ENDBRANCH   1  10
TORSDOF 13
ENDMDL
MODEL 2
REMARK VINA RESULT:    -4.434      2.083      3.799
REMARK INTER + INTRA:          -9.673
REMARK INTER:                  -8.052
REMARK INTRA:                  -1.621
REMARK UNBOUND:                -1.870
REMARK SMILES CCCCCCCCCCCCCCC(=O)[O-]
REMARK SMILES IDX 9 1 10 2 11 3 12 4 13 5 14 6 15 7 16 8 17 9 8 10 7 11 6 12
REMARK SMILES IDX 5 13 4 14 3 15 2 16 1 17
REMARK H PARENT
REMARK Flexibility Score: inf
ROOT
ATOM      1  C   UNL     1      18.661  19.381  32.832  1.00  0.00     0.000 C 
ENDROOT
BRANCH   1   2
ATOM      2  C   UNL     1      19.881  19.465  33.763  1.00  0.00     0.000 C 
BRANCH   2   3
ATOM      3  C   UNL     1      19.510  19.892  35.194  1.00  0.00     0.000 C 
BRANCH   3   4
ATOM      4  C   UNL     1      18.005  19.759  35.510  1.00  0.00     0.000 C 
BRANCH   4   5
ATOM      5  C   UNL     1      17.746  18.830  36.708  1.00  0.00     0.006 C 
BRANCH   5   6
ATOM      6  C   UNL     1      17.588  17.364  36.283  1.00  0.00     0.053 C 
BRANCH   6   7
ATOM      7  C   UNL     1      16.241  16.822  36.650  1.00  0.00     0.041 C 
ATOM      8  O   UNL     1      15.596  16.118  35.829  1.00  0.00    -0.550 OA
ATOM      9  O   UNL     1      15.712  17.067  37.910  1.00  0.00    -0.550 OA
ENDBRANCH   6   7
ENDBRANCH   5   6
ENDBRANCH   4   5
ENDBRANCH   3   4
ENDBRANCH   2   3
ENDBRANCH   1   2
BRANCH   1  10
ATOM     10  C   UNL     1      18.525  18.013  32.137  1.00  0.00     0.000 C 
BRANCH  10  11
ATOM     11  C   UNL     1      17.113  17.400  32.163  1.00  0.00    -0.000 C 
BRANCH  11  12
ATOM     12  C   UNL     1      16.115  18.221  32.998  1.00  0.00    -0.000 C 
BRANCH  12  13
ATOM     13  C   UNL     1      15.027  18.889  32.130  1.00  0.00    -0.000 C 
BRANCH  13  14
ATOM     14  C   UNL     1      15.129  18.544  30.631  1.00  0.00    -0.000 C 
BRANCH  14  15
ATOM     15  C   UNL     1      13.996  17.652  30.088  1.00  0.00    -0.000 C 
BRANCH  15  16
ATOM     16  C   UNL     1      12.936  17.248  31.129  1.00  0.00    -0.003 C 
ATOM     17  C   UNL     1      13.095  15.806  31.610  1.00  0.00     0.004 C 
ENDBRANCH  15  16
ENDBRANCH  14  15
ENDBRANCH  13  14
ENDBRANCH  12  13
ENDBRANCH  11  12
ENDBRANCH  10  11
ENDBRANCH   1  10
TORSDOF 13
ENDMDL
MODEL 3
REMARK VINA RESULT:    -4.409      1.742      2.670
REMARK INTER + INTRA:          -9.630
REMARK INTER:                  -7.660
REMARK INTRA:                  -1.970
REMARK UNBOUND:                -1.870
REMARK SMILES CCCCCCCCCCCCCCC(=O)[O-]
REMARK SMILES IDX 9 1 10 2 11 3 12 4 13 5 14 6 15 7 16 8 17 9 8 10 7 11 6 12
REMARK SMILES IDX 5 13 4 14 3 15 2 16 1 17
REMARK H PARENT
REMARK Flexibility Score: inf
ROOT
ATOM      1  C   UNL     1      20.448  19.545  34.682  1.00  0.00     0.000 C 
ENDROOT
BRANCH   1   2
ATOM      2  C   UNL     1      20.973  18.279  35.378  1.00  0.00     0.000 C 
BRANCH   2   3
ATOM      3  C   UNL     1      19.859  17.475  36.071  1.00  0.00     0.000 C 
BRANCH   3   4
ATOM      4  C   UNL     1      19.417  16.223  35.283  1.00  0.00     0.000 C 
BRANCH   4   5
ATOM      5  C   UNL     1      17.964  15.828  35.594  1.00  0.00     0.006 C 
BRANCH   5   6
ATOM      6  C   UNL     1      17.242  16.885  36.440  1.00  0.00     0.053 C 
BRANCH   6   7
ATOM      7  C   UNL     1      15.910  16.397  36.920  1.00  0.00     0.041 C 
ATOM      8  O   UNL     1      15.414  16.854  37.984  1.00  0.00    -0.550 OA
ATOM      9  O   UNL     1      15.202  15.463  36.176  1.00  0.00    -0.550 OA
ENDBRANCH   6   7
ENDBRANCH   5   6
ENDBRANCH   4   5
ENDBRANCH   3   4
ENDBRANCH   2   3
ENDBRANCH   1   2
BRANCH   1  10
ATOM     10  C   UNL     1      19.039  19.952  35.152  1.00  0.00     0.000 C 
BRANCH  10  11
ATOM     11  C   UNL     1      17.961  19.973  34.053  1.00  0.00    -0.000 C 
BRANCH  11  12
ATOM     12  C   UNL     1      18.365  19.183  32.796  1.00  0.00    -0.000 C 
BRANCH  12  13
ATOM     13  C   UNL     1      17.463  17.952  32.555  1.00  0.00    -0.000 C 
BRANCH  13  14
ATOM     14  C   UNL     1      16.040  18.104  33.127  1.00  0.00    -0.000 C 
BRANCH  14  15
ATOM     15  C   UNL     1      15.041  18.830  32.207  1.00  0.00    -0.000 C 
BRANCH  15  16
ATOM     16  C   UNL     1      15.176  18.491  30.711  1.00  0.00    -0.003 C 
ATOM     17  C   UNL     1      14.424  17.220  30.319  1.00  0.00     0.004 C 
ENDBRANCH  15  16
ENDBRANCH  14  15
ENDBRANCH  13  14
ENDBRANCH  12  13
ENDBRANCH  11  12
ENDBRANCH  10  11
ENDBRANCH   1  10
TORSDOF 13
ENDMDL
MODEL 4
REMARK VINA RESULT:    -4.381      1.677      2.554
REMARK INTER + INTRA:          -9.581
REMARK INTER:                  -7.876
REMARK INTRA:                  -1.705
REMARK UNBOUND:                -1.870
REMARK SMILES CCCCCCCCCCCCCCC(=O)[O-]
REMARK SMILES IDX 9 1 10 2 11 3 12 4 13 5 14 6 15 7 16 8 17 9 8 10 7 11 6 12
REMARK SMILES IDX 5 13 4 14 3 15 2 16 1 17
REMARK H PARENT
REMARK Flexibility Score: inf
ROOT
ATOM      1  C   UNL     1      19.321  20.274  34.998  1.00  0.00     0.000 C 
ENDROOT
BRANCH   1   2
ATOM      2  C   UNL     1      19.091  19.294  36.160  1.00  0.00     0.000 C 
BRANCH   2   3
ATOM      3  C   UNL     1      19.955  18.026  36.050  1.00  0.00     0.000 C 
BRANCH   3   4
ATOM      4  C   UNL     1      19.138  16.716  36.060  1.00  0.00     0.000 C 
BRANCH   4   5
ATOM      5  C   UNL     1      17.638  16.973  36.283  1.00  0.00     0.006 C 
BRANCH   5   6
ATOM      6  C   UNL     1      16.853  15.674  36.508  1.00  0.00     0.053 C 
BRANCH   6   7
ATOM      7  C   UNL     1      15.522  15.933  37.144  1.00  0.00     0.041 C 
ATOM      8  O   UNL     1      14.511  15.267  36.794  1.00  0.00    -0.550 OA
ATOM      9  O   UNL     1      15.404  16.887  38.147  1.00  0.00    -0.550 OA
ENDBRANCH   6   7
ENDBRANCH   5   6
ENDBRANCH   4   5
ENDBRANCH   3   4
ENDBRANCH   2   3
ENDBRANCH   1   2
BRANCH   1  10
ATOM     10  C   UNL     1      19.846  19.586  33.724  1.00  0.00     0.000 C 
BRANCH  10  11
ATOM     11  C   UNL     1      18.767  19.184  32.702  1.00  0.00    -0.000 C 
BRANCH  11  12
ATOM     12  C   UNL     1      18.744  17.672  32.413  1.00  0.00    -0.000 C 
BRANCH  12  13
ATOM     13  C   UNL     1      17.324  17.073  32.516  1.00  0.00    -0.000 C 
BRANCH  13  14
ATOM     14  C   UNL     1      16.255  18.083  32.976  1.00  0.00    -0.000 C 
BRANCH  14  15
ATOM     15  C   UNL     1      15.258  18.521  31.886  1.00  0.00    -0.000 C 
BRANCH  15  16
ATOM     16  C   UNL     1      14.426  17.379  31.275  1.00  0.00    -0.003 C 
ATOM     17  C   UNL     1      12.920  17.591  31.431  1.00  0.00     0.004 C 
ENDBRANCH  15  16
ENDBRANCH  14  15
ENDBRANCH  13  14
ENDBRANCH  12  13
ENDBRANCH  11  12
ENDBRANCH  10  11
ENDBRANCH   1  10
TORSDOF 13
ENDMDL
MODEL 5
REMARK VINA RESULT:    -4.363      2.942      5.107
REMARK INTER + INTRA:          -9.549
REMARK INTER:                  -7.488
REMARK INTRA:                  -2.061
REMARK UNBOUND:                -1.870
REMARK SMILES CCCCCCCCCCCCCCC(=O)[O-]
REMARK SMILES IDX 9 1 10 2 11 3 12 4 13 5 14 6 15 7 16 8 17 9 8 10 7 11 6 12
REMARK SMILES IDX 5 13 4 14 3 15 2 16 1 17
REMARK H PARENT
REMARK Flexibility Score: inf
ROOT
ATOM      1  C   UNL     1      16.883  16.413  33.683  1.00  0.00     0.000 C 
ENDROOT
BRANCH   1   2
ATOM      2  C   UNL     1      16.277  17.792  33.378  1.00  0.00     0.000 C 
BRANCH   2   3
ATOM      3  C   UNL     1      16.630  18.299  31.969  1.00  0.00     0.000 C 
BRANCH   3   4
ATOM      4  C   UNL     1      15.403  18.472  31.047  1.00  0.00     0.000 C 
BRANCH   4   5
ATOM      5  C   UNL     1      14.079  18.373  31.823  1.00  0.00     0.006 C 
BRANCH   5   6
ATOM      6  C   UNL     1      13.116  17.353  31.202  1.00  0.00     0.053 C 
BRANCH   6   7
ATOM      7  C   UNL     1      13.621  15.951  31.351  1.00  0.00     0.041 C 
ATOM      8  O   UNL     1      14.060  15.325  30.350  1.00  0.00    -0.550 OA
ATOM      9  O   UNL     1      13.639  15.347  32.602  1.00  0.00    -0.550 OA
ENDBRANCH   6   7
ENDBRANCH   5   6
ENDBRANCH   4   5
ENDBRANCH   3   4
ENDBRANCH   2   3
ENDBRANCH   1   2
BRANCH   1  10
ATOM     10  C   UNL     1      17.238  16.225  35.170  1.00  0.00     0.000 C 
BRANCH  10  11
ATOM     11  C   UNL     1      18.739  16.306  35.502  1.00  0.00    -0.000 C 
BRANCH  11  12
ATOM     12  C   UNL     1      19.604  16.705  34.292  1.00  0.00    -0.000 C 
BRANCH  12  13
ATOM     13  C   UNL     1      20.376  18.022  34.526  1.00  0.00    -0.000 C 
BRANCH  13  14
ATOM     14  C   UNL     1      19.784  19.231  33.775  1.00  0.00    -0.000 C 
BRANCH  14  15
ATOM     15  C   UNL     1      18.826  20.108  34.602  1.00  0.00    -0.000 C 
BRANCH  15  16
ATOM     16  C   UNL     1      18.984  19.977  36.128  1.00  0.00    -0.003 C 
ATOM     17  C   UNL     1      17.676  19.623  36.834  1.00  0.00     0.004 C 
ENDBRANCH  15  16
ENDBRANCH  14  15
ENDBRANCH  13  14
ENDBRANCH  12  13
ENDBRANCH  11  12
ENDBRANCH  10  11
ENDBRANCH   1  10
TORSDOF 13
ENDMDL
MODEL 6
REMARK VINA RESULT:    -4.349      1.611      2.241
REMARK INTER + INTRA:          -9.524
REMARK INTER:                  -7.445
REMARK INTRA:                  -2.078
REMARK UNBOUND:                -1.870
REMARK SMILES CCCCCCCCCCCCCCC(=O)[O-]
REMARK SMILES IDX 9 1 10 2 11 3 12 4 13 5 14 6 15 7 16 8 17 9 8 10 7 11 6 12
REMARK SMILES IDX 5 13 4 14 3 15 2 16 1 17
REMARK H PARENT
REMARK Flexibility Score: inf
ROOT
ATOM      1  C   UNL     1      20.950  17.824  35.522  1.00  0.00     0.000 C 
ENDROOT
BRANCH   1   2
ATOM      2  C   UNL     1      20.831  16.320  35.815  1.00  0.00     0.000 C 
BRANCH   2   3
ATOM      3  C   UNL     1      19.635  15.667  35.100  1.00  0.00     0.000 C 
BRANCH   3   4
ATOM      4  C   UNL     1      18.453  15.343  36.040  1.00  0.00     0.000 C 
BRANCH   4   5
ATOM      5  C   UNL     1      17.144  16.000  35.570  1.00  0.00     0.006 C 
BRANCH   5   6
ATOM      6  C   UNL     1      16.485  16.838  36.674  1.00  0.00     0.053 C 
BRANCH   6   7
ATOM      7  C   UNL     1      15.391  16.083  37.364  1.00  0.00     0.041 C 
ATOM      8  O   UNL     1      15.540  14.863  37.644  1.00  0.00    -0.550 OA
ATOM      9  O   UNL     1      14.219  16.733  37.727  1.00  0.00    -0.550 OA
ENDBRANCH   6   7
ENDBRANCH   5   6
ENDBRANCH   4   5
ENDBRANCH   3   4
ENDBRANCH   2   3
ENDBRANCH   1   2
BRANCH   1  10
ATOM     10  C   UNL     1      20.060  18.689  36.434  1.00  0.00     0.000 C 
BRANCH  10  11
ATOM     11  C   UNL     1      19.880  20.149  35.983  1.00  0.00    -0.000 C 
BRANCH  11  12
ATOM     12  C   UNL     1      19.286  20.274  34.568  1.00  0.00    -0.000 C 
BRANCH  12  13
ATOM     13  C   UNL     1      17.796  19.872  34.515  1.00  0.00    -0.000 C 
BRANCH  13  14
ATOM     14  C   UNL     1      17.469  18.842  33.416  1.00  0.00    -0.000 C 
BRANCH  14  15
ATOM     15  C   UNL     1      18.683  18.336  32.614  1.00  0.00    -0.000 C 
BRANCH  15  16
ATOM     16  C   UNL     1      18.406  17.108  31.728  1.00  0.00    -0.003 C 
ATOM     17  C   UNL     1      19.666  16.298  31.424  1.00  0.00     0.004 C 
ENDBRANCH  15  16
ENDBRANCH  14  15
ENDBRANCH  13  14
ENDBRANCH  12  13
ENDBRANCH  11  12
ENDBRANCH  10  11
ENDBRANCH   1  10
TORSDOF 13
ENDMDL
MODEL 7
REMARK VINA RESULT:    -4.343      1.098      3.948
REMARK INTER + INTRA:          -9.513
REMARK INTER:                  -7.301
REMARK INTRA:                  -2.212
REMARK UNBOUND:                -1.870
REMARK SMILES CCCCCCCCCCCCCCC(=O)[O-]
REMARK SMILES IDX 9 1 10 2 11 3 12 4 13 5 14 6 15 7 16 8 17 9 8 10 7 11 6 12
REMARK SMILES IDX 5 13 4 14 3 15 2 16 1 17
REMARK H PARENT
REMARK Flexibility Score: inf
ROOT
ATOM      1  C   UNL     1      18.975  16.205  32.137  1.00  0.00     0.000 C 
ENDROOT
BRANCH   1   2
ATOM      2  C   UNL     1      19.677  16.134  33.502  1.00  0.00     0.000 C 
BRANCH   2   3
ATOM      3  C   UNL     1      18.813  15.461  34.582  1.00  0.00     0.000 C 
BRANCH   3   4
ATOM      4  C   UNL     1      18.757  16.247  35.910  1.00  0.00     0.000 C 
BRANCH   4   5
ATOM      5  C   UNL     1      17.372  16.872  36.153  1.00  0.00     0.006 C 
BRANCH   5   6
ATOM      6  C   UNL     1      16.248  15.830  36.099  1.00  0.00     0.053 C 
BRANCH   6   7
ATOM      7  C   UNL     1      15.542  15.707  37.415  1.00  0.00     0.041 C 
ATOM      8  O   UNL     1      15.200  14.574  37.848  1.00  0.00    -0.550 OA
ATOM      9  O   UNL     1      15.292  16.839  38.178  1.00  0.00    -0.550 OA
ENDBRANCH   6   7
ENDBRANCH   5   6
ENDBRANCH   4   5
ENDBRANCH   3   4
ENDBRANCH   2   3
ENDBRANCH   1   2
BRANCH   1  10
ATOM     10  C   UNL     1      17.585  16.865  32.207  1.00  0.00     0.000 C 
BRANCH  10  11
ATOM     11  C   UNL     1      17.585  18.403  32.149  1.00  0.00    -0.000 C 
BRANCH  11  12
ATOM     12  C   UNL     1      17.018  19.055  33.423  1.00  0.00    -0.000 C 
BRANCH  12  13
ATOM     13  C   UNL     1      18.016  20.034  34.079  1.00  0.00    -0.000 C 
BRANCH  13  14
ATOM     14  C   UNL     1      19.486  19.772  33.698  1.00  0.00    -0.000 C 
BRANCH  14  15
ATOM     15  C   UNL     1      20.438  19.542  34.887  1.00  0.00    -0.000 C 
BRANCH  15  16
ATOM     16  C   UNL     1      20.145  20.406  36.127  1.00  0.00    -0.003 C 
ATOM     17  C   UNL     1      19.763  19.578  37.353  1.00  0.00     0.004 C 
ENDBRANCH  15  16
ENDBRANCH  14  15
ENDBRANCH  13  14
ENDBRANCH  12  13
ENDBRANCH  11  12
ENDBRANCH  10  11
ENDBRANCH   1  10
TORSDOF 13
ENDMDL
MODEL 8
REMARK VINA RESULT:    -4.245      2.834      4.800
REMARK INTER + INTRA:          -9.342
REMARK INTER:                  -7.650
REMARK INTRA:                  -1.691
REMARK UNBOUND:                -1.870
REMARK SMILES CCCCCCCCCCCCCCC(=O)[O-]
REMARK SMILES IDX 9 1 10 2 11 3 12 4 13 5 14 6 15 7 16 8 17 9 8 10 7 11 6 12
REMARK SMILES IDX 5 13 4 14 3 15 2 16 1 17
REMARK H PARENT
REMARK Flexibility Score: inf
ROOT
ATOM      1  C   UNL     1      18.525  20.154  34.164  1.00  0.00     0.000 C 
ENDROOT
BRANCH   1   2
ATOM      2  C   UNL     1      19.153  19.404  32.978  1.00  0.00     0.000 C 
BRANCH   2   3
ATOM      3  C   UNL     1      18.346  18.161  32.565  1.00  0.00     0.000 C 
BRANCH   3   4
ATOM      4  C   UNL     1      17.058  18.492  31.781  1.00  0.00     0.000 C 
BRANCH   4   5
ATOM      5  C   UNL     1      15.790  18.180  32.595  1.00  0.00     0.006 C 
BRANCH   5   6
ATOM      6  C   UNL     1      14.583  19.006  32.129  1.00  0.00     0.053 C 
BRANCH   6   7
ATOM      7  C   UNL     1      13.619  18.179  31.336  1.00  0.00     0.041 C 
ATOM      8  O   UNL     1      13.894  17.845  30.152  1.00  0.00    -0.550 OA
ATOM      9  O   UNL     1      12.432  17.749  31.913  1.00  0.00    -0.550 OA
ENDBRANCH   6   7
ENDBRANCH   5   6
ENDBRANCH   4   5
ENDBRANCH   3   4
ENDBRANCH   2   3
ENDBRANCH   1   2
BRANCH   1  10
ATOM     10  C   UNL     1      19.484  20.300  35.361  1.00  0.00     0.000 C 
BRANCH  10  11
ATOM     11  C   UNL     1      20.565  19.209  35.473  1.00  0.00    -0.000 C 
BRANCH  11  12
ATOM     12  C   UNL     1      20.160  18.053  36.405  1.00  0.00    -0.000 C 
BRANCH  12  13
ATOM     13  C   UNL     1      19.936  16.730  35.642  1.00  0.00    -0.000 C 
BRANCH  13  14
ATOM     14  C   UNL     1      18.486  16.212  35.708  1.00  0.00    -0.000 C 
BRANCH  14  15
ATOM     15  C   UNL     1      17.436  17.263  36.115  1.00  0.00    -0.000 C 
BRANCH  15  16
ATOM     16  C   UNL     1      16.190  16.694  36.817  1.00  0.00    -0.003 C 
ATOM     17  C   UNL     1      16.242  15.175  36.984  1.00  0.00     0.004 C 
ENDBRANCH  15  16
ENDBRANCH  14  15
ENDBRANCH  13  14
ENDBRANCH  12  13
ENDBRANCH  11  12
ENDBRANCH  10  11
ENDBRANCH   1  10
TORSDOF 13
ENDMDL
MODEL 9
REMARK VINA RESULT:    -4.204      2.887      4.986
REMARK INTER + INTRA:          -9.268
REMARK INTER:                  -7.692
REMARK INTRA:                  -1.576
REMARK UNBOUND:                -1.870
REMARK SMILES CCCCCCCCCCCCCCC(=O)[O-]
REMARK SMILES IDX 9 1 10 2 11 3 12 4 13 5 14 6 15 7 16 8 17 9 8 10 7 11 6 12
REMARK SMILES IDX 5 13 4 14 3 15 2 16 1 17
REMARK H PARENT
REMARK Flexibility Score: inf
ROOT
ATOM      1  C   UNL     1      18.834  17.745  31.937  1.00  0.00     0.000 C 
ENDROOT
BRANCH   1   2
ATOM      2  C   UNL     1      17.391  17.239  32.087  1.00  0.00     0.000 C 
BRANCH   2   3
ATOM      3  C   UNL     1      16.395  18.007  31.200  1.00  0.00     0.000 C 
BRANCH   3   4
ATOM      4  C   UNL     1      15.109  18.435  31.940  1.00  0.00     0.000 C 
BRANCH   4   5
ATOM      5  C   UNL     1      13.866  18.337  31.040  1.00  0.00     0.006 C 
BRANCH   5   6
ATOM      6  C   UNL     1      12.877  17.271  31.529  1.00  0.00     0.053 C 
BRANCH   6   7
ATOM      7  C   UNL     1      13.493  15.905  31.535  1.00  0.00     0.041 C 
ATOM      8  O   UNL     1      13.924  15.400  30.464  1.00  0.00    -0.550 OA
ATOM      9  O   UNL     1      13.619  15.203  32.726  1.00  0.00    -0.550 OA
ENDBRANCH   6   7
ENDBRANCH   5   6
ENDBRANCH   4   5
ENDBRANCH   3   4
ENDBRANCH   2   3
ENDBRANCH   1   2
BRANCH   1  10
ATOM     10  C   UNL     1      19.608  17.768  33.269  1.00  0.00     0.000 C 
BRANCH  10  11
ATOM     11  C   UNL     1      20.030  19.165  33.760  1.00  0.00    -0.000 C 
BRANCH  11  12
ATOM     12  C   UNL     1      18.905  20.209  33.645  1.00  0.00    -0.000 C 
BRANCH  12  13
ATOM     13  C   UNL     1      17.758  19.955  34.647  1.00  0.00    -0.000 C 
BRANCH  13  14
ATOM     14  C   UNL     1      18.239  19.517  36.045  1.00  0.00    -0.000 C 
BRANCH  14  15
ATOM     15  C   UNL     1      17.376  18.436  36.723  1.00  0.00    -0.000 C 
BRANCH  15  16
ATOM     16  C   UNL     1      16.977  17.261  35.812  1.00  0.00    -0.003 C 
ATOM     17  C   UNL     1      17.339  15.900  36.404  1.00  0.00     0.004 C 
ENDBRANCH  15  16
ENDBRANCH  14  15
ENDBRANCH  13  14
ENDBRANCH  12  13
ENDBRANCH  11  12
ENDBRANCH  10  11
ENDBRANCH   1  10
TORSDOF 13
ENDMDL
