MODEL 1
REMARK VINA RESULT:    -4.377      0.000      0.000
REMARK INTER + INTRA:          -5.007
REMARK INTER:                  -4.761
REMARK INTRA:                  -0.245
REMARK UNBOUND:                -0.245
REMARK SMILES O=C([O-])c1ccccc1O
REMARK SMILES IDX 4 1 9 2 5 3 8 4 6 5 7 6 2 7 1 8 3 9 10 10
REMARK H PARENT 10 11
REMARK Flexibility Score: inf
ROOT
ATOM      1  C   UNL     1       4.793   2.219  16.768  1.00  0.00     0.039 A 
ATOM      2  C   UNL     1       4.414   3.247  17.663  1.00  0.00     0.124 A 
ATOM      3  C   UNL     1       4.786   2.487  15.384  1.00  0.00     0.014 A 
ATOM      4  C   UNL     1       4.042   4.505  17.167  1.00  0.00     0.047 A 
ATOM      5  C   UNL     1       4.413   3.744  14.904  1.00  0.00     0.001 A 
ATOM      6  C   UNL     1       4.041   4.752  15.793  1.00  0.00     0.004 A 
ENDROOT
BRANCH   1   7
ATOM      7  C   UNL     1       5.195   0.871  17.250  1.00  0.00     0.075 C 
ATOM      8  O   UNL     1       4.413   0.194  17.970  1.00  0.00    -0.545 OA
ATOM      9  O   UNL     1       6.431   0.330  16.919  1.00  0.00    -0.545 OA
ENDBRANCH   1   7
BRANCH   2  10
ATOM     10  O   UNL     1       4.406   3.027  19.041  1.00  0.00    -0.507 OA
ATOM     11  H   UNL     1       3.582   2.680  19.520  1.00  0.00     0.293 HD
ENDBRANCH   2  10
TORSDOF 2
ENDMDL
MODEL 2
REMARK VINA RESULT:    -4.325      2.934      4.372
REMARK INTER + INTRA:          -4.950
REMARK INTER:                  -4.757
REMARK INTRA:                  -0.193
REMARK UNBOUND:                -0.245
REMARK SMILES O=C([O-])c1ccccc1O
REMARK SMILES IDX 4 1 9 2 5 3 8 4 6 5 7 6 2 7 1 8 3 9 10 10
REMARK H PARENT 10 11
REMARK Flexibility Score: inf
ROOT
ATOM      1  C   UNL     1       5.168   4.434  16.253  1.00  0.00     0.039 A 
ATOM      2  C   UNL     1       4.390   3.392  15.694  1.00  0.00     0.124 A 
ATOM      3  C   UNL     1       5.930   4.167  17.408  1.00  0.00     0.014 A 
ATOM      4  C   UNL     1       4.390   2.122  16.290  1.00  0.00     0.047 A 
ATOM      5  C   UNL     1       5.920   2.898  17.991  1.00  0.00     0.001 A 
ATOM      6  C   UNL     1       5.151   1.877  17.434  1.00  0.00     0.004 A 
ENDROOT
BRANCH   1   7
ATOM      7  C   UNL     1       5.198   5.795  15.654  1.00  0.00     0.075 C 
ATOM      8  O   UNL     1       6.257   6.236  15.132  1.00  0.00    -0.545 OA
ATOM      9  O   UNL     1       4.069   6.605  15.657  1.00  0.00    -0.545 OA
ENDBRANCH   1   7
BRANCH   2  10
ATOM     10  O   UNL     1       3.620   3.610  14.551  1.00  0.00    -0.507 OA
ATOM     11  H   UNL     1       3.813   4.377  13.918  1.00  0.00     0.293 HD
ENDBRANCH   2  10
TORSDOF 2
ENDMDL
MODEL 3
REMARK VINA RESULT:    -4.276      2.010      2.932
REMARK INTER + INTRA:          -4.896
REMARK INTER:                  -4.647
REMARK INTRA:                  -0.249
REMARK UNBOUND:                -0.245
REMARK SMILES O=C([O-])c1ccccc1O
REMARK SMILES IDX 4 1 9 2 5 3 8 4 6 5 7 6 2 7 1 8 3 9 10 10
REMARK H PARENT 10 11
REMARK Flexibility Score: inf
ROOT
ATOM      1  C   UNL     1       5.594   4.252  17.649  1.00  0.00     0.039 A 
ATOM      2  C   UNL     1       4.515   4.350  16.738  1.00  0.00     0.124 A 
ATOM      3  C   UNL     1       6.779   4.964  17.377  1.00  0.00     0.014 A 
ATOM      4  C   UNL     1       4.639   5.147  15.591  1.00  0.00     0.047 A 
ATOM      5  C   UNL     1       6.888   5.754  16.230  1.00  0.00     0.001 A 
ATOM      6  C   UNL     1       5.821   5.845  15.337  1.00  0.00     0.004 A 
ENDROOT
BRANCH   1   7
ATOM      7  C   UNL     1       5.506   3.420  18.878  1.00  0.00     0.075 C 
ATOM      8  O   UNL     1       6.015   3.824  19.957  1.00  0.00    -0.545 OA
ATOM      9  O   UNL     1       4.866   2.186  18.865  1.00  0.00    -0.545 OA
ENDBRANCH   1   7
BRANCH   2  10
ATOM     10  O   UNL     1       3.323   3.662  16.967  1.00  0.00    -0.507 OA
ATOM     11  H   UNL     1       2.726   3.880  17.756  1.00  0.00     0.293 HD
ENDBRANCH   2  10
TORSDOF 2
ENDMDL
MODEL 4
REMARK VINA RESULT:    -4.215      4.860      5.743
REMARK INTER + INTRA:          -4.830
REMARK INTER:                  -4.576
REMARK INTRA:                  -0.255
REMARK UNBOUND:                -0.245
REMARK SMILES O=C([O-])c1ccccc1O
REMARK SMILES IDX 4 1 9 2 5 3 8 4 6 5 7 6 2 7 1 8 3 9 10 10
REMARK H PARENT 10 11
REMARK Flexibility Score: inf
ROOT
ATOM      1  C   UNL     1       7.692   6.145  18.963  1.00  0.00     0.039 A 
ATOM      2  C   UNL     1       8.562   6.447  17.889  1.00  0.00     0.124 A 
ATOM      3  C   UNL     1       7.056   7.205  19.640  1.00  0.00     0.014 A 
ATOM      4  C   UNL     1       8.776   7.782  17.516  1.00  0.00     0.047 A 
ATOM      5  C   UNL     1       7.280   8.530  19.258  1.00  0.00     0.001 A 
ATOM      6  C   UNL     1       8.138   8.819  18.198  1.00  0.00     0.004 A 
ENDROOT
BRANCH   1   7
ATOM      7  C   UNL     1       7.435   4.745  19.392  1.00  0.00     0.075 C 
ATOM      8  O   UNL     1       7.433   4.445  20.616  1.00  0.00    -0.545 OA
ATOM      9  O   UNL     1       7.192   3.742  18.461  1.00  0.00    -0.545 OA
ENDBRANCH   1   7
BRANCH   2  10
ATOM     10  O   UNL     1       9.213   5.429  17.190  1.00  0.00    -0.507 OA
ATOM     11  H   UNL     1       8.795   4.513  17.073  1.00  0.00     0.293 HD
ENDBRANCH   2  10
TORSDOF 2
ENDMDL
MODEL 5
REMARK VINA RESULT:    -4.200      2.890      3.441
REMARK INTER + INTRA:          -4.814
REMARK INTER:                  -4.574
REMARK INTRA:                  -0.240
REMARK UNBOUND:                -0.245
REMARK SMILES O=C([O-])c1ccccc1O
REMARK SMILES IDX 4 1 9 2 5 3 8 4 6 5 7 6 2 7 1 8 3 9 10 10
REMARK H PARENT 10 11
REMARK Flexibility Score: inf
ROOT
ATOM      1  C   UNL     1       6.006   4.041  17.264  1.00  0.00     0.039 A 
ATOM      2  C   UNL     1       5.852   4.899  16.149  1.00  0.00     0.124 A 
ATOM      3  C   UNL     1       7.149   4.181  18.075  1.00  0.00     0.014 A 
ATOM      4  C   UNL     1       6.828   5.867  15.871  1.00  0.00     0.047 A 
ATOM      5  C   UNL     1       8.114   5.149  17.786  1.00  0.00     0.001 A 
ATOM      6  C   UNL     1       7.954   5.991  16.686  1.00  0.00     0.004 A 
ENDROOT
BRANCH   1   7
ATOM      7  C   UNL     1       4.996   3.002  17.596  1.00  0.00     0.075 C 
ATOM      8  O   UNL     1       4.766   2.699  18.798  1.00  0.00    -0.545 OA
ATOM      9  O   UNL     1       4.287   2.345  16.597  1.00  0.00    -0.545 OA
ENDBRANCH   1   7
BRANCH   2  10
ATOM     10  O   UNL     1       4.736   4.796  15.318  1.00  0.00    -0.507 OA
ATOM     11  H   UNL     1       4.251   5.617  14.973  1.00  0.00     0.293 HD
ENDBRANCH   2  10
TORSDOF 2
ENDMDL
MODEL 6
REMARK VINA RESULT:    -4.187      5.726      6.674
REMARK INTER + INTRA:          -4.800
REMARK INTER:                  -4.549
REMARK INTRA:                  -0.251
REMARK UNBOUND:                -0.245
REMARK SMILES O=C([O-])c1ccccc1O
REMARK SMILES IDX 4 1 9 2 5 3 8 4 6 5 7 6 2 7 1 8 3 9 10 10
REMARK H PARENT 10 11
REMARK Flexibility Score: inf
ROOT
ATOM      1  C   UNL     1       7.833   7.280  18.587  1.00  0.00     0.039 A 
ATOM      2  C   UNL     1       8.175   8.524  18.006  1.00  0.00     0.124 A 
ATOM      3  C   UNL     1       7.101   7.271  19.791  1.00  0.00     0.014 A 
ATOM      4  C   UNL     1       7.784   9.718  18.630  1.00  0.00     0.047 A 
ATOM      5  C   UNL     1       6.718   8.468  20.401  1.00  0.00     0.001 A 
ATOM      6  C   UNL     1       7.059   9.690  19.822  1.00  0.00     0.004 A 
ENDROOT
BRANCH   1   7
ATOM      7  C   UNL     1       8.226   5.990  17.960  1.00  0.00     0.075 C 
ATOM      8  O   UNL     1       8.617   5.029  18.676  1.00  0.00    -0.545 OA
ATOM      9  O   UNL     1       8.172   5.815  16.583  1.00  0.00    -0.545 OA
ENDBRANCH   1   7
BRANCH   2  10
ATOM     10  O   UNL     1       8.899   8.581  16.815  1.00  0.00    -0.507 OA
ATOM     11  H   UNL     1       9.059   7.755  16.249  1.00  0.00     0.293 HD
ENDBRANCH   2  10
TORSDOF 2
ENDMDL
MODEL 7
REMARK VINA RESULT:    -4.187      1.641      3.210
REMARK INTER + INTRA:          -4.799
REMARK INTER:                  -4.545
REMARK INTRA:                  -0.254
REMARK UNBOUND:                -0.245
REMARK SMILES O=C([O-])c1ccccc1O
REMARK SMILES IDX 4 1 9 2 5 3 8 4 6 5 7 6 2 7 1 8 3 9 10 10
REMARK H PARENT 10 11
REMARK Flexibility Score: inf
ROOT
ATOM      1  C   UNL     1       5.187   4.219  17.835  1.00  0.00     0.039 A 
ATOM      2  C   UNL     1       4.778   2.884  17.601  1.00  0.00     0.124 A 
ATOM      3  C   UNL     1       5.382   5.073  16.731  1.00  0.00     0.014 A 
ATOM      4  C   UNL     1       4.574   2.436  16.288  1.00  0.00     0.047 A 
ATOM      5  C   UNL     1       5.176   4.612  15.429  1.00  0.00     0.001 A 
ATOM      6  C   UNL     1       4.773   3.295  15.207  1.00  0.00     0.004 A 
ENDROOT
BRANCH   1   7
ATOM      7  C   UNL     1       5.415   4.737  19.210  1.00  0.00     0.075 C 
ATOM      8  O   UNL     1       4.900   5.830  19.571  1.00  0.00    -0.545 OA
ATOM      9  O   UNL     1       6.194   4.035  20.122  1.00  0.00    -0.545 OA
ENDBRANCH   1   7
BRANCH   2  10
ATOM     10  O   UNL     1       4.573   2.004  18.664  1.00  0.00    -0.507 OA
ATOM     11  H   UNL     1       5.250   1.905  19.412  1.00  0.00     0.293 HD
ENDBRANCH   2  10
TORSDOF 2
ENDMDL
MODEL 8
REMARK VINA RESULT:    -4.161      6.032      7.083
REMARK INTER + INTRA:          -4.772
REMARK INTER:                  -4.541
REMARK INTRA:                  -0.230
REMARK UNBOUND:                -0.245
REMARK SMILES O=C([O-])c1ccccc1O
REMARK SMILES IDX 4 1 9 2 5 3 8 4 6 5 7 6 2 7 1 8 3 9 10 10
REMARK H PARENT 10 11
REMARK Flexibility Score: inf
ROOT
ATOM      1  C   UNL     1       7.685   7.454  18.751  1.00  0.00     0.039 A 
ATOM      2  C   UNL     1       8.490   7.310  17.596  1.00  0.00     0.124 A 
ATOM      3  C   UNL     1       7.292   6.297  19.454  1.00  0.00     0.014 A 
ATOM      4  C   UNL     1       8.882   6.031  17.172  1.00  0.00     0.047 A 
ATOM      5  C   UNL     1       7.690   5.030  19.020  1.00  0.00     0.001 A 
ATOM      6  C   UNL     1       8.483   4.897  17.881  1.00  0.00     0.004 A 
ENDROOT
BRANCH   1   7
ATOM      7  C   UNL     1       7.246   8.789  19.237  1.00  0.00     0.075 C 
ATOM      8  O   UNL     1       6.987   9.710  18.417  1.00  0.00    -0.545 OA
ATOM      9  O   UNL     1       7.112   9.049  20.595  1.00  0.00    -0.545 OA
ENDBRANCH   1   7
BRANCH   2  10
ATOM     10  O   UNL     1       8.902   8.427  16.869  1.00  0.00    -0.507 OA
ATOM     11  H   UNL     1       8.246   8.991  16.342  1.00  0.00     0.293 HD
ENDBRANCH   2  10
TORSDOF 2
ENDMDL
MODEL 9
REMARK VINA RESULT:    -4.103      3.270      4.238
REMARK INTER + INTRA:          -4.708
REMARK INTER:                  -4.455
REMARK INTRA:                  -0.253
REMARK UNBOUND:                -0.245
REMARK SMILES O=C([O-])c1ccccc1O
REMARK SMILES IDX 4 1 9 2 5 3 8 4 6 5 7 6 2 7 1 8 3 9 10 10
REMARK H PARENT 10 11
REMARK Flexibility Score: inf
ROOT
ATOM      1  C   UNL     1       6.032   4.799  16.950  1.00  0.00     0.039 A 
ATOM      2  C   UNL     1       5.323   4.904  15.730  1.00  0.00     0.124 A 
ATOM      3  C   UNL     1       6.026   3.567  17.634  1.00  0.00     0.014 A 
ATOM      4  C   UNL     1       4.633   3.793  15.224  1.00  0.00     0.047 A 
ATOM      5  C   UNL     1       5.335   2.468  17.118  1.00  0.00     0.001 A 
ATOM      6  C   UNL     1       4.639   2.580  15.915  1.00  0.00     0.004 A 
ENDROOT
BRANCH   1   7
ATOM      7  C   UNL     1       6.777   5.951  17.524  1.00  0.00     0.075 C 
ATOM      8  O   UNL     1       6.608   6.280  18.729  1.00  0.00    -0.545 OA
ATOM      9  O   UNL     1       7.668   6.685  16.751  1.00  0.00    -0.545 OA
ENDBRANCH   1   7
BRANCH   2  10
ATOM     10  O   UNL     1       5.300   6.104  15.019  1.00  0.00    -0.507 OA
ATOM     11  H   UNL     1       4.970   6.150  14.062  1.00  0.00     0.293 HD
ENDBRANCH   2  10
TORSDOF 2
ENDMDL
