MODEL 1
REMARK VINA RESULT:    -6.258      0.000      0.000
REMARK INTER + INTRA:          -6.717
REMARK INTER:                  -6.624
REMARK INTRA:                  -0.093
REMARK UNBOUND:                -0.093
REMARK SMILES C=C(C)[C@H]1CC=C(C)C(=O)C1
REMARK SMILES IDX 8 1 7 2 6 3 5 4 4 5 11 6 9 7 10 8 2 9 1 10 3 11
REMARK H PARENT
REMARK Flexibility Score: inf
ROOT
ATOM      1  C   UNL     1       0.695  11.045  46.102  1.00  0.00     0.048 C 
ATOM      2  C   UNL     1       1.946  11.714  46.596  1.00  0.00    -0.012 C 
ATOM      3  C   UNL     1       2.977  10.968  47.031  1.00  0.00    -0.019 C 
ATOM      4  C   UNL     1       4.247  11.588  47.553  1.00  0.00     0.036 C 
ATOM      5  C   UNL     1       4.552  12.916  46.834  1.00  0.00     0.025 C 
ATOM      6  C   UNL     1       3.350  13.871  46.943  1.00  0.00     0.089 C 
ATOM      7  C   UNL     1       2.088  13.188  46.490  1.00  0.00     0.158 C 
ATOM      8  O   UNL     1       1.136  13.886  46.050  1.00  0.00    -0.295 OA
ENDROOT
BRANCH   5   9
ATOM      9  C   UNL     1       5.829  13.559  47.360  1.00  0.00    -0.077 C 
ATOM     10  C   UNL     1       6.076  13.648  48.678  1.00  0.00     0.008 C 
ATOM     11  C   UNL     1       6.849  14.110  46.397  1.00  0.00     0.039 C 
ENDBRANCH   5   9
TORSDOF 1
ENDMDL
MODEL 2
REMARK VINA RESULT:    -5.874      2.570      3.756
REMARK INTER + INTRA:          -6.311
REMARK INTER:                  -6.222
REMARK INTRA:                  -0.089
REMARK UNBOUND:                -0.093
REMARK SMILES C=C(C)[C@H]1CC=C(C)C(=O)C1
REMARK SMILES IDX 8 1 7 2 6 3 5 4 4 5 11 6 9 7 10 8 2 9 1 10 3 11
REMARK H PARENT
REMARK Flexibility Score: inf
ROOT
ATOM      1  C   UNL     1      -2.381  13.483  45.062  1.00  0.00     0.048 C 
ATOM      2  C   UNL     1      -1.108  12.918  45.628  1.00  0.00    -0.012 C 
ATOM      3  C   UNL     1      -1.052  11.625  45.990  1.00  0.00    -0.019 C 
ATOM      4  C   UNL     1       0.192  11.012  46.578  1.00  0.00     0.036 C 
ATOM      5  C   UNL     1       1.460  11.668  45.999  1.00  0.00     0.025 C 
ATOM      6  C   UNL     1       1.411  13.194  46.198  1.00  0.00     0.089 C 
ATOM      7  C   UNL     1       0.118  13.755  45.672  1.00  0.00     0.158 C 
ATOM      8  O   UNL     1       0.077  14.958  45.300  1.00  0.00    -0.295 OA
ENDROOT
BRANCH   5   9
ATOM      9  C   UNL     1       2.726  11.065  46.593  1.00  0.00    -0.077 C 
ATOM     10  C   UNL     1       3.616  10.411  45.827  1.00  0.00     0.008 C 
ATOM     11  C   UNL     1       3.004  11.196  48.069  1.00  0.00     0.039 C 
ENDBRANCH   5   9
TORSDOF 1
ENDMDL
MODEL 3
REMARK VINA RESULT:    -5.860      2.291      3.934
REMARK INTER + INTRA:          -6.296
REMARK INTER:                  -6.202
REMARK INTRA:                  -0.094
REMARK UNBOUND:                -0.093
REMARK SMILES C=C(C)[C@H]1CC=C(C)C(=O)C1
REMARK SMILES IDX 8 1 7 2 6 3 5 4 4 5 11 6 9 7 10 8 2 9 1 10 3 11
REMARK H PARENT
REMARK Flexibility Score: inf
ROOT
ATOM      1  C   UNL     1      -2.623  12.578  45.863  1.00  0.00     0.048 C 
ATOM      2  C   UNL     1      -1.170  12.197  45.914  1.00  0.00    -0.012 C 
ATOM      3  C   UNL     1      -0.235  13.065  45.490  1.00  0.00    -0.019 C 
ATOM      4  C   UNL     1       1.233  12.727  45.502  1.00  0.00     0.036 C 
ATOM      5  C   UNL     1       1.576  11.793  46.678  1.00  0.00     0.025 C 
ATOM      6  C   UNL     1       0.689  10.535  46.638  1.00  0.00     0.089 C 
ATOM      7  C   UNL     1      -0.764  10.915  46.543  1.00  0.00     0.158 C 
ATOM      8  O   UNL     1      -1.637  10.115  46.973  1.00  0.00    -0.295 OA
ENDROOT
BRANCH   5   9
ATOM      9  C   UNL     1       3.057  11.434  46.696  1.00  0.00    -0.077 C 
ATOM     10  C   UNL     1       3.554  10.470  45.902  1.00  0.00     0.008 C 
ATOM     11  C   UNL     1       4.000  12.166  47.617  1.00  0.00     0.039 C 
ENDBRANCH   5   9
TORSDOF 1
ENDMDL
MODEL 4
REMARK VINA RESULT:    -5.759      1.797      4.902
REMARK INTER + INTRA:          -6.189
REMARK INTER:                  -6.092
REMARK INTRA:                  -0.098
REMARK UNBOUND:                -0.093
REMARK SMILES C=C(C)[C@H]1CC=C(C)C(=O)C1
REMARK SMILES IDX 8 1 7 2 6 3 5 4 4 5 11 6 9 7 10 8 2 9 1 10 3 11
REMARK H PARENT
REMARK Flexibility Score: inf
ROOT
ATOM      1  C   UNL     1       5.452  13.541  47.364  1.00  0.00     0.048 C 
ATOM      2  C   UNL     1       4.009  13.158  47.189  1.00  0.00    -0.012 C 
ATOM      3  C   UNL     1       3.115  14.081  46.796  1.00  0.00    -0.019 C 
ATOM      4  C   UNL     1       1.655  13.756  46.621  1.00  0.00     0.036 C 
ATOM      5  C   UNL     1       1.463  12.301  46.153  1.00  0.00     0.025 C 
ATOM      6  C   UNL     1       2.165  11.331  47.121  1.00  0.00     0.089 C 
ATOM      7  C   UNL     1       3.598  11.739  47.332  1.00  0.00     0.158 C 
ATOM      8  O   UNL     1       4.442  10.865  47.666  1.00  0.00    -0.295 OA
ENDROOT
BRANCH   5   9
ATOM      9  C   UNL     1      -0.011  11.955  45.983  1.00  0.00    -0.077 C 
ATOM     10  C   UNL     1      -0.483  10.734  46.288  1.00  0.00     0.008 C 
ATOM     11  C   UNL     1      -0.975  12.992  45.465  1.00  0.00     0.039 C 
ENDBRANCH   5   9
TORSDOF 1
ENDMDL
MODEL 5
REMARK VINA RESULT:    -5.740      1.821      4.938
REMARK INTER + INTRA:          -6.169
REMARK INTER:                  -6.074
REMARK INTRA:                  -0.095
REMARK UNBOUND:                -0.093
REMARK SMILES C=C(C)[C@H]1CC=C(C)C(=O)C1
REMARK SMILES IDX 8 1 7 2 6 3 5 4 4 5 11 6 9 7 10 8 2 9 1 10 3 11
REMARK H PARENT
REMARK Flexibility Score: inf
ROOT
ATOM      1  C   UNL     1       5.477  13.511  47.372  1.00  0.00     0.048 C 
ATOM      2  C   UNL     1       4.018  13.211  47.173  1.00  0.00    -0.012 C 
ATOM      3  C   UNL     1       3.173  14.199  46.830  1.00  0.00    -0.019 C 
ATOM      4  C   UNL     1       1.699  13.957  46.635  1.00  0.00     0.036 C 
ATOM      5  C   UNL     1       1.437  12.542  46.085  1.00  0.00     0.025 C 
ATOM      6  C   UNL     1       2.086  11.486  46.998  1.00  0.00     0.089 C 
ATOM      7  C   UNL     1       3.536  11.808  47.234  1.00  0.00     0.158 C 
ATOM      8  O   UNL     1       4.334  10.876  47.521  1.00  0.00    -0.295 OA
ENDROOT
BRANCH   5   9
ATOM      9  C   UNL     1      -0.051  12.280  45.893  1.00  0.00    -0.077 C 
ATOM     10  C   UNL     1      -0.871  13.226  45.404  1.00  0.00     0.008 C 
ATOM     11  C   UNL     1      -0.634  10.937  46.252  1.00  0.00     0.039 C 
ENDBRANCH   5   9
TORSDOF 1
ENDMDL
MODEL 6
REMARK VINA RESULT:    -5.690      1.396      2.035
REMARK INTER + INTRA:          -6.116
REMARK INTER:                  -6.027
REMARK INTRA:                  -0.089
REMARK UNBOUND:                -0.093
REMARK SMILES C=C(C)[C@H]1CC=C(C)C(=O)C1
REMARK SMILES IDX 8 1 7 2 6 3 5 4 4 5 11 6 9 7 10 8 2 9 1 10 3 11
REMARK H PARENT
REMARK Flexibility Score: inf
ROOT
ATOM      1  C   UNL     1      -0.090  12.129  45.923  1.00  0.00     0.048 C 
ATOM      2  C   UNL     1       1.352  12.467  46.180  1.00  0.00    -0.012 C 
ATOM      3  C   UNL     1       1.702  13.732  46.468  1.00  0.00    -0.019 C 
ATOM      4  C   UNL     1       3.134  14.129  46.716  1.00  0.00     0.036 C 
ATOM      5  C   UNL     1       3.920  12.981  47.378  1.00  0.00     0.025 C 
ATOM      6  C   UNL     1       3.808  11.699  46.532  1.00  0.00     0.089 C 
ATOM      7  C   UNL     1       2.366  11.384  46.237  1.00  0.00     0.158 C 
ATOM      8  O   UNL     1       2.034  10.192  46.003  1.00  0.00    -0.295 OA
ENDROOT
BRANCH   5   9
ATOM      9  C   UNL     1       5.373  13.364  47.626  1.00  0.00    -0.077 C 
ATOM     10  C   UNL     1       5.936  13.230  48.839  1.00  0.00     0.008 C 
ATOM     11  C   UNL     1       6.214  13.905  46.498  1.00  0.00     0.039 C 
ENDBRANCH   5   9
TORSDOF 1
ENDMDL
MODEL 7
REMARK VINA RESULT:    -5.680      2.168      3.492
REMARK INTER + INTRA:          -6.105
REMARK INTER:                  -6.015
REMARK INTRA:                  -0.091
REMARK UNBOUND:                -0.093
REMARK SMILES C=C(C)[C@H]1CC=C(C)C(=O)C1
REMARK SMILES IDX 8 1 7 2 6 3 5 4 4 5 11 6 9 7 10 8 2 9 1 10 3 11
REMARK H PARENT
REMARK Flexibility Score: inf
ROOT
ATOM      1  C   UNL     1      -1.078  15.202  46.105  1.00  0.00     0.048 C 
ATOM      2  C   UNL     1       0.075  14.238  46.151  1.00  0.00    -0.012 C 
ATOM      3  C   UNL     1       1.280  14.656  46.574  1.00  0.00    -0.019 C 
ATOM      4  C   UNL     1       2.473  13.737  46.624  1.00  0.00     0.036 C 
ATOM      5  C   UNL     1       2.045  12.290  46.938  1.00  0.00     0.025 C 
ATOM      6  C   UNL     1       0.984  11.816  45.928  1.00  0.00     0.089 C 
ATOM      7  C   UNL     1      -0.149  12.802  45.847  1.00  0.00     0.158 C 
ATOM      8  O   UNL     1      -1.287  12.401  45.484  1.00  0.00    -0.295 OA
ENDROOT
BRANCH   5   9
ATOM      9  C   UNL     1       3.240  11.347  46.981  1.00  0.00    -0.077 C 
ATOM     10  C   UNL     1       4.086  11.336  48.025  1.00  0.00     0.008 C 
ATOM     11  C   UNL     1       3.495  10.399  45.837  1.00  0.00     0.039 C 
ENDBRANCH   5   9
TORSDOF 1
ENDMDL
MODEL 8
REMARK VINA RESULT:    -5.463      1.471      2.203
REMARK INTER + INTRA:          -5.876
REMARK INTER:                  -5.780
REMARK INTRA:                  -0.096
REMARK UNBOUND:                -0.093
REMARK SMILES C=C(C)[C@H]1CC=C(C)C(=O)C1
REMARK SMILES IDX 8 1 7 2 6 3 5 4 4 5 11 6 9 7 10 8 2 9 1 10 3 11
REMARK H PARENT
REMARK Flexibility Score: inf
ROOT
ATOM      1  C   UNL     1      -1.260  13.157  45.098  1.00  0.00     0.048 C 
ATOM      2  C   UNL     1       0.044  13.048  45.839  1.00  0.00    -0.012 C 
ATOM      3  C   UNL     1       0.612  11.844  46.020  1.00  0.00    -0.019 C 
ATOM      4  C   UNL     1       1.908  11.677  46.770  1.00  0.00     0.036 C 
ATOM      5  C   UNL     1       2.824  12.900  46.574  1.00  0.00     0.025 C 
ATOM      6  C   UNL     1       2.083  14.190  46.970  1.00  0.00     0.089 C 
ATOM      7  C   UNL     1       0.758  14.279  46.262  1.00  0.00     0.158 C 
ATOM      8  O   UNL     1       0.244  15.412  46.063  1.00  0.00    -0.295 OA
ENDROOT
BRANCH   5   9
ATOM      9  C   UNL     1       4.134  12.749  47.337  1.00  0.00    -0.077 C 
ATOM     10  C   UNL     1       4.334  11.729  48.190  1.00  0.00     0.008 C 
ATOM     11  C   UNL     1       5.241  13.753  47.142  1.00  0.00     0.039 C 
ENDBRANCH   5   9
TORSDOF 1
ENDMDL
MODEL 9
REMARK VINA RESULT:    -5.417      2.158      4.719
REMARK INTER + INTRA:          -5.828
REMARK INTER:                  -5.733
REMARK INTRA:                  -0.095
REMARK UNBOUND:                -0.093
REMARK SMILES C=C(C)[C@H]1CC=C(C)C(=O)C1
REMARK SMILES IDX 8 1 7 2 6 3 5 4 4 5 11 6 9 7 10 8 2 9 1 10 3 11
REMARK H PARENT
REMARK Flexibility Score: inf
ROOT
ATOM      1  C   UNL     1       3.994  11.248  47.650  1.00  0.00     0.048 C 
ATOM      2  C   UNL     1       2.850  11.913  46.937  1.00  0.00    -0.012 C 
ATOM      3  C   UNL     1       1.760  11.198  46.610  1.00  0.00    -0.019 C 
ATOM      4  C   UNL     1       0.592  11.810  45.880  1.00  0.00     0.036 C 
ATOM      5  C   UNL     1       0.412  13.290  46.266  1.00  0.00     0.025 C 
ATOM      6  C   UNL     1       1.720  14.067  46.029  1.00  0.00     0.089 C 
ATOM      7  C   UNL     1       2.875  13.379  46.706  1.00  0.00     0.158 C 
ATOM      8  O   UNL     1       3.881  14.057  47.043  1.00  0.00    -0.295 OA
ENDROOT
BRANCH   5   9
ATOM      9  C   UNL     1      -0.759  13.925  45.527  1.00  0.00    -0.077 C 
ATOM     10  C   UNL     1      -1.851  13.212  45.203  1.00  0.00     0.008 C 
ATOM     11  C   UNL     1      -0.709  15.382  45.143  1.00  0.00     0.039 C 
ENDBRANCH   5   9
TORSDOF 1
ENDMDL
