MODEL 1
REMARK VINA RESULT:    -2.896      0.000      0.000
REMARK INTER + INTRA:          -3.621
REMARK INTER:                  -3.404
REMARK INTRA:                  -0.217
REMARK UNBOUND:                -0.217
REMARK SMILES [NH3+][C@@H](CO)C(=O)[O-]
REMARK SMILES IDX 3 1 2 2 1 3 5 7 6 8 7 9 4 10
REMARK H PARENT 1 4 1 5 1 6 4 11
REMARK Flexibility Score: inf
ROOT
ATOM      1  C   UNL     1     191.324 194.260 194.955  1.00  0.00     0.227 C 
ENDROOT
BRANCH   1   2
ATOM      2  C   UNL     1     191.368 194.630 193.461  1.00  0.00     0.253 C 
BRANCH   2   3
ATOM      3  N   UNL     1     190.633 193.651 192.652  1.00  0.00    -0.348 N 
ATOM      4  H   UNL     1     190.465 192.781 193.208  1.00  0.00     0.345 HD
ATOM      5  H   UNL     1     191.171 193.406 191.787  1.00  0.00     0.345 HD
ATOM      6  H   UNL     1     189.704 194.045 192.376  1.00  0.00     0.345 HD
ENDBRANCH   2   3
BRANCH   2   7
ATOM      7  C   UNL     1     192.797 194.722 192.998  1.00  0.00     0.102 C 
ATOM      8  O   UNL     1     193.107 195.489 192.048  1.00  0.00    -0.544 OA
ATOM      9  O   UNL     1     193.786 193.973 193.624  1.00  0.00    -0.544 OA
ENDBRANCH   2   7
ENDBRANCH   1   2
BRANCH   1  10
ATOM     10  O   UNL     1     191.380 192.868 195.125  1.00  0.00    -0.390 OA
ATOM     11  H   UNL     1     192.156 192.549 194.595  1.00  0.00     0.210 HD
ENDBRANCH   1  10
TORSDOF 4
ENDMDL
MODEL 2
REMARK VINA RESULT:    -2.851      1.749      2.452
REMARK INTER + INTRA:          -3.567
REMARK INTER:                  -3.316
REMARK INTRA:                  -0.251
REMARK UNBOUND:                -0.217
REMARK SMILES [NH3+][C@@H](CO)C(=O)[O-]
REMARK SMILES IDX 3 1 2 2 1 3 5 7 6 8 7 9 4 10
REMARK H PARENT 1 4 1 5 1 6 4 11
REMARK Flexibility Score: inf
ROOT
ATOM      1  C   UNL     1     193.758 193.960 193.956  1.00  0.00     0.227 C 
ENDROOT
BRANCH   1   2
ATOM      2  C   UNL     1     192.280 194.269 194.257  1.00  0.00     0.253 C 
BRANCH   2   3
ATOM      3  N   UNL     1     191.619 193.123 194.892  1.00  0.00    -0.348 N 
ATOM      4  H   UNL     1     191.552 192.329 194.215  1.00  0.00     0.345 HD
ATOM      5  H   UNL     1     190.655 193.381 195.212  1.00  0.00     0.345 HD
ATOM      6  H   UNL     1     192.178 192.802 195.715  1.00  0.00     0.345 HD
ENDBRANCH   2   3
BRANCH   2   7
ATOM      7  C   UNL     1     191.566 194.646 192.988  1.00  0.00     0.102 C 
ATOM      8  O   UNL     1     192.011 195.576 192.263  1.00  0.00    -0.544 OA
ATOM      9  O   UNL     1     190.421 193.962 192.598  1.00  0.00    -0.544 OA
ENDBRANCH   2   7
ENDBRANCH   1   2
BRANCH   1  10
ATOM     10  O   UNL     1     193.883 193.253 192.750  1.00  0.00    -0.390 OA
ATOM     11  H   UNL     1     192.989 193.269 192.318  1.00  0.00     0.210 HD
ENDBRANCH   1  10
TORSDOF 4
ENDMDL
MODEL 3
REMARK VINA RESULT:    -2.619      2.062      2.220
REMARK INTER + INTRA:          -3.294
REMARK INTER:                  -3.287
REMARK INTRA:                  -0.007
REMARK UNBOUND:                -0.217
REMARK SMILES [NH3+][C@@H](CO)C(=O)[O-]
REMARK SMILES IDX 3 1 2 2 1 3 5 7 6 8 7 9 4 10
REMARK H PARENT 1 4 1 5 1 6 4 11
REMARK Flexibility Score: inf
ROOT
ATOM      1  C   UNL     1     190.613 194.178 192.723  1.00  0.00     0.227 C 
ENDROOT
BRANCH   1   2
ATOM      2  C   UNL     1     191.121 194.112 194.175  1.00  0.00     0.253 C 
BRANCH   2   3
ATOM      3  N   UNL     1     190.050 194.439 195.125  1.00  0.00    -0.348 N 
ATOM      4  H   UNL     1     189.258 193.765 195.016  1.00  0.00     0.345 HD
ATOM      5  H   UNL     1     189.697 195.412 194.964  1.00  0.00     0.345 HD
ATOM      6  H   UNL     1     190.410 194.363 196.104  1.00  0.00     0.345 HD
ENDBRANCH   2   3
BRANCH   2   7
ATOM      7  C   UNL     1     192.283 195.052 194.354  1.00  0.00     0.102 C 
ATOM      8  O   UNL     1     192.085 196.243 194.710  1.00  0.00    -0.544 OA
ATOM      9  O   UNL     1     193.582 194.608 194.142  1.00  0.00    -0.544 OA
ENDBRANCH   2   7
ENDBRANCH   1   2
BRANCH   1  10
ATOM     10  O   UNL     1     190.257 192.902 192.262  1.00  0.00    -0.390 OA
ATOM     11  H   UNL     1     190.953 192.632 191.607  1.00  0.00     0.210 HD
ENDBRANCH   1  10
TORSDOF 4
ENDMDL
MODEL 4
REMARK VINA RESULT:    -2.597      1.933      2.151
REMARK INTER + INTRA:          -3.269
REMARK INTER:                  -3.049
REMARK INTRA:                  -0.221
REMARK UNBOUND:                -0.217
REMARK SMILES [NH3+][C@@H](CO)C(=O)[O-]
REMARK SMILES IDX 3 1 2 2 1 3 5 7 6 8 7 9 4 10
REMARK H PARENT 1 4 1 5 1 6 4 11
REMARK Flexibility Score: inf
ROOT
ATOM      1  C   UNL     1     191.402 194.377 194.967  1.00  0.00     0.227 C 
ENDROOT
BRANCH   1   2
ATOM      2  C   UNL     1     192.170 194.773 193.693  1.00  0.00     0.253 C 
BRANCH   2   3
ATOM      3  N   UNL     1     192.752 196.115 193.822  1.00  0.00    -0.348 N 
ATOM      4  H   UNL     1     193.520 196.239 193.123  1.00  0.00     0.345 HD
ATOM      5  H   UNL     1     193.138 196.261 194.784  1.00  0.00     0.345 HD
ATOM      6  H   UNL     1     192.020 196.838 193.633  1.00  0.00     0.345 HD
ENDBRANCH   2   3
BRANCH   2   7
ATOM      7  C   UNL     1     191.252 194.714 192.502  1.00  0.00     0.102 C 
ATOM      8  O   UNL     1     191.371 195.550 191.569  1.00  0.00    -0.544 OA
ATOM      9  O   UNL     1     190.277 193.728 192.418  1.00  0.00    -0.544 OA
ENDBRANCH   2   7
ENDBRANCH   1   2
BRANCH   1  10
ATOM     10  O   UNL     1     191.384 192.983 195.125  1.00  0.00    -0.390 OA
ATOM     11  H   UNL     1     192.156 192.629 194.610  1.00  0.00     0.210 HD
ENDBRANCH   1  10
TORSDOF 4
ENDMDL
MODEL 5
REMARK VINA RESULT:    -2.593      1.642      2.041
REMARK INTER + INTRA:          -3.264
REMARK INTER:                  -2.881
REMARK INTRA:                  -0.384
REMARK UNBOUND:                -0.217
REMARK SMILES [NH3+][C@@H](CO)C(=O)[O-]
REMARK SMILES IDX 3 1 2 2 1 3 5 7 6 8 7 9 4 10
REMARK H PARENT 1 4 1 5 1 6 4 11
REMARK Flexibility Score: inf
ROOT
ATOM      1  C   UNL     1     191.571 194.587 194.861  1.00  0.00     0.227 C 
ENDROOT
BRANCH   1   2
ATOM      2  C   UNL     1     192.868 195.202 194.305  1.00  0.00     0.253 C 
BRANCH   2   3
ATOM      3  N   UNL     1     192.593 196.444 193.572  1.00  0.00    -0.348 N 
ATOM      4  H   UNL     1     192.375 197.214 194.244  1.00  0.00     0.345 HD
ATOM      5  H   UNL     1     191.782 196.318 192.921  1.00  0.00     0.345 HD
ATOM      6  H   UNL     1     193.436 196.723 193.019  1.00  0.00     0.345 HD
ENDBRANCH   2   3
BRANCH   2   7
ATOM      7  C   UNL     1     193.562 194.210 193.410  1.00  0.00     0.102 C 
ATOM      8  O   UNL     1     194.515 193.516 193.852  1.00  0.00    -0.544 OA
ATOM      9  O   UNL     1     193.147 194.043 192.094  1.00  0.00    -0.544 OA
ENDBRANCH   2   7
ENDBRANCH   1   2
BRANCH   1  10
ATOM     10  O   UNL     1     191.581 193.191 194.721  1.00  0.00    -0.390 OA
ATOM     11  H   UNL     1     192.216 192.985 193.986  1.00  0.00     0.210 HD
ENDBRANCH   1  10
TORSDOF 4
ENDMDL
MODEL 6
REMARK VINA RESULT:    -2.574      2.199      2.357
REMARK INTER + INTRA:          -3.242
REMARK INTER:                  -3.013
REMARK INTRA:                  -0.229
REMARK UNBOUND:                -0.217
REMARK SMILES [NH3+][C@@H](CO)C(=O)[O-]
REMARK SMILES IDX 3 1 2 2 1 3 5 7 6 8 7 9 4 10
REMARK H PARENT 1 4 1 5 1 6 4 11
REMARK Flexibility Score: inf
ROOT
ATOM      1  C   UNL     1     191.441 194.295 192.170  1.00  0.00     0.227 C 
ENDROOT
BRANCH   1   2
ATOM      2  C   UNL     1     192.772 194.786 192.767  1.00  0.00     0.253 C 
BRANCH   2   3
ATOM      3  N   UNL     1     193.517 193.679 193.381  1.00  0.00    -0.348 N 
ATOM      4  H   UNL     1     194.075 193.178 192.653  1.00  0.00     0.345 HD
ATOM      5  H   UNL     1     192.862 193.001 193.837  1.00  0.00     0.345 HD
ATOM      6  H   UNL     1     194.179 194.053 194.099  1.00  0.00     0.345 HD
ENDBRANCH   2   3
BRANCH   2   7
ATOM      7  C   UNL     1     192.512 195.866 193.781  1.00  0.00     0.102 C 
ATOM      8  O   UNL     1     192.874 197.051 193.553  1.00  0.00    -0.544 OA
ATOM      9  O   UNL     1     191.858 195.568 194.970  1.00  0.00    -0.544 OA
ENDBRANCH   2   7
ENDBRANCH   1   2
BRANCH   1  10
ATOM     10  O   UNL     1     190.708 193.568 193.119  1.00  0.00    -0.390 OA
ATOM     11  H   UNL     1     190.862 192.607 192.922  1.00  0.00     0.210 HD
ENDBRANCH   1  10
TORSDOF 4
ENDMDL
MODEL 7
REMARK VINA RESULT:    -2.504      2.013      2.597
REMARK INTER + INTRA:          -3.160
REMARK INTER:                  -2.976
REMARK INTRA:                  -0.184
REMARK UNBOUND:                -0.217
REMARK SMILES [NH3+][C@@H](CO)C(=O)[O-]
REMARK SMILES IDX 3 1 2 2 1 3 5 7 6 8 7 9 4 10
REMARK H PARENT 1 4 1 5 1 6 4 11
REMARK Flexibility Score: inf
ROOT
ATOM      1  C   UNL     1     192.105 195.464 194.842  1.00  0.00     0.227 C 
ENDROOT
BRANCH   1   2
ATOM      2  C   UNL     1     191.112 194.372 194.404  1.00  0.00     0.253 C 
BRANCH   2   3
ATOM      3  N   UNL     1     191.429 193.085 195.037  1.00  0.00    -0.348 N 
ATOM      4  H   UNL     1     191.301 193.155 196.072  1.00  0.00     0.345 HD
ATOM      5  H   UNL     1     192.417 192.805 194.832  1.00  0.00     0.345 HD
ATOM      6  H   UNL     1     190.782 192.345 194.679  1.00  0.00     0.345 HD
ENDBRANCH   2   3
BRANCH   2   7
ATOM      7  C   UNL     1     191.130 194.235 192.906  1.00  0.00     0.102 C 
ATOM      8  O   UNL     1     192.225 194.153 192.290  1.00  0.00    -0.544 OA
ATOM      9  O   UNL     1     189.938 194.184 192.193  1.00  0.00    -0.544 OA
ENDBRANCH   2   7
ENDBRANCH   1   2
BRANCH   1  10
ATOM     10  O   UNL     1     192.352 196.362 193.793  1.00  0.00    -0.390 OA
ATOM     11  H   UNL     1     192.861 195.860 193.104  1.00  0.00     0.210 HD
ENDBRANCH   1  10
TORSDOF 4
ENDMDL
MODEL 8
REMARK VINA RESULT:    -2.419      1.383      2.634
REMARK INTER + INTRA:          -3.059
REMARK INTER:                  -2.660
REMARK INTRA:                  -0.399
REMARK UNBOUND:                -0.217
REMARK SMILES [NH3+][C@@H](CO)C(=O)[O-]
REMARK SMILES IDX 3 1 2 2 1 3 5 7 6 8 7 9 4 10
REMARK H PARENT 1 4 1 5 1 6 4 11
REMARK Flexibility Score: inf
ROOT
ATOM      1  C   UNL     1     191.713 195.723 191.997  1.00  0.00     0.227 C 
ENDROOT
BRANCH   1   2
ATOM      2  C   UNL     1     191.966 194.390 192.723  1.00  0.00     0.253 C 
BRANCH   2   3
ATOM      3  N   UNL     1     190.705 193.688 192.994  1.00  0.00    -0.348 N 
ATOM      4  H   UNL     1     190.095 193.710 192.145  1.00  0.00     0.345 HD
ATOM      5  H   UNL     1     190.197 194.135 193.793  1.00  0.00     0.345 HD
ATOM      6  H   UNL     1     190.900 192.688 193.228  1.00  0.00     0.345 HD
ENDBRANCH   2   3
BRANCH   2   7
ATOM      7  C   UNL     1     192.710 194.640 194.007  1.00  0.00     0.102 C 
ATOM      8  O   UNL     1     193.950 194.428 194.071  1.00  0.00    -0.544 OA
ATOM      9  O   UNL     1     192.039 195.118 195.125  1.00  0.00    -0.544 OA
ENDBRANCH   2   7
ENDBRANCH   1   2
BRANCH   1  10
ATOM     10  O   UNL     1     192.481 196.752 192.562  1.00  0.00    -0.390 OA
ATOM     11  H   UNL     1     191.860 197.508 192.734  1.00  0.00     0.210 HD
ENDBRANCH   1  10
TORSDOF 4
ENDMDL
MODEL 9
REMARK VINA RESULT:    -2.390      2.199      2.930
REMARK INTER + INTRA:          -3.025
REMARK INTER:                  -2.616
REMARK INTRA:                  -0.409
REMARK UNBOUND:                -0.217
REMARK SMILES [NH3+][C@@H](CO)C(=O)[O-]
REMARK SMILES IDX 3 1 2 2 1 3 5 7 6 8 7 9 4 10
REMARK H PARENT 1 4 1 5 1 6 4 11
REMARK Flexibility Score: inf
ROOT
ATOM      1  C   UNL     1     194.110 194.412 192.548  1.00  0.00     0.227 C 
ENDROOT
BRANCH   1   2
ATOM      2  C   UNL     1     192.956 195.411 192.747  1.00  0.00     0.253 C 
BRANCH   2   3
ATOM      3  N   UNL     1     193.456 196.711 193.211  1.00  0.00    -0.348 N 
ATOM      4  H   UNL     1     194.421 196.604 193.600  1.00  0.00     0.345 HD
ATOM      5  H   UNL     1     192.830 197.105 193.952  1.00  0.00     0.345 HD
ATOM      6  H   UNL     1     193.501 197.381 192.409  1.00  0.00     0.345 HD
ENDBRANCH   2   3
BRANCH   2   7
ATOM      7  C   UNL     1     191.960 194.855 193.727  1.00  0.00     0.102 C 
ATOM      8  O   UNL     1     190.998 194.149 193.322  1.00  0.00    -0.544 OA
ATOM      9  O   UNL     1     192.101 195.102 195.087  1.00  0.00    -0.544 OA
ENDBRANCH   2   7
ENDBRANCH   1   2
BRANCH   1  10
ATOM     10  O   UNL     1     193.980 193.321 193.420  1.00  0.00    -0.390 OA
ATOM     11  H   UNL     1     193.925 193.695 194.337  1.00  0.00     0.210 HD
ENDBRANCH   1  10
TORSDOF 4
ENDMDL
