MODEL 1
REMARK VINA RESULT:    -4.955      0.000      0.000
REMARK INTER + INTRA:          -8.177
REMARK INTER:                  -7.562
REMARK INTRA:                  -0.615
REMARK UNBOUND:                -0.615
REMARK SMILES CCCCCCCCCC=CC(=O)[O-]
REMARK SMILES IDX 7 1 8 2 9 3 10 4 11 5 12 6 13 7 14 8 6 9 5 10 4 11 3 12 2 13
REMARK SMILES IDX 1 14
REMARK H PARENT
REMARK Flexibility Score: inf
ROOT
ATOM      1  C   UNL     1      14.210   2.521  40.823  1.00  0.00     0.000 C 
ENDROOT
BRANCH   1   2
ATOM      2  C   UNL     1      12.715   2.247  41.041  1.00  0.00     0.004 C 
BRANCH   2   3
ATOM      3  C   UNL     1      11.855   3.324  40.367  1.00  0.00     0.027 C 
BRANCH   3   4
ATOM      4  C   UNL     1      12.684   4.198  39.463  1.00  0.00    -0.025 C 
ATOM      5  C   UNL     1      12.534   5.522  39.294  1.00  0.00     0.020 C 
BRANCH   5   6
ATOM      6  C   UNL     1      11.509   6.382  39.922  1.00  0.00     0.064 C 
ATOM      7  O   UNL     1      10.417   6.644  39.356  1.00  0.00    -0.545 OA
ATOM      8  O   UNL     1      11.772   6.935  41.169  1.00  0.00    -0.545 OA
ENDBRANCH   5   6
ENDBRANCH   3   4
ENDBRANCH   2   3
ENDBRANCH   1   2
BRANCH   1   9
ATOM      9  C   UNL     1      15.083   2.000  41.975  1.00  0.00     0.000 C 
BRANCH   9  10
ATOM     10  C   UNL     1      14.295   1.138  42.973  1.00  0.00     0.000 C 
BRANCH  10  11
ATOM     11  C   UNL     1      14.802  -0.309  42.968  1.00  0.00    -0.000 C 
BRANCH  11  12
ATOM     12  C   UNL     1      16.248  -0.389  43.471  1.00  0.00    -0.000 C 
BRANCH  12  13
ATOM     13  C   UNL     1      16.317  -0.159  44.985  1.00  0.00    -0.003 C 
ATOM     14  C   UNL     1      17.695  -0.517  45.534  1.00  0.00     0.004 C 
ENDBRANCH  12  13
ENDBRANCH  11  12
ENDBRANCH  10  11
ENDBRANCH   9  10
ENDBRANCH   1   9
TORSDOF 9
ENDMDL
MODEL 2
REMARK VINA RESULT:    -4.926      1.511      2.364
REMARK INTER + INTRA:          -8.133
REMARK INTER:                  -7.279
REMARK INTRA:                  -0.854
REMARK UNBOUND:                -0.615
REMARK SMILES CCCCCCCCCC=CC(=O)[O-]
REMARK SMILES IDX 7 1 8 2 9 3 10 4 11 5 12 6 13 7 14 8 6 9 5 10 4 11 3 12 2 13
REMARK SMILES IDX 1 14
REMARK H PARENT
REMARK Flexibility Score: inf
ROOT
ATOM      1  C   UNL     1      12.151   0.876  39.511  1.00  0.00     0.000 C 
ENDROOT
BRANCH   1   2
ATOM      2  C   UNL     1      11.415   2.190  39.206  1.00  0.00     0.004 C 
BRANCH   2   3
ATOM      3  C   UNL     1      11.739   3.258  40.259  1.00  0.00     0.027 C 
BRANCH   3   4
ATOM      4  C   UNL     1      12.744   4.250  39.740  1.00  0.00    -0.025 C 
ATOM      5  C   UNL     1      12.462   5.444  39.190  1.00  0.00     0.020 C 
BRANCH   5   6
ATOM      6  C   UNL     1      11.118   6.008  38.946  1.00  0.00     0.064 C 
ATOM      7  O   UNL     1      10.506   5.833  37.861  1.00  0.00    -0.545 OA
ATOM      8  O   UNL     1      10.522   6.772  39.940  1.00  0.00    -0.545 OA
ENDBRANCH   5   6
ENDBRANCH   3   4
ENDBRANCH   2   3
ENDBRANCH   1   2
BRANCH   1   9
ATOM      9  C   UNL     1      11.325  -0.076  40.389  1.00  0.00     0.000 C 
BRANCH   9  10
ATOM     10  C   UNL     1      11.798  -0.095  41.850  1.00  0.00     0.000 C 
BRANCH  10  11
ATOM     11  C   UNL     1      13.325   0.014  41.935  1.00  0.00    -0.000 C 
BRANCH  11  12
ATOM     12  C   UNL     1      13.746   1.231  42.767  1.00  0.00    -0.000 C 
BRANCH  12  13
ATOM     13  C   UNL     1      15.056   0.958  43.515  1.00  0.00    -0.003 C 
ATOM     14  C   UNL     1      15.406  -0.526  43.490  1.00  0.00     0.004 C 
ENDBRANCH  12  13
ENDBRANCH  11  12
ENDBRANCH  10  11
ENDBRANCH   9  10
ENDBRANCH   1   9
TORSDOF 9
ENDMDL
MODEL 3
REMARK VINA RESULT:    -4.865     13.154     14.217
REMARK INTER + INTRA:          -8.040
REMARK INTER:                  -6.553
REMARK INTRA:                  -1.487
REMARK UNBOUND:                -0.615
REMARK SMILES CCCCCCCCCC=CC(=O)[O-]
REMARK SMILES IDX 7 1 8 2 9 3 10 4 11 5 12 6 13 7 14 8 6 9 5 10 4 11 3 12 2 13
REMARK SMILES IDX 1 14
REMARK H PARENT
REMARK Flexibility Score: inf
ROOT
ATOM      1  C   UNL     1      22.606  -5.470  32.051  1.00  0.00     0.000 C 
ENDROOT
BRANCH   1   2
ATOM      2  C   UNL     1      22.012  -5.852  33.415  1.00  0.00     0.004 C 
BRANCH   2   3
ATOM      3  C   UNL     1      21.490  -4.612  34.152  1.00  0.00     0.027 C 
BRANCH   3   4
ATOM      4  C   UNL     1      20.543  -3.821  33.289  1.00  0.00    -0.025 C 
ATOM      5  C   UNL     1      20.136  -2.561  33.515  1.00  0.00     0.020 C 
BRANCH   5   6
ATOM      6  C   UNL     1      20.497  -1.710  34.669  1.00  0.00     0.064 C 
ATOM      7  O   UNL     1      21.367  -0.805  34.588  1.00  0.00    -0.545 OA
ATOM      8  O   UNL     1      19.870  -1.934  35.888  1.00  0.00    -0.545 OA
ENDBRANCH   5   6
ENDBRANCH   3   4
ENDBRANCH   2   3
ENDBRANCH   1   2
BRANCH   1   9
ATOM      9  C   UNL     1      22.024  -6.301  30.897  1.00  0.00     0.000 C 
BRANCH   9  10
ATOM     10  C   UNL     1      21.188  -5.457  29.923  1.00  0.00     0.000 C 
BRANCH  10  11
ATOM     11  C   UNL     1      19.693  -5.562  30.250  1.00  0.00    -0.000 C 
BRANCH  11  12
ATOM     12  C   UNL     1      19.351  -6.938  30.833  1.00  0.00    -0.000 C 
BRANCH  12  13
ATOM     13  C   UNL     1      18.458  -6.803  32.071  1.00  0.00    -0.003 C 
ATOM     14  C   UNL     1      18.889  -7.771  33.169  1.00  0.00     0.004 C 
ENDBRANCH  12  13
ENDBRANCH  11  12
ENDBRANCH  10  11
ENDBRANCH   9  10
ENDBRANCH   1   9
TORSDOF 9
ENDMDL
MODEL 4
REMARK VINA RESULT:    -4.826     12.979     14.099
REMARK INTER + INTRA:          -7.980
REMARK INTER:                  -6.872
REMARK INTRA:                  -1.107
REMARK UNBOUND:                -0.615
REMARK SMILES CCCCCCCCCC=CC(=O)[O-]
REMARK SMILES IDX 7 1 8 2 9 3 10 4 11 5 12 6 13 7 14 8 6 9 5 10 4 11 3 12 2 13
REMARK SMILES IDX 1 14
REMARK H PARENT
REMARK Flexibility Score: inf
ROOT
ATOM      1  C   UNL     1      20.840  -4.574  33.953  1.00  0.00     0.000 C 
ENDROOT
BRANCH   1   2
ATOM      2  C   UNL     1      22.209  -5.009  33.409  1.00  0.00     0.004 C 
BRANCH   2   3
ATOM      3  C   UNL     1      22.102  -6.342  32.657  1.00  0.00     0.027 C 
BRANCH   3   4
ATOM      4  C   UNL     1      22.223  -6.142  31.170  1.00  0.00    -0.025 C 
ATOM      5  C   UNL     1      21.203  -5.966  30.313  1.00  0.00     0.020 C 
BRANCH   5   6
ATOM      6  C   UNL     1      19.762  -5.973  30.642  1.00  0.00     0.064 C 
ATOM      7  O   UNL     1      19.144  -7.033  30.923  1.00  0.00    -0.545 OA
ATOM      8  O   UNL     1      19.064  -4.773  30.620  1.00  0.00    -0.545 OA
ENDBRANCH   5   6
ENDBRANCH   3   4
ENDBRANCH   2   3
ENDBRANCH   1   2
BRANCH   1   9
ATOM      9  C   UNL     1      20.425  -3.177  33.467  1.00  0.00     0.000 C 
BRANCH   9  10
ATOM     10  C   UNL     1      19.451  -2.480  34.429  1.00  0.00     0.000 C 
BRANCH  10  11
ATOM     11  C   UNL     1      20.206  -1.607  35.438  1.00  0.00    -0.000 C 
BRANCH  11  12
ATOM     12  C   UNL     1      21.428  -0.946  34.789  1.00  0.00    -0.000 C 
BRANCH  12  13
ATOM     13  C   UNL     1      22.634  -0.972  35.735  1.00  0.00    -0.003 C 
ATOM     14  C   UNL     1      23.243  -2.368  35.813  1.00  0.00     0.004 C 
ENDBRANCH  12  13
ENDBRANCH  11  12
ENDBRANCH  10  11
ENDBRANCH   9  10
ENDBRANCH   1   9
TORSDOF 9
ENDMDL
MODEL 5
REMARK VINA RESULT:    -4.823     12.671     13.859
REMARK INTER + INTRA:          -7.976
REMARK INTER:                  -6.636
REMARK INTRA:                  -1.341
REMARK UNBOUND:                -0.615
REMARK SMILES CCCCCCCCCC=CC(=O)[O-]
REMARK SMILES IDX 7 1 8 2 9 3 10 4 11 5 12 6 13 7 14 8 6 9 5 10 4 11 3 12 2 13
REMARK SMILES IDX 1 14
REMARK H PARENT
REMARK Flexibility Score: inf
ROOT
ATOM      1  C   UNL     1      19.586  -3.292  35.127  1.00  0.00     0.000 C 
ENDROOT
BRANCH   1   2
ATOM      2  C   UNL     1      20.107  -4.565  34.444  1.00  0.00     0.004 C 
BRANCH   2   3
ATOM      3  C   UNL     1      21.130  -4.223  33.353  1.00  0.00     0.027 C 
BRANCH   3   4
ATOM      4  C   UNL     1      22.226  -5.253  33.288  1.00  0.00    -0.025 C 
ATOM      5  C   UNL     1      22.502  -6.046  32.240  1.00  0.00     0.020 C 
BRANCH   5   6
ATOM      6  C   UNL     1      21.768  -6.102  30.958  1.00  0.00     0.064 C 
ATOM      7  O   UNL     1      22.281  -5.718  29.875  1.00  0.00    -0.545 OA
ATOM      8  O   UNL     1      20.461  -6.573  30.954  1.00  0.00    -0.545 OA
ENDBRANCH   5   6
ENDBRANCH   3   4
ENDBRANCH   2   3
ENDBRANCH   1   2
BRANCH   1   9
ATOM      9  C   UNL     1      19.985  -2.011  34.379  1.00  0.00     0.000 C 
BRANCH   9  10
ATOM     10  C   UNL     1      20.444  -0.891  35.325  1.00  0.00     0.000 C 
BRANCH  10  11
ATOM     11  C   UNL     1      21.928  -0.565  35.112  1.00  0.00    -0.000 C 
BRANCH  11  12
ATOM     12  C   UNL     1      22.797  -1.221  36.191  1.00  0.00    -0.000 C 
BRANCH  12  13
ATOM     13  C   UNL     1      23.409  -2.531  35.682  1.00  0.00    -0.003 C 
ATOM     14  C   UNL     1      23.061  -3.696  36.604  1.00  0.00     0.004 C 
ENDBRANCH  12  13
ENDBRANCH  11  12
ENDBRANCH  10  11
ENDBRANCH   9  10
ENDBRANCH   1   9
TORSDOF 9
ENDMDL
MODEL 6
REMARK VINA RESULT:    -4.814      5.101      6.619
REMARK INTER + INTRA:          -7.963
REMARK INTER:                  -6.941
REMARK INTRA:                  -1.022
REMARK UNBOUND:                -0.615
REMARK SMILES CCCCCCCCCC=CC(=O)[O-]
REMARK SMILES IDX 7 1 8 2 9 3 10 4 11 5 12 6 13 7 14 8 6 9 5 10 4 11 3 12 2 13
REMARK SMILES IDX 1 14
REMARK H PARENT
REMARK Flexibility Score: inf
ROOT
ATOM      1  C   UNL     1      13.011   0.689  41.763  1.00  0.00     0.000 C 
ENDROOT
BRANCH   1   2
ATOM      2  C   UNL     1      12.381  -0.712  41.760  1.00  0.00     0.004 C 
BRANCH   2   3
ATOM      3  C   UNL     1      13.438  -1.789  41.486  1.00  0.00     0.027 C 
BRANCH   3   4
ATOM      4  C   UNL     1      13.518  -2.778  42.618  1.00  0.00    -0.025 C 
ATOM      5  C   UNL     1      12.892  -3.966  42.672  1.00  0.00     0.020 C 
BRANCH   5   6
ATOM      6  C   UNL     1      11.971  -4.525  41.660  1.00  0.00     0.064 C 
ATOM      7  O   UNL     1      10.727  -4.343  41.713  1.00  0.00    -0.545 OA
ATOM      8  O   UNL     1      12.496  -5.294  40.630  1.00  0.00    -0.545 OA
ENDBRANCH   5   6
ENDBRANCH   3   4
ENDBRANCH   2   3
ENDBRANCH   1   2
BRANCH   1   9
ATOM      9  C   UNL     1      13.828   0.971  43.033  1.00  0.00     0.000 C 
BRANCH   9  10
ATOM     10  C   UNL     1      15.261   1.430  42.726  1.00  0.00     0.000 C 
BRANCH  10  11
ATOM     11  C   UNL     1      16.271   0.314  43.024  1.00  0.00    -0.000 C 
BRANCH  11  12
ATOM     12  C   UNL     1      15.827  -0.524  44.228  1.00  0.00    -0.000 C 
BRANCH  12  13
ATOM     13  C   UNL     1      16.568  -0.096  45.499  1.00  0.00    -0.003 C 
ATOM     14  C   UNL     1      18.022  -0.559  45.471  1.00  0.00     0.004 C 
ENDBRANCH  12  13
ENDBRANCH  11  12
ENDBRANCH  10  11
ENDBRANCH   9  10
ENDBRANCH   1   9
TORSDOF 9
ENDMDL
MODEL 7
REMARK VINA RESULT:    -4.793     12.328     13.347
REMARK INTER + INTRA:          -7.929
REMARK INTER:                  -6.717
REMARK INTRA:                  -1.212
REMARK UNBOUND:                -0.615
REMARK SMILES CCCCCCCCCC=CC(=O)[O-]
REMARK SMILES IDX 7 1 8 2 9 3 10 4 11 5 12 6 13 7 14 8 6 9 5 10 4 11 3 12 2 13
REMARK SMILES IDX 1 14
REMARK H PARENT
REMARK Flexibility Score: inf
ROOT
ATOM      1  C   UNL     1      19.527  -2.109  34.921  1.00  0.00     0.000 C 
ENDROOT
BRANCH   1   2
ATOM      2  C   UNL     1      20.084  -2.525  33.552  1.00  0.00     0.004 C 
BRANCH   2   3
ATOM      3  C   UNL     1      19.849  -4.019  33.294  1.00  0.00     0.027 C 
BRANCH   3   4
ATOM      4  C   UNL     1      21.099  -4.690  32.793  1.00  0.00    -0.025 C 
ATOM      5  C   UNL     1      21.171  -5.566  31.776  1.00  0.00     0.020 C 
BRANCH   5   6
ATOM      6  C   UNL     1      20.041  -6.078  30.971  1.00  0.00     0.064 C 
ATOM      7  O   UNL     1      19.691  -5.539  29.890  1.00  0.00    -0.545 OA
ATOM      8  O   UNL     1      19.332  -7.178  31.437  1.00  0.00    -0.545 OA
ENDBRANCH   5   6
ENDBRANCH   3   4
ENDBRANCH   2   3
ENDBRANCH   1   2
BRANCH   1   9
ATOM      9  C   UNL     1      20.191  -0.837  35.471  1.00  0.00     0.000 C 
BRANCH   9  10
ATOM     10  C   UNL     1      21.518  -0.511  34.770  1.00  0.00     0.000 C 
BRANCH  10  11
ATOM     11  C   UNL     1      22.629  -0.247  35.794  1.00  0.00    -0.000 C 
BRANCH  11  12
ATOM     12  C   UNL     1      22.987  -1.524  36.561  1.00  0.00    -0.000 C 
BRANCH  12  13
ATOM     13  C   UNL     1      23.344  -2.662  35.597  1.00  0.00    -0.003 C 
ATOM     14  C   UNL     1      22.698  -3.975  36.032  1.00  0.00     0.004 C 
ENDBRANCH  12  13
ENDBRANCH  11  12
ENDBRANCH  10  11
ENDBRANCH   9  10
ENDBRANCH   1   9
TORSDOF 9
ENDMDL
MODEL 8
REMARK VINA RESULT:    -4.777     13.749     14.753
REMARK INTER + INTRA:          -7.905
REMARK INTER:                  -6.310
REMARK INTRA:                  -1.594
REMARK UNBOUND:                -0.615
REMARK SMILES CCCCCCCCCC=CC(=O)[O-]
REMARK SMILES IDX 7 1 8 2 9 3 10 4 11 5 12 6 13 7 14 8 6 9 5 10 4 11 3 12 2 13
REMARK SMILES IDX 1 14
REMARK H PARENT
REMARK Flexibility Score: inf
ROOT
ATOM      1  C   UNL     1      19.659  -5.298  30.264  1.00  0.00     0.000 C 
ENDROOT
BRANCH   1   2
ATOM      2  C   UNL     1      19.166  -4.425  31.428  1.00  0.00     0.004 C 
BRANCH   2   3
ATOM      3  C   UNL     1      17.852  -4.969  32.003  1.00  0.00     0.027 C 
BRANCH   3   4
ATOM      4  C   UNL     1      17.985  -5.278  33.470  1.00  0.00    -0.025 C 
ATOM      5  C   UNL     1      17.855  -6.491  34.035  1.00  0.00     0.020 C 
BRANCH   5   6
ATOM      6  C   UNL     1      17.518  -7.754  33.346  1.00  0.00     0.064 C 
ATOM      7  O   UNL     1      16.364  -8.253  33.388  1.00  0.00    -0.545 OA
ATOM      8  O   UNL     1      18.516  -8.422  32.647  1.00  0.00    -0.545 OA
ENDBRANCH   5   6
ENDBRANCH   3   4
ENDBRANCH   2   3
ENDBRANCH   1   2
BRANCH   1   9
ATOM      9  C   UNL     1      20.580  -6.437  30.725  1.00  0.00     0.000 C 
BRANCH   9  10
ATOM     10  C   UNL     1      22.063  -6.037  30.727  1.00  0.00     0.000 C 
BRANCH  10  11
ATOM     11  C   UNL     1      22.628  -6.030  32.153  1.00  0.00    -0.000 C 
BRANCH  11  12
ATOM     12  C   UNL     1      21.684  -6.748  33.123  1.00  0.00    -0.000 C 
BRANCH  12  13
ATOM     13  C   UNL     1      21.480  -5.926  34.401  1.00  0.00    -0.003 C 
ATOM     14  C   UNL     1      21.801  -4.453  34.165  1.00  0.00     0.004 C 
ENDBRANCH  12  13
ENDBRANCH  11  12
ENDBRANCH  10  11
ENDBRANCH   9  10
ENDBRANCH   1   9
TORSDOF 9
ENDMDL
MODEL 9
REMARK VINA RESULT:    -4.757     13.103     14.298
REMARK INTER + INTRA:          -7.875
REMARK INTER:                  -6.997
REMARK INTRA:                  -0.878
REMARK UNBOUND:                -0.615
REMARK SMILES CCCCCCCCCC=CC(=O)[O-]
REMARK SMILES IDX 7 1 8 2 9 3 10 4 11 5 12 6 13 7 14 8 6 9 5 10 4 11 3 12 2 13
REMARK SMILES IDX 1 14
REMARK H PARENT
REMARK Flexibility Score: inf
ROOT
ATOM      1  C   UNL     1      21.353  -6.000  34.082  1.00  0.00     0.000 C 
ENDROOT
BRANCH   1   2
ATOM      2  C   UNL     1      22.024  -6.754  32.924  1.00  0.00     0.004 C 
BRANCH   2   3
ATOM      3  C   UNL     1      22.590  -5.775  31.887  1.00  0.00     0.027 C 
BRANCH   3   4
ATOM      4  C   UNL     1      22.083  -6.089  30.505  1.00  0.00    -0.025 C 
ATOM      5  C   UNL     1      20.888  -5.734  30.004  1.00  0.00     0.020 C 
BRANCH   5   6
ATOM      6  C   UNL     1      19.816  -5.003  30.712  1.00  0.00     0.064 C 
ATOM      7  O   UNL     1      19.770  -3.747  30.742  1.00  0.00    -0.545 OA
ATOM      8  O   UNL     1      18.841  -5.730  31.383  1.00  0.00    -0.545 OA
ENDBRANCH   5   6
ENDBRANCH   3   4
ENDBRANCH   2   3
ENDBRANCH   1   2
BRANCH   1   9
ATOM      9  C   UNL     1      21.434  -4.474  33.923  1.00  0.00     0.000 C 
BRANCH   9  10
ATOM     10  C   UNL     1      21.583  -3.746  35.268  1.00  0.00     0.000 C 
BRANCH  10  11
ATOM     11  C   UNL     1      23.003  -3.192  35.438  1.00  0.00    -0.000 C 
BRANCH  11  12
ATOM     12  C   UNL     1      22.974  -1.697  35.777  1.00  0.00    -0.000 C 
BRANCH  12  13
ATOM     13  C   UNL     1      21.626  -1.074  35.397  1.00  0.00    -0.003 C 
ATOM     14  C   UNL     1      21.799   0.368  34.928  1.00  0.00     0.004 C 
ENDBRANCH  12  13
ENDBRANCH  11  12
ENDBRANCH  10  11
ENDBRANCH   9  10
ENDBRANCH   1   9
TORSDOF 9
ENDMDL
