MODEL 1
REMARK VINA RESULT:    -2.214      0.000      0.000
REMARK INTER + INTRA:          -3.062
REMARK INTER:                  -2.861
REMARK INTRA:                  -0.200
REMARK UNBOUND:                -0.200
REMARK SMILES CCCCCCC=O
REMARK SMILES IDX 4 1 3 2 2 3 1 4 5 5 6 6 7 7 8 8
REMARK H PARENT
REMARK Flexibility Score: inf
ROOT
ATOM      1  C   UNL     1     128.183 127.880 117.757  1.00  0.00     0.000 C 
ENDROOT
BRANCH   1   2
ATOM      2  C   UNL     1     126.702 127.478 117.822  1.00  0.00    -0.000 C 
BRANCH   2   3
ATOM      3  C   UNL     1     125.795 128.636 118.266  1.00  0.00    -0.003 C 
ATOM      4  C   UNL     1     124.436 128.160 118.779  1.00  0.00     0.004 C 
ENDBRANCH   2   3
ENDBRANCH   1   2
BRANCH   1   5
ATOM      5  C   UNL     1     128.849 127.318 116.495  1.00  0.00     0.008 C 
BRANCH   5   6
ATOM      6  C   UNL     1     127.810 126.703 115.551  1.00  0.00     0.072 C 
BRANCH   6   7
ATOM      7  C   UNL     1     128.205 125.313 115.152  1.00  0.00     0.224 C 
ATOM      8  O   UNL     1     128.486 124.481 116.000  1.00  0.00    -0.303 OA
ENDBRANCH   6   7
ENDBRANCH   5   6
ENDBRANCH   1   5
TORSDOF 5
ENDMDL
MODEL 2
REMARK VINA RESULT:    -2.210     13.759     15.428
REMARK INTER + INTRA:          -3.057
REMARK INTER:                  -2.925
REMARK INTRA:                  -0.131
REMARK UNBOUND:                -0.200
REMARK SMILES CCCCCCC=O
REMARK SMILES IDX 4 1 3 2 2 3 1 4 5 5 6 6 7 7 8 8
REMARK H PARENT
REMARK Flexibility Score: inf
ROOT
ATOM      1  C   UNL     1     127.338 112.100 117.541  1.00  0.00     0.000 C 
ENDROOT
BRANCH   1   2
ATOM      2  C   UNL     1     128.680 111.934 118.270  1.00  0.00    -0.000 C 
BRANCH   2   3
ATOM      3  C   UNL     1     129.284 113.277 118.707  1.00  0.00    -0.003 C 
ATOM      4  C   UNL     1     128.282 114.429 118.634  1.00  0.00     0.004 C 
ENDBRANCH   2   3
ENDBRANCH   1   2
BRANCH   1   5
ATOM      5  C   UNL     1     126.945 110.809 116.813  1.00  0.00     0.008 C 
BRANCH   5   6
ATOM      6  C   UNL     1     126.578 111.091 115.352  1.00  0.00     0.072 C 
BRANCH   6   7
ATOM      7  C   UNL     1     125.285 110.426 114.986  1.00  0.00     0.224 C 
ATOM      8  O   UNL     1     124.232 110.807 115.473  1.00  0.00    -0.303 OA
ENDBRANCH   6   7
ENDBRANCH   5   6
ENDBRANCH   1   5
TORSDOF 5
ENDMDL
MODEL 3
REMARK VINA RESULT:    -2.182      2.033      4.314
REMARK INTER + INTRA:          -3.020
REMARK INTER:                  -2.850
REMARK INTRA:                  -0.169
REMARK UNBOUND:                -0.200
REMARK SMILES CCCCCCC=O
REMARK SMILES IDX 4 1 3 2 2 3 1 4 5 5 6 6 7 7 8 8
REMARK H PARENT
REMARK Flexibility Score: inf
ROOT
ATOM      1  C   UNL     1     128.051 128.066 117.770  1.00  0.00     0.000 C 
ENDROOT
BRANCH   1   2
ATOM      2  C   UNL     1     128.751 127.369 116.595  1.00  0.00    -0.000 C 
BRANCH   2   3
ATOM      3  C   UNL     1     127.759 126.717 115.619  1.00  0.00    -0.003 C 
ATOM      4  C   UNL     1     128.280 125.404 115.035  1.00  0.00     0.004 C 
ENDBRANCH   2   3
ENDBRANCH   1   2
BRANCH   1   5
ATOM      5  C   UNL     1     126.634 127.515 117.970  1.00  0.00     0.008 C 
BRANCH   5   6
ATOM      6  C   UNL     1     125.648 128.640 118.303  1.00  0.00     0.072 C 
BRANCH   6   7
ATOM      7  C   UNL     1     124.374 128.087 118.868  1.00  0.00     0.224 C 
ATOM      8  O   UNL     1     124.223 126.882 118.991  1.00  0.00    -0.303 OA
ENDBRANCH   6   7
ENDBRANCH   5   6
ENDBRANCH   1   5
TORSDOF 5
ENDMDL
MODEL 4
REMARK VINA RESULT:    -2.177     12.779     14.893
REMARK INTER + INTRA:          -3.013
REMARK INTER:                  -2.834
REMARK INTRA:                  -0.179
REMARK UNBOUND:                -0.200
REMARK SMILES CCCCCCC=O
REMARK SMILES IDX 4 1 3 2 2 3 1 4 5 5 6 6 7 7 8 8
REMARK H PARENT
REMARK Flexibility Score: inf
ROOT
ATOM      1  C   UNL     1     111.974 128.739 116.816  1.00  0.00     0.000 C 
ENDROOT
BRANCH   1   2
ATOM      2  C   UNL     1     111.027 128.007 117.777  1.00  0.00    -0.000 C 
BRANCH   2   3
ATOM      3  C   UNL     1     111.396 126.527 117.957  1.00  0.00    -0.003 C 
ATOM      4  C   UNL     1     110.213 125.672 118.409  1.00  0.00     0.004 C 
ENDBRANCH   2   3
ENDBRANCH   1   2
BRANCH   1   5
ATOM      5  C   UNL     1     112.367 127.838 115.639  1.00  0.00     0.008 C 
BRANCH   5   6
ATOM      6  C   UNL     1     113.617 128.371 114.931  1.00  0.00     0.072 C 
BRANCH   6   7
ATOM      7  C   UNL     1     114.730 128.605 115.909  1.00  0.00     0.224 C 
ATOM      8  O   UNL     1     115.843 128.147 115.702  1.00  0.00    -0.303 OA
ENDBRANCH   6   7
ENDBRANCH   5   6
ENDBRANCH   1   5
TORSDOF 5
ENDMDL
MODEL 5
REMARK VINA RESULT:    -2.175     20.694     21.749
REMARK INTER + INTRA:          -3.011
REMARK INTER:                  -2.907
REMARK INTRA:                  -0.104
REMARK UNBOUND:                -0.200
REMARK SMILES CCCCCCC=O
REMARK SMILES IDX 4 1 3 2 2 3 1 4 5 5 6 6 7 7 8 8
REMARK H PARENT
REMARK Flexibility Score: inf
ROOT
ATOM      1  C   UNL     1     111.797 111.704 117.243  1.00  0.00     0.000 C 
ENDROOT
BRANCH   1   2
ATOM      2  C   UNL     1     110.363 111.769 116.697  1.00  0.00    -0.000 C 
BRANCH   2   3
ATOM      3  C   UNL     1     110.307 112.266 115.244  1.00  0.00    -0.003 C 
ATOM      4  C   UNL     1     110.892 113.668 115.075  1.00  0.00     0.004 C 
ENDBRANCH   2   3
ENDBRANCH   1   2
BRANCH   1   5
ATOM      5  C   UNL     1     111.961 110.533 118.219  1.00  0.00     0.008 C 
BRANCH   5   6
ATOM      6  C   UNL     1     113.437 110.155 118.383  1.00  0.00     0.072 C 
BRANCH   6   7
ATOM      7  C   UNL     1     114.210 111.273 119.017  1.00  0.00     0.224 C 
ATOM      8  O   UNL     1     115.372 111.478 118.704  1.00  0.00    -0.303 OA
ENDBRANCH   6   7
ENDBRANCH   5   6
ENDBRANCH   1   5
TORSDOF 5
ENDMDL
MODEL 6
REMARK VINA RESULT:    -2.159      1.952      3.263
REMARK INTER + INTRA:          -2.990
REMARK INTER:                  -2.818
REMARK INTRA:                  -0.173
REMARK UNBOUND:                -0.200
REMARK SMILES CCCCCCC=O
REMARK SMILES IDX 4 1 3 2 2 3 1 4 5 5 6 6 7 7 8 8
REMARK H PARENT
REMARK Flexibility Score: inf
ROOT
ATOM      1  C   UNL     1     128.199 125.304 114.952  1.00  0.00     0.000 C 
ENDROOT
BRANCH   1   2
ATOM      2  C   UNL     1     128.094 126.733 115.505  1.00  0.00    -0.000 C 
BRANCH   2   3
ATOM      3  C   UNL     1     127.979 126.766 117.037  1.00  0.00    -0.003 C 
ATOM      4  C   UNL     1     126.897 127.726 117.528  1.00  0.00     0.004 C 
ENDBRANCH   2   3
ENDBRANCH   1   2
BRANCH   1   5
ATOM      5  C   UNL     1     128.630 124.321 116.048  1.00  0.00     0.008 C 
BRANCH   5   6
ATOM      6  C   UNL     1     129.243 123.055 115.441  1.00  0.00     0.072 C 
BRANCH   6   7
ATOM      7  C   UNL     1     128.371 121.862 115.695  1.00  0.00     0.224 C 
ATOM      8  O   UNL     1     127.157 121.947 115.586  1.00  0.00    -0.303 OA
ENDBRANCH   6   7
ENDBRANCH   5   6
ENDBRANCH   1   5
TORSDOF 5
ENDMDL
MODEL 7
REMARK VINA RESULT:    -2.137     11.283     13.384
REMARK INTER + INTRA:          -2.962
REMARK INTER:                  -2.713
REMARK INTRA:                  -0.249
REMARK UNBOUND:                -0.200
REMARK SMILES CCCCCCC=O
REMARK SMILES IDX 4 1 3 2 2 3 1 4 5 5 6 6 7 7 8 8
REMARK H PARENT
REMARK Flexibility Score: inf
ROOT
ATOM      1  C   UNL     1     113.529 128.202 114.996  1.00  0.00     0.000 C 
ENDROOT
BRANCH   1   2
ATOM      2  C   UNL     1     112.268 129.062 115.168  1.00  0.00    -0.000 C 
BRANCH   2   3
ATOM      3  C   UNL     1     111.601 128.862 116.538  1.00  0.00    -0.003 C 
ATOM      4  C   UNL     1     111.828 127.463 117.109  1.00  0.00     0.004 C 
ENDBRANCH   2   3
ENDBRANCH   1   2
BRANCH   1   5
ATOM      5  C   UNL     1     114.797 129.054 115.122  1.00  0.00     0.008 C 
BRANCH   5   6
ATOM      6  C   UNL     1     115.621 128.637 116.344  1.00  0.00     0.072 C 
BRANCH   6   7
ATOM      7  C   UNL     1     116.973 128.133 115.934  1.00  0.00     0.224 C 
ATOM      8  O   UNL     1     117.109 126.991 115.523  1.00  0.00    -0.303 OA
ENDBRANCH   6   7
ENDBRANCH   5   6
ENDBRANCH   1   5
TORSDOF 5
ENDMDL
MODEL 8
REMARK VINA RESULT:    -2.120     20.993     21.997
REMARK INTER + INTRA:          -2.940
REMARK INTER:                  -2.825
REMARK INTRA:                  -0.115
REMARK UNBOUND:                -0.200
REMARK SMILES CCCCCCC=O
REMARK SMILES IDX 4 1 3 2 2 3 1 4 5 5 6 6 7 7 8 8
REMARK H PARENT
REMARK Flexibility Score: inf
ROOT
ATOM      1  C   UNL     1     110.965 111.475 117.296  1.00  0.00     0.000 C 
ENDROOT
BRANCH   1   2
ATOM      2  C   UNL     1     112.135 111.699 118.264  1.00  0.00    -0.000 C 
BRANCH   2   3
ATOM      3  C   UNL     1     113.146 110.542 118.246  1.00  0.00    -0.003 C 
ATOM      4  C   UNL     1     114.423 110.859 119.022  1.00  0.00     0.004 C 
ENDBRANCH   2   3
ENDBRANCH   1   2
BRANCH   1   5
ATOM      5  C   UNL     1     111.246 112.122 115.934  1.00  0.00     0.008 C 
BRANCH   5   6
ATOM      6  C   UNL     1     109.942 112.494 115.222  1.00  0.00     0.072 C 
BRANCH   6   7
ATOM      7  C   UNL     1     109.875 113.969 114.959  1.00  0.00     0.224 C 
ATOM      8  O   UNL     1     110.174 114.768 115.833  1.00  0.00    -0.303 OA
ENDBRANCH   6   7
ENDBRANCH   5   6
ENDBRANCH   1   5
TORSDOF 5
ENDMDL
MODEL 9
REMARK VINA RESULT:    -2.088     13.244     15.602
REMARK INTER + INTRA:          -2.899
REMARK INTER:                  -2.663
REMARK INTRA:                  -0.236
REMARK UNBOUND:                -0.200
REMARK SMILES CCCCCCC=O
REMARK SMILES IDX 4 1 3 2 2 3 1 4 5 5 6 6 7 7 8 8
REMARK H PARENT
REMARK Flexibility Score: inf
ROOT
ATOM      1  C   UNL     1     111.683 129.372 115.949  1.00  0.00     0.000 C 
ENDROOT
BRANCH   1   2
ATOM      2  C   UNL     1     112.655 128.481 115.161  1.00  0.00    -0.000 C 
BRANCH   2   3
ATOM      3  C   UNL     1     113.996 129.175 114.881  1.00  0.00    -0.003 C 
ATOM      4  C   UNL     1     115.137 128.625 115.735  1.00  0.00     0.004 C 
ENDBRANCH   2   3
ENDBRANCH   1   2
BRANCH   1   5
ATOM      5  C   UNL     1     111.371 128.764 117.322  1.00  0.00     0.008 C 
BRANCH   5   6
ATOM      6  C   UNL     1     111.627 127.253 117.326  1.00  0.00     0.072 C 
BRANCH   6   7
ATOM      7  C   UNL     1     110.684 126.551 118.255  1.00  0.00     0.224 C 
ATOM      8  O   UNL     1     110.600 125.332 118.250  1.00  0.00    -0.303 OA
ENDBRANCH   6   7
ENDBRANCH   5   6
ENDBRANCH   1   5
TORSDOF 5
ENDMDL
