MODEL 1
REMARK VINA RESULT:    -3.077      0.000      0.000
REMARK INTER + INTRA:          -6.461
REMARK INTER:                  -4.875
REMARK INTRA:                  -1.586
REMARK UNBOUND:                -1.586
REMARK SMILES CCCCCCCCCCCC=O
REMARK SMILES IDX 7 1 6 2 5 3 4 4 3 5 2 6 1 7 8 8 9 9 10 10 11 11 12 12 13 13
REMARK H PARENT
REMARK Flexibility Score: inf
ROOT
ATOM      1  C   UNL     1     135.833 139.177 131.979  1.00  0.00     0.000 C 
ENDROOT
BRANCH   1   2
ATOM      2  C   UNL     1     135.308 140.408 131.217  1.00  0.00     0.000 C 
BRANCH   2   3
ATOM      3  C   UNL     1     134.655 140.041 129.874  1.00  0.00    -0.000 C 
BRANCH   3   4
ATOM      4  C   UNL     1     135.440 140.586 128.670  1.00  0.00    -0.000 C 
BRANCH   4   5
ATOM      5  C   UNL     1     136.811 141.158 129.072  1.00  0.00    -0.000 C 
BRANCH   5   6
ATOM      6  C   UNL     1     137.972 140.224 128.696  1.00  0.00    -0.003 C 
ATOM      7  C   UNL     1     139.038 140.137 129.787  1.00  0.00     0.004 C 
ENDBRANCH   5   6
ENDBRANCH   4   5
ENDBRANCH   3   4
ENDBRANCH   2   3
ENDBRANCH   1   2
BRANCH   1   8
ATOM      8  C   UNL     1     135.741 137.847 131.204  1.00  0.00     0.000 C 
BRANCH   8   9
ATOM      9  C   UNL     1     137.095 137.227 130.802  1.00  0.00     0.000 C 
BRANCH   9  10
ATOM     10  C   UNL     1     137.063 136.379 129.518  1.00  0.00     0.008 C 
BRANCH  10  11
ATOM     11  C   UNL     1     136.058 136.904 128.483  1.00  0.00     0.072 C 
BRANCH  11  12
ATOM     12  C   UNL     1     135.147 135.807 128.021  1.00  0.00     0.224 C 
ATOM     13  O   UNL     1     133.977 135.786 128.368  1.00  0.00    -0.303 OA
ENDBRANCH  11  12
ENDBRANCH  10  11
ENDBRANCH   9  10
ENDBRANCH   8   9
ENDBRANCH   1   8
TORSDOF 10
ENDMDL
MODEL 2
REMARK VINA RESULT:    -3.006      2.577      4.982
REMARK INTER + INTRA:          -6.349
REMARK INTER:                  -4.888
REMARK INTRA:                  -1.461
REMARK UNBOUND:                -1.586
REMARK SMILES CCCCCCCCCCCC=O
REMARK SMILES IDX 7 1 6 2 5 3 4 4 3 5 2 6 1 7 8 8 9 9 10 10 11 11 12 12 13 13
REMARK H PARENT
REMARK Flexibility Score: inf
ROOT
ATOM      1  C   UNL     1     137.199 134.843 129.117  1.00  0.00     0.000 C 
ENDROOT
BRANCH   1   2
ATOM      2  C   UNL     1     138.383 133.869 128.979  1.00  0.00     0.000 C 
BRANCH   2   3
ATOM      3  C   UNL     1     139.679 134.568 128.533  1.00  0.00    -0.000 C 
BRANCH   3   4
ATOM      4  C   UNL     1     140.300 135.423 129.648  1.00  0.00    -0.000 C 
BRANCH   4   5
ATOM      5  C   UNL     1     140.312 136.923 129.302  1.00  0.00    -0.000 C 
BRANCH   5   6
ATOM      6  C   UNL     1     139.564 137.772 130.342  1.00  0.00    -0.003 C 
ATOM      7  C   UNL     1     139.086 136.953 131.541  1.00  0.00     0.004 C 
ENDBRANCH   5   6
ENDBRANCH   4   5
ENDBRANCH   3   4
ENDBRANCH   2   3
ENDBRANCH   1   2
BRANCH   1   8
ATOM      8  C   UNL     1     136.982 135.774 127.908  1.00  0.00     0.000 C 
BRANCH   8   9
ATOM      9  C   UNL     1     136.249 137.095 128.221  1.00  0.00     0.000 C 
BRANCH   9  10
ATOM     10  C   UNL     1     135.817 137.264 129.689  1.00  0.00     0.008 C 
BRANCH  10  11
ATOM     11  C   UNL     1     135.898 138.721 130.167  1.00  0.00     0.072 C 
BRANCH  11  12
ATOM     12  C   UNL     1     134.900 139.575 129.446  1.00  0.00     0.224 C 
ATOM     13  O   UNL     1     135.261 140.570 128.838  1.00  0.00    -0.303 OA
ENDBRANCH  11  12
ENDBRANCH  10  11
ENDBRANCH   9  10
ENDBRANCH   8   9
ENDBRANCH   1   8
TORSDOF 10
ENDMDL
MODEL 3
REMARK VINA RESULT:    -3.002      2.163      4.395
REMARK INTER + INTRA:          -6.342
REMARK INTER:                  -4.738
REMARK INTRA:                  -1.604
REMARK UNBOUND:                -1.586
REMARK SMILES CCCCCCCCCCCC=O
REMARK SMILES IDX 7 1 6 2 5 3 4 4 3 5 2 6 1 7 8 8 9 9 10 10 11 11 12 12 13 13
REMARK H PARENT
REMARK Flexibility Score: inf
ROOT
ATOM      1  C   UNL     1     134.724 139.921 129.796  1.00  0.00     0.000 C 
ENDROOT
BRANCH   1   2
ATOM      2  C   UNL     1     135.176 140.326 131.210  1.00  0.00     0.000 C 
BRANCH   2   3
ATOM      3  C   UNL     1     135.731 139.140 132.019  1.00  0.00    -0.000 C 
BRANCH   3   4
ATOM      4  C   UNL     1     135.784 137.842 131.198  1.00  0.00    -0.000 C 
BRANCH   4   5
ATOM      5  C   UNL     1     137.213 137.285 131.068  1.00  0.00    -0.000 C 
BRANCH   5   6
ATOM      6  C   UNL     1     137.542 136.838 129.635  1.00  0.00    -0.003 C 
ATOM      7  C   UNL     1     136.293 136.643 128.776  1.00  0.00     0.004 C 
ENDBRANCH   5   6
ENDBRANCH   4   5
ENDBRANCH   3   4
ENDBRANCH   2   3
ENDBRANCH   1   2
BRANCH   1   8
ATOM      8  C   UNL     1     135.501 140.597 128.648  1.00  0.00     0.000 C 
BRANCH   8   9
ATOM      9  C   UNL     1     136.894 141.138 129.030  1.00  0.00     0.000 C 
BRANCH   9  10
ATOM     10  C   UNL     1     138.066 140.189 128.720  1.00  0.00     0.008 C 
BRANCH  10  11
ATOM     11  C   UNL     1     139.168 140.238 129.787  1.00  0.00     0.072 C 
BRANCH  11  12
ATOM     12  C   UNL     1     140.390 139.503 129.326  1.00  0.00     0.224 C 
ATOM     13  O   UNL     1     140.834 138.570 129.977  1.00  0.00    -0.303 OA
ENDBRANCH  11  12
ENDBRANCH  10  11
ENDBRANCH   9  10
ENDBRANCH   8   9
ENDBRANCH   1   8
TORSDOF 10
ENDMDL
MODEL 4
REMARK VINA RESULT:    -3.001      2.200      3.592
REMARK INTER + INTRA:          -6.340
REMARK INTER:                  -4.957
REMARK INTRA:                  -1.384
REMARK UNBOUND:                -1.586
REMARK SMILES CCCCCCCCCCCC=O
REMARK SMILES IDX 7 1 6 2 5 3 4 4 3 5 2 6 1 7 8 8 9 9 10 10 11 11 12 12 13 13
REMARK H PARENT
REMARK Flexibility Score: inf
ROOT
ATOM      1  C   UNL     1     138.374 139.486 127.906  1.00  0.00     0.000 C 
ENDROOT
BRANCH   1   2
ATOM      2  C   UNL     1     138.030 140.247 129.199  1.00  0.00     0.000 C 
BRANCH   2   3
ATOM      3  C   UNL     1     136.851 141.219 129.021  1.00  0.00    -0.000 C 
BRANCH   3   4
ATOM      4  C   UNL     1     135.584 140.519 128.504  1.00  0.00    -0.000 C 
BRANCH   4   5
ATOM      5  C   UNL     1     134.732 139.928 129.642  1.00  0.00    -0.000 C 
BRANCH   5   6
ATOM      6  C   UNL     1     134.895 138.406 129.769  1.00  0.00    -0.003 C 
ATOM      7  C   UNL     1     134.841 137.691 128.419  1.00  0.00     0.004 C 
ENDBRANCH   5   6
ENDBRANCH   4   5
ENDBRANCH   3   4
ENDBRANCH   2   3
ENDBRANCH   1   2
BRANCH   1   8
ATOM      8  C   UNL     1     138.478 137.956 128.062  1.00  0.00     0.000 C 
BRANCH   8   9
ATOM      9  C   UNL     1     138.809 137.463 129.485  1.00  0.00     0.000 C 
BRANCH   9  10
ATOM     10  C   UNL     1     137.946 136.289 129.983  1.00  0.00     0.008 C 
BRANCH  10  11
ATOM     11  C   UNL     1     137.708 135.227 128.900  1.00  0.00     0.072 C 
BRANCH  11  12
ATOM     12  C   UNL     1     138.779 134.179 128.938  1.00  0.00     0.224 C 
ATOM     13  O   UNL     1     139.669 134.174 128.102  1.00  0.00    -0.303 OA
ENDBRANCH  11  12
ENDBRANCH  10  11
ENDBRANCH   9  10
ENDBRANCH   8   9
ENDBRANCH   1   8
TORSDOF 10
ENDMDL
MODEL 5
REMARK VINA RESULT:    -2.946      2.862      5.016
REMARK INTER + INTRA:          -6.254
REMARK INTER:                  -4.950
REMARK INTRA:                  -1.304
REMARK UNBOUND:                -1.586
REMARK SMILES CCCCCCCCCCCC=O
REMARK SMILES IDX 7 1 6 2 5 3 4 4 3 5 2 6 1 7 8 8 9 9 10 10 11 11 12 12 13 13
REMARK H PARENT
REMARK Flexibility Score: inf
ROOT
ATOM      1  C   UNL     1     134.880 137.979 129.436  1.00  0.00     0.000 C 
ENDROOT
BRANCH   1   2
ATOM      2  C   UNL     1     133.907 136.867 129.006  1.00  0.00     0.000 C 
BRANCH   2   3
ATOM      3  C   UNL     1     134.631 135.599 128.520  1.00  0.00    -0.000 C 
BRANCH   3   4
ATOM      4  C   UNL     1     135.554 135.001 129.594  1.00  0.00    -0.000 C 
BRANCH   4   5
ATOM      5  C   UNL     1     137.029 134.971 129.154  1.00  0.00    -0.000 C 
BRANCH   5   6
ATOM      6  C   UNL     1     137.985 135.416 130.271  1.00  0.00    -0.003 C 
ATOM      7  C   UNL     1     137.251 135.975 131.490  1.00  0.00     0.004 C 
ENDBRANCH   5   6
ENDBRANCH   4   5
ENDBRANCH   3   4
ENDBRANCH   2   3
ENDBRANCH   1   2
BRANCH   1   8
ATOM      8  C   UNL     1     135.703 138.599 128.288  1.00  0.00     0.000 C 
BRANCH   8   9
ATOM      9  C   UNL     1     137.218 138.712 128.556  1.00  0.00     0.000 C 
BRANCH   9  10
ATOM     10  C   UNL     1     137.638 139.925 129.406  1.00  0.00     0.008 C 
BRANCH  10  11
ATOM     11  C   UNL     1     138.398 139.524 130.678  1.00  0.00     0.072 C 
BRANCH  11  12
ATOM     12  C   UNL     1     139.779 140.105 130.680  1.00  0.00     0.224 C 
ATOM     13  O   UNL     1     140.215 140.667 129.687  1.00  0.00    -0.303 OA
ENDBRANCH  11  12
ENDBRANCH  10  11
ENDBRANCH   9  10
ENDBRANCH   8   9
ENDBRANCH   1   8
TORSDOF 10
ENDMDL
MODEL 6
REMARK VINA RESULT:    -2.928      2.388      3.978
REMARK INTER + INTRA:          -6.225
REMARK INTER:                  -5.127
REMARK INTRA:                  -1.099
REMARK UNBOUND:                -1.586
REMARK SMILES CCCCCCCCCCCC=O
REMARK SMILES IDX 7 1 6 2 5 3 4 4 3 5 2 6 1 7 8 8 9 9 10 10 11 11 12 12 13 13
REMARK H PARENT
REMARK Flexibility Score: inf
ROOT
ATOM      1  C   UNL     1     138.003 140.250 128.745  1.00  0.00     0.000 C 
ENDROOT
BRANCH   1   2
ATOM      2  C   UNL     1     136.800 141.018 129.321  1.00  0.00     0.000 C 
BRANCH   2   3
ATOM      3  C   UNL     1     135.450 140.435 128.868  1.00  0.00    -0.000 C 
BRANCH   3   4
ATOM      4  C   UNL     1     134.985 139.270 129.754  1.00  0.00    -0.000 C 
BRANCH   4   5
ATOM      5  C   UNL     1     134.982 137.925 129.004  1.00  0.00    -0.000 C 
BRANCH   5   6
ATOM      6  C   UNL     1     136.198 137.054 129.354  1.00  0.00    -0.003 C 
ATOM      7  C   UNL     1     136.757 137.350 130.746  1.00  0.00     0.004 C 
ENDBRANCH   5   6
ENDBRANCH   4   5
ENDBRANCH   3   4
ENDBRANCH   2   3
ENDBRANCH   1   2
BRANCH   1   8
ATOM      8  C   UNL     1     139.229 140.171 129.678  1.00  0.00     0.000 C 
BRANCH   8   9
ATOM      9  C   UNL     1     140.518 139.637 129.021  1.00  0.00     0.000 C 
BRANCH   9  10
ATOM     10  C   UNL     1     140.376 138.268 128.331  1.00  0.00     0.008 C 
BRANCH  10  11
ATOM     11  C   UNL     1     140.228 137.113 129.331  1.00  0.00     0.072 C 
BRANCH  11  12
ATOM     12  C   UNL     1     139.801 135.856 128.634  1.00  0.00     0.224 C 
ATOM     13  O   UNL     1     140.205 134.769 129.015  1.00  0.00    -0.303 OA
ENDBRANCH  11  12
ENDBRANCH  10  11
ENDBRANCH   9  10
ENDBRANCH   8   9
ENDBRANCH   1   8
TORSDOF 10
ENDMDL
MODEL 7
REMARK VINA RESULT:    -2.912      1.838      3.779
REMARK INTER + INTRA:          -6.200
REMARK INTER:                  -4.856
REMARK INTRA:                  -1.344
REMARK UNBOUND:                -1.586
REMARK SMILES CCCCCCCCCCCC=O
REMARK SMILES IDX 7 1 6 2 5 3 4 4 3 5 2 6 1 7 8 8 9 9 10 10 11 11 12 12 13 13
REMARK H PARENT
REMARK Flexibility Score: inf
ROOT
ATOM      1  C   UNL     1     140.167 137.018 129.181  1.00  0.00     0.000 C 
ENDROOT
BRANCH   1   2
ATOM      2  C   UNL     1     141.117 138.219 129.029  1.00  0.00     0.000 C 
BRANCH   2   3
ATOM      3  C   UNL     1     140.391 139.497 128.574  1.00  0.00    -0.000 C 
BRANCH   3   4
ATOM      4  C   UNL     1     139.755 140.261 129.746  1.00  0.00    -0.000 C 
BRANCH   4   5
ATOM      5  C   UNL     1     138.216 140.215 129.713  1.00  0.00    -0.000 C 
BRANCH   5   6
ATOM      6  C   UNL     1     137.656 140.282 128.284  1.00  0.00    -0.003 C 
ATOM      7  C   UNL     1     136.333 141.044 128.203  1.00  0.00     0.004 C 
ENDBRANCH   5   6
ENDBRANCH   4   5
ENDBRANCH   3   4
ENDBRANCH   2   3
ENDBRANCH   1   2
BRANCH   1   8
ATOM      8  C   UNL     1     139.488 136.558 127.875  1.00  0.00     0.000 C 
BRANCH   8   9
ATOM      9  C   UNL     1     137.946 136.584 127.893  1.00  0.00     0.000 C 
BRANCH   9  10
ATOM     10  C   UNL     1     137.313 136.565 129.296  1.00  0.00     0.008 C 
BRANCH  10  11
ATOM     11  C   UNL     1     135.897 137.156 129.317  1.00  0.00     0.072 C 
BRANCH  11  12
ATOM     12  C   UNL     1     134.865 136.072 129.232  1.00  0.00     0.224 C 
ATOM     13  O   UNL     1     135.187 134.901 129.353  1.00  0.00    -0.303 OA
ENDBRANCH  11  12
ENDBRANCH  10  11
ENDBRANCH   9  10
ENDBRANCH   8   9
ENDBRANCH   1   8
TORSDOF 10
ENDMDL
MODEL 8
REMARK VINA RESULT:    -2.904      3.073      5.259
REMARK INTER + INTRA:          -6.187
REMARK INTER:                  -4.628
REMARK INTRA:                  -1.559
REMARK UNBOUND:                -1.586
REMARK SMILES CCCCCCCCCCCC=O
REMARK SMILES IDX 7 1 6 2 5 3 4 4 3 5 2 6 1 7 8 8 9 9 10 10 11 11 12 12 13 13
REMARK H PARENT
REMARK Flexibility Score: inf
ROOT
ATOM      1  C   UNL     1     138.942 134.864 130.121  1.00  0.00     0.000 C 
ENDROOT
BRANCH   1   2
ATOM      2  C   UNL     1     138.469 134.018 128.926  1.00  0.00     0.000 C 
BRANCH   2   3
ATOM      3  C   UNL     1     137.699 134.843 127.880  1.00  0.00    -0.000 C 
BRANCH   3   4
ATOM      4  C   UNL     1     136.586 135.696 128.508  1.00  0.00    -0.000 C 
BRANCH   4   5
ATOM      5  C   UNL     1     136.495 137.100 127.882  1.00  0.00    -0.000 C 
BRANCH   5   6
ATOM      6  C   UNL     1     136.075 138.171 128.899  1.00  0.00    -0.003 C 
ATOM      7  C   UNL     1     136.341 137.751 130.345  1.00  0.00     0.004 C 
ENDBRANCH   5   6
ENDBRANCH   4   5
ENDBRANCH   3   4
ENDBRANCH   2   3
ENDBRANCH   1   2
BRANCH   1   8
ATOM      8  C   UNL     1     140.204 135.709 129.858  1.00  0.00     0.000 C 
BRANCH   8   9
ATOM      9  C   UNL     1     139.953 137.217 129.656  1.00  0.00     0.000 C 
BRANCH   9  10
ATOM     10  C   UNL     1     140.206 137.731 128.227  1.00  0.00     0.008 C 
BRANCH  10  11
ATOM     11  C   UNL     1     139.645 139.141 127.995  1.00  0.00     0.072 C 
BRANCH  11  12
ATOM     12  C   UNL     1     139.388 139.834 129.299  1.00  0.00     0.224 C 
ATOM     13  O   UNL     1     140.179 140.658 129.729  1.00  0.00    -0.303 OA
ENDBRANCH  11  12
ENDBRANCH  10  11
ENDBRANCH   9  10
ENDBRANCH   8   9
ENDBRANCH   1   8
TORSDOF 10
ENDMDL
MODEL 9
REMARK VINA RESULT:    -2.892      2.954      4.489
REMARK INTER + INTRA:          -6.168
REMARK INTER:                  -4.825
REMARK INTRA:                  -1.343
REMARK UNBOUND:                -1.586
REMARK SMILES CCCCCCCCCCCC=O
REMARK SMILES IDX 7 1 6 2 5 3 4 4 3 5 2 6 1 7 8 8 9 9 10 10 11 11 12 12 13 13
REMARK H PARENT
REMARK Flexibility Score: inf
ROOT
ATOM      1  C   UNL     1     136.580 134.975 129.477  1.00  0.00     0.000 C 
ENDROOT
BRANCH   1   2
ATOM      2  C   UNL     1     135.043 135.012 129.419  1.00  0.00     0.000 C 
BRANCH   2   3
ATOM      3  C   UNL     1     134.510 136.009 128.376  1.00  0.00    -0.000 C 
BRANCH   3   4
ATOM      4  C   UNL     1     134.565 137.463 128.871  1.00  0.00    -0.000 C 
BRANCH   4   5
ATOM      5  C   UNL     1     135.411 138.365 127.955  1.00  0.00    -0.000 C 
BRANCH   5   6
ATOM      6  C   UNL     1     136.660 138.913 128.661  1.00  0.00    -0.003 C 
ATOM      7  C   UNL     1     136.682 138.596 130.156  1.00  0.00     0.004 C 
ENDBRANCH   5   6
ENDBRANCH   4   5
ENDBRANCH   3   4
ENDBRANCH   2   3
ENDBRANCH   1   2
BRANCH   1   8
ATOM      8  C   UNL     1     137.281 135.002 128.103  1.00  0.00     0.000 C 
BRANCH   8   9
ATOM      9  C   UNL     1     138.580 135.833 128.046  1.00  0.00     0.000 C 
BRANCH   9  10
ATOM     10  C   UNL     1     139.745 135.273 128.882  1.00  0.00     0.008 C 
BRANCH  10  11
ATOM     11  C   UNL     1     140.259 136.272 129.928  1.00  0.00     0.072 C 
BRANCH  11  12
ATOM     12  C   UNL     1     140.310 137.658 129.361  1.00  0.00     0.224 C 
ATOM     13  O   UNL     1     141.375 138.152 129.027  1.00  0.00    -0.303 OA
ENDBRANCH  11  12
ENDBRANCH  10  11
ENDBRANCH   9  10
ENDBRANCH   8   9
ENDBRANCH   1   8
TORSDOF 10
ENDMDL
