MODEL 1
REMARK VINA RESULT:    -3.480      0.000      0.000
REMARK INTER + INTRA:          -4.640
REMARK INTER:                  -4.701
REMARK INTRA:                   0.061
REMARK UNBOUND:                 0.061
REMARK SMILES C=C1CCC=C(C)CC[C@@H]2[C@H]1CC2(C)C
REMARK SMILES IDX 11 1 12 2 13 3 10 4 14 5 15 6 9 7 8 8 6 9 7 10 5 11 2 13
REMARK SMILES IDX 1 14 3 15 4 16
REMARK H PARENT
REMARK Flexibility Score: 70.00
ROOT
ATOM      1  C   UNL     1      21.945  63.569  14.994  1.00  0.00     0.018 C 
ATOM      2  C   UNL     1      21.113  64.320  13.940  1.00  0.00     0.015 C 
ATOM      3  C   UNL     1      19.818  63.790  14.593  1.00  0.00    -0.031 C 
ATOM      4  C   UNL     1      20.658  63.279  15.799  1.00  0.00     0.002 C 
ATOM      5  C   UNL     1      19.230  62.606  13.792  1.00  0.00     0.011 C 
ATOM      6  C   UNL     1      18.720  64.851  14.840  1.00  0.00     0.011 C 
ENDROOT
BRANCH   4   7
ATOM      7  C   UNL     1      20.487  63.985  17.180  1.00  0.00     0.009 C 
BRANCH   7   8
ATOM      8  C   UNL     1      20.745  63.145  18.456  1.00  0.00     0.030 C 
BRANCH   8   9
ATOM      9  C   UNL     1      21.941  63.623  19.262  1.00  0.00    -0.077 C 
ATOM     10  C   UNL     1      21.694  64.411  20.521  1.00  0.00     0.039 C 
ATOM     11  C   UNL     1      23.224  63.390  18.889  1.00  0.00    -0.028 CG0
ATOM     12  G   UNL     1      23.640  62.618  17.651  1.00  0.00     0.000 G0
ENDBRANCH   8   9
ENDBRANCH   7   8
ENDBRANCH   4   7
BRANCH   1  13
ATOM     13  C   UNL     1      23.096  64.254  15.714  1.00  0.00    -0.074 C 
ATOM     14  C   UNL     1      23.059  65.595  15.816  1.00  0.00     0.008 C 
BRANCH  13  15
ATOM     15  C   UNL     1      24.170  63.499  16.478  1.00  0.00     0.035 C 
BRANCH  15  16
ATOM     16  C   UNL     1      23.646  62.624  17.639  1.00  0.00     0.032 CG0
ATOM     17  G   UNL     1      23.220  63.400  18.870  1.00  0.00     0.000 G0
ENDBRANCH  15  16
ENDBRANCH  13  15
ENDBRANCH   1  13
TORSDOF 0
ENDMDL
MODEL 2
REMARK VINA RESULT:    -3.135      1.202      2.978
REMARK INTER + INTRA:          -4.174
REMARK INTER:                  -4.235
REMARK INTRA:                   0.061
REMARK UNBOUND:                 0.061
REMARK SMILES C=C1CCC=C(C)CC[C@@H]2[C@H]1CC2(C)C
REMARK SMILES IDX 11 1 12 2 13 3 10 4 14 5 15 6 9 7 8 8 6 9 7 10 5 11 2 13
REMARK SMILES IDX 1 14 3 15 4 16
REMARK H PARENT
REMARK Flexibility Score: 70.00
ROOT
ATOM      1  C   UNL     1      20.644  64.891  16.624  1.00  0.00     0.018 C 
ATOM      2  C   UNL     1      19.271  64.669  15.968  1.00  0.00     0.015 C 
ATOM      3  C   UNL     1      19.966  64.399  14.615  1.00  0.00    -0.031 C 
ATOM      4  C   UNL     1      21.336  64.349  15.353  1.00  0.00     0.002 C 
ATOM      5  C   UNL     1      19.887  65.633  13.687  1.00  0.00     0.011 C 
ATOM      6  C   UNL     1      19.475  63.142  13.859  1.00  0.00     0.011 C 
ENDROOT
BRANCH   4   7
ATOM      7  C   UNL     1      22.079  62.980  15.454  1.00  0.00     0.009 C 
BRANCH   7   8
ATOM      8  C   UNL     1      23.626  63.003  15.527  1.00  0.00     0.030 C 
BRANCH   8   9
ATOM      9  C   UNL     1      24.175  62.500  16.852  1.00  0.00    -0.077 C 
ATOM     10  C   UNL     1      24.791  61.127  16.902  1.00  0.00     0.039 C 
ATOM     11  C   UNL     1      24.117  63.222  17.998  1.00  0.00    -0.028 CG0
ATOM     12  G   UNL     1      23.527  64.614  18.116  1.00  0.00     0.000 G0
ENDBRANCH   8   9
ENDBRANCH   7   8
ENDBRANCH   4   7
BRANCH   1  13
ATOM     13  C   UNL     1      20.989  64.241  17.955  1.00  0.00    -0.074 C 
ATOM     14  C   UNL     1      20.330  63.117  18.289  1.00  0.00     0.008 C 
BRANCH  13  15
ATOM     15  C   UNL     1      22.155  64.683  18.822  1.00  0.00     0.035 C 
BRANCH  15  16
ATOM     16  C   UNL     1      23.536  64.621  18.132  1.00  0.00     0.032 CG0
ATOM     17  G   UNL     1      24.115  63.225  18.006  1.00  0.00     0.000 G0
ENDBRANCH  15  16
ENDBRANCH  13  15
ENDBRANCH   1  13
TORSDOF 0
ENDMDL
MODEL 3
REMARK VINA RESULT:    -3.050      2.832      4.972
REMARK INTER + INTRA:          -4.059
REMARK INTER:                  -4.127
REMARK INTRA:                   0.068
REMARK UNBOUND:                 0.061
REMARK SMILES C=C1CCC=C(C)CC[C@@H]2[C@H]1CC2(C)C
REMARK SMILES IDX 11 1 12 2 13 3 10 4 14 5 15 6 9 7 8 8 6 9 7 10 5 11 2 13
REMARK SMILES IDX 1 14 3 15 4 16
REMARK H PARENT
REMARK Flexibility Score: 70.00
ROOT
ATOM      1  C   UNL     1      21.421  64.412  15.477  1.00  0.00     0.018 C 
ATOM      2  C   UNL     1      22.462  63.366  15.910  1.00  0.00     0.015 C 
ATOM      3  C   UNL     1      22.340  63.858  17.369  1.00  0.00    -0.031 C 
ATOM      4  C   UNL     1      21.099  64.703  16.960  1.00  0.00     0.002 C 
ATOM      5  C   UNL     1      23.525  64.772  17.754  1.00  0.00     0.011 C 
ATOM      6  C   UNL     1      22.172  62.744  18.430  1.00  0.00     0.011 C 
ENDROOT
BRANCH   4   7
ATOM      7  C   UNL     1      19.697  64.278  17.499  1.00  0.00     0.009 C 
BRANCH   7   8
ATOM      8  C   UNL     1      18.668  65.399  17.793  1.00  0.00     0.030 C 
BRANCH   8   9
ATOM      9  C   UNL     1      17.458  65.363  16.876  1.00  0.00    -0.077 C 
ATOM     10  C   UNL     1      16.130  64.942  17.450  1.00  0.00     0.039 C 
ATOM     11  C   UNL     1      17.520  65.672  15.557  1.00  0.00    -0.028 CG0
ATOM     12  G   UNL     1      18.777  66.108  14.828  1.00  0.00     0.000 G0
ENDBRANCH   8   9
ENDBRANCH   7   8
ENDBRANCH   4   7
BRANCH   1  13
ATOM     13  C   UNL     1      20.268  64.034  14.559  1.00  0.00    -0.074 C 
ATOM     14  C   UNL     1      19.918  62.737  14.499  1.00  0.00     0.008 C 
BRANCH  13  15
ATOM     15  C   UNL     1      19.384  65.056  13.865  1.00  0.00     0.035 C 
BRANCH  15  16
ATOM     16  C   UNL     1      18.773  66.125  14.799  1.00  0.00     0.032 CG0
ATOM     17  G   UNL     1      17.533  65.674  15.546  1.00  0.00     0.000 G0
ENDBRANCH  15  16
ENDBRANCH  13  15
ENDBRANCH   1  13
TORSDOF 0
ENDMDL
MODEL 4
REMARK VINA RESULT:    -3.011      2.061      3.943
REMARK INTER + INTRA:          -4.007
REMARK INTER:                  -4.174
REMARK INTRA:                   0.167
REMARK UNBOUND:                 0.061
REMARK SMILES C=C1CCC=C(C)CC[C@@H]2[C@H]1CC2(C)C
REMARK SMILES IDX 11 1 12 2 13 3 10 4 14 5 15 6 9 7 8 8 6 9 7 10 5 11 2 13
REMARK SMILES IDX 1 14 3 15 4 16
REMARK H PARENT
REMARK Flexibility Score: 70.00
ROOT
ATOM      1  C   UNL     1      21.722  64.162  14.727  1.00  0.00     0.018 C 
ATOM      2  C   UNL     1      22.772  63.274  14.038  1.00  0.00     0.015 C 
ATOM      3  C   UNL     1      23.558  63.184  15.364  1.00  0.00    -0.031 C 
ATOM      4  C   UNL     1      22.353  63.838  16.099  1.00  0.00     0.002 C 
ATOM      5  C   UNL     1      24.779  64.133  15.359  1.00  0.00     0.011 C 
ATOM      6  C   UNL     1      24.003  61.760  15.772  1.00  0.00     0.011 C 
ENDROOT
BRANCH   4   7
ATOM      7  C   UNL     1      21.525  62.966  17.095  1.00  0.00     0.009 C 
BRANCH   7   8
ATOM      8  C   UNL     1      21.030  63.638  18.401  1.00  0.00     0.030 C 
BRANCH   8   9
ATOM      9  C   UNL     1      20.731  65.119  18.242  1.00  0.00    -0.077 C 
ATOM     10  C   UNL     1      21.537  66.107  19.043  1.00  0.00     0.039 C 
ATOM     11  C   UNL     1      19.756  65.593  17.427  1.00  0.00    -0.028 CG0
ATOM     12  G   UNL     1      18.857  64.733  16.560  1.00  0.00     0.000 G0
ENDBRANCH   8   9
ENDBRANCH   7   8
ENDBRANCH   4   7
BRANCH   1  13
ATOM     13  C   UNL     1      20.235  63.897  14.545  1.00  0.00    -0.074 C 
ATOM     14  C   UNL     1      19.868  62.689  14.082  1.00  0.00     0.008 C 
BRANCH  13  15
ATOM     15  C   UNL     1      19.154  64.844  15.035  1.00  0.00     0.035 C 
BRANCH  15  16
ATOM     16  C   UNL     1      18.847  64.754  16.547  1.00  0.00     0.032 CG0
ATOM     17  G   UNL     1      19.755  65.594  17.426  1.00  0.00     0.000 G0
ENDBRANCH  15  16
ENDBRANCH  13  15
ENDBRANCH   1  13
TORSDOF 0
ENDMDL
MODEL 5
REMARK VINA RESULT:    -2.674      2.218      5.005
REMARK INTER + INTRA:          -3.551
REMARK INTER:                  -3.717
REMARK INTRA:                   0.166
REMARK UNBOUND:                 0.061
REMARK SMILES C=C1CCC=C(C)CC[C@@H]2[C@H]1CC2(C)C
REMARK SMILES IDX 11 1 12 2 13 3 10 4 14 5 15 6 9 7 8 8 6 9 7 10 5 11 2 13
REMARK SMILES IDX 1 14 3 15 4 16
REMARK H PARENT
REMARK Flexibility Score: 70.00
ROOT
ATOM      1  C   UNL     1      21.390  63.213  17.666  1.00  0.00     0.018 C 
ATOM      2  C   UNL     1      22.476  62.718  18.637  1.00  0.00     0.015 C 
ATOM      3  C   UNL     1      23.551  62.980  17.560  1.00  0.00    -0.031 C 
ATOM      4  C   UNL     1      22.487  63.731  16.709  1.00  0.00     0.002 C 
ATOM      5  C   UNL     1      23.982  61.668  16.866  1.00  0.00     0.011 C 
ATOM      6  C   UNL     1      24.801  63.749  18.048  1.00  0.00     0.011 C 
ENDROOT
BRANCH   4   7
ATOM      7  C   UNL     1      22.629  65.276  16.532  1.00  0.00     0.009 C 
BRANCH   7   8
ATOM      8  C   UNL     1      22.059  65.908  15.237  1.00  0.00     0.030 C 
BRANCH   8   9
ATOM      9  C   UNL     1      21.081  65.005  14.505  1.00  0.00    -0.077 C 
ATOM     10  C   UNL     1      21.542  64.307  13.253  1.00  0.00     0.039 C 
ATOM     11  C   UNL     1      19.802  64.814  14.915  1.00  0.00    -0.028 CG0
ATOM     12  G   UNL     1      19.184  65.445  16.148  1.00  0.00     0.000 G0
ENDBRANCH   8   9
ENDBRANCH   7   8
ENDBRANCH   4   7
BRANCH   1  13
ATOM     13  C   UNL     1      20.321  64.194  18.123  1.00  0.00    -0.074 C 
ATOM     14  C   UNL     1      20.610  64.988  19.169  1.00  0.00     0.008 C 
BRANCH  13  15
ATOM     15  C   UNL     1      19.039  64.449  17.350  1.00  0.00     0.035 C 
BRANCH  15  16
ATOM     16  C   UNL     1      19.182  65.424  16.160  1.00  0.00     0.032 CG0
ATOM     17  G   UNL     1      19.796  64.814  14.915  1.00  0.00     0.000 G0
ENDBRANCH  15  16
ENDBRANCH  13  15
ENDBRANCH   1  13
TORSDOF 0
ENDMDL
MODEL 6
REMARK VINA RESULT:    -2.662      2.004      4.708
REMARK INTER + INTRA:          -3.535
REMARK INTER:                  -3.691
REMARK INTRA:                   0.156
REMARK UNBOUND:                 0.061
REMARK SMILES C=C1CCC=C(C)CC[C@@H]2[C@H]1CC2(C)C
REMARK SMILES IDX 11 1 12 2 13 3 10 4 14 5 15 6 9 7 8 8 6 9 7 10 5 11 2 13
REMARK SMILES IDX 1 14 3 15 4 16
REMARK H PARENT
REMARK Flexibility Score: 70.00
ROOT
ATOM      1  C   UNL     1      20.384  63.622  16.926  1.00  0.00     0.018 C 
ATOM      2  C   UNL     1      20.120  64.151  18.346  1.00  0.00     0.015 C 
ATOM      3  C   UNL     1      21.642  64.277  18.575  1.00  0.00    -0.031 C 
ATOM      4  C   UNL     1      21.873  64.013  17.059  1.00  0.00     0.002 C 
ATOM      5  C   UNL     1      22.181  63.103  19.425  1.00  0.00     0.011 C 
ATOM      6  C   UNL     1      22.110  65.621  19.182  1.00  0.00     0.011 C 
ENDROOT
BRANCH   4   7
ATOM      7  C   UNL     1      22.402  65.182  16.171  1.00  0.00     0.009 C 
BRANCH   7   8
ATOM      8  C   UNL     1      23.292  64.818  14.955  1.00  0.00     0.030 C 
BRANCH   8   9
ATOM      9  C   UNL     1      23.141  63.374  14.509  1.00  0.00    -0.077 C 
ATOM     10  C   UNL     1      24.267  62.413  14.785  1.00  0.00     0.039 C 
ATOM     11  C   UNL     1      22.047  62.913  13.852  1.00  0.00    -0.028 CG0
ATOM     12  G   UNL     1      20.834  63.751  13.496  1.00  0.00     0.000 G0
ENDBRANCH   8   9
ENDBRANCH   7   8
ENDBRANCH   4   7
BRANCH   1  13
ATOM     13  C   UNL     1      19.609  64.163  15.734  1.00  0.00    -0.074 C 
ATOM     14  C   UNL     1      19.064  65.387  15.848  1.00  0.00     0.008 C 
BRANCH  13  15
ATOM     15  C   UNL     1      19.584  63.481  14.377  1.00  0.00     0.035 C 
BRANCH  15  16
ATOM     16  C   UNL     1      20.823  63.748  13.493  1.00  0.00     0.032 CG0
ATOM     17  G   UNL     1      22.042  62.920  13.850  1.00  0.00     0.000 G0
ENDBRANCH  15  16
ENDBRANCH  13  15
ENDBRANCH   1  13
TORSDOF 0
ENDMDL
MODEL 7
REMARK VINA RESULT:    -2.565      2.191      4.195
REMARK INTER + INTRA:          -3.404
REMARK INTER:                  -3.487
REMARK INTRA:                   0.083
REMARK UNBOUND:                 0.061
REMARK SMILES C=C1CCC=C(C)CC[C@@H]2[C@H]1CC2(C)C
REMARK SMILES IDX 11 1 12 2 13 3 10 4 14 5 15 6 9 7 8 8 6 9 7 10 5 11 2 13
REMARK SMILES IDX 1 14 3 15 4 16
REMARK H PARENT
REMARK Flexibility Score: 70.00
ROOT
ATOM      1  C   UNL     1      21.158  64.580  16.142  1.00  0.00     0.018 C 
ATOM      2  C   UNL     1      19.904  63.712  16.346  1.00  0.00     0.015 C 
ATOM      3  C   UNL     1      19.449  64.040  14.907  1.00  0.00    -0.031 C 
ATOM      4  C   UNL     1      20.844  64.671  14.632  1.00  0.00     0.002 C 
ATOM      5  C   UNL     1      18.346  65.121  14.900  1.00  0.00     0.011 C 
ATOM      6  C   UNL     1      18.997  62.824  14.065  1.00  0.00     0.011 C 
ENDROOT
BRANCH   4   7
ATOM      7  C   UNL     1      21.809  63.946  13.641  1.00  0.00     0.009 C 
BRANCH   7   8
ATOM      8  C   UNL     1      22.794  64.820  12.824  1.00  0.00     0.030 C 
BRANCH   8   9
ATOM      9  C   UNL     1      24.251  64.582  13.182  1.00  0.00    -0.077 C 
ATOM     10  C   UNL     1      25.112  63.806  12.220  1.00  0.00     0.039 C 
ATOM     11  C   UNL     1      24.810  65.017  14.338  1.00  0.00    -0.028 CG0
ATOM     12  G   UNL     1      24.080  65.805  15.409  1.00  0.00     0.000 G0
ENDBRANCH   8   9
ENDBRANCH   7   8
ENDBRANCH   4   7
BRANCH   1  13
ATOM     13  C   UNL     1      22.533  64.076  16.555  1.00  0.00    -0.074 C 
ATOM     14  C   UNL     1      22.710  62.746  16.642  1.00  0.00     0.008 C 
BRANCH  13  15
ATOM     15  C   UNL     1      23.747  64.979  16.685  1.00  0.00     0.035 C 
BRANCH  15  16
ATOM     16  C   UNL     1      24.081  65.804  15.421  1.00  0.00     0.032 CG0
ATOM     17  G   UNL     1      24.800  65.028  14.334  1.00  0.00     0.000 G0
ENDBRANCH  15  16
ENDBRANCH  13  15
ENDBRANCH   1  13
TORSDOF 0
ENDMDL
MODEL 8
REMARK VINA RESULT:    -2.451      1.784      3.382
REMARK INTER + INTRA:          -3.250
REMARK INTER:                  -3.406
REMARK INTRA:                   0.156
REMARK UNBOUND:                 0.061
REMARK SMILES C=C1CCC=C(C)CC[C@@H]2[C@H]1CC2(C)C
REMARK SMILES IDX 11 1 12 2 13 3 10 4 14 5 15 6 9 7 8 8 6 9 7 10 5 11 2 13
REMARK SMILES IDX 1 14 3 15 4 16
REMARK H PARENT
REMARK Flexibility Score: 70.00
ROOT
ATOM      1  C   UNL     1      22.160  64.387  15.074  1.00  0.00     0.018 C 
ATOM      2  C   UNL     1      22.179  63.350  13.938  1.00  0.00     0.015 C 
ATOM      3  C   UNL     1      23.656  63.034  14.258  1.00  0.00    -0.031 C 
ATOM      4  C   UNL     1      23.531  63.870  15.565  1.00  0.00     0.002 C 
ATOM      5  C   UNL     1      24.608  63.723  13.254  1.00  0.00     0.011 C 
ATOM      6  C   UNL     1      24.002  61.530  14.360  1.00  0.00     0.011 C 
ENDROOT
BRANCH   4   7
ATOM      7  C   UNL     1      23.580  63.124  16.935  1.00  0.00     0.009 C 
BRANCH   7   8
ATOM      8  C   UNL     1      24.279  63.838  18.119  1.00  0.00     0.030 C 
BRANCH   8   9
ATOM      9  C   UNL     1      23.331  64.201  19.249  1.00  0.00    -0.077 C 
ATOM     10  C   UNL     1      23.465  63.479  20.564  1.00  0.00     0.039 C 
ATOM     11  C   UNL     1      22.353  65.132  19.123  1.00  0.00    -0.028 CG0
ATOM     12  G   UNL     1      22.084  65.941  17.869  1.00  0.00     0.000 G0
ENDBRANCH   8   9
ENDBRANCH   7   8
ENDBRANCH   4   7
BRANCH   1  13
ATOM     13  C   UNL     1      21.015  64.430  16.074  1.00  0.00    -0.074 C 
ATOM     14  C   UNL     1      20.242  63.334  16.185  1.00  0.00     0.008 C 
BRANCH  13  15
ATOM     15  C   UNL     1      20.821  65.557  17.072  1.00  0.00     0.035 C 
BRANCH  15  16
ATOM     16  C   UNL     1      22.090  65.949  17.862  1.00  0.00     0.032 CG0
ATOM     17  G   UNL     1      22.332  65.129  19.115  1.00  0.00     0.000 G0
ENDBRANCH  15  16
ENDBRANCH  13  15
ENDBRANCH   1  13
TORSDOF 0
ENDMDL
MODEL 9
REMARK VINA RESULT:    -2.309      2.466      4.831
REMARK INTER + INTRA:          -3.058
REMARK INTER:                  -3.245
REMARK INTRA:                   0.187
REMARK UNBOUND:                 0.061
REMARK SMILES C=C1CCC=C(C)CC[C@@H]2[C@H]1CC2(C)C
REMARK SMILES IDX 11 1 12 2 13 3 10 4 14 5 15 6 9 7 8 8 6 9 7 10 5 11 2 13
REMARK SMILES IDX 1 14 3 15 4 16
REMARK H PARENT
REMARK Flexibility Score: 70.00
ROOT
ATOM      1  C   UNL     1      23.477  64.877  15.466  1.00  0.00     0.018 C 
ATOM      2  C   UNL     1      24.621  64.260  16.289  1.00  0.00     0.015 C 
ATOM      3  C   UNL     1      23.635  63.225  16.873  1.00  0.00    -0.031 C 
ATOM      4  C   UNL     1      22.572  63.680  15.832  1.00  0.00     0.002 C 
ATOM      5  C   UNL     1      23.201  63.610  18.306  1.00  0.00     0.011 C 
ATOM      6  C   UNL     1      24.127  61.758  16.852  1.00  0.00     0.011 C 
ENDROOT
BRANCH   4   7
ATOM      7  C   UNL     1      22.174  62.690  14.691  1.00  0.00     0.009 C 
BRANCH   7   8
ATOM      8  C   UNL     1      20.726  62.764  14.146  1.00  0.00     0.030 C 
BRANCH   8   9
ATOM      9  C   UNL     1      20.032  64.081  14.451  1.00  0.00    -0.077 C 
ATOM     10  C   UNL     1      18.943  64.098  15.490  1.00  0.00     0.039 C 
ATOM     11  C   UNL     1      20.335  65.240  13.816  1.00  0.00    -0.028 CG0
ATOM     12  G   UNL     1      21.399  65.390  12.746  1.00  0.00     0.000 G0
ENDBRANCH   8   9
ENDBRANCH   7   8
ENDBRANCH   4   7
BRANCH   1  13
ATOM     13  C   UNL     1      23.663  65.206  13.993  1.00  0.00    -0.074 C 
ATOM     14  C   UNL     1      24.626  64.548  13.323  1.00  0.00     0.008 C 
BRANCH  13  15
ATOM     15  C   UNL     1      22.706  66.085  13.207  1.00  0.00     0.035 C 
BRANCH  15  16
ATOM     16  C   UNL     1      21.404  65.385  12.755  1.00  0.00     0.032 CG0
ATOM     17  G   UNL     1      20.347  65.260  13.835  1.00  0.00     0.000 G0
ENDBRANCH  15  16
ENDBRANCH  13  15
ENDBRANCH   1  13
TORSDOF 0
ENDMDL
