MODEL 1
REMARK VINA RESULT:    10.895      0.000      0.000
REMARK INTER + INTRA:          16.273
REMARK INTER:                  17.264
REMARK INTRA:                  -0.991
REMARK UNBOUND:                -0.991
REMARK SMILES C[C@@H]1O[C@H](O[C@H]2CC[C@@]3(C)[C@H](CC[C@]4(C)[C@H]3C=C[C@]35OC[C@@]6(CCC(C)(C)C[C@@H]63)[C@H](O)C[C@]54C)[C@@]2(C)CO)[C@H](O)[C@H](O[C@@H]2O[C@@H](CO)[C@@H](O)[C@@H](O)[C@@H]2O)[C@@H]1O
REMARK SMILES IDX 1 1 2 2 54 3 41 4 39 5 4 6 3 7 55 8 42 10 43 11 52 12 44 13
REMARK SMILES IDX 50 14 45 15 48 16 53 17 51 19 46 21 47 22 49 24 5 26 6 27
REMARK SMILES IDX 7 28 35 29 8 30 11 31 36 32 9 33 12 34 10 35 16 36 13 37
REMARK SMILES IDX 14 38 17 39 15 40 33 41 18 42 19 43 32 44 34 45 29 46 20 47
REMARK SMILES IDX 30 48 22 49 28 50 21 51 23 52 25 53 24 54 26 55 27 56 37 57
REMARK SMILES IDX 38 58 31 60 40 62
REMARK H PARENT 55 9 53 18 51 20 47 23 49 25 38 59 31 61 40 63
REMARK Flexibility Score: inf
ROOT
ATOM      1  C   UNL     1      23.578  25.777  22.936  1.00  0.00     0.041 C 
ATOM      2  C   UNL     1      22.646  26.413  21.873  1.00  0.00     0.150 C 
ATOM      3  C   UNL     1      21.624  25.329  21.181  1.00  0.00     0.175 C 
ATOM      4  C   UNL     1      20.657  26.097  20.249  1.00  0.00     0.186 C 
ATOM      5  C   UNL     1      20.042  27.230  21.318  1.00  0.00     0.202 C 
ATOM      6  C   UNL     1      21.241  28.322  21.430  1.00  0.00     0.282 C 
ATOM      7  O   UNL     1      22.100  27.684  22.400  1.00  0.00    -0.344 OA
ENDROOT
BRANCH   3   8
ATOM      8  O   UNL     1      20.882  24.557  22.139  1.00  0.00    -0.388 OA
ATOM      9  H   UNL     1      21.361  24.598  23.002  1.00  0.00     0.211 HD
ENDBRANCH   3   8
BRANCH   4  10
ATOM     10  O   UNL     1      19.893  25.282  19.243  1.00  0.00    -0.341 OA
BRANCH  10  11
ATOM     11  C   UNL     1      19.514  23.785  19.299  1.00  0.00     0.282 C 
ATOM     12  C   UNL     1      20.491  22.659  18.611  1.00  0.00     0.202 C 
ATOM     13  O   UNL     1      19.036  23.356  20.634  1.00  0.00    -0.341 OA
ATOM     14  C   UNL     1      20.357  21.130  19.045  1.00  0.00     0.179 C 
ATOM     15  C   UNL     1      18.947  21.908  20.887  1.00  0.00     0.178 C 
ATOM     16  C   UNL     1      19.019  20.825  19.725  1.00  0.00     0.177 C 
BRANCH  12  17
ATOM     17  O   UNL     1      21.891  22.921  18.490  1.00  0.00    -0.385 OA
ATOM     18  H   UNL     1      22.424  22.945  19.346  1.00  0.00     0.211 HD
ENDBRANCH  12  17
BRANCH  14  19
ATOM     19  O   UNL     1      20.468  20.275  17.957  1.00  0.00    -0.387 OA
ATOM     20  H   UNL     1      21.123  20.705  17.314  1.00  0.00     0.211 HD
ENDBRANCH  14  19
BRANCH  15  21
ATOM     21  C   UNL     1      17.877  21.509  21.948  1.00  0.00     0.191 C 
BRANCH  21  22
ATOM     22  O   UNL     1      18.238  20.526  22.873  1.00  0.00    -0.394 OA
ATOM     23  H   UNL     1      17.658  20.601  23.695  1.00  0.00     0.210 HD
ENDBRANCH  21  22
ENDBRANCH  15  21
BRANCH  16  24
ATOM     24  O   UNL     1      17.990  20.962  18.782  1.00  0.00    -0.387 OA
ATOM     25  H   UNL     1      17.123  20.657  19.151  1.00  0.00     0.211 HD
ENDBRANCH  16  24
ENDBRANCH  10  11
ENDBRANCH   4  10
BRANCH   6  26
ATOM     26  O   UNL     1      20.995  29.792  21.750  1.00  0.00    -0.346 OA
BRANCH  26  27
ATOM     27  C   UNL     1      21.813  30.658  20.927  1.00  0.00     0.130 C 
ATOM     28  C   UNL     1      23.274  30.854  21.436  1.00  0.00     0.033 C 
ATOM     29  C   UNL     1      21.441  31.227  19.386  1.00  0.00     0.020 C 
ATOM     30  C   UNL     1      23.992  31.780  20.537  1.00  0.00     0.010 C 
ATOM     31  C   UNL     1      22.652  32.203  18.670  1.00  0.00     0.006 C 
ATOM     32  C   UNL     1      19.991  31.977  19.262  1.00  0.00     0.017 C 
ATOM     33  C   UNL     1      24.085  31.665  18.923  1.00  0.00    -0.022 C 
ATOM     34  C   UNL     1      22.888  33.819  18.799  1.00  0.00     0.005 C 
ATOM     35  C   UNL     1      24.173  30.408  17.875  1.00  0.00     0.012 C 
ATOM     36  C   UNL     1      25.458  32.446  18.607  1.00  0.00     0.024 C 
ATOM     37  C   UNL     1      24.161  34.540  19.547  1.00  0.00     0.008 C 
ATOM     38  C   UNL     1      25.635  33.936  19.166  1.00  0.00    -0.017 C 
ATOM     39  C   UNL     1      26.512  31.460  19.139  1.00  0.00    -0.024 C 
ATOM     40  C   UNL     1      26.107  34.721  17.876  1.00  0.00     0.013 C 
ATOM     41  C   UNL     1      26.859  34.048  20.324  1.00  0.00     0.009 C 
ATOM     42  C   UNL     1      27.687  31.822  19.570  1.00  0.00     0.005 C 
ATOM     43  C   UNL     1      28.140  33.256  19.832  1.00  0.00     0.096 C 
ATOM     44  C   UNL     1      27.268  35.530  20.669  1.00  0.00     0.043 C 
ATOM     45  C   UNL     1      26.434  33.477  21.715  1.00  0.00     0.015 C 
ATOM     46  C   UNL     1      29.276  33.229  20.879  1.00  0.00     0.037 C 
ATOM     47  O   UNL     1      28.733  33.901  18.720  1.00  0.00    -0.369 OA
ATOM     48  C   UNL     1      28.650  35.645  21.400  1.00  0.00     0.124 C 
ATOM     49  C   UNL     1      29.735  34.677  20.765  1.00  0.00     0.026 C 
ATOM     50  C   UNL     1      30.429  32.231  20.476  1.00  0.00     0.014 C 
ATOM     51  C   UNL     1      29.699  34.827  19.239  1.00  0.00     0.171 C 
ATOM     52  C   UNL     1      31.114  34.931  21.504  1.00  0.00     0.013 C 
ATOM     53  C   UNL     1      31.705  32.390  21.303  1.00  0.00    -0.035 C 
ATOM     54  C   UNL     1      32.206  33.862  21.189  1.00  0.00     0.007 C 
ATOM     55  C   UNL     1      32.785  31.479  20.729  1.00  0.00     0.011 C 
ATOM     56  C   UNL     1      31.410  31.958  22.776  1.00  0.00     0.011 C 
BRANCH  29  57
ATOM     57  C   UNL     1      21.121  29.878  18.660  1.00  0.00     0.165 C 
BRANCH  57  58
ATOM     58  O   UNL     1      19.732  29.583  18.498  1.00  0.00    -0.396 OA
ATOM     59  H   UNL     1      19.385  29.238  19.379  1.00  0.00     0.210 HD
ENDBRANCH  57  58
ENDBRANCH  29  57
BRANCH  48  60
ATOM     60  O   UNL     1      28.561  35.421  22.808  1.00  0.00    -0.392 OA
ATOM     61  H   UNL     1      28.881  36.244  23.265  1.00  0.00     0.210 HD
ENDBRANCH  48  60
ENDBRANCH  26  27
ENDBRANCH   6  26
BRANCH   5  62
ATOM     62  O   UNL     1      19.816  26.809  22.666  1.00  0.00    -0.385 OA
ATOM     63  H   UNL     1      20.712  26.696  23.094  1.00  0.00     0.211 HD
ENDBRANCH   5  62
TORSDOF 14
ENDMDL
