MODEL 1
REMARK VINA RESULT:    -4.614      0.000      0.000
REMARK INTER + INTRA:          -4.982
REMARK INTER:                  -4.884
REMARK INTRA:                  -0.099
REMARK UNBOUND:                -0.099
REMARK SMILES C=C(C)[C@@H]1CC=C(C)C(=O)C1
REMARK SMILES IDX 8 1 7 2 6 3 5 4 4 5 11 6 9 7 10 8 2 9 1 10 3 11
REMARK H PARENT
REMARK Flexibility Score: inf
ROOT
ATOM      1  C   UNL     1      29.440 -45.389 -18.376  1.00  0.00     0.048 C 
ATOM      2  C   UNL     1      28.852 -44.466 -19.408  1.00  0.00    -0.012 C 
ATOM      3  C   UNL     1      28.311 -44.975 -20.528  1.00  0.00    -0.019 C 
ATOM      4  C   UNL     1      27.692 -44.098 -21.585  1.00  0.00     0.036 C 
ATOM      5  C   UNL     1      28.410 -42.738 -21.668  1.00  0.00     0.025 C 
ATOM      6  C   UNL     1      28.430 -42.059 -20.286  1.00  0.00     0.089 C 
ATOM      7  C   UNL     1      28.979 -42.996 -19.244  1.00  0.00     0.158 C 
ATOM      8  O   UNL     1      29.518 -42.518 -18.210  1.00  0.00    -0.295 OA
ENDROOT
BRANCH   5   9
ATOM      9  C   UNL     1      27.778 -41.838 -22.720  1.00  0.00    -0.077 C 
ATOM     10  C   UNL     1      27.495 -40.558 -22.430  1.00  0.00     0.008 C 
ATOM     11  C   UNL     1      27.454 -42.351 -24.102  1.00  0.00     0.039 C 
ENDBRANCH   5   9
TORSDOF 1
ENDMDL
MODEL 2
REMARK VINA RESULT:    -4.520      1.383      2.300
REMARK INTER + INTRA:          -4.883
REMARK INTER:                  -4.785
REMARK INTRA:                  -0.099
REMARK UNBOUND:                -0.099
REMARK SMILES C=C(C)[C@@H]1CC=C(C)C(=O)C1
REMARK SMILES IDX 8 1 7 2 6 3 5 4 4 5 11 6 9 7 10 8 2 9 1 10 3 11
REMARK H PARENT
REMARK Flexibility Score: inf
ROOT
ATOM      1  C   UNL     1      29.302 -43.108 -17.617  1.00  0.00     0.048 C 
ATOM      2  C   UNL     1      29.031 -42.886 -19.079  1.00  0.00    -0.012 C 
ATOM      3  C   UNL     1      28.929 -41.634 -19.558  1.00  0.00    -0.019 C 
ATOM      4  C   UNL     1      28.677 -41.355 -21.017  1.00  0.00     0.036 C 
ATOM      5  C   UNL     1      27.806 -42.456 -21.649  1.00  0.00     0.025 C 
ATOM      6  C   UNL     1      28.444 -43.839 -21.422  1.00  0.00     0.089 C 
ATOM      7  C   UNL     1      28.755 -44.045 -19.965  1.00  0.00     0.158 C 
ATOM      8  O   UNL     1      28.815 -45.219 -19.509  1.00  0.00    -0.295 OA
ENDROOT
BRANCH   5   9
ATOM      9  C   UNL     1      27.562 -42.193 -23.129  1.00  0.00    -0.077 C 
ATOM     10  C   UNL     1      27.770 -43.167 -24.030  1.00  0.00     0.008 C 
ATOM     11  C   UNL     1      27.088 -40.847 -23.620  1.00  0.00     0.039 C 
ENDBRANCH   5   9
TORSDOF 1
ENDMDL
MODEL 3
REMARK VINA RESULT:    -4.265     15.596     16.716
REMARK INTER + INTRA:          -4.613
REMARK INTER:                  -4.514
REMARK INTRA:                  -0.099
REMARK UNBOUND:                -0.099
REMARK SMILES C=C(C)[C@@H]1CC=C(C)C(=O)C1
REMARK SMILES IDX 8 1 7 2 6 3 5 4 4 5 11 6 9 7 10 8 2 9 1 10 3 11
REMARK H PARENT
REMARK Flexibility Score: inf
ROOT
ATOM      1  C   UNL     1      20.304 -45.659 -10.673  1.00  0.00     0.048 C 
ATOM      2  C   UNL     1      19.023 -45.529  -9.896  1.00  0.00    -0.012 C 
ATOM      3  C   UNL     1      17.879 -45.237 -10.539  1.00  0.00    -0.019 C 
ATOM      4  C   UNL     1      16.565 -45.114  -9.812  1.00  0.00     0.036 C 
ATOM      5  C   UNL     1      16.768 -44.566  -8.388  1.00  0.00     0.025 C 
ATOM      6  C   UNL     1      17.779 -45.436  -7.619  1.00  0.00     0.089 C 
ATOM      7  C   UNL     1      19.046 -45.602  -8.414  1.00  0.00     0.158 C 
ATOM      8  O   UNL     1      20.125 -45.842  -7.808  1.00  0.00    -0.295 OA
ENDROOT
BRANCH   5   9
ATOM      9  C   UNL     1      15.447 -44.456  -7.639  1.00  0.00    -0.077 C 
ATOM     10  C   UNL     1      15.220 -45.219  -6.558  1.00  0.00     0.008 C 
ATOM     11  C   UNL     1      14.368 -43.500  -8.085  1.00  0.00     0.039 C 
ENDBRANCH   5   9
TORSDOF 1
ENDMDL
MODEL 4
REMARK VINA RESULT:    -4.174      1.946      4.748
REMARK INTER + INTRA:          -4.516
REMARK INTER:                  -4.423
REMARK INTRA:                  -0.093
REMARK UNBOUND:                -0.099
REMARK SMILES C=C(C)[C@@H]1CC=C(C)C(=O)C1
REMARK SMILES IDX 8 1 7 2 6 3 5 4 4 5 11 6 9 7 10 8 2 9 1 10 3 11
REMARK H PARENT
REMARK Flexibility Score: inf
ROOT
ATOM      1  C   UNL     1      27.333 -41.846 -23.576  1.00  0.00     0.048 C 
ATOM      2  C   UNL     1      27.656 -42.371 -22.204  1.00  0.00    -0.012 C 
ATOM      3  C   UNL     1      28.491 -41.684 -21.405  1.00  0.00    -0.019 C 
ATOM      4  C   UNL     1      28.834 -42.155 -20.016  1.00  0.00     0.036 C 
ATOM      5  C   UNL     1      28.841 -43.693 -19.937  1.00  0.00     0.025 C 
ATOM      6  C   UNL     1      27.496 -44.259 -20.429  1.00  0.00     0.089 C 
ATOM      7  C   UNL     1      27.151 -43.702 -21.783  1.00  0.00     0.158 C 
ATOM      8  O   UNL     1      26.396 -44.363 -22.546  1.00  0.00    -0.295 OA
ENDROOT
BRANCH   5   9
ATOM      9  C   UNL     1      29.167 -44.178 -18.532  1.00  0.00    -0.077 C 
ATOM     10  C   UNL     1      29.435 -45.475 -18.312  1.00  0.00     0.008 C 
ATOM     11  C   UNL     1      29.197 -43.228 -17.359  1.00  0.00     0.039 C 
ENDBRANCH   5   9
TORSDOF 1
ENDMDL
MODEL 5
REMARK VINA RESULT:    -4.163      1.983      4.467
REMARK INTER + INTRA:          -4.505
REMARK INTER:                  -4.406
REMARK INTRA:                  -0.098
REMARK UNBOUND:                -0.099
REMARK SMILES C=C(C)[C@@H]1CC=C(C)C(=O)C1
REMARK SMILES IDX 8 1 7 2 6 3 5 4 4 5 11 6 9 7 10 8 2 9 1 10 3 11
REMARK H PARENT
REMARK Flexibility Score: inf
ROOT
ATOM      1  C   UNL     1      26.831 -41.564 -24.962  1.00  0.00     0.048 C 
ATOM      2  C   UNL     1      27.468 -41.906 -23.643  1.00  0.00    -0.012 C 
ATOM      3  C   UNL     1      27.876 -43.164 -23.405  1.00  0.00    -0.019 C 
ATOM      4  C   UNL     1      28.536 -43.557 -22.109  1.00  0.00     0.036 C 
ATOM      5  C   UNL     1      27.987 -42.728 -20.934  1.00  0.00     0.025 C 
ATOM      6  C   UNL     1      28.130 -41.223 -21.227  1.00  0.00     0.089 C 
ATOM      7  C   UNL     1      27.531 -40.887 -22.566  1.00  0.00     0.158 C 
ATOM      8  O   UNL     1      27.116 -39.715 -22.777  1.00  0.00    -0.295 OA
ENDROOT
BRANCH   5   9
ATOM      9  C   UNL     1      28.662 -43.104 -19.622  1.00  0.00    -0.077 C 
ATOM     10  C   UNL     1      29.053 -42.147 -18.766  1.00  0.00     0.008 C 
ATOM     11  C   UNL     1      28.911 -44.546 -19.251  1.00  0.00     0.039 C 
ENDBRANCH   5   9
TORSDOF 1
ENDMDL
MODEL 6
REMARK VINA RESULT:    -4.040     11.273     12.526
REMARK INTER + INTRA:          -4.374
REMARK INTER:                  -4.277
REMARK INTRA:                  -0.097
REMARK UNBOUND:                -0.099
REMARK SMILES C=C(C)[C@@H]1CC=C(C)C(=O)C1
REMARK SMILES IDX 8 1 7 2 6 3 5 4 4 5 11 6 9 7 10 8 2 9 1 10 3 11
REMARK H PARENT
REMARK Flexibility Score: inf
ROOT
ATOM      1  C   UNL     1      30.120 -35.702 -15.311  1.00  0.00     0.048 C 
ATOM      2  C   UNL     1      29.395 -34.439 -14.936  1.00  0.00    -0.012 C 
ATOM      3  C   UNL     1      28.753 -33.731 -15.882  1.00  0.00    -0.019 C 
ATOM      4  C   UNL     1      27.996 -32.469 -15.558  1.00  0.00     0.036 C 
ATOM      5  C   UNL     1      28.658 -31.709 -14.394  1.00  0.00     0.025 C 
ATOM      6  C   UNL     1      28.806 -32.630 -13.169  1.00  0.00     0.089 C 
ATOM      7  C   UNL     1      29.493 -33.912 -13.552  1.00  0.00     0.158 C 
ATOM      8  O   UNL     1      30.125 -34.557 -12.672  1.00  0.00    -0.295 OA
ENDROOT
BRANCH   5   9
ATOM      9  C   UNL     1      27.888 -30.442 -14.047  1.00  0.00    -0.077 C 
ATOM     10  C   UNL     1      26.840 -30.498 -13.211  1.00  0.00     0.008 C 
ATOM     11  C   UNL     1      28.275 -29.103 -14.627  1.00  0.00     0.039 C 
ENDBRANCH   5   9
TORSDOF 1
ENDMDL
MODEL 7
REMARK VINA RESULT:    -4.024     14.898     15.319
REMARK INTER + INTRA:          -4.358
REMARK INTER:                  -4.268
REMARK INTRA:                  -0.090
REMARK UNBOUND:                -0.099
REMARK SMILES C=C(C)[C@@H]1CC=C(C)C(=O)C1
REMARK SMILES IDX 8 1 7 2 6 3 5 4 4 5 11 6 9 7 10 8 2 9 1 10 3 11
REMARK H PARENT
REMARK Flexibility Score: inf
ROOT
ATOM      1  C   UNL     1      27.958 -31.094 -11.990  1.00  0.00     0.048 C 
ATOM      2  C   UNL     1      27.580 -30.374 -13.254  1.00  0.00    -0.012 C 
ATOM      3  C   UNL     1      28.541 -29.947 -14.093  1.00  0.00    -0.019 C 
ATOM      4  C   UNL     1      28.217 -29.236 -15.381  1.00  0.00     0.036 C 
ATOM      5  C   UNL     1      26.935 -28.395 -15.243  1.00  0.00     0.025 C 
ATOM      6  C   UNL     1      25.769 -29.273 -14.754  1.00  0.00     0.089 C 
ATOM      7  C   UNL     1      26.160 -30.027 -13.512  1.00  0.00     0.158 C 
ATOM      8  O   UNL     1      25.262 -30.396 -12.709  1.00  0.00    -0.295 OA
ENDROOT
BRANCH   5   9
ATOM      9  C   UNL     1      26.590 -27.688 -16.547  1.00  0.00    -0.077 C 
ATOM     10  C   UNL     1      27.304 -26.624 -16.946  1.00  0.00     0.008 C 
ATOM     11  C   UNL     1      25.447 -28.155 -17.415  1.00  0.00     0.039 C 
ENDBRANCH   5   9
TORSDOF 1
ENDMDL
MODEL 8
REMARK VINA RESULT:    -4.019      1.727      4.277
REMARK INTER + INTRA:          -4.353
REMARK INTER:                  -4.254
REMARK INTRA:                  -0.099
REMARK UNBOUND:                -0.099
REMARK SMILES C=C(C)[C@@H]1CC=C(C)C(=O)C1
REMARK SMILES IDX 8 1 7 2 6 3 5 4 4 5 11 6 9 7 10 8 2 9 1 10 3 11
REMARK H PARENT
REMARK Flexibility Score: inf
ROOT
ATOM      1  C   UNL     1      27.877 -43.051 -23.498  1.00  0.00     0.048 C 
ATOM      2  C   UNL     1      28.223 -43.242 -22.047  1.00  0.00    -0.012 C 
ATOM      3  C   UNL     1      28.254 -44.480 -21.524  1.00  0.00    -0.019 C 
ATOM      4  C   UNL     1      28.612 -44.729 -20.082  1.00  0.00     0.036 C 
ATOM      5  C   UNL     1      28.149 -43.565 -19.187  1.00  0.00     0.025 C 
ATOM      6  C   UNL     1      28.717 -42.231 -19.707  1.00  0.00     0.089 C 
ATOM      7  C   UNL     1      28.409 -42.059 -21.169  1.00  0.00     0.158 C 
ATOM      8  O   UNL     1      28.345 -40.896 -21.651  1.00  0.00    -0.295 OA
ENDROOT
BRANCH   5   9
ATOM      9  C   UNL     1      28.524 -43.799 -17.730  1.00  0.00    -0.077 C 
ATOM     10  C   UNL     1      29.429 -43.008 -17.132  1.00  0.00     0.008 C 
ATOM     11  C   UNL     1      27.899 -44.913 -16.927  1.00  0.00     0.039 C 
ENDBRANCH   5   9
TORSDOF 1
ENDMDL
