MODEL 1
REMARK VINA RESULT:     5.080      0.000      0.000
REMARK INTER + INTRA:          10.307
REMARK INTER:                  12.800
REMARK INTRA:                  -2.494
REMARK UNBOUND:                -2.494
REMARK SMILES CCCCCCCCCCCCCCCCCCCCCCCCCCCC(=O)[O-]
REMARK SMILES IDX 15 1 16 2 17 3 18 4 19 5 20 6 21 7 22 8 23 9 24 10 25 11
REMARK SMILES IDX 26 12 27 13 28 14 29 15 30 16 14 17 13 18 12 19 11 20 10 21
REMARK SMILES IDX 9 22 8 23 7 24 6 25 5 26 4 27 3 28 2 29 1 30
REMARK H PARENT
REMARK Flexibility Score: inf
ROOT
ATOM      1  C   UNL     1       3.344 -37.212  20.058  1.00  0.00     0.000 C 
ENDROOT
BRANCH   1   2
ATOM      2  C   UNL     1       4.735 -37.252  19.406  1.00  0.00     0.000 C 
BRANCH   2   3
ATOM      3  C   UNL     1       5.685 -38.246  20.095  1.00  0.00     0.000 C 
BRANCH   3   4
ATOM      4  C   UNL     1       5.695 -38.092  21.625  1.00  0.00     0.000 C 
BRANCH   4   5
ATOM      5  C   UNL     1       5.425 -39.420  22.354  1.00  0.00     0.000 C 
BRANCH   5   6
ATOM      6  C   UNL     1       5.093 -39.226  23.841  1.00  0.00     0.000 C 
BRANCH   6   7
ATOM      7  C   UNL     1       5.310 -37.781  24.315  1.00  0.00     0.000 C 
BRANCH   7   8
ATOM      8  C   UNL     1       5.411 -37.714  25.843  1.00  0.00     0.000 C 
BRANCH   8   9
ATOM      9  C   UNL     1       4.297 -36.838  26.434  1.00  0.00     0.000 C 
BRANCH   9  10
ATOM     10  C   UNL     1       2.894 -37.419  26.196  1.00  0.00     0.000 C 
BRANCH  10  11
ATOM     11  C   UNL     1       1.839 -37.017  27.245  1.00  0.00     0.000 C 
BRANCH  11  12
ATOM     12  C   UNL     1       2.312 -35.915  28.222  1.00  0.00     0.006 C 
BRANCH  12  13
ATOM     13  C   UNL     1       1.685 -34.537  27.956  1.00  0.00     0.053 C 
BRANCH  13  14
ATOM     14  C   UNL     1       1.044 -33.963  29.184  1.00  0.00     0.041 C 
ATOM     15  O   UNL     1       1.696 -33.870  30.258  1.00  0.00    -0.550 OA
ATOM     16  O   UNL     1      -0.286 -33.563  29.151  1.00  0.00    -0.550 OA
ENDBRANCH  13  14
ENDBRANCH  12  13
ENDBRANCH  11  12
ENDBRANCH  10  11
ENDBRANCH   9  10
ENDBRANCH   8   9
ENDBRANCH   7   8
ENDBRANCH   6   7
ENDBRANCH   5   6
ENDBRANCH   4   5
ENDBRANCH   3   4
ENDBRANCH   2   3
ENDBRANCH   1   2
BRANCH   1  17
ATOM     17  C   UNL     1       2.259 -37.846  19.170  1.00  0.00     0.000 C 
BRANCH  17  18
ATOM     18  C   UNL     1       1.054 -36.917  18.953  1.00  0.00     0.000 C 
BRANCH  18  19
ATOM     19  C   UNL     1       0.590 -36.883  17.486  1.00  0.00     0.000 C 
BRANCH  19  20
ATOM     20  C   UNL     1       1.229 -35.738  16.686  1.00  0.00     0.000 C 
BRANCH  20  21
ATOM     21  C   UNL     1       2.567 -36.136  16.042  1.00  0.00     0.000 C 
BRANCH  21  22
ATOM     22  C   UNL     1       3.507 -34.936  15.830  1.00  0.00    -0.000 C 
BRANCH  22  23
ATOM     23  C   UNL     1       4.767 -34.973  16.721  1.00  0.00    -0.000 C 
BRANCH  23  24
ATOM     24  C   UNL     1       4.632 -34.060  17.954  1.00  0.00    -0.000 C 
BRANCH  24  25
ATOM     25  C   UNL     1       5.989 -33.735  18.597  1.00  0.00    -0.000 C 
BRANCH  25  26
ATOM     26  C   UNL     1       6.125 -34.320  20.014  1.00  0.00    -0.000 C 
BRANCH  26  27
ATOM     27  C   UNL     1       4.800 -34.295  20.797  1.00  0.00    -0.000 C 
BRANCH  27  28
ATOM     28  C   UNL     1       4.893 -34.809  22.245  1.00  0.00    -0.000 C 
BRANCH  28  29
ATOM     29  C   UNL     1       6.108 -34.250  23.000  1.00  0.00    -0.003 C 
ATOM     30  C   UNL     1       6.005 -34.535  24.495  1.00  0.00     0.004 C 
ENDBRANCH  28  29
ENDBRANCH  27  28
ENDBRANCH  26  27
ENDBRANCH  25  26
ENDBRANCH  24  25
ENDBRANCH  23  24
ENDBRANCH  22  23
ENDBRANCH  21  22
ENDBRANCH  20  21
ENDBRANCH  19  20
ENDBRANCH  18  19
ENDBRANCH  17  18
ENDBRANCH   1  17
TORSDOF 26
ENDMDL
MODEL 2
REMARK VINA RESULT:     6.016      1.155      4.512
REMARK INTER + INTRA:          12.666
REMARK INTER:                  13.407
REMARK INTRA:                  -0.740
REMARK UNBOUND:                -2.494
REMARK SMILES CCCCCCCCCCCCCCCCCCCCCCCCCCCC(=O)[O-]
REMARK SMILES IDX 15 1 16 2 17 3 18 4 19 5 20 6 21 7 22 8 23 9 24 10 25 11
REMARK SMILES IDX 26 12 27 13 28 14 29 15 30 16 14 17 13 18 12 19 11 20 10 21
REMARK SMILES IDX 9 22 8 23 7 24 6 25 5 26 4 27 3 28 2 29 1 30
REMARK H PARENT
REMARK Flexibility Score: inf
ROOT
ATOM      1  C   UNL     1       6.125 -35.159  23.014  1.00  0.00     0.000 C 
ENDROOT
BRANCH   1   2
ATOM      2  C   UNL     1       5.846 -36.649  22.763  1.00  0.00     0.000 C 
BRANCH   2   3
ATOM      3  C   UNL     1       6.004 -37.040  21.283  1.00  0.00     0.000 C 
BRANCH   3   4
ATOM      4  C   UNL     1       6.125 -38.559  21.081  1.00  0.00     0.000 C 
BRANCH   4   5
ATOM      5  C   UNL     1       5.129 -39.350  21.946  1.00  0.00     0.000 C 
BRANCH   5   6
ATOM      6  C   UNL     1       5.818 -40.183  23.038  1.00  0.00     0.000 C 
BRANCH   6   7
ATOM      7  C   UNL     1       5.074 -40.134  24.381  1.00  0.00     0.000 C 
BRANCH   7   8
ATOM      8  C   UNL     1       5.407 -38.849  25.146  1.00  0.00     0.000 C 
BRANCH   8   9
ATOM      9  C   UNL     1       4.186 -37.921  25.227  1.00  0.00     0.000 C 
BRANCH   9  10
ATOM     10  C   UNL     1       3.981 -37.326  26.629  1.00  0.00     0.000 C 
BRANCH  10  11
ATOM     11  C   UNL     1       2.545 -36.858  26.932  1.00  0.00     0.000 C 
BRANCH  11  12
ATOM     12  C   UNL     1       2.470 -35.548  27.750  1.00  0.00     0.006 C 
BRANCH  12  13
ATOM     13  C   UNL     1       1.037 -35.047  27.993  1.00  0.00     0.053 C 
BRANCH  13  14
ATOM     14  C   UNL     1       0.987 -33.963  29.028  1.00  0.00     0.041 C 
ATOM     15  O   UNL     1       2.050 -33.529  29.546  1.00  0.00    -0.550 OA
ATOM     16  O   UNL     1      -0.237 -33.457  29.445  1.00  0.00    -0.550 OA
ENDBRANCH  13  14
ENDBRANCH  12  13
ENDBRANCH  11  12
ENDBRANCH  10  11
ENDBRANCH   9  10
ENDBRANCH   8   9
ENDBRANCH   7   8
ENDBRANCH   6   7
ENDBRANCH   5   6
ENDBRANCH   4   5
ENDBRANCH   3   4
ENDBRANCH   2   3
ENDBRANCH   1   2
BRANCH   1  17
ATOM     17  C   UNL     1       4.888 -34.277  22.765  1.00  0.00     0.000 C 
BRANCH  17  18
ATOM     18  C   UNL     1       4.725 -33.892  21.287  1.00  0.00     0.000 C 
BRANCH  18  19
ATOM     19  C   UNL     1       6.063 -33.881  20.527  1.00  0.00     0.000 C 
BRANCH  19  20
ATOM     20  C   UNL     1       5.890 -34.083  19.014  1.00  0.00     0.000 C 
BRANCH  20  21
ATOM     21  C   UNL     1       4.630 -34.890  18.660  1.00  0.00     0.000 C 
BRANCH  21  22
ATOM     22  C   UNL     1       4.832 -36.408  18.811  1.00  0.00    -0.000 C 
BRANCH  22  23
ATOM     23  C   UNL     1       3.664 -37.246  18.249  1.00  0.00    -0.000 C 
BRANCH  23  24
ATOM     24  C   UNL     1       2.297 -36.747  18.752  1.00  0.00    -0.000 C 
BRANCH  24  25
ATOM     25  C   UNL     1       1.184 -36.928  17.708  1.00  0.00    -0.000 C 
BRANCH  25  26
ATOM     26  C   UNL     1       1.228 -35.853  16.608  1.00  0.00    -0.000 C 
BRANCH  26  27
ATOM     27  C   UNL     1       2.623 -35.708  15.973  1.00  0.00    -0.000 C 
BRANCH  27  28
ATOM     28  C   UNL     1       2.644 -35.757  14.436  1.00  0.00    -0.000 C 
BRANCH  28  29
ATOM     29  C   UNL     1       3.943 -36.356  13.875  1.00  0.00    -0.003 C 
ATOM     30  C   UNL     1       4.333 -37.625  14.628  1.00  0.00     0.004 C 
ENDBRANCH  28  29
ENDBRANCH  27  28
ENDBRANCH  26  27
ENDBRANCH  25  26
ENDBRANCH  24  25
ENDBRANCH  23  24
ENDBRANCH  22  23
ENDBRANCH  21  22
ENDBRANCH  20  21
ENDBRANCH  19  20
ENDBRANCH  18  19
ENDBRANCH  17  18
ENDBRANCH   1  17
TORSDOF 26
ENDMDL
MODEL 3
REMARK VINA RESULT:     6.302      4.328      9.579
REMARK INTER + INTRA:          13.387
REMARK INTER:                  11.782
REMARK INTRA:                   1.605
REMARK UNBOUND:                -2.494
REMARK SMILES CCCCCCCCCCCCCCCCCCCCCCCCCCCC(=O)[O-]
REMARK SMILES IDX 15 1 16 2 17 3 18 4 19 5 20 6 21 7 22 8 23 9 24 10 25 11
REMARK SMILES IDX 26 12 27 13 28 14 29 15 30 16 14 17 13 18 12 19 11 20 10 21
REMARK SMILES IDX 9 22 8 23 7 24 6 25 5 26 4 27 3 28 2 29 1 30
REMARK H PARENT
REMARK Flexibility Score: inf
ROOT
ATOM      1  C   UNL     1       6.091 -35.557  22.135  1.00  0.00     0.000 C 
ENDROOT
BRANCH   1   2
ATOM      2  C   UNL     1       5.717 -37.039  22.293  1.00  0.00     0.000 C 
BRANCH   2   3
ATOM      3  C   UNL     1       5.454 -37.731  20.944  1.00  0.00     0.000 C 
BRANCH   3   4
ATOM      4  C   UNL     1       5.938 -36.897  19.747  1.00  0.00     0.000 C 
BRANCH   4   5
ATOM      5  C   UNL     1       5.015 -35.704  19.446  1.00  0.00     0.000 C 
BRANCH   5   6
ATOM      6  C   UNL     1       3.704 -36.123  18.763  1.00  0.00     0.000 C 
BRANCH   6   7
ATOM      7  C   UNL     1       2.733 -36.829  19.721  1.00  0.00     0.000 C 
BRANCH   7   8
ATOM      8  C   UNL     1       1.310 -36.837  19.152  1.00  0.00     0.000 C 
BRANCH   8   9
ATOM      9  C   UNL     1       1.302 -37.309  17.690  1.00  0.00     0.000 C 
BRANCH   9  10
ATOM     10  C   UNL     1       0.778 -36.237  16.722  1.00  0.00     0.000 C 
BRANCH  10  11
ATOM     11  C   UNL     1       1.869 -35.465  15.956  1.00  0.00     0.000 C 
BRANCH  11  12
ATOM     12  C   UNL     1       1.993 -35.863  14.466  1.00  0.00     0.006 C 
BRANCH  12  13
ATOM     13  C   UNL     1       3.397 -35.649  13.879  1.00  0.00     0.053 C 
BRANCH  13  14
ATOM     14  C   UNL     1       4.330 -36.770  14.231  1.00  0.00     0.041 C 
ATOM     15  O   UNL     1       3.912 -37.768  14.875  1.00  0.00    -0.550 OA
ATOM     16  O   UNL     1       5.671 -36.694  13.875  1.00  0.00    -0.550 OA
ENDBRANCH  13  14
ENDBRANCH  12  13
ENDBRANCH  11  12
ENDBRANCH  10  11
ENDBRANCH   9  10
ENDBRANCH   8   9
ENDBRANCH   7   8
ENDBRANCH   6   7
ENDBRANCH   5   6
ENDBRANCH   4   5
ENDBRANCH   3   4
ENDBRANCH   2   3
ENDBRANCH   1   2
BRANCH   1  17
ATOM     17  C   UNL     1       4.866 -34.628  22.209  1.00  0.00     0.000 C 
BRANCH  17  18
ATOM     18  C   UNL     1       4.995 -33.565  23.311  1.00  0.00     0.000 C 
BRANCH  18  19
ATOM     19  C   UNL     1       5.982 -33.977  24.417  1.00  0.00     0.000 C 
BRANCH  19  20
ATOM     20  C   UNL     1       6.012 -35.495  24.652  1.00  0.00     0.000 C 
BRANCH  20  21
ATOM     21  C   UNL     1       6.125 -35.866  26.140  1.00  0.00     0.000 C 
BRANCH  21  22
ATOM     22  C   UNL     1       6.113 -37.386  26.378  1.00  0.00    -0.000 C 
BRANCH  22  23
ATOM     23  C   UNL     1       4.718 -38.027  26.220  1.00  0.00    -0.000 C 
BRANCH  23  24
ATOM     24  C   UNL     1       3.586 -36.991  26.348  1.00  0.00    -0.000 C 
BRANCH  24  25
ATOM     25  C   UNL     1       2.286 -37.604  26.893  1.00  0.00    -0.000 C 
BRANCH  25  26
ATOM     26  C   UNL     1       1.378 -36.557  27.562  1.00  0.00    -0.000 C 
BRANCH  26  27
ATOM     27  C   UNL     1       2.145 -35.298  28.004  1.00  0.00    -0.000 C 
BRANCH  27  28
ATOM     28  C   UNL     1       1.271 -34.185  28.608  1.00  0.00    -0.000 C 
BRANCH  28  29
ATOM     29  C   UNL     1       1.606 -33.895  30.079  1.00  0.00    -0.003 C 
ATOM     30  C   UNL     1       1.255 -32.457  30.450  1.00  0.00     0.004 C 
ENDBRANCH  28  29
ENDBRANCH  27  28
ENDBRANCH  26  27
ENDBRANCH  25  26
ENDBRANCH  24  25
ENDBRANCH  23  24
ENDBRANCH  22  23
ENDBRANCH  21  22
ENDBRANCH  20  21
ENDBRANCH  19  20
ENDBRANCH  18  19
ENDBRANCH  17  18
ENDBRANCH   1  17
TORSDOF 26
ENDMDL
MODEL 4
REMARK VINA RESULT:     6.485      1.883      4.969
REMARK INTER + INTRA:          13.847
REMARK INTER:                  14.876
REMARK INTRA:                  -1.029
REMARK UNBOUND:                -2.494
REMARK SMILES CCCCCCCCCCCCCCCCCCCCCCCCCCCC(=O)[O-]
REMARK SMILES IDX 15 1 16 2 17 3 18 4 19 5 20 6 21 7 22 8 23 9 24 10 25 11
REMARK SMILES IDX 26 12 27 13 28 14 29 15 30 16 14 17 13 18 12 19 11 20 10 21
REMARK SMILES IDX 9 22 8 23 7 24 6 25 5 26 4 27 3 28 2 29 1 30
REMARK H PARENT
REMARK Flexibility Score: inf
ROOT
ATOM      1  C   UNL     1       3.853 -34.059  22.605  1.00  0.00     0.000 C 
ENDROOT
BRANCH   1   2
ATOM      2  C   UNL     1       4.838 -33.121  23.320  1.00  0.00     0.000 C 
BRANCH   2   3
ATOM      3  C   UNL     1       6.041 -33.871  23.918  1.00  0.00     0.000 C 
BRANCH   3   4
ATOM      4  C   UNL     1       5.634 -35.165  24.640  1.00  0.00     0.000 C 
BRANCH   4   5
ATOM      5  C   UNL     1       6.095 -36.428  23.891  1.00  0.00     0.000 C 
BRANCH   5   6
ATOM      6  C   UNL     1       5.205 -37.648  24.177  1.00  0.00     0.000 C 
BRANCH   6   7
ATOM      7  C   UNL     1       5.450 -38.249  25.569  1.00  0.00     0.000 C 
BRANCH   7   8
ATOM      8  C   UNL     1       4.721 -37.442  26.650  1.00  0.00     0.000 C 
BRANCH   8   9
ATOM      9  C   UNL     1       3.264 -37.170  26.249  1.00  0.00     0.000 C 
BRANCH   9  10
ATOM     10  C   UNL     1       2.334 -37.003  27.461  1.00  0.00     0.000 C 
BRANCH  10  11
ATOM     11  C   UNL     1       1.458 -35.736  27.438  1.00  0.00     0.000 C 
BRANCH  11  12
ATOM     12  C   UNL     1       2.123 -34.500  28.089  1.00  0.00     0.006 C 
BRANCH  12  13
ATOM     13  C   UNL     1       1.511 -34.105  29.442  1.00  0.00     0.053 C 
BRANCH  13  14
ATOM     14  C   UNL     1       0.216 -33.367  29.280  1.00  0.00     0.041 C 
ATOM     15  O   UNL     1      -0.688 -33.825  28.531  1.00  0.00    -0.550 OA
ATOM     16  O   UNL     1       0.021 -32.154  29.930  1.00  0.00    -0.550 OA
ENDBRANCH  13  14
ENDBRANCH  12  13
ENDBRANCH  11  12
ENDBRANCH  10  11
ENDBRANCH   9  10
ENDBRANCH   8   9
ENDBRANCH   7   8
ENDBRANCH   6   7
ENDBRANCH   5   6
ENDBRANCH   4   5
ENDBRANCH   3   4
ENDBRANCH   2   3
ENDBRANCH   1   2
BRANCH   1  17
ATOM     17  C   UNL     1       4.129 -34.164  21.095  1.00  0.00     0.000 C 
BRANCH  17  18
ATOM     18  C   UNL     1       5.495 -34.795  20.786  1.00  0.00     0.000 C 
BRANCH  18  19
ATOM     19  C   UNL     1       5.398 -35.953  19.776  1.00  0.00     0.000 C 
BRANCH  19  20
ATOM     20  C   UNL     1       4.810 -37.231  20.393  1.00  0.00     0.000 C 
BRANCH  20  21
ATOM     21  C   UNL     1       3.765 -37.904  19.488  1.00  0.00     0.000 C 
BRANCH  21  22
ATOM     22  C   UNL     1       2.829 -36.892  18.804  1.00  0.00    -0.000 C 
BRANCH  22  23
ATOM     23  C   UNL     1       3.387 -36.330  17.480  1.00  0.00    -0.000 C 
BRANCH  23  24
ATOM     24  C   UNL     1       2.335 -36.340  16.356  1.00  0.00    -0.000 C 
BRANCH  24  25
ATOM     25  C   UNL     1       2.679 -35.367  15.218  1.00  0.00    -0.000 C 
BRANCH  25  26
ATOM     26  C   UNL     1       3.269 -36.082  13.989  1.00  0.00    -0.000 C 
BRANCH  26  27
ATOM     27  C   UNL     1       4.512 -36.924  14.331  1.00  0.00    -0.000 C 
BRANCH  27  28
ATOM     28  C   UNL     1       4.308 -38.446  14.242  1.00  0.00    -0.000 C 
BRANCH  28  29
ATOM     29  C   UNL     1       5.597 -39.202  13.886  1.00  0.00    -0.003 C 
ATOM     30  C   UNL     1       5.531 -40.653  14.353  1.00  0.00     0.004 C 
ENDBRANCH  28  29
ENDBRANCH  27  28
ENDBRANCH  26  27
ENDBRANCH  25  26
ENDBRANCH  24  25
ENDBRANCH  23  24
ENDBRANCH  22  23
ENDBRANCH  21  22
ENDBRANCH  20  21
ENDBRANCH  19  20
ENDBRANCH  18  19
ENDBRANCH  17  18
ENDBRANCH   1  17
TORSDOF 26
ENDMDL
MODEL 5
REMARK VINA RESULT:     6.951      3.000      7.438
REMARK INTER + INTRA:          15.022
REMARK INTER:                  13.627
REMARK INTRA:                   1.395
REMARK UNBOUND:                -2.494
REMARK SMILES CCCCCCCCCCCCCCCCCCCCCCCCCCCC(=O)[O-]
REMARK SMILES IDX 15 1 16 2 17 3 18 4 19 5 20 6 21 7 22 8 23 9 24 10 25 11
REMARK SMILES IDX 26 12 27 13 28 14 29 15 30 16 14 17 13 18 12 19 11 20 10 21
REMARK SMILES IDX 9 22 8 23 7 24 6 25 5 26 4 27 3 28 2 29 1 30
REMARK H PARENT
REMARK Flexibility Score: inf
ROOT
ATOM      1  C   UNL     1       4.507 -34.737  18.378  1.00  0.00     0.000 C 
ENDROOT
BRANCH   1   2
ATOM      2  C   UNL     1       4.140 -34.879  16.893  1.00  0.00     0.000 C 
BRANCH   2   3
ATOM      3  C   UNL     1       2.668 -35.274  16.681  1.00  0.00     0.000 C 
BRANCH   3   4
ATOM      4  C   UNL     1       2.433 -36.786  16.834  1.00  0.00     0.000 C 
BRANCH   4   5
ATOM      5  C   UNL     1       1.531 -37.125  18.033  1.00  0.00     0.000 C 
BRANCH   5   6
ATOM      6  C   UNL     1       2.251 -36.974  19.382  1.00  0.00     0.000 C 
BRANCH   6   7
ATOM      7  C   UNL     1       3.553 -37.786  19.454  1.00  0.00     0.000 C 
BRANCH   7   8
ATOM      8  C   UNL     1       4.760 -36.867  19.676  1.00  0.00     0.000 C 
BRANCH   8   9
ATOM      9  C   UNL     1       5.857 -37.580  20.479  1.00  0.00     0.000 C 
BRANCH   9  10
ATOM     10  C   UNL     1       5.876 -39.098  20.243  1.00  0.00     0.000 C 
BRANCH  10  11
ATOM     11  C   UNL     1       6.038 -39.950  21.517  1.00  0.00     0.000 C 
BRANCH  11  12
ATOM     12  C   UNL     1       5.857 -39.157  22.831  1.00  0.00     0.006 C 
BRANCH  12  13
ATOM     13  C   UNL     1       5.138 -39.943  23.939  1.00  0.00     0.053 C 
BRANCH  13  14
ATOM     14  C   UNL     1       5.556 -41.383  23.970  1.00  0.00     0.041 C 
ATOM     15  O   UNL     1       5.964 -41.950  22.921  1.00  0.00    -0.550 OA
ATOM     16  O   UNL     1       5.460 -42.109  25.151  1.00  0.00    -0.550 OA
ENDBRANCH  13  14
ENDBRANCH  12  13
ENDBRANCH  11  12
ENDBRANCH  10  11
ENDBRANCH   9  10
ENDBRANCH   8   9
ENDBRANCH   7   8
ENDBRANCH   6   7
ENDBRANCH   5   6
ENDBRANCH   4   5
ENDBRANCH   3   4
ENDBRANCH   2   3
ENDBRANCH   1   2
BRANCH   1  17
ATOM     17  C   UNL     1       5.717 -33.812  18.600  1.00  0.00     0.000 C 
BRANCH  17  18
ATOM     18  C   UNL     1       6.075 -33.654  20.086  1.00  0.00     0.000 C 
BRANCH  18  19
ATOM     19  C   UNL     1       5.118 -34.426  21.011  1.00  0.00     0.000 C 
BRANCH  19  20
ATOM     20  C   UNL     1       5.829 -35.029  22.232  1.00  0.00     0.000 C 
BRANCH  20  21
ATOM     21  C   UNL     1       5.912 -34.052  23.416  1.00  0.00     0.000 C 
BRANCH  21  22
ATOM     22  C   UNL     1       6.017 -34.767  24.774  1.00  0.00    -0.000 C 
BRANCH  22  23
ATOM     23  C   UNL     1       4.988 -35.904  24.956  1.00  0.00    -0.000 C 
BRANCH  23  24
ATOM     24  C   UNL     1       4.788 -36.274  26.437  1.00  0.00    -0.000 C 
BRANCH  24  25
ATOM     25  C   UNL     1       3.812 -37.445  26.625  1.00  0.00    -0.000 C 
BRANCH  25  26
ATOM     26  C   UNL     1       2.416 -36.982  27.080  1.00  0.00    -0.000 C 
BRANCH  26  27
ATOM     27  C   UNL     1       2.409 -35.531  27.594  1.00  0.00    -0.000 C 
BRANCH  27  28
ATOM     28  C   UNL     1       1.013 -34.948  27.873  1.00  0.00    -0.000 C 
BRANCH  28  29
ATOM     29  C   UNL     1       0.944 -34.170  29.195  1.00  0.00    -0.003 C 
ATOM     30  C   UNL     1       2.301 -33.572  29.553  1.00  0.00     0.004 C 
ENDBRANCH  28  29
ENDBRANCH  27  28
ENDBRANCH  26  27
ENDBRANCH  25  26
ENDBRANCH  24  25
ENDBRANCH  23  24
ENDBRANCH  22  23
ENDBRANCH  21  22
ENDBRANCH  20  21
ENDBRANCH  19  20
ENDBRANCH  18  19
ENDBRANCH  17  18
ENDBRANCH   1  17
TORSDOF 26
ENDMDL
MODEL 6
REMARK VINA RESULT:     7.569      0.906      3.585
REMARK INTER + INTRA:          16.581
REMARK INTER:                  17.612
REMARK INTRA:                  -1.031
REMARK UNBOUND:                -2.494
REMARK SMILES CCCCCCCCCCCCCCCCCCCCCCCCCCCC(=O)[O-]
REMARK SMILES IDX 15 1 16 2 17 3 18 4 19 5 20 6 21 7 22 8 23 9 24 10 25 11
REMARK SMILES IDX 26 12 27 13 28 14 29 15 30 16 14 17 13 18 12 19 11 20 10 21
REMARK SMILES IDX 9 22 8 23 7 24 6 25 5 26 4 27 3 28 2 29 1 30
REMARK H PARENT
REMARK Flexibility Score: inf
ROOT
ATOM      1  C   UNL     1       4.560 -34.189  22.312  1.00  0.00     0.000 C 
ENDROOT
BRANCH   1   2
ATOM      2  C   UNL     1       6.000 -34.540  22.719  1.00  0.00     0.000 C 
BRANCH   2   3
ATOM      3  C   UNL     1       6.123 -35.965  23.289  1.00  0.00     0.000 C 
BRANCH   3   4
ATOM      4  C   UNL     1       5.728 -37.046  22.270  1.00  0.00     0.000 C 
BRANCH   4   5
ATOM      5  C   UNL     1       5.788 -38.465  22.863  1.00  0.00     0.000 C 
BRANCH   5   6
ATOM      6  C   UNL     1       4.834 -38.655  24.051  1.00  0.00     0.000 C 
BRANCH   6   7
ATOM      7  C   UNL     1       5.550 -38.572  25.408  1.00  0.00     0.000 C 
BRANCH   7   8
ATOM      8  C   UNL     1       5.360 -37.190  26.044  1.00  0.00     0.000 C 
BRANCH   8   9
ATOM      9  C   UNL     1       3.896 -36.734  25.948  1.00  0.00     0.000 C 
BRANCH   9  10
ATOM     10  C   UNL     1       2.960 -37.539  26.863  1.00  0.00     0.000 C 
BRANCH  10  11
ATOM     11  C   UNL     1       1.735 -36.763  27.383  1.00  0.00     0.000 C 
BRANCH  11  12
ATOM     12  C   UNL     1       2.031 -35.286  27.737  1.00  0.00     0.006 C 
BRANCH  12  13
ATOM     13  C   UNL     1       0.850 -34.557  28.398  1.00  0.00     0.053 C 
BRANCH  13  14
ATOM     14  C   UNL     1       1.300 -33.630  29.488  1.00  0.00     0.041 C 
ATOM     15  O   UNL     1       1.667 -34.088  30.602  1.00  0.00    -0.550 OA
ATOM     16  O   UNL     1       1.280 -32.256  29.283  1.00  0.00    -0.550 OA
ENDBRANCH  13  14
ENDBRANCH  12  13
ENDBRANCH  11  12
ENDBRANCH  10  11
ENDBRANCH   9  10
ENDBRANCH   8   9
ENDBRANCH   7   8
ENDBRANCH   6   7
ENDBRANCH   5   6
ENDBRANCH   4   5
ENDBRANCH   3   4
ENDBRANCH   2   3
ENDBRANCH   1   2
BRANCH   1  17
ATOM     17  C   UNL     1       4.391 -34.073  20.787  1.00  0.00     0.000 C 
BRANCH  17  18
ATOM     18  C   UNL     1       5.732 -33.918  20.053  1.00  0.00     0.000 C 
BRANCH  18  19
ATOM     19  C   UNL     1       5.555 -33.621  18.553  1.00  0.00     0.000 C 
BRANCH  19  20
ATOM     20  C   UNL     1       5.065 -34.841  17.759  1.00  0.00     0.000 C 
BRANCH  20  21
ATOM     21  C   UNL     1       3.850 -34.527  16.871  1.00  0.00     0.000 C 
BRANCH  21  22
ATOM     22  C   UNL     1       3.947 -35.171  15.478  1.00  0.00    -0.000 C 
BRANCH  22  23
ATOM     23  C   UNL     1       2.707 -36.006  15.094  1.00  0.00    -0.000 C 
BRANCH  23  24
ATOM     24  C   UNL     1       1.517 -35.743  16.034  1.00  0.00    -0.000 C 
BRANCH  24  25
ATOM     25  C   UNL     1       1.211 -36.941  16.947  1.00  0.00    -0.000 C 
BRANCH  25  26
ATOM     26  C   UNL     1       0.294 -36.565  18.125  1.00  0.00    -0.000 C 
BRANCH  26  27
ATOM     27  C   UNL     1       0.977 -36.746  19.492  1.00  0.00    -0.000 C 
BRANCH  27  28
ATOM     28  C   UNL     1       2.165 -37.724  19.499  1.00  0.00    -0.000 C 
BRANCH  28  29
ATOM     29  C   UNL     1       3.435 -37.117  20.114  1.00  0.00    -0.003 C 
ATOM     30  C   UNL     1       4.583 -37.106  19.109  1.00  0.00     0.004 C 
ENDBRANCH  28  29
ENDBRANCH  27  28
ENDBRANCH  26  27
ENDBRANCH  25  26
ENDBRANCH  24  25
ENDBRANCH  23  24
ENDBRANCH  22  23
ENDBRANCH  21  22
ENDBRANCH  20  21
ENDBRANCH  19  20
ENDBRANCH  18  19
ENDBRANCH  17  18
ENDBRANCH   1  17
TORSDOF 26
ENDMDL
