MODEL 1
REMARK VINA RESULT:    -3.243      0.000      0.000
REMARK INTER + INTRA:          -4.126
REMARK INTER:                  -3.906
REMARK INTRA:                  -0.219
REMARK UNBOUND:                -0.219
REMARK SMILES OCC(O)CO
REMARK SMILES IDX 3 1 5 2 6 3 2 5 1 6 4 8
REMARK H PARENT 6 4 1 7 4 9
REMARK Flexibility Score: inf
ROOT
ATOM      1  C   UNL     1     -40.103  21.884 -29.421  1.00  0.00     0.165 C 
ENDROOT
BRANCH   1   2
ATOM      2  C   UNL     1     -41.194  22.737 -30.083  1.00  0.00     0.190 C 
BRANCH   2   3
ATOM      3  O   UNL     1     -42.363  22.725 -29.306  1.00  0.00    -0.394 OA
ATOM      4  H   UNL     1     -42.655  23.669 -29.215  1.00  0.00     0.210 HD
ENDBRANCH   2   3
ENDBRANCH   1   2
BRANCH   1   5
ATOM      5  C   UNL     1     -39.191  22.742 -28.527  1.00  0.00     0.190 C 
BRANCH   5   6
ATOM      6  O   UNL     1     -39.916  23.762 -27.893  1.00  0.00    -0.394 OA
ATOM      7  H   UNL     1     -40.741  23.344 -27.532  1.00  0.00     0.210 HD
ENDBRANCH   5   6
ENDBRANCH   1   5
BRANCH   1   8
ATOM      8  O   UNL     1     -40.701  20.864 -28.664  1.00  0.00    -0.388 OA
ATOM      9  H   UNL     1     -40.987  20.161 -29.306  1.00  0.00     0.211 HD
ENDBRANCH   1   8
TORSDOF 5
ENDMDL
MODEL 2
REMARK VINA RESULT:    -3.127      1.148      2.670
REMARK INTER + INTRA:          -3.986
REMARK INTER:                  -3.970
REMARK INTRA:                  -0.015
REMARK UNBOUND:                -0.219
REMARK SMILES OCC(O)CO
REMARK SMILES IDX 3 1 5 2 6 3 2 5 1 6 4 8
REMARK H PARENT 6 4 1 7 4 9
REMARK Flexibility Score: inf
ROOT
ATOM      1  C   UNL     1     -39.878  21.493 -29.335  1.00  0.00     0.165 C 
ENDROOT
BRANCH   1   2
ATOM      2  C   UNL     1     -38.928  22.481 -28.644  1.00  0.00     0.190 C 
BRANCH   2   3
ATOM      3  O   UNL     1     -39.657  23.493 -28.002  1.00  0.00    -0.394 OA
ATOM      4  H   UNL     1     -40.507  23.082 -27.696  1.00  0.00     0.210 HD
ENDBRANCH   2   3
ENDBRANCH   1   2
BRANCH   1   5
ATOM      5  C   UNL     1     -39.821  20.108 -28.669  1.00  0.00     0.190 C 
BRANCH   5   6
ATOM      6  O   UNL     1     -40.985  19.856 -27.926  1.00  0.00    -0.394 OA
ATOM      7  H   UNL     1     -40.797  19.059 -27.364  1.00  0.00     0.210 HD
ENDBRANCH   5   6
ENDBRANCH   1   5
BRANCH   1   8
ATOM      8  O   UNL     1     -41.188  21.997 -29.296  1.00  0.00    -0.388 OA
ATOM      9  H   UNL     1     -41.115  22.972 -29.118  1.00  0.00     0.211 HD
ENDBRANCH   1   8
TORSDOF 5
ENDMDL
MODEL 3
REMARK VINA RESULT:    -3.107      6.499      7.732
REMARK INTER + INTRA:          -3.962
REMARK INTER:                  -3.940
REMARK INTRA:                  -0.021
REMARK UNBOUND:                -0.219
REMARK SMILES OCC(O)CO
REMARK SMILES IDX 3 1 5 2 6 3 2 5 1 6 4 8
REMARK H PARENT 6 4 1 7 4 9
REMARK Flexibility Score: inf
ROOT
ATOM      1  C   UNL     1     -37.006  16.385 -29.620  1.00  0.00     0.165 C 
ENDROOT
BRANCH   1   2
ATOM      2  C   UNL     1     -35.649  16.550 -30.318  1.00  0.00     0.190 C 
BRANCH   2   3
ATOM      3  O   UNL     1     -35.276  15.354 -30.949  1.00  0.00    -0.394 OA
ATOM      4  H   UNL     1     -35.535  15.441 -31.903  1.00  0.00     0.210 HD
ENDBRANCH   2   3
ENDBRANCH   1   2
BRANCH   1   5
ATOM      5  C   UNL     1     -38.068  17.308 -30.241  1.00  0.00     0.190 C 
BRANCH   5   6
ATOM      6  O   UNL     1     -38.821  16.633 -31.213  1.00  0.00    -0.394 OA
ATOM      7  H   UNL     1     -39.222  17.327 -31.798  1.00  0.00     0.210 HD
ENDBRANCH   5   6
ENDBRANCH   1   5
BRANCH   1   8
ATOM      8  O   UNL     1     -37.418  15.046 -29.707  1.00  0.00    -0.388 OA
ATOM      9  H   UNL     1     -38.209  14.950 -29.113  1.00  0.00     0.211 HD
ENDBRANCH   1   8
TORSDOF 5
ENDMDL
MODEL 4
REMARK VINA RESULT:    -3.105      0.931      2.557
REMARK INTER + INTRA:          -3.960
REMARK INTER:                  -3.934
REMARK INTRA:                  -0.026
REMARK UNBOUND:                -0.219
REMARK SMILES OCC(O)CO
REMARK SMILES IDX 3 1 5 2 6 3 2 5 1 6 4 8
REMARK H PARENT 6 4 1 7 4 9
REMARK Flexibility Score: inf
ROOT
ATOM      1  C   UNL     1     -40.509  23.112 -29.430  1.00  0.00     0.165 C 
ENDROOT
BRANCH   1   2
ATOM      2  C   UNL     1     -39.914  21.699 -29.346  1.00  0.00     0.190 C 
BRANCH   2   3
ATOM      3  O   UNL     1     -40.735  20.869 -28.568  1.00  0.00    -0.394 OA
ATOM      4  H   UNL     1     -41.081  20.162 -29.173  1.00  0.00     0.210 HD
ENDBRANCH   2   3
ENDBRANCH   1   2
BRANCH   1   5
ATOM      5  C   UNL     1     -42.002  23.066 -29.798  1.00  0.00     0.190 C 
BRANCH   5   6
ATOM      6  O   UNL     1     -42.750  23.936 -28.989  1.00  0.00    -0.394 OA
ATOM      7  H   UNL     1     -42.823  24.793 -29.484  1.00  0.00     0.210 HD
ENDBRANCH   5   6
ENDBRANCH   1   5
BRANCH   1   8
ATOM      8  O   UNL     1     -40.333  23.769 -28.201  1.00  0.00    -0.388 OA
ATOM      9  H   UNL     1     -39.473  23.445 -27.824  1.00  0.00     0.211 HD
ENDBRANCH   1   8
TORSDOF 5
ENDMDL
MODEL 5
REMARK VINA RESULT:    -3.041     14.006     14.927
REMARK INTER + INTRA:          -3.882
REMARK INTER:                  -3.670
REMARK INTRA:                  -0.212
REMARK UNBOUND:                -0.219
REMARK SMILES OCC(O)CO
REMARK SMILES IDX 3 1 5 2 6 3 2 5 1 6 4 8
REMARK H PARENT 6 4 1 7 4 9
REMARK Flexibility Score: inf
ROOT
ATOM      1  C   UNL     1     -47.495   8.753 -29.872  1.00  0.00     0.165 C 
ENDROOT
BRANCH   1   2
ATOM      2  C   UNL     1     -47.957  10.111 -29.326  1.00  0.00     0.190 C 
BRANCH   2   3
ATOM      3  O   UNL     1     -47.071  11.124 -29.723  1.00  0.00    -0.394 OA
ATOM      4  H   UNL     1     -46.242  10.674 -30.032  1.00  0.00     0.210 HD
ENDBRANCH   2   3
ENDBRANCH   1   2
BRANCH   1   5
ATOM      5  C   UNL     1     -47.363   8.785 -31.405  1.00  0.00     0.190 C 
BRANCH   5   6
ATOM      6  O   UNL     1     -48.386   9.550 -31.986  1.00  0.00    -0.394 OA
ATOM      7  H   UNL     1     -48.130   9.696 -32.933  1.00  0.00     0.210 HD
ENDBRANCH   5   6
ENDBRANCH   1   5
BRANCH   1   8
ATOM      8  O   UNL     1     -46.267   8.405 -29.288  1.00  0.00    -0.388 OA
ATOM      9  H   UNL     1     -45.734   7.950 -29.992  1.00  0.00     0.211 HD
ENDBRANCH   1   8
TORSDOF 5
ENDMDL
MODEL 6
REMARK VINA RESULT:    -3.001      1.014      2.476
REMARK INTER + INTRA:          -3.835
REMARK INTER:                  -3.611
REMARK INTRA:                  -0.224
REMARK UNBOUND:                -0.219
REMARK SMILES OCC(O)CO
REMARK SMILES IDX 3 1 5 2 6 3 2 5 1 6 4 8
REMARK H PARENT 6 4 1 7 4 9
REMARK Flexibility Score: inf
ROOT
ATOM      1  C   UNL     1     -40.562  22.179 -29.481  1.00  0.00     0.165 C 
ENDROOT
BRANCH   1   2
ATOM      2  C   UNL     1     -39.642  23.000 -28.568  1.00  0.00     0.190 C 
BRANCH   2   3
ATOM      3  O   UNL     1     -40.361  24.036 -27.953  1.00  0.00    -0.394 OA
ATOM      4  H   UNL     1     -39.760  24.438 -27.273  1.00  0.00     0.210 HD
ENDBRANCH   2   3
ENDBRANCH   1   2
BRANCH   1   5
ATOM      5  C   UNL     1     -41.667  23.057 -30.094  1.00  0.00     0.190 C 
BRANCH   5   6
ATOM      6  O   UNL     1     -42.812  23.069 -29.284  1.00  0.00    -0.394 OA
ATOM      7  H   UNL     1     -43.105  22.125 -29.190  1.00  0.00     0.210 HD
ENDBRANCH   5   6
ENDBRANCH   1   5
BRANCH   1   8
ATOM      8  O   UNL     1     -39.801  21.579 -30.496  1.00  0.00    -0.388 OA
ATOM      9  H   UNL     1     -40.287  20.757 -30.771  1.00  0.00     0.211 HD
ENDBRANCH   1   8
TORSDOF 5
ENDMDL
MODEL 7
REMARK VINA RESULT:    -2.980     14.131     15.048
REMARK INTER + INTRA:          -3.810
REMARK INTER:                  -3.614
REMARK INTRA:                  -0.195
REMARK UNBOUND:                -0.219
REMARK SMILES OCC(O)CO
REMARK SMILES IDX 3 1 5 2 6 3 2 5 1 6 4 8
REMARK H PARENT 6 4 1 7 4 9
REMARK Flexibility Score: inf
ROOT
ATOM      1  C   UNL     1     -48.036   8.983 -30.368  1.00  0.00     0.165 C 
ENDROOT
BRANCH   1   2
ATOM      2  C   UNL     1     -47.459   7.805 -29.571  1.00  0.00     0.190 C 
BRANCH   2   3
ATOM      3  O   UNL     1     -46.169   8.110 -29.113  1.00  0.00    -0.394 OA
ATOM      4  H   UNL     1     -46.063   7.657 -28.236  1.00  0.00     0.210 HD
ENDBRANCH   2   3
ENDBRANCH   1   2
BRANCH   1   5
ATOM      5  C   UNL     1     -48.150  10.244 -29.494  1.00  0.00     0.190 C 
BRANCH   5   6
ATOM      6  O   UNL     1     -47.022  11.066 -29.640  1.00  0.00    -0.394 OA
ATOM      7  H   UNL     1     -46.702  11.275 -28.725  1.00  0.00     0.210 HD
ENDBRANCH   5   6
ENDBRANCH   1   5
BRANCH   1   8
ATOM      8  O   UNL     1     -47.221   9.239 -31.482  1.00  0.00    -0.388 OA
ATOM      9  H   UNL     1     -46.300   8.961 -31.234  1.00  0.00     0.211 HD
ENDBRANCH   1   8
TORSDOF 5
ENDMDL
MODEL 8
REMARK VINA RESULT:    -2.934      5.271      6.376
REMARK INTER + INTRA:          -3.754
REMARK INTER:                  -3.530
REMARK INTRA:                  -0.224
REMARK UNBOUND:                -0.219
REMARK SMILES OCC(O)CO
REMARK SMILES IDX 3 1 5 2 6 3 2 5 1 6 4 8
REMARK H PARENT 6 4 1 7 4 9
REMARK Flexibility Score: inf
ROOT
ATOM      1  C   UNL     1     -37.847  17.755 -29.726  1.00  0.00     0.165 C 
ENDROOT
BRANCH   1   2
ATOM      2  C   UNL     1     -38.679  18.018 -30.989  1.00  0.00     0.190 C 
BRANCH   2   3
ATOM      3  O   UNL     1     -39.046  16.806 -31.592  1.00  0.00    -0.394 OA
ATOM      4  H   UNL     1     -39.965  16.930 -31.946  1.00  0.00     0.210 HD
ENDBRANCH   2   3
ENDBRANCH   1   2
BRANCH   1   5
ATOM      5  C   UNL     1     -36.774  16.683 -29.978  1.00  0.00     0.190 C 
BRANCH   5   6
ATOM      6  O   UNL     1     -37.276  15.395 -29.735  1.00  0.00    -0.394 OA
ATOM      7  H   UNL     1     -38.073  15.285 -30.316  1.00  0.00     0.210 HD
ENDBRANCH   5   6
ENDBRANCH   1   5
BRANCH   1   8
ATOM      8  O   UNL     1     -37.246  18.952 -29.303  1.00  0.00    -0.388 OA
ATOM      9  H   UNL     1     -36.270  18.774 -29.237  1.00  0.00     0.211 HD
ENDBRANCH   1   8
TORSDOF 5
ENDMDL
MODEL 9
REMARK VINA RESULT:    -2.919     13.058     13.806
REMARK INTER + INTRA:          -3.736
REMARK INTER:                  -3.513
REMARK INTRA:                  -0.223
REMARK UNBOUND:                -0.219
REMARK SMILES OCC(O)CO
REMARK SMILES IDX 3 1 5 2 6 3 2 5 1 6 4 8
REMARK H PARENT 6 4 1 7 4 9
REMARK Flexibility Score: inf
ROOT
ATOM      1  C   UNL     1     -49.538  12.297 -29.452  1.00  0.00     0.165 C 
ENDROOT
BRANCH   1   2
ATOM      2  C   UNL     1     -50.399  11.623 -30.529  1.00  0.00     0.190 C 
BRANCH   2   3
ATOM      3  O   UNL     1     -49.625  10.729 -31.285  1.00  0.00    -0.394 OA
ATOM      4  H   UNL     1     -50.159  10.499 -32.089  1.00  0.00     0.210 HD
ENDBRANCH   2   3
ENDBRANCH   1   2
BRANCH   1   5
ATOM      5  C   UNL     1     -48.500  11.319 -28.875  1.00  0.00     0.190 C 
BRANCH   5   6
ATOM      6  O   UNL     1     -47.314  11.338 -29.625  1.00  0.00    -0.394 OA
ATOM      7  H   UNL     1     -47.480  10.789 -30.435  1.00  0.00     0.210 HD
ENDBRANCH   5   6
ENDBRANCH   1   5
BRANCH   1   8
ATOM      8  O   UNL     1     -48.894  13.418 -30.000  1.00  0.00    -0.388 OA
ATOM      9  H   UNL     1     -48.735  14.052 -29.252  1.00  0.00     0.211 HD
ENDBRANCH   1   8
TORSDOF 5
ENDMDL
