MODEL 1
REMARK VINA RESULT:    -4.991      0.000      0.000
REMARK INTER + INTRA:          -6.322
REMARK INTER:                  -5.866
REMARK INTRA:                  -0.456
REMARK UNBOUND:                -0.456
REMARK SMILES C=C(C)[C@H]1CC[C@@]2(CO)CC[C@]3(C)[C@H](CC[C@@H]4[C@]5(C)CC[C@H](O)C(C)(C)[C@@H]5CC[C@@]43C)[C@@H]12
REMARK SMILES IDX 4 1 5 2 6 3 7 4 32 5 14 6 15 7 16 8 17 9 18 10 20 11 21 12
REMARK SMILES IDX 22 13 24 14 27 15 28 16 29 17 30 18 12 19 11 20 10 21 13 22
REMARK SMILES IDX 31 23 25 24 26 25 19 26 2 27 3 28 1 29 8 30 9 31 23 33
REMARK H PARENT 9 32 23 34
REMARK Flexibility Score: inf
ROOT
ATOM      1  C   UNL     1     -12.679 -26.396 -40.367  1.00  0.00     0.018 C 
ATOM      2  C   UNL     1     -12.327 -24.905 -40.542  1.00  0.00     0.009 C 
ATOM      3  C   UNL     1     -10.811 -24.863 -40.740  1.00  0.00     0.010 C 
ATOM      4  C   UNL     1     -10.308 -26.331 -40.848  1.00  0.00    -0.003 C 
ATOM      5  C   UNL     1     -11.347 -27.122 -39.979  1.00  0.00     0.008 C 
ATOM      6  C   UNL     1     -11.050 -27.058 -38.421  1.00  0.00    -0.000 C 
ATOM      7  C   UNL     1     -12.014 -27.971 -37.608  1.00  0.00     0.005 C 
ATOM      8  C   UNL     1     -11.445 -28.837 -36.476  1.00  0.00     0.005 C 
ATOM      9  C   UNL     1     -10.237 -28.274 -35.618  1.00  0.00     0.002 C 
ATOM     10  C   UNL     1     -10.589 -27.955 -34.054  1.00  0.00    -0.026 C 
ATOM     11  C   UNL     1     -11.696 -28.868 -33.420  1.00  0.00     0.010 C 
ATOM     12  C   UNL     1     -12.012 -28.515 -31.980  1.00  0.00     0.033 C 
ATOM     13  C   UNL     1     -12.782 -27.202 -31.875  1.00  0.00     0.120 C 
ATOM     14  C   UNL     1     -12.254 -26.051 -32.828  1.00  0.00    -0.006 C 
ATOM     15  C   UNL     1     -11.010 -26.446 -33.816  1.00  0.00     0.003 C 
ATOM     16  C   UNL     1     -11.048 -25.633 -35.141  1.00  0.00     0.005 C 
ATOM     17  C   UNL     1      -9.720 -25.761 -35.890  1.00  0.00     0.008 C 
ATOM     18  C   UNL     1      -9.369 -27.192 -36.434  1.00  0.00    -0.024 C 
ATOM     19  C   UNL     1      -9.579 -27.395 -38.044  1.00  0.00    -0.024 C 
ATOM     20  C   UNL     1      -8.671 -26.418 -38.862  1.00  0.00     0.008 C 
ATOM     21  C   UNL     1      -8.846 -26.441 -40.355  1.00  0.00     0.010 C 
ATOM     22  C   UNL     1      -9.268 -28.884 -38.479  1.00  0.00     0.012 C 
ATOM     23  C   UNL     1      -7.855 -27.349 -36.140  1.00  0.00     0.012 C 
ATOM     24  C   UNL     1     -13.462 -25.394 -33.612  1.00  0.00     0.014 C 
ATOM     25  C   UNL     1     -11.750 -24.892 -31.875  1.00  0.00     0.014 C 
ATOM     26  C   UNL     1      -9.315 -28.325 -33.199  1.00  0.00     0.012 C 
ENDROOT
BRANCH   1  27
ATOM     27  C   UNL     1     -13.963 -26.747 -39.610  1.00  0.00    -0.077 C 
ATOM     28  C   UNL     1     -14.534 -25.752 -38.601  1.00  0.00     0.039 C 
ATOM     29  C   UNL     1     -14.634 -27.901 -39.800  1.00  0.00     0.008 C 
ENDBRANCH   1  27
BRANCH   4  30
ATOM     30  C   UNL     1     -10.331 -26.827 -42.352  1.00  0.00     0.163 C 
BRANCH  30  31
ATOM     31  O   UNL     1     -10.426 -25.760 -43.256  1.00  0.00    -0.396 OA
ATOM     32  H   UNL     1     -10.510 -26.146 -44.184  1.00  0.00     0.210 HD
ENDBRANCH  30  31
ENDBRANCH   4  30
BRANCH  13  33
ATOM     33  O   UNL     1     -14.157 -27.412 -32.019  1.00  0.00    -0.393 OA
ATOM     34  H   UNL     1     -14.624 -27.016 -31.243  1.00  0.00     0.210 HD
ENDBRANCH  13  33
TORSDOF 4
ENDMDL
MODEL 2
REMARK VINA RESULT:    -4.957      4.389      9.795
REMARK INTER + INTRA:          -6.283
REMARK INTER:                  -5.810
REMARK INTRA:                  -0.472
REMARK UNBOUND:                -0.456
REMARK SMILES C=C(C)[C@H]1CC[C@@]2(CO)CC[C@]3(C)[C@H](CC[C@@H]4[C@]5(C)CC[C@H](O)C(C)(C)[C@@H]5CC[C@@]43C)[C@@H]12
REMARK SMILES IDX 4 1 5 2 6 3 7 4 32 5 14 6 15 7 16 8 17 9 18 10 20 11 21 12
REMARK SMILES IDX 22 13 24 14 27 15 28 16 29 17 30 18 12 19 11 20 10 21 13 22
REMARK SMILES IDX 31 23 25 24 26 25 19 26 2 27 3 28 1 29 8 30 9 31 23 33
REMARK H PARENT 9 32 23 34
REMARK Flexibility Score: inf
ROOT
ATOM      1  C   UNL     1     -13.226 -25.496 -40.079  1.00  0.00     0.018 C 
ATOM      2  C   UNL     1     -13.863 -26.767 -39.482  1.00  0.00     0.009 C 
ATOM      3  C   UNL     1     -12.767 -27.834 -39.526  1.00  0.00     0.010 C 
ATOM      4  C   UNL     1     -11.453 -27.141 -39.989  1.00  0.00    -0.003 C 
ATOM      5  C   UNL     1     -11.974 -25.969 -40.892  1.00  0.00     0.008 C 
ATOM      6  C   UNL     1     -12.341 -26.421 -42.369  1.00  0.00    -0.000 C 
ATOM      7  C   UNL     1     -12.714 -25.208 -43.271  1.00  0.00     0.005 C 
ATOM      8  C   UNL     1     -12.159 -25.144 -44.701  1.00  0.00     0.005 C 
ATOM      9  C   UNL     1     -11.968 -26.495 -45.507  1.00  0.00     0.002 C 
ATOM     10  C   UNL     1     -12.950 -26.672 -46.802  1.00  0.00    -0.026 C 
ATOM     11  C   UNL     1     -13.361 -25.338 -47.515  1.00  0.00     0.010 C 
ATOM     12  C   UNL     1     -14.297 -25.548 -48.689  1.00  0.00     0.033 C 
ATOM     13  C   UNL     1     -15.698 -25.943 -48.232  1.00  0.00     0.120 C 
ATOM     14  C   UNL     1     -15.731 -26.999 -47.051  1.00  0.00    -0.006 C 
ATOM     15  C   UNL     1     -14.278 -27.468 -46.460  1.00  0.00     0.003 C 
ATOM     16  C   UNL     1     -14.364 -27.842 -44.953  1.00  0.00     0.005 C 
ATOM     17  C   UNL     1     -13.103 -28.587 -44.510  1.00  0.00     0.008 C 
ATOM     18  C   UNL     1     -11.769 -27.759 -44.531  1.00  0.00    -0.024 C 
ATOM     19  C   UNL     1     -11.235 -27.264 -43.065  1.00  0.00    -0.024 C 
ATOM     20  C   UNL     1     -10.941 -28.481 -42.127  1.00  0.00     0.008 C 
ATOM     21  C   UNL     1     -10.536 -28.152 -40.717  1.00  0.00     0.010 C 
ATOM     22  C   UNL     1      -9.929 -26.381 -43.200  1.00  0.00     0.012 C 
ATOM     23  C   UNL     1     -10.717 -28.748 -45.098  1.00  0.00     0.012 C 
ATOM     24  C   UNL     1     -16.717 -26.514 -45.912  1.00  0.00     0.014 C 
ATOM     25  C   UNL     1     -16.439 -28.288 -47.637  1.00  0.00     0.014 C 
ATOM     26  C   UNL     1     -12.124 -27.414 -47.923  1.00  0.00     0.012 C 
ENDROOT
BRANCH   1  27
ATOM     27  C   UNL     1     -14.156 -24.446 -40.694  1.00  0.00    -0.077 C 
ATOM     28  C   UNL     1     -15.512 -24.880 -41.248  1.00  0.00     0.039 C 
ATOM     29  C   UNL     1     -13.841 -23.138 -40.762  1.00  0.00     0.008 C 
ENDBRANCH   1  27
BRANCH   4  30
ATOM     30  C   UNL     1     -10.641 -26.585 -38.748  1.00  0.00     0.163 C 
BRANCH  30  31
ATOM     31  O   UNL     1      -9.490 -25.890 -39.143  1.00  0.00    -0.396 OA
ATOM     32  H   UNL     1      -9.615 -24.919 -38.901  1.00  0.00     0.210 HD
ENDBRANCH  30  31
ENDBRANCH   4  30
BRANCH  13  33
ATOM     33  O   UNL     1     -16.472 -24.814 -47.947  1.00  0.00    -0.393 OA
ATOM     34  H   UNL     1     -16.429 -24.634 -46.976  1.00  0.00     0.210 HD
ENDBRANCH  13  33
TORSDOF 4
ENDMDL
MODEL 3
REMARK VINA RESULT:    -4.855      1.627      7.542
REMARK INTER + INTRA:          -6.162
REMARK INTER:                  -5.787
REMARK INTRA:                  -0.374
REMARK UNBOUND:                -0.456
REMARK SMILES C=C(C)[C@H]1CC[C@@]2(CO)CC[C@]3(C)[C@H](CC[C@@H]4[C@]5(C)CC[C@H](O)C(C)(C)[C@@H]5CC[C@@]43C)[C@@H]12
REMARK SMILES IDX 4 1 5 2 6 3 7 4 32 5 14 6 15 7 16 8 17 9 18 10 20 11 21 12
REMARK SMILES IDX 22 13 24 14 27 15 28 16 29 17 30 18 12 19 11 20 10 21 13 22
REMARK SMILES IDX 31 23 25 24 26 25 19 26 2 27 3 28 1 29 8 30 9 31 23 33
REMARK H PARENT 9 32 23 34
REMARK Flexibility Score: inf
ROOT
ATOM      1  C   UNL     1      -9.613 -26.577 -34.724  1.00  0.00     0.018 C 
ATOM      2  C   UNL     1      -9.997 -25.103 -34.487  1.00  0.00     0.009 C 
ATOM      3  C   UNL     1     -11.498 -25.113 -34.190  1.00  0.00     0.010 C 
ATOM      4  C   UNL     1     -11.948 -26.599 -34.089  1.00  0.00    -0.003 C 
ATOM      5  C   UNL     1     -10.944 -27.335 -35.043  1.00  0.00     0.008 C 
ATOM      6  C   UNL     1     -11.345 -27.243 -36.577  1.00  0.00    -0.000 C 
ATOM      7  C   UNL     1     -10.409 -28.105 -37.474  1.00  0.00     0.005 C 
ATOM      8  C   UNL     1     -11.025 -28.961 -38.590  1.00  0.00     0.005 C 
ATOM      9  C   UNL     1     -12.303 -28.416 -39.352  1.00  0.00     0.002 C 
ATOM     10  C   UNL     1     -12.063 -28.048 -40.927  1.00  0.00    -0.026 C 
ATOM     11  C   UNL     1     -10.974 -28.909 -41.655  1.00  0.00     0.010 C 
ATOM     12  C   UNL     1     -10.763 -28.512 -43.103  1.00  0.00     0.033 C 
ATOM     13  C   UNL     1     -10.040 -27.174 -43.223  1.00  0.00     0.120 C 
ATOM     14  C   UNL     1     -10.539 -26.063 -42.208  1.00  0.00    -0.006 C 
ATOM     15  C   UNL     1     -11.704 -26.521 -41.153  1.00  0.00     0.003 C 
ATOM     16  C   UNL     1     -11.604 -25.739 -39.812  1.00  0.00     0.005 C 
ATOM     17  C   UNL     1     -12.876 -25.928 -38.982  1.00  0.00     0.008 C 
ATOM     18  C   UNL     1     -13.147 -27.382 -38.455  1.00  0.00    -0.024 C 
ATOM     19  C   UNL     1     -12.826 -27.616 -36.867  1.00  0.00    -0.024 C 
ATOM     20  C   UNL     1     -13.708 -26.689 -35.967  1.00  0.00     0.008 C 
ATOM     21  C   UNL     1     -13.435 -26.742 -34.489  1.00  0.00     0.010 C 
ATOM     22  C   UNL     1     -13.063 -29.125 -36.452  1.00  0.00     0.012 C 
ATOM     23  C   UNL     1     -14.672 -27.579 -38.654  1.00  0.00     0.012 C 
ATOM     24  C   UNL     1      -9.303 -25.387 -41.486  1.00  0.00     0.014 C 
ATOM     25  C   UNL     1     -11.140 -24.898 -43.095  1.00  0.00     0.014 C 
ATOM     26  C   UNL     1     -13.378 -28.437 -41.708  1.00  0.00     0.012 C 
ENDROOT
BRANCH   1  27
ATOM     27  C   UNL     1      -8.371 -26.869 -35.571  1.00  0.00    -0.077 C 
ATOM     28  C   UNL     1      -8.036 -25.956 -36.749  1.00  0.00     0.039 C 
ATOM     29  C   UNL     1      -7.538 -27.898 -35.320  1.00  0.00     0.008 C 
ENDBRANCH   1  27
BRANCH   4  30
ATOM     30  C   UNL     1     -11.812 -27.130 -32.603  1.00  0.00     0.163 C 
BRANCH  30  31
ATOM     31  O   UNL     1     -11.674 -28.523 -32.554  1.00  0.00    -0.396 OA
ATOM     32  H   UNL     1     -12.100 -28.847 -31.698  1.00  0.00     0.210 HD
ENDBRANCH  30  31
ENDBRANCH   4  30
BRANCH  13  33
ATOM     33  O   UNL     1      -8.653 -27.343 -43.173  1.00  0.00    -0.393 OA
ATOM     34  H   UNL     1      -8.394 -27.588 -42.251  1.00  0.00     0.210 HD
ENDBRANCH  13  33
TORSDOF 4
ENDMDL
MODEL 4
REMARK VINA RESULT:    -4.842      4.580      7.729
REMARK INTER + INTRA:          -6.147
REMARK INTER:                  -5.767
REMARK INTRA:                  -0.380
REMARK UNBOUND:                -0.456
REMARK SMILES C=C(C)[C@H]1CC[C@@]2(CO)CC[C@]3(C)[C@H](CC[C@@H]4[C@]5(C)CC[C@H](O)C(C)(C)[C@@H]5CC[C@@]43C)[C@@H]12
REMARK SMILES IDX 4 1 5 2 6 3 7 4 32 5 14 6 15 7 16 8 17 9 18 10 20 11 21 12
REMARK SMILES IDX 22 13 24 14 27 15 28 16 29 17 30 18 12 19 11 20 10 21 13 22
REMARK SMILES IDX 31 23 25 24 26 25 19 26 2 27 3 28 1 29 8 30 9 31 23 33
REMARK H PARENT 9 32 23 34
REMARK Flexibility Score: inf
ROOT
ATOM      1  C   UNL     1      -9.316 -27.158 -42.071  1.00  0.00     0.018 C 
ATOM      2  C   UNL     1      -9.784 -28.590 -41.744  1.00  0.00     0.009 C 
ATOM      3  C   UNL     1     -10.401 -29.125 -43.038  1.00  0.00     0.010 C 
ATOM      4  C   UNL     1     -10.142 -28.072 -44.153  1.00  0.00    -0.003 C 
ATOM      5  C   UNL     1     -10.094 -26.722 -43.357  1.00  0.00     0.008 C 
ATOM      6  C   UNL     1     -11.529 -26.127 -43.030  1.00  0.00    -0.000 C 
ATOM      7  C   UNL     1     -11.438 -24.720 -42.370  1.00  0.00     0.005 C 
ATOM      8  C   UNL     1     -12.395 -23.614 -42.835  1.00  0.00     0.005 C 
ATOM      9  C   UNL     1     -13.866 -24.012 -43.273  1.00  0.00     0.002 C 
ATOM     10  C   UNL     1     -15.052 -23.456 -42.294  1.00  0.00    -0.026 C 
ATOM     11  C   UNL     1     -14.744 -22.094 -41.579  1.00  0.00     0.010 C 
ATOM     12  C   UNL     1     -15.857 -21.634 -40.658  1.00  0.00     0.033 C 
ATOM     13  C   UNL     1     -15.933 -22.486 -39.395  1.00  0.00     0.120 C 
ATOM     14  C   UNL     1     -15.759 -24.042 -39.638  1.00  0.00    -0.006 C 
ATOM     15  C   UNL     1     -15.471 -24.504 -41.181  1.00  0.00     0.003 C 
ATOM     16  C   UNL     1     -14.610 -25.798 -41.243  1.00  0.00     0.005 C 
ATOM     17  C   UNL     1     -14.635 -26.395 -42.651  1.00  0.00     0.008 C 
ATOM     18  C   UNL     1     -13.955 -25.537 -43.777  1.00  0.00    -0.024 C 
ATOM     19  C   UNL     1     -12.481 -26.062 -44.257  1.00  0.00    -0.024 C 
ATOM     20  C   UNL     1     -12.558 -27.510 -44.844  1.00  0.00     0.008 C 
ATOM     21  C   UNL     1     -11.249 -28.141 -45.231  1.00  0.00     0.010 C 
ATOM     22  C   UNL     1     -11.853 -25.093 -45.340  1.00  0.00     0.012 C 
ATOM     23  C   UNL     1     -14.914 -25.673 -44.989  1.00  0.00     0.012 C 
ATOM     24  C   UNL     1     -14.702 -24.639 -38.622  1.00  0.00     0.014 C 
ATOM     25  C   UNL     1     -17.125 -24.709 -39.194  1.00  0.00     0.014 C 
ATOM     26  C   UNL     1     -16.283 -23.085 -43.209  1.00  0.00     0.012 C 
ENDROOT
BRANCH   1  27
ATOM     27  C   UNL     1      -9.181 -26.164 -40.913  1.00  0.00    -0.077 C 
ATOM     28  C   UNL     1     -10.133 -26.267 -39.722  1.00  0.00     0.039 C 
ATOM     29  C   UNL     1      -8.243 -25.198 -40.882  1.00  0.00     0.008 C 
ENDBRANCH   1  27
BRANCH   4  30
ATOM     30  C   UNL     1      -8.764 -28.351 -44.883  1.00  0.00     0.163 C 
BRANCH  30  31
ATOM     31  O   UNL     1      -8.946 -28.773 -46.206  1.00  0.00    -0.396 OA
ATOM     32  H   UNL     1      -9.777 -29.345 -46.238  1.00  0.00     0.210 HD
ENDBRANCH  30  31
ENDBRANCH   4  30
BRANCH  13  33
ATOM     33  O   UNL     1     -15.061 -22.008 -38.412  1.00  0.00    -0.393 OA
ATOM     34  H   UNL     1     -15.203 -21.036 -38.304  1.00  0.00     0.210 HD
ENDBRANCH  13  33
TORSDOF 4
ENDMDL
MODEL 5
REMARK VINA RESULT:    -4.755      4.932      7.637
REMARK INTER + INTRA:          -6.045
REMARK INTER:                  -5.612
REMARK INTRA:                  -0.433
REMARK UNBOUND:                -0.456
REMARK SMILES C=C(C)[C@H]1CC[C@@]2(CO)CC[C@]3(C)[C@H](CC[C@@H]4[C@]5(C)CC[C@H](O)C(C)(C)[C@@H]5CC[C@@]43C)[C@@H]12
REMARK SMILES IDX 4 1 5 2 6 3 7 4 32 5 14 6 15 7 16 8 17 9 18 10 20 11 21 12
REMARK SMILES IDX 22 13 24 14 27 15 28 16 29 17 30 18 12 19 11 20 10 21 13 22
REMARK SMILES IDX 31 23 25 24 26 25 19 26 2 27 3 28 1 29 8 30 9 31 23 33
REMARK H PARENT 9 32 23 34
REMARK Flexibility Score: inf
ROOT
ATOM      1  C   UNL     1     -15.216 -26.908 -47.266  1.00  0.00     0.018 C 
ATOM      2  C   UNL     1     -14.882 -25.610 -48.029  1.00  0.00     0.009 C 
ATOM      3  C   UNL     1     -13.365 -25.630 -48.228  1.00  0.00     0.010 C 
ATOM      4  C   UNL     1     -12.844 -27.009 -47.733  1.00  0.00    -0.003 C 
ATOM      5  C   UNL     1     -13.877 -27.396 -46.618  1.00  0.00     0.008 C 
ATOM      6  C   UNL     1     -13.589 -26.704 -45.219  1.00  0.00    -0.000 C 
ATOM      7  C   UNL     1     -14.547 -27.223 -44.106  1.00  0.00     0.005 C 
ATOM      8  C   UNL     1     -13.973 -27.549 -42.720  1.00  0.00     0.005 C 
ATOM      9  C   UNL     1     -12.777 -26.671 -42.164  1.00  0.00     0.002 C 
ATOM     10  C   UNL     1     -13.143 -25.752 -40.862  1.00  0.00    -0.026 C 
ATOM     11  C   UNL     1     -14.241 -26.345 -39.913  1.00  0.00     0.010 C 
ATOM     12  C   UNL     1     -14.570 -25.445 -38.739  1.00  0.00     0.033 C 
ATOM     13  C   UNL     1     -15.358 -24.213 -39.174  1.00  0.00     0.120 C 
ATOM     14  C   UNL     1     -14.839 -23.538 -40.511  1.00  0.00    -0.006 C 
ATOM     15  C   UNL     1     -13.584 -24.281 -41.254  1.00  0.00     0.003 C 
ATOM     16  C   UNL     1     -13.625 -24.074 -42.795  1.00  0.00     0.005 C 
ATOM     17  C   UNL     1     -12.291 -24.475 -43.428  1.00  0.00     0.008 C 
ATOM     18  C   UNL     1     -11.919 -25.998 -43.347  1.00  0.00    -0.024 C 
ATOM     19  C   UNL     1     -12.117 -26.838 -44.738  1.00  0.00    -0.024 C 
ATOM     20  C   UNL     1     -11.217 -26.262 -45.881  1.00  0.00     0.008 C 
ATOM     21  C   UNL     1     -11.383 -26.890 -47.237  1.00  0.00     0.010 C 
ATOM     22  C   UNL     1     -11.784 -28.371 -44.534  1.00  0.00     0.012 C 
ATOM     23  C   UNL     1     -10.404 -26.002 -43.015  1.00  0.00     0.012 C 
ATOM     24  C   UNL     1     -16.051 -23.271 -41.494  1.00  0.00     0.014 C 
ATOM     25  C   UNL     1     -14.355 -22.086 -40.108  1.00  0.00     0.014 C 
ATOM     26  C   UNL     1     -11.869 -25.726 -39.930  1.00  0.00     0.012 C 
ENDROOT
BRANCH   1  27
ATOM     27  C   UNL     1     -16.500 -26.941 -46.432  1.00  0.00    -0.077 C 
ATOM     28  C   UNL     1     -17.125 -25.627 -45.967  1.00  0.00     0.039 C 
ATOM     29  C   UNL     1     -17.124 -28.086 -46.093  1.00  0.00     0.008 C 
ENDBRANCH   1  27
BRANCH   4  30
ATOM     30  C   UNL     1     -12.851 -28.071 -48.908  1.00  0.00     0.163 C 
BRANCH  30  31
ATOM     31  O   UNL     1     -13.004 -27.466 -50.162  1.00  0.00    -0.396 OA
ATOM     32  H   UNL     1     -12.107 -27.478 -50.624  1.00  0.00     0.210 HD
ENDBRANCH  30  31
ENDBRANCH   4  30
BRANCH  13  33
ATOM     33  O   UNL     1     -16.729 -24.482 -39.221  1.00  0.00    -0.393 OA
ATOM     34  H   UNL     1     -16.870 -25.337 -39.698  1.00  0.00     0.210 HD
ENDBRANCH  13  33
TORSDOF 4
ENDMDL
MODEL 6
REMARK VINA RESULT:    -4.586      2.752      7.694
REMARK INTER + INTRA:          -5.846
REMARK INTER:                  -5.371
REMARK INTRA:                  -0.474
REMARK UNBOUND:                -0.456
REMARK SMILES C=C(C)[C@H]1CC[C@@]2(CO)CC[C@]3(C)[C@H](CC[C@@H]4[C@]5(C)CC[C@H](O)C(C)(C)[C@@H]5CC[C@@]43C)[C@@H]12
REMARK SMILES IDX 4 1 5 2 6 3 7 4 32 5 14 6 15 7 16 8 17 9 18 10 20 11 21 12
REMARK SMILES IDX 22 13 24 14 27 15 28 16 29 17 30 18 12 19 11 20 10 21 13 22
REMARK SMILES IDX 31 23 25 24 26 25 19 26 2 27 3 28 1 29 8 30 9 31 23 33
REMARK H PARENT 9 32 23 34
REMARK Flexibility Score: inf
ROOT
ATOM      1  C   UNL     1      -9.239 -27.420 -39.327  1.00  0.00     0.018 C 
ATOM      2  C   UNL     1      -8.873 -26.115 -38.594  1.00  0.00     0.009 C 
ATOM      3  C   UNL     1      -9.647 -26.155 -37.275  1.00  0.00     0.010 C 
ATOM      4  C   UNL     1     -10.324 -27.551 -37.168  1.00  0.00    -0.003 C 
ATOM      5  C   UNL     1     -10.560 -27.942 -38.669  1.00  0.00     0.008 C 
ATOM      6  C   UNL     1     -11.858 -27.280 -39.300  1.00  0.00    -0.000 C 
ATOM      7  C   UNL     1     -12.136 -27.805 -40.740  1.00  0.00     0.005 C 
ATOM      8  C   UNL     1     -13.574 -28.165 -41.138  1.00  0.00     0.005 C 
ATOM      9  C   UNL     1     -14.769 -27.317 -40.534  1.00  0.00     0.002 C 
ATOM     10  C   UNL     1     -15.594 -26.416 -41.620  1.00  0.00    -0.026 C 
ATOM     11  C   UNL     1     -15.654 -27.009 -43.071  1.00  0.00     0.010 C 
ATOM     12  C   UNL     1     -16.401 -26.125 -44.051  1.00  0.00     0.033 C 
ATOM     13  C   UNL     1     -15.604 -24.873 -44.404  1.00  0.00     0.120 C 
ATOM     14  C   UNL     1     -14.884 -24.182 -43.173  1.00  0.00    -0.006 C 
ATOM     15  C   UNL     1     -15.049 -24.931 -41.726  1.00  0.00     0.003 C 
ATOM     16  C   UNL     1     -13.813 -24.695 -40.813  1.00  0.00     0.005 C 
ATOM     17  C   UNL     1     -14.122 -25.106 -39.372  1.00  0.00     0.008 C 
ATOM     18  C   UNL     1     -14.378 -26.636 -39.130  1.00  0.00    -0.024 C 
ATOM     19  C   UNL     1     -13.138 -27.446 -38.433  1.00  0.00    -0.024 C 
ATOM     20  C   UNL     1     -12.802 -26.865 -37.020  1.00  0.00     0.008 C 
ATOM     21  C   UNL     1     -11.614 -27.464 -36.319  1.00  0.00     0.010 C 
ATOM     22  C   UNL     1     -13.466 -28.989 -38.298  1.00  0.00     0.012 C 
ATOM     23  C   UNL     1     -15.569 -26.670 -38.137  1.00  0.00     0.012 C 
ATOM     24  C   UNL     1     -13.371 -23.878 -43.525  1.00  0.00     0.014 C 
ATOM     25  C   UNL     1     -15.534 -22.746 -43.036  1.00  0.00     0.014 C 
ATOM     26  C   UNL     1     -17.112 -26.428 -41.187  1.00  0.00     0.012 C 
ENDROOT
BRANCH   1  27
ATOM     27  C   UNL     1      -9.109 -27.449 -40.853  1.00  0.00    -0.077 C 
ATOM     28  C   UNL     1      -9.238 -26.146 -41.640  1.00  0.00     0.039 C 
ATOM     29  C   UNL     1      -8.870 -28.578 -41.547  1.00  0.00     0.008 C 
ENDBRANCH   1  27
BRANCH   4  30
ATOM     30  C   UNL     1      -9.366 -28.591 -36.455  1.00  0.00     0.163 C 
BRANCH  30  31
ATOM     31  O   UNL     1      -8.465 -27.964 -35.585  1.00  0.00    -0.396 OA
ATOM     32  H   UNL     1      -8.617 -28.335 -34.659  1.00  0.00     0.210 HD
ENDBRANCH  30  31
ENDBRANCH   4  30
BRANCH  13  33
ATOM     33  O   UNL     1     -14.719 -25.120 -45.457  1.00  0.00    -0.393 OA
ATOM     34  H   UNL     1     -14.105 -25.849 -45.195  1.00  0.00     0.210 HD
ENDBRANCH  13  33
TORSDOF 4
ENDMDL
MODEL 7
REMARK VINA RESULT:    -4.405      3.264      8.253
REMARK INTER + INTRA:          -5.634
REMARK INTER:                  -5.185
REMARK INTRA:                  -0.449
REMARK UNBOUND:                -0.456
REMARK SMILES C=C(C)[C@H]1CC[C@@]2(CO)CC[C@]3(C)[C@H](CC[C@@H]4[C@]5(C)CC[C@H](O)C(C)(C)[C@@H]5CC[C@@]43C)[C@@H]12
REMARK SMILES IDX 4 1 5 2 6 3 7 4 32 5 14 6 15 7 16 8 17 9 18 10 20 11 21 12
REMARK SMILES IDX 22 13 24 14 27 15 28 16 29 17 30 18 12 19 11 20 10 21 13 22
REMARK SMILES IDX 31 23 25 24 26 25 19 26 2 27 3 28 1 29 8 30 9 31 23 33
REMARK H PARENT 9 32 23 34
REMARK Flexibility Score: inf
ROOT
ATOM      1  C   UNL     1     -13.007 -27.070 -37.567  1.00  0.00     0.018 C 
ATOM      2  C   UNL     1     -12.714 -28.574 -37.391  1.00  0.00     0.009 C 
ATOM      3  C   UNL     1     -11.219 -28.735 -37.670  1.00  0.00     0.010 C 
ATOM      4  C   UNL     1     -10.615 -27.312 -37.841  1.00  0.00    -0.003 C 
ATOM      5  C   UNL     1     -11.822 -26.484 -38.406  1.00  0.00     0.008 C 
ATOM      6  C   UNL     1     -12.036 -26.660 -39.969  1.00  0.00    -0.000 C 
ATOM      7  C   UNL     1     -13.147 -25.715 -40.513  1.00  0.00     0.005 C 
ATOM      8  C   UNL     1     -12.910 -24.966 -41.832  1.00  0.00     0.005 C 
ATOM      9  C   UNL     1     -12.073 -25.677 -42.973  1.00  0.00     0.002 C 
ATOM     10  C   UNL     1     -12.920 -26.052 -44.320  1.00  0.00    -0.026 C 
ATOM     11  C   UNL     1     -14.109 -25.085 -44.651  1.00  0.00     0.010 C 
ATOM     12  C   UNL     1     -14.886 -25.489 -45.889  1.00  0.00     0.033 C 
ATOM     13  C   UNL     1     -15.732 -26.735 -45.644  1.00  0.00     0.120 C 
ATOM     14  C   UNL     1     -15.005 -27.872 -44.813  1.00  0.00    -0.006 C 
ATOM     15  C   UNL     1     -13.491 -27.531 -44.295  1.00  0.00     0.003 C 
ATOM     16  C   UNL     1     -13.161 -28.262 -42.962  1.00  0.00     0.005 C 
ATOM     17  C   UNL     1     -11.659 -28.206 -42.675  1.00  0.00     0.008 C 
ATOM     18  C   UNL     1     -11.064 -26.783 -42.384  1.00  0.00    -0.024 C 
ATOM     19  C   UNL     1     -10.741 -26.473 -40.809  1.00  0.00    -0.024 C 
ATOM     20  C   UNL     1      -9.686 -27.477 -40.238  1.00  0.00     0.008 C 
ATOM     21  C   UNL     1      -9.379 -27.356 -38.771  1.00  0.00     0.010 C 
ATOM     22  C   UNL     1     -10.214 -24.994 -40.613  1.00  0.00     0.012 C 
ATOM     23  C   UNL     1      -9.712 -26.774 -43.144  1.00  0.00     0.012 C 
ATOM     24  C   UNL     1     -15.943 -28.378 -43.643  1.00  0.00     0.014 C 
ATOM     25  C   UNL     1     -14.902 -29.121 -45.779  1.00  0.00     0.014 C 
ATOM     26  C   UNL     1     -11.960 -25.841 -45.556  1.00  0.00     0.012 C 
ENDROOT
BRANCH   1  27
ATOM     27  C   UNL     1     -14.439 -26.653 -37.914  1.00  0.00    -0.077 C 
ATOM     28  C   UNL     1     -15.346 -27.633 -38.657  1.00  0.00     0.039 C 
ATOM     29  C   UNL     1     -14.954 -25.453 -37.582  1.00  0.00     0.008 C 
ENDBRANCH   1  27
BRANCH   4  30
ATOM     30  C   UNL     1     -10.131 -26.732 -36.449  1.00  0.00     0.163 C 
BRANCH  30  31
ATOM     31  O   UNL     1      -9.066 -25.833 -36.596  1.00  0.00    -0.396 OA
ATOM     32  H   UNL     1      -8.794 -25.521 -35.676  1.00  0.00     0.210 HD
ENDBRANCH  30  31
ENDBRANCH   4  30
BRANCH  13  33
ATOM     33  O   UNL     1     -16.975 -26.400 -45.097  1.00  0.00    -0.393 OA
ATOM     34  H   UNL     1     -16.900 -25.523 -44.647  1.00  0.00     0.210 HD
ENDBRANCH  13  33
TORSDOF 4
ENDMDL
MODEL 8
REMARK VINA RESULT:    -4.040      2.223      7.864
REMARK INTER + INTRA:          -5.205
REMARK INTER:                  -4.751
REMARK INTRA:                  -0.454
REMARK UNBOUND:                -0.456
REMARK SMILES C=C(C)[C@H]1CC[C@@]2(CO)CC[C@]3(C)[C@H](CC[C@@H]4[C@]5(C)CC[C@H](O)C(C)(C)[C@@H]5CC[C@@]43C)[C@@H]12
REMARK SMILES IDX 4 1 5 2 6 3 7 4 32 5 14 6 15 7 16 8 17 9 18 10 20 11 21 12
REMARK SMILES IDX 22 13 24 14 27 15 28 16 29 17 30 18 12 19 11 20 10 21 13 22
REMARK SMILES IDX 31 23 25 24 26 25 19 26 2 27 3 28 1 29 8 30 9 31 23 33
REMARK H PARENT 9 32 23 34
REMARK Flexibility Score: inf
ROOT
ATOM      1  C   UNL     1     -10.584 -27.471 -36.649  1.00  0.00     0.018 C 
ATOM      2  C   UNL     1     -10.387 -26.129 -35.918  1.00  0.00     0.009 C 
ATOM      3  C   UNL     1     -11.584 -25.995 -34.975  1.00  0.00     0.010 C 
ATOM      4  C   UNL     1     -12.382 -27.328 -35.036  1.00  0.00    -0.003 C 
ATOM      5  C   UNL     1     -12.097 -27.842 -36.490  1.00  0.00     0.008 C 
ATOM      6  C   UNL     1     -13.011 -27.161 -37.594  1.00  0.00    -0.000 C 
ATOM      7  C   UNL     1     -12.799 -27.800 -38.998  1.00  0.00     0.005 C 
ATOM      8  C   UNL     1     -14.024 -28.103 -39.873  1.00  0.00     0.005 C 
ATOM      9  C   UNL     1     -15.270 -27.127 -39.806  1.00  0.00     0.002 C 
ATOM     10  C   UNL     1     -15.559 -26.281 -41.175  1.00  0.00    -0.026 C 
ATOM     11  C   UNL     1     -15.148 -27.003 -42.504  1.00  0.00     0.010 C 
ATOM     12  C   UNL     1     -15.404 -26.169 -43.745  1.00  0.00     0.033 C 
ATOM     13  C   UNL     1     -14.420 -25.010 -43.860  1.00  0.00     0.120 C 
ATOM     14  C   UNL     1     -14.130 -24.253 -42.498  1.00  0.00    -0.006 C 
ATOM     15  C   UNL     1     -14.876 -24.851 -41.168  1.00  0.00     0.003 C 
ATOM     16  C   UNL     1     -14.036 -24.610 -39.881  1.00  0.00     0.005 C 
ATOM     17  C   UNL     1     -14.881 -24.862 -38.631  1.00  0.00     0.008 C 
ATOM     18  C   UNL     1     -15.350 -26.344 -38.402  1.00  0.00    -0.024 C 
ATOM     19  C   UNL     1     -14.527 -27.163 -37.249  1.00  0.00    -0.024 C 
ATOM     20  C   UNL     1     -14.670 -26.473 -35.852  1.00  0.00     0.008 C 
ATOM     21  C   UNL     1     -13.877 -27.079 -34.727  1.00  0.00     0.010 C 
ATOM     22  C   UNL     1     -15.025 -28.661 -37.145  1.00  0.00     0.012 C 
ATOM     23  C   UNL     1     -16.816 -26.207 -37.917  1.00  0.00     0.012 C 
ATOM     24  C   UNL     1     -12.571 -24.082 -42.289  1.00  0.00     0.014 C 
ATOM     25  C   UNL     1     -14.648 -22.772 -42.702  1.00  0.00     0.014 C 
ATOM     26  C   UNL     1     -17.125 -26.154 -41.329  1.00  0.00     0.012 C 
ENDROOT
BRANCH   1  27
ATOM     27  C   UNL     1      -9.916 -27.651 -38.015  1.00  0.00    -0.077 C 
ATOM     28  C   UNL     1      -9.534 -26.418 -38.830  1.00  0.00     0.039 C 
ATOM     29  C   UNL     1      -9.631 -28.860 -38.538  1.00  0.00     0.008 C 
ENDBRANCH   1  27
BRANCH   4  30
ATOM     30  C   UNL     1     -11.849 -28.356 -33.955  1.00  0.00     0.163 C 
BRANCH  30  31
ATOM     31  O   UNL     1     -11.739 -27.773 -32.686  1.00  0.00    -0.396 OA
ATOM     32  H   UNL     1     -11.042 -27.045 -32.737  1.00  0.00     0.210 HD
ENDBRANCH  30  31
ENDBRANCH   4  30
BRANCH  13  33
ATOM     33  O   UNL     1     -13.241 -25.411 -44.497  1.00  0.00    -0.393 OA
ATOM     34  H   UNL     1     -12.894 -26.219 -44.047  1.00  0.00     0.210 HD
ENDBRANCH  13  33
TORSDOF 4
ENDMDL
MODEL 9
REMARK VINA RESULT:    -3.701      2.521      7.933
REMARK INTER + INTRA:          -4.806
REMARK INTER:                  -4.343
REMARK INTRA:                  -0.463
REMARK UNBOUND:                -0.456
REMARK SMILES C=C(C)[C@H]1CC[C@@]2(CO)CC[C@]3(C)[C@H](CC[C@@H]4[C@]5(C)CC[C@H](O)C(C)(C)[C@@H]5CC[C@@]43C)[C@@H]12
REMARK SMILES IDX 4 1 5 2 6 3 7 4 32 5 14 6 15 7 16 8 17 9 18 10 20 11 21 12
REMARK SMILES IDX 22 13 24 14 27 15 28 16 29 17 30 18 12 19 11 20 10 21 13 22
REMARK SMILES IDX 31 23 25 24 26 25 19 26 2 27 3 28 1 29 8 30 9 31 23 33
REMARK H PARENT 9 32 23 34
REMARK Flexibility Score: inf
ROOT
ATOM      1  C   UNL     1     -14.786 -26.787 -37.169  1.00  0.00     0.018 C 
ATOM      2  C   UNL     1     -15.290 -28.235 -37.009  1.00  0.00     0.009 C 
ATOM      3  C   UNL     1     -14.064 -29.055 -36.604  1.00  0.00     0.010 C 
ATOM      4  C   UNL     1     -12.891 -28.060 -36.365  1.00  0.00    -0.003 C 
ATOM      5  C   UNL     1     -13.232 -26.877 -37.337  1.00  0.00     0.008 C 
ATOM      6  C   UNL     1     -12.795 -27.145 -38.839  1.00  0.00    -0.000 C 
ATOM      7  C   UNL     1     -13.018 -25.894 -39.740  1.00  0.00     0.005 C 
ATOM      8  C   UNL     1     -11.928 -25.495 -40.745  1.00  0.00     0.005 C 
ATOM      9  C   UNL     1     -11.083 -26.636 -41.448  1.00  0.00     0.002 C 
ATOM     10  C   UNL     1     -11.326 -26.783 -43.058  1.00  0.00    -0.026 C 
ATOM     11  C   UNL     1     -11.693 -25.452 -43.802  1.00  0.00     0.010 C 
ATOM     12  C   UNL     1     -11.941 -25.642 -45.285  1.00  0.00     0.033 C 
ATOM     13  C   UNL     1     -13.258 -26.363 -45.551  1.00  0.00     0.120 C 
ATOM     14  C   UNL     1     -13.547 -27.585 -44.583  1.00  0.00    -0.006 C 
ATOM     15  C   UNL     1     -12.433 -27.860 -43.416  1.00  0.00     0.003 C 
ATOM     16  C   UNL     1     -13.075 -28.483 -42.144  1.00  0.00     0.005 C 
ATOM     17  C   UNL     1     -11.995 -29.038 -41.213  1.00  0.00     0.008 C 
ATOM     18  C   UNL     1     -11.031 -27.981 -40.566  1.00  0.00    -0.024 C 
ATOM     19  C   UNL     1     -11.329 -27.638 -38.993  1.00  0.00    -0.024 C 
ATOM     20  C   UNL     1     -11.188 -28.914 -38.098  1.00  0.00     0.008 C 
ATOM     21  C   UNL     1     -11.534 -28.747 -36.645  1.00  0.00     0.010 C 
ATOM     22  C   UNL     1     -10.353 -26.514 -38.457  1.00  0.00     0.012 C 
ATOM     23  C   UNL     1      -9.633 -28.648 -40.639  1.00  0.00     0.012 C 
ATOM     24  C   UNL     1     -15.017 -27.486 -44.003  1.00  0.00     0.014 C 
ATOM     25  C   UNL     1     -13.592 -28.871 -45.504  1.00  0.00     0.014 C 
ATOM     26  C   UNL     1      -9.940 -27.164 -43.712  1.00  0.00     0.012 C 
ENDROOT
BRANCH   1  27
ATOM     27  C   UNL     1     -15.577 -25.847 -38.083  1.00  0.00    -0.077 C 
ATOM     28  C   UNL     1     -16.365 -26.428 -39.255  1.00  0.00     0.039 C 
ATOM     29  C   UNL     1     -15.627 -24.513 -37.895  1.00  0.00     0.008 C 
ENDBRANCH   1  27
BRANCH   4  30
ATOM     30  C   UNL     1     -12.864 -27.569 -34.860  1.00  0.00     0.163 C 
BRANCH  30  31
ATOM     31  O   UNL     1     -12.242 -26.321 -34.725  1.00  0.00    -0.396 OA
ATOM     32  H   UNL     1     -11.358 -26.463 -34.260  1.00  0.00     0.210 HD
ENDBRANCH  30  31
ENDBRANCH   4  30
BRANCH  13  33
ATOM     33  O   UNL     1     -14.327 -25.463 -45.591  1.00  0.00    -0.393 OA
ATOM     34  H   UNL     1     -15.172 -25.972 -45.643  1.00  0.00     0.210 HD
ENDBRANCH  13  33
TORSDOF 4
ENDMDL
