MODEL 1
REMARK VINA RESULT:    -3.422      0.000      0.000
REMARK INTER + INTRA:          -5.665
REMARK INTER:                  -5.222
REMARK INTRA:                  -0.443
REMARK UNBOUND:                -0.443
REMARK SMILES CC1=CCC[C@H](C)C(=O)C[C@H](C(C)C)C(=O)C1
REMARK SMILES IDX 8 1 9 2 6 3 7 4 5 5 4 6 3 7 2 8 1 9 10 11 11 12 15 13 16 14
REMARK SMILES IDX 17 15 12 17 13 18 14 19
REMARK H PARENT
REMARK Flexibility Score: 70.00
ROOT
ATOM      1  C   UNL     1     -31.152  19.167  26.286  1.00  0.00     0.136 C 
ATOM      2  O   UNL     1     -30.490  18.306  26.852  1.00  0.00    -0.299 OA
ENDROOT
BRANCH   1   3
ATOM      3  C   UNL     1     -32.163  18.763  25.223  1.00  0.00     0.053 C 
ATOM      4  C   UNL     1     -32.910  19.986  24.671  1.00  0.00     0.016 C 
BRANCH   3   5
ATOM      5  C   UNL     1     -31.529  17.934  24.079  1.00  0.00     0.015 C 
BRANCH   5   6
ATOM      6  C   UNL     1     -30.864  18.790  22.980  1.00  0.00     0.028 C 
BRANCH   6   7
ATOM      7  C   UNL     1     -29.384  18.969  23.168  1.00  0.00    -0.028 C 
ATOM      8  C   UNL     1     -28.752  20.122  23.511  1.00  0.00    -0.070 CG0
ATOM      9  C   UNL     1     -27.242  20.106  23.451  1.00  0.00     0.039 C 
ATOM     10  G   UNL     1     -29.421  21.356  24.117  1.00  0.00     0.000 G0
ENDBRANCH   6   7
ENDBRANCH   5   6
ENDBRANCH   3   5
ENDBRANCH   1   3
BRANCH   1  11
ATOM     11  C   UNL     1     -30.919  20.609  26.657  1.00  0.00     0.087 C 
BRANCH  11  12
ATOM     12  C   UNL     1     -29.427  21.044  26.736  1.00  0.00     0.066 C 
BRANCH  12  13
ATOM     13  C   UNL     1     -28.975  21.823  25.499  1.00  0.00     0.140 C 
ATOM     14  O   UNL     1     -28.150  22.719  25.611  1.00  0.00    -0.299 OA
BRANCH  13  15
ATOM     15  C   UNL     1     -29.414  21.380  24.116  1.00  0.00     0.106 CG0
ATOM     16  G   UNL     1     -28.751  20.134  23.528  1.00  0.00     0.000 G0
ENDBRANCH  13  15
ENDBRANCH  12  13
BRANCH  12  17
ATOM     17  C   UNL     1     -29.164  21.872  28.039  1.00  0.00    -0.006 C 
ATOM     18  C   UNL     1     -27.968  21.328  28.841  1.00  0.00     0.008 C 
ATOM     19  C   UNL     1     -30.400  21.910  28.958  1.00  0.00     0.008 C 
ENDBRANCH  12  17
ENDBRANCH  11  12
ENDBRANCH   1  11
TORSDOF 1
ENDMDL
MODEL 2
REMARK VINA RESULT:    -3.350      1.832      3.527
REMARK INTER + INTRA:          -5.556
REMARK INTER:                  -5.037
REMARK INTRA:                  -0.519
REMARK UNBOUND:                -0.443
REMARK SMILES CC1=CCC[C@H](C)C(=O)C[C@H](C(C)C)C(=O)C1
REMARK SMILES IDX 8 1 9 2 6 3 7 4 5 5 4 6 3 7 2 8 1 9 10 11 11 12 15 13 16 14
REMARK SMILES IDX 17 15 12 17 13 18 14 19
REMARK H PARENT
REMARK Flexibility Score: 70.00
ROOT
ATOM      1  C   UNL     1     -28.333  20.725  24.633  1.00  0.00     0.136 C 
ATOM      2  O   UNL     1     -27.530  19.859  24.312  1.00  0.00    -0.299 OA
ENDROOT
BRANCH   1   3
ATOM      3  C   UNL     1     -29.312  21.266  23.601  1.00  0.00     0.053 C 
ATOM      4  C   UNL     1     -28.603  22.159  22.572  1.00  0.00     0.016 C 
BRANCH   3   5
ATOM      5  C   UNL     1     -30.124  20.148  22.903  1.00  0.00     0.015 C 
BRANCH   5   6
ATOM      6  C   UNL     1     -31.461  19.816  23.599  1.00  0.00     0.028 C 
BRANCH   6   7
ATOM      7  C   UNL     1     -31.550  18.400  24.092  1.00  0.00    -0.028 C 
ATOM      8  C   UNL     1     -31.276  17.968  25.351  1.00  0.00    -0.070 CG0
ATOM      9  C   UNL     1     -31.248  16.472  25.560  1.00  0.00     0.039 C 
ATOM     10  G   UNL     1     -31.173  18.856  26.592  1.00  0.00     0.000 G0
ENDBRANCH   6   7
ENDBRANCH   5   6
ENDBRANCH   3   5
ENDBRANCH   1   3
BRANCH   1  11
ATOM     11  C   UNL     1     -28.305  21.239  26.050  1.00  0.00     0.087 C 
BRANCH  11  12
ATOM     12  C   UNL     1     -29.562  20.908  26.903  1.00  0.00     0.066 C 
BRANCH  12  13
ATOM     13  C   UNL     1     -29.827  19.404  27.003  1.00  0.00     0.140 C 
ATOM     14  O   UNL     1     -28.994  18.670  27.515  1.00  0.00    -0.299 OA
BRANCH  13  15
ATOM     15  C   UNL     1     -31.185  18.843  26.623  1.00  0.00     0.106 CG0
ATOM     16  G   UNL     1     -31.269  17.986  25.359  1.00  0.00     0.000 G0
ENDBRANCH  13  15
ENDBRANCH  12  13
BRANCH  12  17
ATOM     17  C   UNL     1     -29.442  21.544  28.329  1.00  0.00    -0.006 C 
ATOM     18  C   UNL     1     -30.346  22.779  28.493  1.00  0.00     0.008 C 
ATOM     19  C   UNL     1     -27.992  21.945  28.662  1.00  0.00     0.008 C 
ENDBRANCH  12  17
ENDBRANCH  11  12
ENDBRANCH   1  11
TORSDOF 1
ENDMDL
MODEL 3
REMARK VINA RESULT:    -3.237      1.589      4.068
REMARK INTER + INTRA:          -5.383
REMARK INTER:                  -4.796
REMARK INTRA:                  -0.587
REMARK UNBOUND:                -0.443
REMARK SMILES CC1=CCC[C@H](C)C(=O)C[C@H](C(C)C)C(=O)C1
REMARK SMILES IDX 8 1 9 2 6 3 7 4 5 5 4 6 3 7 2 8 1 9 10 11 11 12 15 13 16 14
REMARK SMILES IDX 17 15 12 17 13 18 14 19
REMARK H PARENT
REMARK Flexibility Score: 70.00
ROOT
ATOM      1  C   UNL     1     -30.072  19.382  26.701  1.00  0.00     0.136 C 
ATOM      2  O   UNL     1     -29.226  18.761  27.331  1.00  0.00    -0.299 OA
ENDROOT
BRANCH   1   3
ATOM      3  C   UNL     1     -29.973  20.896  26.593  1.00  0.00     0.053 C 
ATOM      4  C   UNL     1     -30.362  21.577  27.914  1.00  0.00     0.016 C 
BRANCH   3   5
ATOM      5  C   UNL     1     -28.580  21.371  26.112  1.00  0.00     0.015 C 
BRANCH   5   6
ATOM      6  C   UNL     1     -28.424  21.399  24.577  1.00  0.00     0.028 C 
BRANCH   6   7
ATOM      7  C   UNL     1     -27.727  20.190  24.019  1.00  0.00    -0.028 C 
ATOM      8  C   UNL     1     -28.316  19.146  23.380  1.00  0.00    -0.070 CG0
ATOM      9  C   UNL     1     -27.436  17.955  23.081  1.00  0.00     0.039 C 
ATOM     10  G   UNL     1     -29.726  19.148  22.788  1.00  0.00     0.000 G0
ENDBRANCH   6   7
ENDBRANCH   5   6
ENDBRANCH   3   5
ENDBRANCH   1   3
BRANCH   1  11
ATOM     11  C   UNL     1     -31.202  18.611  26.067  1.00  0.00     0.087 C 
BRANCH  11  12
ATOM     12  C   UNL     1     -31.614  19.083  24.643  1.00  0.00     0.066 C 
BRANCH  12  13
ATOM     13  C   UNL     1     -30.819  18.383  23.538  1.00  0.00     0.140 C 
ATOM     14  O   UNL     1     -31.142  17.262  23.172  1.00  0.00    -0.299 OA
BRANCH  13  15
ATOM     15  C   UNL     1     -29.742  19.136  22.781  1.00  0.00     0.106 CG0
ATOM     16  G   UNL     1     -28.332  19.142  23.372  1.00  0.00     0.000 G0
ENDBRANCH  13  15
ENDBRANCH  12  13
BRANCH  12  17
ATOM     17  C   UNL     1     -33.152  18.892  24.424  1.00  0.00    -0.006 C 
ATOM     18  C   UNL     1     -33.933  20.206  24.612  1.00  0.00     0.008 C 
ATOM     19  C   UNL     1     -33.743  17.826  25.367  1.00  0.00     0.008 C 
ENDBRANCH  12  17
ENDBRANCH  11  12
ENDBRANCH   1  11
TORSDOF 1
ENDMDL
MODEL 4
REMARK VINA RESULT:    -3.205      2.951      4.985
REMARK INTER + INTRA:          -5.334
REMARK INTER:                  -4.937
REMARK INTRA:                  -0.397
REMARK UNBOUND:                -0.443
REMARK SMILES CC1=CCC[C@H](C)C(=O)C[C@H](C(C)C)C(=O)C1
REMARK SMILES IDX 8 1 9 2 6 3 7 4 5 5 4 6 3 7 2 8 1 9 10 11 11 12 15 13 16 14
REMARK SMILES IDX 17 15 12 17 13 18 14 19
REMARK H PARENT
REMARK Flexibility Score: 70.00
ROOT
ATOM      1  C   UNL     1     -29.396  20.424  23.889  1.00  0.00     0.136 C 
ATOM      2  O   UNL     1     -30.055  21.398  24.228  1.00  0.00    -0.299 OA
ENDROOT
BRANCH   1   3
ATOM      3  C   UNL     1     -28.116  20.620  23.090  1.00  0.00     0.053 C 
ATOM      4  C   UNL     1     -27.483  21.990  23.376  1.00  0.00     0.016 C 
BRANCH   3   5
ATOM      5  C   UNL     1     -27.093  19.478  23.308  1.00  0.00     0.015 C 
BRANCH   5   6
ATOM      6  C   UNL     1     -26.800  18.648  22.040  1.00  0.00     0.028 C 
BRANCH   6   7
ATOM      7  C   UNL     1     -27.104  17.185  22.193  1.00  0.00    -0.028 C 
ATOM      8  C   UNL     1     -28.338  16.616  22.193  1.00  0.00    -0.070 CG0
ATOM      9  C   UNL     1     -28.405  15.151  22.557  1.00  0.00     0.039 C 
ATOM     10  G   UNL     1     -29.621  17.277  21.690  1.00  0.00     0.000 G0
ENDBRANCH   6   7
ENDBRANCH   5   6
ENDBRANCH   3   5
ENDBRANCH   1   3
BRANCH   1  11
ATOM     11  C   UNL     1     -29.897  19.053  24.266  1.00  0.00     0.087 C 
BRANCH  11  12
ATOM     12  C   UNL     1     -31.134  18.554  23.467  1.00  0.00     0.066 C 
BRANCH  12  13
ATOM     13  C   UNL     1     -30.833  17.307  22.632  1.00  0.00     0.140 C 
ATOM     14  O   UNL     1     -31.628  16.379  22.612  1.00  0.00    -0.299 OA
BRANCH  13  15
ATOM     15  C   UNL     1     -29.637  17.287  21.698  1.00  0.00     0.106 CG0
ATOM     16  G   UNL     1     -28.359  16.612  22.198  1.00  0.00     0.000 G0
ENDBRANCH  13  15
ENDBRANCH  12  13
BRANCH  12  17
ATOM     17  C   UNL     1     -32.343  18.296  24.429  1.00  0.00    -0.006 C 
ATOM     18  C   UNL     1     -33.200  19.558  24.637  1.00  0.00     0.008 C 
ATOM     19  C   UNL     1     -31.884  17.777  25.806  1.00  0.00     0.008 C 
ENDBRANCH  12  17
ENDBRANCH  11  12
ENDBRANCH   1  11
TORSDOF 1
ENDMDL
MODEL 5
REMARK VINA RESULT:    -3.161      2.745      4.368
REMARK INTER + INTRA:          -5.266
REMARK INTER:                  -4.758
REMARK INTRA:                  -0.508
REMARK UNBOUND:                -0.443
REMARK SMILES CC1=CCC[C@H](C)C(=O)C[C@H](C(C)C)C(=O)C1
REMARK SMILES IDX 8 1 9 2 6 3 7 4 5 5 4 6 3 7 2 8 1 9 10 11 11 12 15 13 16 14
REMARK SMILES IDX 17 15 12 17 13 18 14 19
REMARK H PARENT
REMARK Flexibility Score: 70.00
ROOT
ATOM      1  C   UNL     1     -31.139  19.801  25.107  1.00  0.00     0.136 C 
ATOM      2  O   UNL     1     -30.402  20.212  25.993  1.00  0.00    -0.299 OA
ENDROOT
BRANCH   1   3
ATOM      3  C   UNL     1     -32.550  19.345  25.450  1.00  0.00     0.053 C 
ATOM      4  C   UNL     1     -33.574  19.890  24.442  1.00  0.00     0.016 C 
BRANCH   3   5
ATOM      5  C   UNL     1     -32.665  17.807  25.584  1.00  0.00     0.015 C 
BRANCH   5   6
ATOM      6  C   UNL     1     -33.134  17.099  24.295  1.00  0.00     0.028 C 
BRANCH   6   7
ATOM      7  C   UNL     1     -32.219  15.995  23.846  1.00  0.00    -0.028 C 
ATOM      8  C   UNL     1     -31.410  16.015  22.754  1.00  0.00    -0.070 CG0
ATOM      9  C   UNL     1     -30.728  14.715  22.396  1.00  0.00     0.039 C 
ATOM     10  G   UNL     1     -30.998  17.266  21.977  1.00  0.00     0.000 G0
ENDBRANCH   6   7
ENDBRANCH   5   6
ENDBRANCH   3   5
ENDBRANCH   1   3
BRANCH   1  11
ATOM     11  C   UNL     1     -30.605  19.746  23.698  1.00  0.00     0.087 C 
BRANCH  11  12
ATOM     12  C   UNL     1     -29.426  18.757  23.472  1.00  0.00     0.066 C 
BRANCH  12  13
ATOM     13  C   UNL     1     -29.631  17.867  22.244  1.00  0.00     0.140 C 
ATOM     14  O   UNL     1     -28.670  17.534  21.564  1.00  0.00    -0.299 OA
BRANCH  13  15
ATOM     15  C   UNL     1     -30.993  17.260  21.962  1.00  0.00     0.106 CG0
ATOM     16  G   UNL     1     -31.401  16.030  22.774  1.00  0.00     0.000 G0
ENDBRANCH  13  15
ENDBRANCH  12  13
BRANCH  12  17
ATOM     17  C   UNL     1     -28.069  19.532  23.373  1.00  0.00    -0.006 C 
ATOM     18  C   UNL     1     -27.197  19.339  24.627  1.00  0.00     0.008 C 
ATOM     19  C   UNL     1     -28.281  21.042  23.146  1.00  0.00     0.008 C 
ENDBRANCH  12  17
ENDBRANCH  11  12
ENDBRANCH   1  11
TORSDOF 1
ENDMDL
MODEL 6
REMARK VINA RESULT:    -3.118      2.204      4.735
REMARK INTER + INTRA:          -5.201
REMARK INTER:                  -4.663
REMARK INTRA:                  -0.537
REMARK UNBOUND:                -0.443
REMARK SMILES CC1=CCC[C@H](C)C(=O)C[C@H](C(C)C)C(=O)C1
REMARK SMILES IDX 8 1 9 2 6 3 7 4 5 5 4 6 3 7 2 8 1 9 10 11 11 12 15 13 16 14
REMARK SMILES IDX 17 15 12 17 13 18 14 19
REMARK H PARENT
REMARK Flexibility Score: 70.00
ROOT
ATOM      1  C   UNL     1     -30.337  20.684  27.777  1.00  0.00     0.136 C 
ATOM      2  O   UNL     1     -30.563  19.769  28.557  1.00  0.00    -0.299 OA
ENDROOT
BRANCH   1   3
ATOM      3  C   UNL     1     -29.845  22.024  28.306  1.00  0.00     0.053 C 
ATOM      4  C   UNL     1     -30.937  22.740  29.114  1.00  0.00     0.016 C 
BRANCH   3   5
ATOM      5  C   UNL     1     -28.537  21.898  29.127  1.00  0.00     0.015 C 
BRANCH   5   6
ATOM      6  C   UNL     1     -27.269  21.734  28.263  1.00  0.00     0.028 C 
BRANCH   6   7
ATOM      7  C   UNL     1     -26.549  20.435  28.489  1.00  0.00    -0.028 C 
ATOM      8  C   UNL     1     -26.550  19.360  27.658  1.00  0.00    -0.070 CG0
ATOM      9  C   UNL     1     -25.913  18.097  28.189  1.00  0.00     0.039 C 
ATOM     10  G   UNL     1     -26.975  19.373  26.189  1.00  0.00     0.000 G0
ENDBRANCH   6   7
ENDBRANCH   5   6
ENDBRANCH   3   5
ENDBRANCH   1   3
BRANCH   1  11
ATOM     11  C   UNL     1     -30.577  20.449  26.307  1.00  0.00     0.087 C 
BRANCH  11  12
ATOM     12  C   UNL     1     -29.296  20.335  25.433  1.00  0.00     0.066 C 
BRANCH  12  13
ATOM     13  C   UNL     1     -28.414  19.150  25.833  1.00  0.00     0.140 C 
ATOM     14  O   UNL     1     -28.846  18.009  25.742  1.00  0.00    -0.299 OA
BRANCH  13  15
ATOM     15  C   UNL     1     -26.953  19.371  26.178  1.00  0.00     0.106 CG0
ATOM     16  G   UNL     1     -26.564  19.344  27.657  1.00  0.00     0.000 G0
ENDBRANCH  13  15
ENDBRANCH  12  13
BRANCH  12  17
ATOM     17  C   UNL     1     -29.672  20.257  23.915  1.00  0.00    -0.006 C 
ATOM     18  C   UNL     1     -29.363  21.570  23.172  1.00  0.00     0.008 C 
ATOM     19  C   UNL     1     -31.158  19.908  23.704  1.00  0.00     0.008 C 
ENDBRANCH  12  17
ENDBRANCH  11  12
ENDBRANCH   1  11
TORSDOF 1
ENDMDL
MODEL 7
REMARK VINA RESULT:    -3.051      2.544      4.899
REMARK INTER + INTRA:          -5.099
REMARK INTER:                  -4.490
REMARK INTRA:                  -0.608
REMARK UNBOUND:                -0.443
REMARK SMILES CC1=CCC[C@H](C)C(=O)C[C@H](C(C)C)C(=O)C1
REMARK SMILES IDX 8 1 9 2 6 3 7 4 5 5 4 6 3 7 2 8 1 9 10 11 11 12 15 13 16 14
REMARK SMILES IDX 17 15 12 17 13 18 14 19
REMARK H PARENT
REMARK Flexibility Score: 70.00
ROOT
ATOM      1  C   UNL     1     -30.480  21.245  27.343  1.00  0.00     0.136 C 
ATOM      2  O   UNL     1     -31.069  21.915  28.181  1.00  0.00    -0.299 OA
ENDROOT
BRANCH   1   3
ATOM      3  C   UNL     1     -29.023  21.547  27.024  1.00  0.00     0.053 C 
ATOM      4  C   UNL     1     -28.878  22.886  26.283  1.00  0.00     0.016 C 
BRANCH   3   5
ATOM      5  C   UNL     1     -28.115  21.504  28.277  1.00  0.00     0.015 C 
BRANCH   5   6
ATOM      6  C   UNL     1     -28.085  20.131  28.982  1.00  0.00     0.028 C 
BRANCH   6   7
ATOM      7  C   UNL     1     -27.390  19.061  28.188  1.00  0.00    -0.028 C 
ATOM      8  C   UNL     1     -27.972  17.963  27.639  1.00  0.00    -0.070 CG0
ATOM      9  C   UNL     1     -27.040  16.928  27.052  1.00  0.00     0.039 C 
ATOM     10  G   UNL     1     -29.472  17.773  27.408  1.00  0.00     0.000 G0
ENDBRANCH   6   7
ENDBRANCH   5   6
ENDBRANCH   3   5
ENDBRANCH   1   3
BRANCH   1  11
ATOM     11  C   UNL     1     -31.238  20.149  26.639  1.00  0.00     0.087 C 
BRANCH  11  12
ATOM     12  C   UNL     1     -30.435  19.374  25.555  1.00  0.00     0.066 C 
BRANCH  12  13
ATOM     13  C   UNL     1     -30.027  17.973  26.015  1.00  0.00     0.140 C 
ATOM     14  O   UNL     1     -30.008  17.049  25.213  1.00  0.00    -0.299 OA
BRANCH  13  15
ATOM     15  C   UNL     1     -29.484  17.758  27.415  1.00  0.00     0.106 CG0
ATOM     16  G   UNL     1     -27.985  17.969  27.634  1.00  0.00     0.000 G0
ENDBRANCH  13  15
ENDBRANCH  12  13
BRANCH  12  17
ATOM     17  C   UNL     1     -31.245  19.303  24.217  1.00  0.00    -0.006 C 
ATOM     18  C   UNL     1     -30.571  20.103  23.087  1.00  0.00     0.008 C 
ATOM     19  C   UNL     1     -32.690  19.811  24.388  1.00  0.00     0.008 C 
ENDBRANCH  12  17
ENDBRANCH  11  12
ENDBRANCH   1  11
TORSDOF 1
ENDMDL
MODEL 8
REMARK VINA RESULT:    -2.970      2.641      5.219
REMARK INTER + INTRA:          -4.975
REMARK INTER:                  -4.406
REMARK INTRA:                  -0.568
REMARK UNBOUND:                -0.443
REMARK SMILES CC1=CCC[C@H](C)C(=O)C[C@H](C(C)C)C(=O)C1
REMARK SMILES IDX 8 1 9 2 6 3 7 4 5 5 4 6 3 7 2 8 1 9 10 11 11 12 15 13 16 14
REMARK SMILES IDX 17 15 12 17 13 18 14 19
REMARK H PARENT
REMARK Flexibility Score: 70.00
ROOT
ATOM      1  C   UNL     1     -31.968  16.610  24.328  1.00  0.00     0.136 C 
ATOM      2  O   UNL     1     -31.560  16.393  25.461  1.00  0.00    -0.299 OA
ENDROOT
BRANCH   1   3
ATOM      3  C   UNL     1     -33.192  17.491  24.122  1.00  0.00     0.053 C 
ATOM      4  C   UNL     1     -34.468  16.800  24.627  1.00  0.00     0.016 C 
BRANCH   3   5
ATOM      5  C   UNL     1     -33.032  18.895  24.754  1.00  0.00     0.015 C 
BRANCH   5   6
ATOM      6  C   UNL     1     -32.080  19.828  23.975  1.00  0.00     0.028 C 
BRANCH   6   7
ATOM      7  C   UNL     1     -30.789  20.107  24.691  1.00  0.00    -0.028 C 
ATOM      8  C   UNL     1     -29.558  19.655  24.334  1.00  0.00    -0.070 CG0
ATOM      9  C   UNL     1     -28.437  19.905  25.316  1.00  0.00     0.039 C 
ATOM     10  G   UNL     1     -29.184  19.085  22.965  1.00  0.00     0.000 G0
ENDBRANCH   6   7
ENDBRANCH   5   6
ENDBRANCH   3   5
ENDBRANCH   1   3
BRANCH   1  11
ATOM     11  C   UNL     1     -31.242  15.973  23.171  1.00  0.00     0.087 C 
BRANCH  11  12
ATOM     12  C   UNL     1     -30.546  16.963  22.194  1.00  0.00     0.066 C 
BRANCH  12  13
ATOM     13  C   UNL     1     -29.277  17.580  22.786  1.00  0.00     0.140 C 
ATOM     14  O   UNL     1     -28.295  16.881  22.987  1.00  0.00    -0.299 OA
BRANCH  13  15
ATOM     15  C   UNL     1     -29.174  19.083  22.966  1.00  0.00     0.106 CG0
ATOM     16  G   UNL     1     -29.559  19.661  24.329  1.00  0.00     0.000 G0
ENDBRANCH  13  15
ENDBRANCH  12  13
BRANCH  12  17
ATOM     17  C   UNL     1     -30.235  16.261  20.829  1.00  0.00    -0.006 C 
ATOM     18  C   UNL     1     -30.475  17.194  19.628  1.00  0.00     0.008 C 
ATOM     19  C   UNL     1     -31.070  14.980  20.634  1.00  0.00     0.008 C 
ENDBRANCH  12  17
ENDBRANCH  11  12
ENDBRANCH   1  11
TORSDOF 1
ENDMDL
MODEL 9
REMARK VINA RESULT:    -2.969      2.195      2.952
REMARK INTER + INTRA:          -4.974
REMARK INTER:                  -4.583
REMARK INTRA:                  -0.391
REMARK UNBOUND:                -0.443
REMARK SMILES CC1=CCC[C@H](C)C(=O)C[C@H](C(C)C)C(=O)C1
REMARK SMILES IDX 8 1 9 2 6 3 7 4 5 5 4 6 3 7 2 8 1 9 10 11 11 12 15 13 16 14
REMARK SMILES IDX 17 15 12 17 13 18 14 19
REMARK H PARENT
REMARK Flexibility Score: 70.00
ROOT
ATOM      1  C   UNL     1     -31.424  19.614  24.033  1.00  0.00     0.136 C 
ATOM      2  O   UNL     1     -32.539  20.115  23.979  1.00  0.00    -0.299 OA
ENDROOT
BRANCH   1   3
ATOM      3  C   UNL     1     -31.281  18.104  24.167  1.00  0.00     0.053 C 
ATOM      4  C   UNL     1     -32.605  17.453  24.594  1.00  0.00     0.016 C 
BRANCH   3   5
ATOM      5  C   UNL     1     -30.722  17.441  22.884  1.00  0.00     0.015 C 
BRANCH   5   6
ATOM      6  C   UNL     1     -29.430  16.628  23.112  1.00  0.00     0.028 C 
BRANCH   6   7
ATOM      7  C   UNL     1     -28.405  16.808  22.028  1.00  0.00    -0.028 C 
ATOM      8  C   UNL     1     -27.453  17.776  21.975  1.00  0.00    -0.070 CG0
ATOM      9  C   UNL     1     -26.661  17.873  20.692  1.00  0.00     0.039 C 
ATOM     10  G   UNL     1     -27.002  18.644  23.150  1.00  0.00     0.000 G0
ENDBRANCH   6   7
ENDBRANCH   5   6
ENDBRANCH   3   5
ENDBRANCH   1   3
BRANCH   1  11
ATOM     11  C   UNL     1     -30.225  20.526  23.985  1.00  0.00     0.087 C 
BRANCH  11  12
ATOM     12  C   UNL     1     -28.894  19.904  24.497  1.00  0.00     0.066 C 
BRANCH  12  13
ATOM     13  C   UNL     1     -27.791  19.919  23.436  1.00  0.00     0.140 C 
ATOM     14  O   UNL     1     -27.457  20.974  22.917  1.00  0.00    -0.299 OA
BRANCH  13  15
ATOM     15  C   UNL     1     -26.994  18.660  23.149  1.00  0.00     0.106 CG0
ATOM     16  G   UNL     1     -27.452  17.782  21.983  1.00  0.00     0.000 G0
ENDBRANCH  13  15
ENDBRANCH  12  13
BRANCH  12  17
ATOM     17  C   UNL     1     -28.417  20.626  25.802  1.00  0.00    -0.006 C 
ATOM     18  C   UNL     1     -28.881  19.893  27.074  1.00  0.00     0.008 C 
ATOM     19  C   UNL     1     -28.904  22.086  25.866  1.00  0.00     0.008 C 
ENDBRANCH  12  17
ENDBRANCH  11  12
ENDBRANCH   1  11
TORSDOF 1
ENDMDL
