MODEL 1
REMARK VINA RESULT:    -3.311      0.000      0.000
REMARK INTER + INTRA:          -5.326
REMARK INTER:                  -4.569
REMARK INTRA:                  -0.757
REMARK UNBOUND:                -0.757
REMARK SMILES OC[C@H](O)C(O)[C@@H](O)CO
REMARK SMILES IDX 5 1 7 2 9 3 10 4 8 6 3 8 2 9 1 10 4 12 6 14
REMARK H PARENT 10 5 8 7 1 11 4 13 6 15
REMARK Flexibility Score: inf
ROOT
ATOM      1  C   UNL     1     170.437 173.769 152.145  1.00  0.00     0.176 C 
ENDROOT
BRANCH   1   2
ATOM      2  C   UNL     1     171.732 173.026 152.585  1.00  0.00     0.171 C 
BRANCH   2   3
ATOM      3  C   UNL     1     172.762 173.978 153.222  1.00  0.00     0.190 C 
BRANCH   3   4
ATOM      4  O   UNL     1     172.326 174.399 154.486  1.00  0.00    -0.394 OA
ATOM      5  H   UNL     1     172.939 173.978 155.143  1.00  0.00     0.210 HD
ENDBRANCH   3   4
ENDBRANCH   2   3
BRANCH   2   6
ATOM      6  O   UNL     1     172.324 172.428 151.460  1.00  0.00    -0.388 OA
ATOM      7  H   UNL     1     172.629 171.525 151.738  1.00  0.00     0.211 HD
ENDBRANCH   2   6
ENDBRANCH   1   2
BRANCH   1   8
ATOM      8  C   UNL     1     169.178 173.387 152.980  1.00  0.00     0.171 C 
BRANCH   8   9
ATOM      9  C   UNL     1     167.919 174.181 152.592  1.00  0.00     0.190 C 
BRANCH   9  10
ATOM     10  O   UNL     1     167.924 175.437 153.213  1.00  0.00    -0.394 OA
ATOM     11  H   UNL     1     168.404 175.318 154.074  1.00  0.00     0.210 HD
ENDBRANCH   9  10
ENDBRANCH   8   9
BRANCH   8  12
ATOM     12  O   UNL     1     169.441 173.629 154.339  1.00  0.00    -0.388 OA
ATOM     13  H   UNL     1     168.565 173.716 154.799  1.00  0.00     0.211 HD
ENDBRANCH   8  12
ENDBRANCH   1   8
BRANCH   1  14
ATOM     14  O   UNL     1     170.622 175.163 152.196  1.00  0.00    -0.388 OA
ATOM     15  H   UNL     1     169.727 175.578 152.304  1.00  0.00     0.211 HD
ENDBRANCH   1  14
TORSDOF 9
ENDMDL
MODEL 2
REMARK VINA RESULT:    -3.305      9.526     11.099
REMARK INTER + INTRA:          -5.317
REMARK INTER:                  -4.562
REMARK INTRA:                  -0.755
REMARK UNBOUND:                -0.757
REMARK SMILES OC[C@H](O)C(O)[C@@H](O)CO
REMARK SMILES IDX 5 1 7 2 9 3 10 4 8 6 3 8 2 9 1 10 4 12 6 14
REMARK H PARENT 10 5 8 7 1 11 4 13 6 15
REMARK Flexibility Score: inf
ROOT
ATOM      1  C   UNL     1     159.788 172.679 152.132  1.00  0.00     0.176 C 
ENDROOT
BRANCH   1   2
ATOM      2  C   UNL     1     160.913 173.683 152.513  1.00  0.00     0.171 C 
BRANCH   2   3
ATOM      3  C   UNL     1     160.357 174.967 153.157  1.00  0.00     0.190 C 
BRANCH   3   4
ATOM      4  O   UNL     1     159.842 174.693 154.431  1.00  0.00    -0.394 OA
ATOM      5  H   UNL     1     159.008 175.226 154.513  1.00  0.00     0.210 HD
ENDBRANCH   3   4
ENDBRANCH   2   3
BRANCH   2   6
ATOM      6  O   UNL     1     161.620 174.045 151.353  1.00  0.00    -0.388 OA
ATOM      7  H   UNL     1     161.000 173.928 150.587  1.00  0.00     0.211 HD
ENDBRANCH   2   6
ENDBRANCH   1   2
BRANCH   1   8
ATOM      8  C   UNL     1     159.801 171.369 152.977  1.00  0.00     0.171 C 
BRANCH   8   9
ATOM      9  C   UNL     1     158.665 170.396 152.619  1.00  0.00     0.190 C 
BRANCH   9  10
ATOM     10  O   UNL     1     157.461 170.815 153.202  1.00  0.00    -0.394 OA
ATOM     11  H   UNL     1     157.626 171.731 153.549  1.00  0.00     0.210 HD
ENDBRANCH   9  10
ENDBRANCH   8   9
BRANCH   8  12
ATOM     12  O   UNL     1     159.673 171.703 154.337  1.00  0.00    -0.388 OA
ATOM     13  H   UNL     1     159.927 170.900 154.863  1.00  0.00     0.211 HD
ENDBRANCH   8  12
ENDBRANCH   1   8
BRANCH   1  14
ATOM     14  O   UNL     1     158.523 173.287 152.237  1.00  0.00    -0.388 OA
ATOM     15  H   UNL     1     158.256 173.254 153.193  1.00  0.00     0.211 HD
ENDBRANCH   1  14
TORSDOF 9
ENDMDL
MODEL 3
REMARK VINA RESULT:    -3.226     21.615     22.979
REMARK INTER + INTRA:          -5.209
REMARK INTER:                  -4.734
REMARK INTRA:                  -0.475
REMARK UNBOUND:                -0.757
REMARK SMILES OC[C@H](O)C(O)[C@@H](O)CO
REMARK SMILES IDX 5 1 7 2 9 3 10 4 8 6 3 8 2 9 1 10 4 12 6 14
REMARK H PARENT 10 5 8 7 1 11 4 13 6 15
REMARK Flexibility Score: inf
ROOT
ATOM      1  C   UNL     1     158.873 157.804 163.465  1.00  0.00     0.176 C 
ENDROOT
BRANCH   1   2
ATOM      2  C   UNL     1     159.035 157.021 164.799  1.00  0.00     0.171 C 
BRANCH   2   3
ATOM      3  C   UNL     1     157.858 156.062 165.060  1.00  0.00     0.190 C 
BRANCH   3   4
ATOM      4  O   UNL     1     156.870 156.694 165.826  1.00  0.00    -0.394 OA
ATOM      5  H   UNL     1     156.201 155.994 166.046  1.00  0.00     0.210 HD
ENDBRANCH   3   4
ENDBRANCH   2   3
BRANCH   2   6
ATOM      6  O   UNL     1     159.101 157.934 165.865  1.00  0.00    -0.388 OA
ATOM      7  H   UNL     1     158.975 158.840 165.480  1.00  0.00     0.211 HD
ENDBRANCH   2   6
ENDBRANCH   1   2
BRANCH   1   8
ATOM      8  C   UNL     1     159.979 157.492 162.413  1.00  0.00     0.171 C 
BRANCH   8   9
ATOM      9  C   UNL     1     160.297 158.676 161.485  1.00  0.00     0.190 C 
BRANCH   9  10
ATOM     10  O   UNL     1     159.191 159.531 161.387  1.00  0.00    -0.394 OA
ATOM     11  H   UNL     1     158.661 159.394 162.216  1.00  0.00     0.210 HD
ENDBRANCH   9  10
ENDBRANCH   8   9
BRANCH   8  12
ATOM     12  O   UNL     1     159.556 156.416 161.613  1.00  0.00    -0.388 OA
ATOM     13  H   UNL     1     159.009 155.818 162.188  1.00  0.00     0.211 HD
ENDBRANCH   8  12
ENDBRANCH   1   8
BRANCH   1  14
ATOM     14  O   UNL     1     157.609 157.561 162.897  1.00  0.00    -0.388 OA
ATOM     15  H   UNL     1     157.754 157.043 162.062  1.00  0.00     0.211 HD
ENDBRANCH   1  14
TORSDOF 9
ENDMDL
MODEL 4
REMARK VINA RESULT:    -3.201     15.896     16.823
REMARK INTER + INTRA:          -5.175
REMARK INTER:                  -4.420
REMARK INTRA:                  -0.755
REMARK UNBOUND:                -0.757
REMARK SMILES OC[C@H](O)C(O)[C@@H](O)CO
REMARK SMILES IDX 5 1 7 2 9 3 10 4 8 6 3 8 2 9 1 10 4 12 6 14
REMARK H PARENT 10 5 8 7 1 11 4 13 6 15
REMARK Flexibility Score: inf
ROOT
ATOM      1  C   UNL     1     172.505 158.438 154.397  1.00  0.00     0.176 C 
ENDROOT
BRANCH   1   2
ATOM      2  C   UNL     1     171.521 157.650 153.486  1.00  0.00     0.171 C 
BRANCH   2   3
ATOM      3  C   UNL     1     171.613 158.089 152.012  1.00  0.00     0.190 C 
BRANCH   3   4
ATOM      4  O   UNL     1     172.634 157.390 151.355  1.00  0.00    -0.394 OA
ATOM      5  H   UNL     1     173.001 158.013 150.675  1.00  0.00     0.210 HD
ENDBRANCH   3   4
ENDBRANCH   2   3
BRANCH   2   6
ATOM      6  O   UNL     1     170.206 157.871 153.928  1.00  0.00    -0.388 OA
ATOM      7  H   UNL     1     169.785 158.501 153.286  1.00  0.00     0.211 HD
ENDBRANCH   2   6
ENDBRANCH   1   2
BRANCH   1   8
ATOM      8  C   UNL     1     172.594 157.889 155.852  1.00  0.00     0.171 C 
BRANCH   8   9
ATOM      9  C   UNL     1     172.904 156.384 155.923  1.00  0.00     0.190 C 
BRANCH   9  10
ATOM     10  O   UNL     1     174.260 156.151 155.660  1.00  0.00    -0.394 OA
ATOM     11  H   UNL     1     174.302 155.294 155.161  1.00  0.00     0.210 HD
ENDBRANCH   9  10
ENDBRANCH   8   9
BRANCH   8  12
ATOM     12  O   UNL     1     171.365 158.109 156.498  1.00  0.00    -0.388 OA
ATOM     13  H   UNL     1     170.787 157.323 156.309  1.00  0.00     0.211 HD
ENDBRANCH   8  12
ENDBRANCH   1   8
BRANCH   1  14
ATOM     14  O   UNL     1     173.793 158.464 153.831  1.00  0.00    -0.388 OA
ATOM     15  H   UNL     1     173.770 159.099 153.068  1.00  0.00     0.211 HD
ENDBRANCH   1  14
TORSDOF 9
ENDMDL
MODEL 5
REMARK VINA RESULT:    -3.183     15.380     16.778
REMARK INTER + INTRA:          -5.149
REMARK INTER:                  -4.419
REMARK INTRA:                  -0.730
REMARK UNBOUND:                -0.757
REMARK SMILES OC[C@H](O)C(O)[C@@H](O)CO
REMARK SMILES IDX 5 1 7 2 9 3 10 4 8 6 3 8 2 9 1 10 4 12 6 14
REMARK H PARENT 10 5 8 7 1 11 4 13 6 15
REMARK Flexibility Score: inf
ROOT
ATOM      1  C   UNL     1     172.187 158.059 154.832  1.00  0.00     0.176 C 
ENDROOT
BRANCH   1   2
ATOM      2  C   UNL     1     172.565 157.495 156.232  1.00  0.00     0.171 C 
BRANCH   2   3
ATOM      3  C   UNL     1     172.986 156.015 156.170  1.00  0.00     0.190 C 
BRANCH   3   4
ATOM      4  O   UNL     1     174.274 155.892 155.632  1.00  0.00    -0.394 OA
ATOM      5  H   UNL     1     174.561 154.959 155.812  1.00  0.00     0.210 HD
ENDBRANCH   3   4
ENDBRANCH   2   3
BRANCH   2   6
ATOM      6  O   UNL     1     171.455 157.600 157.087  1.00  0.00    -0.388 OA
ATOM      7  H   UNL     1     171.779 158.003 157.935  1.00  0.00     0.211 HD
ENDBRANCH   2   6
ENDBRANCH   1   2
BRANCH   1   8
ATOM      8  C   UNL     1     173.224 159.071 154.260  1.00  0.00     0.171 C 
BRANCH   8   9
ATOM      9  C   UNL     1     172.943 159.484 152.805  1.00  0.00     0.190 C 
BRANCH   9  10
ATOM     10  O   UNL     1     173.469 158.536 151.918  1.00  0.00    -0.394 OA
ATOM     11  H   UNL     1     172.757 157.857 151.783  1.00  0.00     0.210 HD
ENDBRANCH   9  10
ENDBRANCH   8   9
BRANCH   8  12
ATOM     12  O   UNL     1     174.503 158.488 154.305  1.00  0.00    -0.388 OA
ATOM     13  H   UNL     1     174.951 158.691 153.442  1.00  0.00     0.211 HD
ENDBRANCH   8  12
ENDBRANCH   1   8
BRANCH   1  14
ATOM     14  O   UNL     1     172.001 157.013 153.909  1.00  0.00    -0.388 OA
ATOM     15  H   UNL     1     172.799 156.992 153.319  1.00  0.00     0.211 HD
ENDBRANCH   1  14
TORSDOF 9
ENDMDL
MODEL 6
REMARK VINA RESULT:    -3.182     15.703     16.569
REMARK INTER + INTRA:          -5.148
REMARK INTER:                  -4.491
REMARK INTRA:                  -0.656
REMARK UNBOUND:                -0.757
REMARK SMILES OC[C@H](O)C(O)[C@@H](O)CO
REMARK SMILES IDX 5 1 7 2 9 3 10 4 8 6 3 8 2 9 1 10 4 12 6 14
REMARK H PARENT 10 5 8 7 1 11 4 13 6 15
REMARK Flexibility Score: inf
ROOT
ATOM      1  C   UNL     1     171.706 158.335 154.700  1.00  0.00     0.176 C 
ENDROOT
BRANCH   1   2
ATOM      2  C   UNL     1     172.480 157.465 155.732  1.00  0.00     0.171 C 
BRANCH   2   3
ATOM      3  C   UNL     1     172.430 158.062 157.151  1.00  0.00     0.190 C 
BRANCH   3   4
ATOM      4  O   UNL     1     171.187 157.810 157.747  1.00  0.00    -0.394 OA
ATOM      5  H   UNL     1     170.551 158.457 157.344  1.00  0.00     0.210 HD
ENDBRANCH   3   4
ENDBRANCH   2   3
BRANCH   2   6
ATOM      6  O   UNL     1     173.826 157.374 155.342  1.00  0.00    -0.388 OA
ATOM      7  H   UNL     1     174.305 156.884 156.060  1.00  0.00     0.211 HD
ENDBRANCH   2   6
ENDBRANCH   1   2
BRANCH   1   8
ATOM      8  C   UNL     1     171.496 157.639 153.322  1.00  0.00     0.171 C 
BRANCH   8   9
ATOM      9  C   UNL     1     170.153 157.985 152.657  1.00  0.00     0.190 C 
BRANCH   9  10
ATOM     10  O   UNL     1     169.165 157.071 153.047  1.00  0.00    -0.394 OA
ATOM     11  H   UNL     1     169.569 156.517 153.765  1.00  0.00     0.210 HD
ENDBRANCH   9  10
ENDBRANCH   8   9
BRANCH   8  12
ATOM     12  O   UNL     1     171.544 156.246 153.503  1.00  0.00    -0.388 OA
ATOM     13  H   UNL     1     171.998 156.076 154.370  1.00  0.00     0.211 HD
ENDBRANCH   8  12
ENDBRANCH   1   8
BRANCH   1  14
ATOM     14  O   UNL     1     170.458 158.727 155.217  1.00  0.00    -0.388 OA
ATOM     15  H   UNL     1     169.896 157.911 155.287  1.00  0.00     0.211 HD
ENDBRANCH   1  14
TORSDOF 9
ENDMDL
MODEL 7
REMARK VINA RESULT:    -3.143     17.576     18.659
REMARK INTER + INTRA:          -5.094
REMARK INTER:                  -4.402
REMARK INTRA:                  -0.691
REMARK UNBOUND:                -0.757
REMARK SMILES OC[C@H](O)C(O)[C@@H](O)CO
REMARK SMILES IDX 5 1 7 2 9 3 10 4 8 6 3 8 2 9 1 10 4 12 6 14
REMARK H PARENT 10 5 8 7 1 11 4 13 6 15
REMARK Flexibility Score: inf
ROOT
ATOM      1  C   UNL     1     160.196 159.090 151.537  1.00  0.00     0.176 C 
ENDROOT
BRANCH   1   2
ATOM      2  C   UNL     1     159.643 160.170 150.564  1.00  0.00     0.171 C 
BRANCH   2   3
ATOM      3  C   UNL     1     160.178 159.993 149.131  1.00  0.00     0.190 C 
BRANCH   3   4
ATOM      4  O   UNL     1     159.329 159.160 148.389  1.00  0.00    -0.394 OA
ATOM      5  H   UNL     1     159.912 158.475 147.969  1.00  0.00     0.210 HD
ENDBRANCH   3   4
ENDBRANCH   2   3
BRANCH   2   6
ATOM      6  O   UNL     1     160.026 161.442 151.021  1.00  0.00    -0.388 OA
ATOM      7  H   UNL     1     159.903 162.072 150.263  1.00  0.00     0.211 HD
ENDBRANCH   2   6
ENDBRANCH   1   2
BRANCH   1   8
ATOM      8  C   UNL     1     159.760 159.294 153.019  1.00  0.00     0.171 C 
BRANCH   8   9
ATOM      9  C   UNL     1     159.672 157.983 153.820  1.00  0.00     0.190 C 
BRANCH   9  10
ATOM     10  O   UNL     1     158.400 157.411 153.682  1.00  0.00    -0.394 OA
ATOM     11  H   UNL     1     157.922 157.590 154.533  1.00  0.00     0.210 HD
ENDBRANCH   9  10
ENDBRANCH   8   9
BRANCH   8  12
ATOM     12  O   UNL     1     158.492 159.901 153.041  1.00  0.00    -0.388 OA
ATOM     13  H   UNL     1     158.010 159.608 152.223  1.00  0.00     0.211 HD
ENDBRANCH   8  12
ENDBRANCH   1   8
BRANCH   1  14
ATOM     14  O   UNL     1     159.820 157.801 151.115  1.00  0.00    -0.388 OA
ATOM     15  H   UNL     1     159.071 157.505 151.697  1.00  0.00     0.211 HD
ENDBRANCH   1  14
TORSDOF 9
ENDMDL
MODEL 8
REMARK VINA RESULT:    -3.136     18.172     19.210
REMARK INTER + INTRA:          -5.084
REMARK INTER:                  -4.386
REMARK INTRA:                  -0.698
REMARK UNBOUND:                -0.757
REMARK SMILES OC[C@H](O)C(O)[C@@H](O)CO
REMARK SMILES IDX 5 1 7 2 9 3 10 4 8 6 3 8 2 9 1 10 4 12 6 14
REMARK H PARENT 10 5 8 7 1 11 4 13 6 15
REMARK Flexibility Score: inf
ROOT
ATOM      1  C   UNL     1     160.591 158.241 154.525  1.00  0.00     0.176 C 
ENDROOT
BRANCH   1   2
ATOM      2  C   UNL     1     160.044 157.129 155.466  1.00  0.00     0.171 C 
BRANCH   2   3
ATOM      3  C   UNL     1     160.525 157.306 156.918  1.00  0.00     0.190 C 
BRANCH   3   4
ATOM      4  O   UNL     1     159.797 158.319 157.557  1.00  0.00    -0.394 OA
ATOM      5  H   UNL     1     159.013 158.504 156.976  1.00  0.00     0.210 HD
ENDBRANCH   3   4
ENDBRANCH   2   3
BRANCH   2   6
ATOM      6  O   UNL     1     160.487 155.878 155.007  1.00  0.00    -0.388 OA
ATOM      7  H   UNL     1     160.006 155.188 155.533  1.00  0.00     0.211 HD
ENDBRANCH   2   6
ENDBRANCH   1   2
BRANCH   1   8
ATOM      8  C   UNL     1     159.997 158.197 153.085  1.00  0.00     0.171 C 
BRANCH   8   9
ATOM      9  C   UNL     1     159.683 159.587 152.506  1.00  0.00     0.190 C 
BRANCH   9  10
ATOM     10  O   UNL     1     158.469 160.066 153.015  1.00  0.00    -0.394 OA
ATOM     11  H   UNL     1     157.995 160.485 152.250  1.00  0.00     0.210 HD
ENDBRANCH   9  10
ENDBRANCH   8   9
BRANCH   8  12
ATOM     12  O   UNL     1     158.801 157.458 153.109  1.00  0.00    -0.388 OA
ATOM     13  H   UNL     1     158.076 158.078 153.385  1.00  0.00     0.211 HD
ENDBRANCH   8  12
ENDBRANCH   1   8
BRANCH   1  14
ATOM     14  O   UNL     1     160.368 159.515 155.080  1.00  0.00    -0.388 OA
ATOM     15  H   UNL     1     161.238 159.843 155.430  1.00  0.00     0.211 HD
ENDBRANCH   1  14
TORSDOF 9
ENDMDL
MODEL 9
REMARK VINA RESULT:    -3.091      2.195      4.927
REMARK INTER + INTRA:          -5.023
REMARK INTER:                  -4.290
REMARK INTRA:                  -0.733
REMARK UNBOUND:                -0.757
REMARK SMILES OC[C@H](O)C(O)[C@@H](O)CO
REMARK SMILES IDX 5 1 7 2 9 3 10 4 8 6 3 8 2 9 1 10 4 12 6 14
REMARK H PARENT 10 5 8 7 1 11 4 13 6 15
REMARK Flexibility Score: inf
ROOT
ATOM      1  C   UNL     1     173.690 174.258 152.013  1.00  0.00     0.176 C 
ENDROOT
BRANCH   1   2
ATOM      2  C   UNL     1     172.376 173.869 152.750  1.00  0.00     0.171 C 
BRANCH   2   3
ATOM      3  C   UNL     1     171.122 174.225 151.931  1.00  0.00     0.190 C 
BRANCH   3   4
ATOM      4  O   UNL     1     171.266 175.485 151.334  1.00  0.00    -0.394 OA
ATOM      5  H   UNL     1     170.346 175.819 151.168  1.00  0.00     0.210 HD
ENDBRANCH   3   4
ENDBRANCH   2   3
BRANCH   2   6
ATOM      6  O   UNL     1     172.312 174.558 153.973  1.00  0.00    -0.388 OA
ATOM      7  H   UNL     1     171.869 173.954 154.624  1.00  0.00     0.211 HD
ENDBRANCH   2   6
ENDBRANCH   1   2
BRANCH   1   8
ATOM      8  C   UNL     1     174.985 173.831 152.767  1.00  0.00     0.171 C 
BRANCH   8   9
ATOM      9  C   UNL     1     174.948 172.381 153.281  1.00  0.00     0.190 C 
BRANCH   9  10
ATOM     10  O   UNL     1     175.104 171.482 152.218  1.00  0.00    -0.394 OA
ATOM     11  H   UNL     1     175.426 170.633 152.619  1.00  0.00     0.210 HD
ENDBRANCH   9  10
ENDBRANCH   8   9
BRANCH   8  12
ATOM     12  O   UNL     1     175.169 174.678 153.874  1.00  0.00    -0.388 OA
ATOM     13  H   UNL     1     175.250 174.100 154.678  1.00  0.00     0.211 HD
ENDBRANCH   8  12
ENDBRANCH   1   8
BRANCH   1  14
ATOM     14  O   UNL     1     173.710 173.718 150.714  1.00  0.00    -0.388 OA
ATOM     15  H   UNL     1     173.614 172.733 150.800  1.00  0.00     0.211 HD
ENDBRANCH   1  14
TORSDOF 9
ENDMDL
