MODEL 1
REMARK VINA RESULT:    -4.636      0.000      0.000
REMARK INTER + INTRA:          -6.351
REMARK INTER:                  -6.262
REMARK INTRA:                  -0.089
REMARK UNBOUND:                -0.089
REMARK SMILES [NH3+]CCCC[C@H]([NH3+])C(=O)[O-]
REMARK SMILES IDX 4 1 3 2 2 3 1 4 5 8 6 9 7 10 8 14 9 15 10 16
REMARK H PARENT 1 5 1 6 1 7 7 11 7 12 7 13
REMARK Flexibility Score: inf
ROOT
ATOM      1  C   UNL     1      -3.268 -17.709  20.539  1.00  0.00     0.012 C 
ENDROOT
BRANCH   1   2
ATOM      2  C   UNL     1      -3.344 -18.754  21.662  1.00  0.00     0.061 C 
BRANCH   2   3
ATOM      3  C   UNL     1      -4.753 -19.356  21.759  1.00  0.00     0.258 C 
BRANCH   3   4
ATOM      4  N   UNL     1      -5.077 -20.123  20.557  1.00  0.00    -0.358 N 
ATOM      5  H   UNL     1      -5.395 -21.084  20.818  1.00  0.00     0.344 HD
ATOM      6  H   UNL     1      -4.223 -20.200  19.959  1.00  0.00     0.344 HD
ATOM      7  H   UNL     1      -5.828 -19.637  20.013  1.00  0.00     0.344 HD
ENDBRANCH   3   4
ENDBRANCH   2   3
ENDBRANCH   1   2
BRANCH   1   8
ATOM      8  C   UNL     1      -2.121 -16.700  20.732  1.00  0.00     0.072 C 
BRANCH   8   9
ATOM      9  C   UNL     1      -1.559 -16.095  19.425  1.00  0.00     0.227 C 
BRANCH   9  10
ATOM     10  N   UNL     1      -0.231 -16.632  19.098  1.00  0.00    -0.350 N 
ATOM     11  H   UNL     1       0.190 -16.092  18.309  1.00  0.00     0.345 HD
ATOM     12  H   UNL     1      -0.294 -17.643  18.833  1.00  0.00     0.345 HD
ATOM     13  H   UNL     1       0.408 -16.534  19.921  1.00  0.00     0.345 HD
ENDBRANCH   9  10
BRANCH   9  14
ATOM     14  C   UNL     1      -1.489 -14.596  19.561  1.00  0.00     0.099 C 
ATOM     15  O   UNL     1      -2.507 -13.945  19.919  1.00  0.00    -0.544 OA
ATOM     16  O   UNL     1      -0.295 -13.926  19.328  1.00  0.00    -0.544 OA
ENDBRANCH   9  14
ENDBRANCH   8   9
ENDBRANCH   1   8
TORSDOF 7
ENDMDL
MODEL 2
REMARK VINA RESULT:    -4.408      1.624      1.857
REMARK INTER + INTRA:          -6.043
REMARK INTER:                  -5.919
REMARK INTRA:                  -0.124
REMARK UNBOUND:                -0.089
REMARK SMILES [NH3+]CCCC[C@H]([NH3+])C(=O)[O-]
REMARK SMILES IDX 4 1 3 2 2 3 1 4 5 8 6 9 7 10 8 14 9 15 10 16
REMARK H PARENT 1 5 1 6 1 7 7 11 7 12 7 13
REMARK Flexibility Score: inf
ROOT
ATOM      1  C   UNL     1      -3.437 -17.523  20.522  1.00  0.00     0.012 C 
ENDROOT
BRANCH   1   2
ATOM      2  C   UNL     1      -3.307 -18.713  21.484  1.00  0.00     0.061 C 
BRANCH   2   3
ATOM      3  C   UNL     1      -4.672 -19.371  21.734  1.00  0.00     0.258 C 
BRANCH   3   4
ATOM      4  N   UNL     1      -5.109 -20.128  20.562  1.00  0.00    -0.358 N 
ATOM      5  H   UNL     1      -5.771 -19.555  19.990  1.00  0.00     0.344 HD
ATOM      6  H   UNL     1      -5.599 -20.995  20.878  1.00  0.00     0.344 HD
ATOM      7  H   UNL     1      -4.282 -20.399  19.981  1.00  0.00     0.344 HD
ENDBRANCH   3   4
ENDBRANCH   2   3
ENDBRANCH   1   2
BRANCH   1   8
ATOM      8  C   UNL     1      -2.106 -16.784  20.297  1.00  0.00     0.072 C 
BRANCH   8   9
ATOM      9  C   UNL     1      -2.061 -15.340  20.850  1.00  0.00     0.227 C 
BRANCH   9  10
ATOM     10  N   UNL     1      -2.918 -15.178  22.033  1.00  0.00    -0.350 N 
ATOM     11  H   UNL     1      -2.332 -14.997  22.878  1.00  0.00     0.345 HD
ATOM     12  H   UNL     1      -3.499 -16.035  22.190  1.00  0.00     0.345 HD
ATOM     13  H   UNL     1      -3.551 -14.355  21.908  1.00  0.00     0.345 HD
ENDBRANCH   9  10
BRANCH   9  14
ATOM     14  C   UNL     1      -2.487 -14.381  19.770  1.00  0.00     0.099 C 
ATOM     15  O   UNL     1      -2.145 -14.581  18.574  1.00  0.00    -0.544 OA
ATOM     16  O   UNL     1      -3.289 -13.289  20.079  1.00  0.00    -0.544 OA
ENDBRANCH   9  14
ENDBRANCH   8   9
ENDBRANCH   1   8
TORSDOF 7
ENDMDL
MODEL 3
REMARK VINA RESULT:    -4.205      3.408      5.485
REMARK INTER + INTRA:          -5.769
REMARK INTER:                  -5.678
REMARK INTRA:                  -0.091
REMARK UNBOUND:                -0.089
REMARK SMILES [NH3+]CCCC[C@H]([NH3+])C(=O)[O-]
REMARK SMILES IDX 4 1 3 2 2 3 1 4 5 8 6 9 7 10 8 14 9 15 10 16
REMARK H PARENT 1 5 1 6 1 7 7 11 7 12 7 13
REMARK Flexibility Score: inf
ROOT
ATOM      1  C   UNL     1      -2.026 -15.926  20.667  1.00  0.00     0.012 C 
ENDROOT
BRANCH   1   2
ATOM      2  C   UNL     1      -2.043 -15.082  19.384  1.00  0.00     0.061 C 
BRANCH   2   3
ATOM      3  C   UNL     1      -0.845 -14.123  19.341  1.00  0.00     0.258 C 
BRANCH   3   4
ATOM      4  N   UNL     1       0.398 -14.849  19.083  1.00  0.00    -0.358 N 
ATOM      5  H   UNL     1       0.986 -14.872  19.947  1.00  0.00     0.344 HD
ATOM      6  H   UNL     1       0.928 -14.361  18.325  1.00  0.00     0.344 HD
ATOM      7  H   UNL     1       0.185 -15.825  18.772  1.00  0.00     0.344 HD
ENDBRANCH   3   4
ENDBRANCH   2   3
ENDBRANCH   1   2
BRANCH   1   8
ATOM      8  C   UNL     1      -2.674 -17.310  20.485  1.00  0.00     0.072 C 
BRANCH   8   9
ATOM      9  C   UNL     1      -3.833 -17.621  21.461  1.00  0.00     0.227 C 
BRANCH   9  10
ATOM     10  N   UNL     1      -3.637 -16.975  22.768  1.00  0.00    -0.350 N 
ATOM     11  H   UNL     1      -3.479 -17.699  23.505  1.00  0.00     0.345 HD
ATOM     12  H   UNL     1      -4.469 -16.394  23.023  1.00  0.00     0.345 HD
ATOM     13  H   UNL     1      -2.789 -16.364  22.742  1.00  0.00     0.345 HD
ENDBRANCH   9  10
BRANCH   9  14
ATOM     14  C   UNL     1      -3.949 -19.112  21.636  1.00  0.00     0.099 C 
ATOM     15  O   UNL     1      -3.176 -19.720  22.424  1.00  0.00    -0.544 OA
ATOM     16  O   UNL     1      -4.930 -19.823  20.957  1.00  0.00    -0.544 OA
ENDBRANCH   9  14
ENDBRANCH   8   9
ENDBRANCH   1   8
TORSDOF 7
ENDMDL
MODEL 4
REMARK VINA RESULT:    -3.953      1.969      2.286
REMARK INTER + INTRA:          -5.429
REMARK INTER:                  -5.336
REMARK INTRA:                  -0.093
REMARK UNBOUND:                -0.089
REMARK SMILES [NH3+]CCCC[C@H]([NH3+])C(=O)[O-]
REMARK SMILES IDX 4 1 3 2 2 3 1 4 5 8 6 9 7 10 8 14 9 15 10 16
REMARK H PARENT 1 5 1 6 1 7 7 11 7 12 7 13
REMARK Flexibility Score: inf
ROOT
ATOM      1  C   UNL     1      -1.974 -16.786  20.342  1.00  0.00     0.012 C 
ENDROOT
BRANCH   1   2
ATOM      2  C   UNL     1      -3.294 -17.563  20.459  1.00  0.00     0.061 C 
BRANCH   2   3
ATOM      3  C   UNL     1      -3.342 -18.374  21.763  1.00  0.00     0.258 C 
BRANCH   3   4
ATOM      4  N   UNL     1      -4.003 -17.617  22.825  1.00  0.00    -0.358 N 
ATOM      5  H   UNL     1      -3.528 -16.695  22.959  1.00  0.00     0.344 HD
ATOM      6  H   UNL     1      -3.948 -18.160  23.717  1.00  0.00     0.344 HD
ATOM      7  H   UNL     1      -5.010 -17.465  22.584  1.00  0.00     0.344 HD
ENDBRANCH   3   4
ENDBRANCH   2   3
ENDBRANCH   1   2
BRANCH   1   8
ATOM      8  C   UNL     1      -2.090 -15.329  20.826  1.00  0.00     0.072 C 
BRANCH   8   9
ATOM      9  C   UNL     1      -2.518 -14.315  19.739  1.00  0.00     0.227 C 
BRANCH   9  10
ATOM     10  N   UNL     1      -1.481 -14.143  18.711  1.00  0.00    -0.350 N 
ATOM     11  H   UNL     1      -1.222 -15.069  18.305  1.00  0.00     0.345 HD
ATOM     12  H   UNL     1      -0.629 -13.689  19.116  1.00  0.00     0.345 HD
ATOM     13  H   UNL     1      -1.846 -13.549  17.931  1.00  0.00     0.345 HD
ENDBRANCH   9  10
BRANCH   9  14
ATOM     14  C   UNL     1      -2.824 -12.991  20.389  1.00  0.00     0.099 C 
ATOM     15  O   UNL     1      -4.006 -12.556  20.414  1.00  0.00    -0.544 OA
ATOM     16  O   UNL     1      -1.812 -12.257  20.995  1.00  0.00    -0.544 OA
ENDBRANCH   9  14
ENDBRANCH   8   9
ENDBRANCH   1   8
TORSDOF 7
ENDMDL
MODEL 5
REMARK VINA RESULT:    -3.927      3.444      4.763
REMARK INTER + INTRA:          -5.395
REMARK INTER:                  -5.269
REMARK INTRA:                  -0.126
REMARK UNBOUND:                -0.089
REMARK SMILES [NH3+]CCCC[C@H]([NH3+])C(=O)[O-]
REMARK SMILES IDX 4 1 3 2 2 3 1 4 5 8 6 9 7 10 8 14 9 15 10 16
REMARK H PARENT 1 5 1 6 1 7 7 11 7 12 7 13
REMARK Flexibility Score: inf
ROOT
ATOM      1  C   UNL     1      -0.891 -14.091  19.241  1.00  0.00     0.012 C 
ENDROOT
BRANCH   1   2
ATOM      2  C   UNL     1      -1.720 -14.953  20.206  1.00  0.00     0.061 C 
BRANCH   2   3
ATOM      3  C   UNL     1      -1.421 -16.445  20.006  1.00  0.00     0.258 C 
BRANCH   3   4
ATOM      4  N   UNL     1      -0.281 -16.635  19.110  1.00  0.00    -0.358 N 
ATOM      5  H   UNL     1      -0.378 -17.536  18.590  1.00  0.00     0.344 HD
ATOM      6  H   UNL     1       0.598 -16.663  19.676  1.00  0.00     0.344 HD
ATOM      7  H   UNL     1      -0.221 -15.839  18.432  1.00  0.00     0.344 HD
ENDBRANCH   3   4
ENDBRANCH   2   3
ENDBRANCH   1   2
BRANCH   1   8
ATOM      8  C   UNL     1      -0.311 -12.831  19.909  1.00  0.00     0.072 C 
BRANCH   8   9
ATOM      9  C   UNL     1       1.015 -12.321  19.296  1.00  0.00     0.227 C 
BRANCH   9  10
ATOM     10  N   UNL     1       2.010 -13.396  19.171  1.00  0.00    -0.350 N 
ATOM     11  H   UNL     1       2.303 -13.499  18.174  1.00  0.00     0.345 HD
ATOM     12  H   UNL     1       1.621 -14.304  19.516  1.00  0.00     0.345 HD
ATOM     13  H   UNL     1       2.865 -13.158  19.726  1.00  0.00     0.345 HD
ENDBRANCH   9  10
BRANCH   9  14
ATOM     14  C   UNL     1       1.562 -11.209  20.151  1.00  0.00     0.099 C 
ATOM     15  O   UNL     1       2.246 -10.288  19.631  1.00  0.00    -0.544 OA
ATOM     16  O   UNL     1       1.286 -11.171  21.513  1.00  0.00    -0.544 OA
ENDBRANCH   9  14
ENDBRANCH   8   9
ENDBRANCH   1   8
TORSDOF 7
ENDMDL
MODEL 6
REMARK VINA RESULT:    -3.913      3.051      3.863
REMARK INTER + INTRA:          -5.375
REMARK INTER:                  -4.912
REMARK INTRA:                  -0.463
REMARK UNBOUND:                -0.089
REMARK SMILES [NH3+]CCCC[C@H]([NH3+])C(=O)[O-]
REMARK SMILES IDX 4 1 3 2 2 3 1 4 5 8 6 9 7 10 8 14 9 15 10 16
REMARK H PARENT 1 5 1 6 1 7 7 11 7 12 7 13
REMARK Flexibility Score: inf
ROOT
ATOM      1  C   UNL     1      -2.131 -15.048  19.371  1.00  0.00     0.012 C 
ENDROOT
BRANCH   1   2
ATOM      2  C   UNL     1      -1.649 -16.252  20.194  1.00  0.00     0.061 C 
BRANCH   2   3
ATOM      3  C   UNL     1      -2.805 -17.223  20.475  1.00  0.00     0.258 C 
BRANCH   3   4
ATOM      4  N   UNL     1      -3.296 -17.069  21.844  1.00  0.00    -0.358 N 
ATOM      5  H   UNL     1      -3.868 -17.900  22.117  1.00  0.00     0.344 HD
ATOM      6  H   UNL     1      -3.894 -16.213  21.898  1.00  0.00     0.344 HD
ATOM      7  H   UNL     1      -2.490 -16.961  22.504  1.00  0.00     0.344 HD
ENDBRANCH   3   4
ENDBRANCH   2   3
ENDBRANCH   1   2
BRANCH   1   8
ATOM      8  C   UNL     1      -1.951 -13.708  20.107  1.00  0.00     0.072 C 
BRANCH   8   9
ATOM      9  C   UNL     1      -3.265 -13.051  20.594  1.00  0.00     0.227 C 
BRANCH   9  10
ATOM     10  N   UNL     1      -3.412 -11.678  20.089  1.00  0.00    -0.350 N 
ATOM     11  H   UNL     1      -4.184 -11.191  20.596  1.00  0.00     0.345 HD
ATOM     12  H   UNL     1      -3.615 -11.680  19.062  1.00  0.00     0.345 HD
ATOM     13  H   UNL     1      -2.533 -11.137  20.262  1.00  0.00     0.345 HD
ENDBRANCH   9  10
BRANCH   9  14
ATOM     14  C   UNL     1      -3.292 -13.052  22.100  1.00  0.00     0.099 C 
ATOM     15  O   UNL     1      -3.400 -11.968  22.732  1.00  0.00    -0.544 OA
ATOM     16  O   UNL     1      -3.235 -14.250  22.801  1.00  0.00    -0.544 OA
ENDBRANCH   9  14
ENDBRANCH   8   9
ENDBRANCH   1   8
TORSDOF 7
ENDMDL
MODEL 7
REMARK VINA RESULT:    -3.853      8.651      9.563
REMARK INTER + INTRA:          -5.295
REMARK INTER:                  -5.149
REMARK INTRA:                  -0.146
REMARK UNBOUND:                -0.089
REMARK SMILES [NH3+]CCCC[C@H]([NH3+])C(=O)[O-]
REMARK SMILES IDX 4 1 3 2 2 3 1 4 5 8 6 9 7 10 8 14 9 15 10 16
REMARK H PARENT 1 5 1 6 1 7 7 11 7 12 7 13
REMARK Flexibility Score: inf
ROOT
ATOM      1  C   UNL     1       2.557 -11.750  17.855  1.00  0.00     0.012 C 
ENDROOT
BRANCH   1   2
ATOM      2  C   UNL     1       1.450 -10.746  18.213  1.00  0.00     0.061 C 
BRANCH   2   3
ATOM      3  C   UNL     1       1.810  -9.335  17.727  1.00  0.00     0.258 C 
BRANCH   3   4
ATOM      4  N   UNL     1       0.982  -8.949  16.585  1.00  0.00    -0.358 N 
ATOM      5  H   UNL     1       1.480  -8.235  16.006  1.00  0.00     0.344 HD
ATOM      6  H   UNL     1       0.088  -8.537  16.935  1.00  0.00     0.344 HD
ATOM      7  H   UNL     1       0.763  -9.789  16.001  1.00  0.00     0.344 HD
ENDBRANCH   3   4
ENDBRANCH   2   3
ENDBRANCH   1   2
BRANCH   1   8
ATOM      8  C   UNL     1       3.899 -11.072  17.527  1.00  0.00     0.072 C 
BRANCH   8   9
ATOM      9  C   UNL     1       4.741 -11.786  16.443  1.00  0.00     0.227 C 
BRANCH   9  10
ATOM     10  N   UNL     1       3.993 -12.871  15.793  1.00  0.00    -0.350 N 
ATOM     11  H   UNL     1       3.119 -13.074  16.328  1.00  0.00     0.345 HD
ATOM     12  H   UNL     1       4.574 -13.740  15.734  1.00  0.00     0.345 HD
ATOM     13  H   UNL     1       3.710 -12.584  14.828  1.00  0.00     0.345 HD
ENDBRANCH   9  10
BRANCH   9  14
ATOM     14  C   UNL     1       5.998 -12.331  17.069  1.00  0.00     0.099 C 
ATOM     15  O   UNL     1       6.866 -11.545  17.534  1.00  0.00    -0.544 OA
ATOM     16  O   UNL     1       6.193 -13.702  17.172  1.00  0.00    -0.544 OA
ENDBRANCH   9  14
ENDBRANCH   8   9
ENDBRANCH   1   8
TORSDOF 7
ENDMDL
MODEL 8
REMARK VINA RESULT:    -3.849      3.711      5.345
REMARK INTER + INTRA:          -5.288
REMARK INTER:                  -5.167
REMARK INTRA:                  -0.122
REMARK UNBOUND:                -0.089
REMARK SMILES [NH3+]CCCC[C@H]([NH3+])C(=O)[O-]
REMARK SMILES IDX 4 1 3 2 2 3 1 4 5 8 6 9 7 10 8 14 9 15 10 16
REMARK H PARENT 1 5 1 6 1 7 7 11 7 12 7 13
REMARK Flexibility Score: inf
ROOT
ATOM      1  C   UNL     1      -3.586 -12.881  20.162  1.00  0.00     0.012 C 
ENDROOT
BRANCH   1   2
ATOM      2  C   UNL     1      -3.424 -11.426  20.626  1.00  0.00     0.061 C 
BRANCH   2   3
ATOM      3  C   UNL     1      -4.772 -10.691  20.614  1.00  0.00     0.258 C 
BRANCH   3   4
ATOM      4  N   UNL     1      -5.575 -11.090  19.459  1.00  0.00    -0.358 N 
ATOM      5  H   UNL     1      -5.472 -10.390  18.691  1.00  0.00     0.344 HD
ATOM      6  H   UNL     1      -6.580 -11.138  19.742  1.00  0.00     0.344 HD
ATOM      7  H   UNL     1      -5.273 -12.034  19.122  1.00  0.00     0.344 HD
ENDBRANCH   3   4
ENDBRANCH   2   3
ENDBRANCH   1   2
BRANCH   1   8
ATOM      8  C   UNL     1      -2.540 -13.828  20.778  1.00  0.00     0.072 C 
BRANCH   8   9
ATOM      9  C   UNL     1      -1.575 -14.482  19.760  1.00  0.00     0.227 C 
BRANCH   9  10
ATOM     10  N   UNL     1      -1.941 -14.163  18.373  1.00  0.00    -0.350 N 
ATOM     11  H   UNL     1      -1.868 -13.133  18.211  1.00  0.00     0.345 HD
ATOM     12  H   UNL     1      -2.917 -14.479  18.164  1.00  0.00     0.345 HD
ATOM     13  H   UNL     1      -1.282 -14.632  17.711  1.00  0.00     0.345 HD
ENDBRANCH   9  10
BRANCH   9  14
ATOM     14  C   UNL     1      -1.578 -15.975  19.963  1.00  0.00     0.099 C 
ATOM     15  O   UNL     1      -0.699 -16.690  19.412  1.00  0.00    -0.544 OA
ATOM     16  O   UNL     1      -2.526 -16.569  20.786  1.00  0.00    -0.544 OA
ENDBRANCH   9  14
ENDBRANCH   8   9
ENDBRANCH   1   8
TORSDOF 7
ENDMDL
MODEL 9
REMARK VINA RESULT:    -3.849      7.320      8.908
REMARK INTER + INTRA:          -5.288
REMARK INTER:                  -5.086
REMARK INTRA:                  -0.202
REMARK UNBOUND:                -0.089
REMARK SMILES [NH3+]CCCC[C@H]([NH3+])C(=O)[O-]
REMARK SMILES IDX 4 1 3 2 2 3 1 4 5 8 6 9 7 10 8 14 9 15 10 16
REMARK H PARENT 1 5 1 6 1 7 7 11 7 12 7 13
REMARK Flexibility Score: inf
ROOT
ATOM      1  C   UNL     1       2.745 -10.658  17.543  1.00  0.00     0.012 C 
ENDROOT
BRANCH   1   2
ATOM      2  C   UNL     1       2.146 -10.934  18.930  1.00  0.00     0.061 C 
BRANCH   2   3
ATOM      3  C   UNL     1       1.259 -12.187  18.908  1.00  0.00     0.258 C 
BRANCH   3   4
ATOM      4  N   UNL     1       2.057 -13.395  19.112  1.00  0.00    -0.358 N 
ATOM      5  H   UNL     1       1.496 -14.242  18.865  1.00  0.00     0.344 HD
ATOM      6  H   UNL     1       2.335 -13.455  20.118  1.00  0.00     0.344 HD
ATOM      7  H   UNL     1       2.921 -13.358  18.523  1.00  0.00     0.344 HD
ENDBRANCH   3   4
ENDBRANCH   2   3
ENDBRANCH   1   2
BRANCH   1   8
ATOM      8  C   UNL     1       4.281 -10.751  17.523  1.00  0.00     0.072 C 
BRANCH   8   9
ATOM      9  C   UNL     1       4.860 -11.750  16.493  1.00  0.00     0.227 C 
BRANCH   9  10
ATOM     10  N   UNL     1       3.842 -12.699  16.018  1.00  0.00    -0.350 N 
ATOM     11  H   UNL     1       4.108 -13.673  16.285  1.00  0.00     0.345 HD
ATOM     12  H   UNL     1       3.737 -12.639  14.978  1.00  0.00     0.345 HD
ATOM     13  H   UNL     1       2.921 -12.490  16.466  1.00  0.00     0.345 HD
ENDBRANCH   9  10
BRANCH   9  14
ATOM     14  C   UNL     1       6.009 -12.497  17.118  1.00  0.00     0.099 C 
ATOM     15  O   UNL     1       6.081 -13.751  17.013  1.00  0.00    -0.544 OA
ATOM     16  O   UNL     1       7.014 -11.808  17.783  1.00  0.00    -0.544 OA
ENDBRANCH   9  14
ENDBRANCH   8   9
ENDBRANCH   1   8
TORSDOF 7
ENDMDL
