MODEL 1
REMARK VINA RESULT:    -3.110      0.000      0.000
REMARK INTER + INTRA:          -3.842
REMARK INTER:                  -3.656
REMARK INTRA:                  -0.187
REMARK UNBOUND:                -0.187
REMARK SMILES O=C([O-])CCC(=O)[O-]
REMARK SMILES IDX 4 1 2 2 1 3 3 4 5 5 6 6 7 7 8 8
REMARK H PARENT
REMARK Flexibility Score: inf
ROOT
ATOM      1  C   UNL     1      15.806  12.194 -13.867  1.00  0.00     0.059 C 
ENDROOT
BRANCH   1   2
ATOM      2  C   UNL     1      16.178  12.529 -15.280  1.00  0.00     0.042 C 
ATOM      3  O   UNL     1      15.425  13.258 -15.977  1.00  0.00    -0.550 OA
ATOM      4  O   UNL     1      17.335  12.002 -15.837  1.00  0.00    -0.550 OA
ENDBRANCH   1   2
BRANCH   1   5
ATOM      5  C   UNL     1      14.495  11.402 -13.801  1.00  0.00     0.059 C 
BRANCH   5   6
ATOM      6  C   UNL     1      14.600  10.099 -14.533  1.00  0.00     0.042 C 
ATOM      7  O   UNL     1      15.324   9.174 -14.079  1.00  0.00    -0.550 OA
ATOM      8  O   UNL     1      13.867   9.893 -15.695  1.00  0.00    -0.550 OA
ENDBRANCH   5   6
ENDBRANCH   1   5
TORSDOF 3
ENDMDL
MODEL 2
REMARK VINA RESULT:    -3.090      0.115      3.477
REMARK INTER + INTRA:          -3.819
REMARK INTER:                  -3.631
REMARK INTRA:                  -0.188
REMARK UNBOUND:                -0.187
REMARK SMILES O=C([O-])CCC(=O)[O-]
REMARK SMILES IDX 4 1 2 2 1 3 3 4 5 5 6 6 7 7 8 8
REMARK H PARENT
REMARK Flexibility Score: inf
ROOT
ATOM      1  C   UNL     1      14.466  11.347 -13.819  1.00  0.00     0.059 C 
ENDROOT
BRANCH   1   2
ATOM      2  C   UNL     1      14.656  10.038 -14.525  1.00  0.00     0.042 C 
ATOM      3  O   UNL     1      15.496   9.204 -14.097  1.00  0.00    -0.550 OA
ATOM      4  O   UNL     1      13.933   9.759 -15.677  1.00  0.00    -0.550 OA
ENDBRANCH   1   2
BRANCH   1   5
ATOM      5  C   UNL     1      15.743  12.195 -13.851  1.00  0.00     0.059 C 
BRANCH   5   6
ATOM      6  C   UNL     1      16.139  12.545 -15.253  1.00  0.00     0.042 C 
ATOM      7  O   UNL     1      15.369  13.232 -15.975  1.00  0.00    -0.550 OA
ATOM      8  O   UNL     1      17.374  12.147 -15.747  1.00  0.00    -0.550 OA
ENDBRANCH   5   6
ENDBRANCH   1   5
TORSDOF 3
ENDMDL
MODEL 3
REMARK VINA RESULT:    -3.090      0.169      3.166
REMARK INTER + INTRA:          -3.819
REMARK INTER:                  -3.628
REMARK INTRA:                  -0.191
REMARK UNBOUND:                -0.187
REMARK SMILES O=C([O-])CCC(=O)[O-]
REMARK SMILES IDX 4 1 2 2 1 3 3 4 5 5 6 6 7 7 8 8
REMARK H PARENT
REMARK Flexibility Score: inf
ROOT
ATOM      1  C   UNL     1      14.467  11.339 -13.833  1.00  0.00     0.059 C 
ENDROOT
BRANCH   1   2
ATOM      2  C   UNL     1      14.651  10.041 -14.560  1.00  0.00     0.042 C 
ATOM      3  O   UNL     1      13.968   9.787 -15.586  1.00  0.00    -0.550 OA
ATOM      4  O   UNL     1      15.549   9.098 -14.078  1.00  0.00    -0.550 OA
ENDBRANCH   1   2
BRANCH   1   5
ATOM      5  C   UNL     1      15.765  12.152 -13.791  1.00  0.00     0.059 C 
BRANCH   5   6
ATOM      6  C   UNL     1      16.246  12.496 -15.168  1.00  0.00     0.042 C 
ATOM      7  O   UNL     1      17.380  12.111 -15.557  1.00  0.00    -0.550 OA
ATOM      8  O   UNL     1      15.425  13.206 -16.035  1.00  0.00    -0.550 OA
ENDBRANCH   5   6
ENDBRANCH   1   5
TORSDOF 3
ENDMDL
MODEL 4
REMARK VINA RESULT:    -3.015      1.350      1.732
REMARK INTER + INTRA:          -3.731
REMARK INTER:                  -3.636
REMARK INTRA:                  -0.095
REMARK UNBOUND:                -0.187
REMARK SMILES O=C([O-])CCC(=O)[O-]
REMARK SMILES IDX 4 1 2 2 1 3 3 4 5 5 6 6 7 7 8 8
REMARK H PARENT
REMARK Flexibility Score: inf
ROOT
ATOM      1  C   UNL     1      14.657  11.342 -14.124  1.00  0.00     0.059 C 
ENDROOT
BRANCH   1   2
ATOM      2  C   UNL     1      15.637  12.309 -14.716  1.00  0.00     0.042 C 
ATOM      3  O   UNL     1      15.301  13.038 -15.686  1.00  0.00    -0.550 OA
ATOM      4  O   UNL     1      16.933  12.374 -14.222  1.00  0.00    -0.550 OA
ENDBRANCH   1   2
BRANCH   1   5
ATOM      5  C   UNL     1      14.561  10.056 -14.953  1.00  0.00     0.059 C 
BRANCH   5   6
ATOM      6  C   UNL     1      15.358   8.945 -14.341  1.00  0.00     0.042 C 
ATOM      7  O   UNL     1      14.788   7.880 -13.983  1.00  0.00    -0.550 OA
ATOM      8  O   UNL     1      16.735   9.069 -14.204  1.00  0.00    -0.550 OA
ENDBRANCH   5   6
ENDBRANCH   1   5
TORSDOF 3
ENDMDL
MODEL 5
REMARK VINA RESULT:    -2.947      1.398      3.651
REMARK INTER + INTRA:          -3.650
REMARK INTER:                  -3.551
REMARK INTRA:                  -0.099
REMARK UNBOUND:                -0.187
REMARK SMILES O=C([O-])CCC(=O)[O-]
REMARK SMILES IDX 4 1 2 2 1 3 3 4 5 5 6 6 7 7 8 8
REMARK H PARENT
REMARK Flexibility Score: inf
ROOT
ATOM      1  C   UNL     1      14.454  10.006 -15.003  1.00  0.00     0.059 C 
ENDROOT
BRANCH   1   2
ATOM      2  C   UNL     1      15.319   8.879 -14.524  1.00  0.00     0.042 C 
ATOM      3  O   UNL     1      14.802   7.875 -13.968  1.00  0.00    -0.550 OA
ATOM      4  O   UNL     1      16.699   8.958 -14.658  1.00  0.00    -0.550 OA
ENDBRANCH   1   2
BRANCH   1   5
ATOM      5  C   UNL     1      14.577  11.236 -14.096  1.00  0.00     0.059 C 
BRANCH   5   6
ATOM      6  C   UNL     1      15.587  12.210 -14.622  1.00  0.00     0.042 C 
ATOM      7  O   UNL     1      15.292  12.971 -15.581  1.00  0.00    -0.550 OA
ATOM      8  O   UNL     1      16.838  12.304 -14.027  1.00  0.00    -0.550 OA
ENDBRANCH   5   6
ENDBRANCH   1   5
TORSDOF 3
ENDMDL
MODEL 6
REMARK VINA RESULT:    -2.866      1.133      1.828
REMARK INTER + INTRA:          -3.556
REMARK INTER:                  -3.456
REMARK INTRA:                  -0.100
REMARK UNBOUND:                -0.187
REMARK SMILES O=C([O-])CCC(=O)[O-]
REMARK SMILES IDX 4 1 2 2 1 3 3 4 5 5 6 6 7 7 8 8
REMARK H PARENT
REMARK Flexibility Score: inf
ROOT
ATOM      1  C   UNL     1      15.612  12.383 -14.984  1.00  0.00     0.059 C 
ENDROOT
BRANCH   1   2
ATOM      2  C   UNL     1      17.086  12.388 -14.716  1.00  0.00     0.042 C 
ATOM      3  O   UNL     1      17.555  11.740 -13.743  1.00  0.00    -0.550 OA
ATOM      4  O   UNL     1      17.935  13.139 -15.517  1.00  0.00    -0.550 OA
ENDBRANCH   1   2
BRANCH   1   5
ATOM      5  C   UNL     1      14.863  11.468 -14.009  1.00  0.00     0.059 C 
BRANCH   5   6
ATOM      6  C   UNL     1      14.623  10.112 -14.598  1.00  0.00     0.042 C 
ATOM      7  O   UNL     1      13.865   9.980 -15.596  1.00  0.00    -0.550 OA
ATOM      8  O   UNL     1      15.267   9.000 -14.071  1.00  0.00    -0.550 OA
ENDBRANCH   5   6
ENDBRANCH   1   5
TORSDOF 3
ENDMDL
MODEL 7
REMARK VINA RESULT:    -2.764      8.765     10.045
REMARK INTER + INTRA:          -3.435
REMARK INTER:                  -3.330
REMARK INTRA:                  -0.104
REMARK UNBOUND:                -0.187
REMARK SMILES O=C([O-])CCC(=O)[O-]
REMARK SMILES IDX 4 1 2 2 1 3 3 4 5 5 6 6 7 7 8 8
REMARK H PARENT
REMARK Flexibility Score: inf
ROOT
ATOM      1  C   UNL     1       7.086  10.168 -13.046  1.00  0.00     0.059 C 
ENDROOT
BRANCH   1   2
ATOM      2  C   UNL     1       7.051   8.861 -12.312  1.00  0.00     0.042 C 
ATOM      3  O   UNL     1       7.808   7.918 -12.661  1.00  0.00    -0.550 OA
ATOM      4  O   UNL     1       6.153   8.675 -11.270  1.00  0.00    -0.550 OA
ENDBRANCH   1   2
BRANCH   1   5
ATOM      5  C   UNL     1       6.404  10.065 -14.415  1.00  0.00     0.059 C 
BRANCH   5   6
ATOM      6  C   UNL     1       5.133  10.858 -14.459  1.00  0.00     0.042 C 
ATOM      7  O   UNL     1       4.272  10.725 -13.549  1.00  0.00    -0.550 OA
ATOM      8  O   UNL     1       4.919  11.773 -15.482  1.00  0.00    -0.550 OA
ENDBRANCH   5   6
ENDBRANCH   1   5
TORSDOF 3
ENDMDL
MODEL 8
REMARK VINA RESULT:    -2.725      1.911      2.460
REMARK INTER + INTRA:          -3.390
REMARK INTER:                  -3.230
REMARK INTRA:                  -0.159
REMARK UNBOUND:                -0.187
REMARK SMILES O=C([O-])CCC(=O)[O-]
REMARK SMILES IDX 4 1 2 2 1 3 3 4 5 5 6 6 7 7 8 8
REMARK H PARENT
REMARK Flexibility Score: inf
ROOT
ATOM      1  C   UNL     1      16.901  12.336 -14.669  1.00  0.00     0.059 C 
ENDROOT
BRANCH   1   2
ATOM      2  C   UNL     1      17.987  11.413 -14.205  1.00  0.00     0.042 C 
ATOM      3  O   UNL     1      18.603  11.649 -13.132  1.00  0.00    -0.550 OA
ATOM      4  O   UNL     1      18.344  10.316 -14.977  1.00  0.00    -0.550 OA
ENDBRANCH   1   2
BRANCH   1   5
ATOM      5  C   UNL     1      15.727  11.562 -15.280  1.00  0.00     0.059 C 
BRANCH   5   6
ATOM      6  C   UNL     1      14.927  10.853 -14.231  1.00  0.00     0.042 C 
ATOM      7  O   UNL     1      14.178  11.505 -13.457  1.00  0.00    -0.550 OA
ATOM      8  O   UNL     1      14.979   9.468 -14.135  1.00  0.00    -0.550 OA
ENDBRANCH   5   6
ENDBRANCH   1   5
TORSDOF 3
ENDMDL
MODEL 9
REMARK VINA RESULT:    -2.711      1.891      3.499
REMARK INTER + INTRA:          -3.372
REMARK INTER:                  -3.218
REMARK INTRA:                  -0.155
REMARK UNBOUND:                -0.187
REMARK SMILES O=C([O-])CCC(=O)[O-]
REMARK SMILES IDX 4 1 2 2 1 3 3 4 5 5 6 6 7 7 8 8
REMARK H PARENT
REMARK Flexibility Score: inf
ROOT
ATOM      1  C   UNL     1      15.689  11.557 -15.366  1.00  0.00     0.059 C 
ENDROOT
BRANCH   1   2
ATOM      2  C   UNL     1      14.889  10.862 -14.306  1.00  0.00     0.042 C 
ATOM      3  O   UNL     1      14.216  11.532 -13.479  1.00  0.00    -0.550 OA
ATOM      4  O   UNL     1      14.921   9.478 -14.208  1.00  0.00    -0.550 OA
ENDBRANCH   1   2
BRANCH   1   5
ATOM      5  C   UNL     1      16.867  12.334 -14.766  1.00  0.00     0.059 C 
BRANCH   5   6
ATOM      6  C   UNL     1      17.963  11.415 -14.319  1.00  0.00     0.042 C 
ATOM      7  O   UNL     1      18.327  10.459 -15.053  1.00  0.00    -0.550 OA
ATOM      8  O   UNL     1      18.609  11.640 -13.109  1.00  0.00    -0.550 OA
ENDBRANCH   5   6
ENDBRANCH   1   5
TORSDOF 3
ENDMDL
