MODEL 1
REMARK VINA RESULT:    -2.841      0.000      0.000
REMARK INTER + INTRA:          -3.495
REMARK INTER:                  -3.340
REMARK INTRA:                  -0.155
REMARK UNBOUND:                -0.155
REMARK SMILES O=C([O-])CCC(=O)[O-]
REMARK SMILES IDX 4 1 2 2 1 3 3 4 5 5 6 6 7 7 8 8
REMARK H PARENT
REMARK Flexibility Score: inf
ROOT
ATOM      1  C   UNL     1     169.607 170.791 164.734  1.00  0.00     0.059 C 
ENDROOT
BRANCH   1   2
ATOM      2  C   UNL     1     170.853 171.463 164.242  1.00  0.00     0.042 C 
ATOM      3  O   UNL     1     170.777 172.478 163.502  1.00  0.00    -0.550 OA
ATOM      4  O   UNL     1     172.099 170.990 164.635  1.00  0.00    -0.550 OA
ENDBRANCH   1   2
BRANCH   1   5
ATOM      5  C   UNL     1     168.822 170.151 163.584  1.00  0.00     0.059 C 
BRANCH   5   6
ATOM      6  C   UNL     1     169.530 168.950 163.033  1.00  0.00     0.042 C 
ATOM      7  O   UNL     1     169.564 168.749 161.791  1.00  0.00    -0.550 OA
ATOM      8  O   UNL     1     170.187 168.077 163.890  1.00  0.00    -0.550 OA
ENDBRANCH   5   6
ENDBRANCH   1   5
TORSDOF 3
ENDMDL
MODEL 2
REMARK VINA RESULT:    -2.834      0.124      3.324
REMARK INTER + INTRA:          -3.487
REMARK INTER:                  -3.344
REMARK INTRA:                  -0.143
REMARK UNBOUND:                -0.155
REMARK SMILES O=C([O-])CCC(=O)[O-]
REMARK SMILES IDX 4 1 2 2 1 3 3 4 5 5 6 6 7 7 8 8
REMARK H PARENT
REMARK Flexibility Score: inf
ROOT
ATOM      1  C   UNL     1     168.873 170.138 163.510  1.00  0.00     0.059 C 
ENDROOT
BRANCH   1   2
ATOM      2  C   UNL     1     169.572 168.910 163.013  1.00  0.00     0.042 C 
ATOM      3  O   UNL     1     169.591 168.645 161.783  1.00  0.00    -0.550 OA
ATOM      4  O   UNL     1     170.237 168.079 163.906  1.00  0.00    -0.550 OA
ENDBRANCH   1   2
BRANCH   1   5
ATOM      5  C   UNL     1     169.577 170.730 164.736  1.00  0.00     0.059 C 
BRANCH   5   6
ATOM      6  C   UNL     1     170.806 171.497 164.350  1.00  0.00     0.042 C 
ATOM      7  O   UNL     1     170.704 172.585 163.726  1.00  0.00    -0.550 OA
ATOM      8  O   UNL     1     172.061 171.028 164.715  1.00  0.00    -0.550 OA
ENDBRANCH   5   6
ENDBRANCH   1   5
TORSDOF 3
ENDMDL
MODEL 3
REMARK VINA RESULT:    -2.834      1.149      3.758
REMARK INTER + INTRA:          -3.486
REMARK INTER:                  -3.377
REMARK INTRA:                  -0.108
REMARK UNBOUND:                -0.155
REMARK SMILES O=C([O-])CCC(=O)[O-]
REMARK SMILES IDX 4 1 2 2 1 3 3 4 5 5 6 6 7 7 8 8
REMARK H PARENT
REMARK Flexibility Score: inf
ROOT
ATOM      1  C   UNL     1     170.197 170.474 164.588  1.00  0.00     0.059 C 
ENDROOT
BRANCH   1   2
ATOM      2  C   UNL     1     169.924 169.367 163.615  1.00  0.00     0.042 C 
ATOM      3  O   UNL     1     170.247 168.183 163.895  1.00  0.00    -0.550 OA
ATOM      4  O   UNL     1     169.275 169.639 162.417  1.00  0.00    -0.550 OA
ENDBRANCH   1   2
BRANCH   1   5
ATOM      5  C   UNL     1     171.685 170.839 164.622  1.00  0.00     0.059 C 
BRANCH   5   6
ATOM      6  C   UNL     1     172.009 171.921 163.636  1.00  0.00     0.042 C 
ATOM      7  O   UNL     1     173.023 171.821 162.896  1.00  0.00    -0.550 OA
ATOM      8  O   UNL     1     171.169 173.019 163.507  1.00  0.00    -0.550 OA
ENDBRANCH   5   6
ENDBRANCH   1   5
TORSDOF 3
ENDMDL
MODEL 4
REMARK VINA RESULT:    -2.826      1.212      1.839
REMARK INTER + INTRA:          -3.477
REMARK INTER:                  -3.383
REMARK INTRA:                  -0.094
REMARK UNBOUND:                -0.155
REMARK SMILES O=C([O-])CCC(=O)[O-]
REMARK SMILES IDX 4 1 2 2 1 3 3 4 5 5 6 6 7 7 8 8
REMARK H PARENT
REMARK Flexibility Score: inf
ROOT
ATOM      1  C   UNL     1     171.740 170.816 164.601  1.00  0.00     0.059 C 
ENDROOT
BRANCH   1   2
ATOM      2  C   UNL     1     172.067 171.926 163.648  1.00  0.00     0.042 C 
ATOM      3  O   UNL     1     171.384 172.983 163.648  1.00  0.00    -0.550 OA
ATOM      4  O   UNL     1     173.152 171.807 162.788  1.00  0.00    -0.550 OA
ENDBRANCH   1   2
BRANCH   1   5
ATOM      5  C   UNL     1     170.243 170.491 164.593  1.00  0.00     0.059 C 
BRANCH   5   6
ATOM      6  C   UNL     1     169.925 169.376 163.643  1.00  0.00     0.042 C 
ATOM      7  O   UNL     1     170.211 168.187 163.943  1.00  0.00    -0.550 OA
ATOM      8  O   UNL     1     169.277 169.646 162.446  1.00  0.00    -0.550 OA
ENDBRANCH   5   6
ENDBRANCH   1   5
TORSDOF 3
ENDMDL
MODEL 5
REMARK VINA RESULT:    -2.783      1.639      3.663
REMARK INTER + INTRA:          -3.426
REMARK INTER:                  -3.306
REMARK INTRA:                  -0.120
REMARK UNBOUND:                -0.155
REMARK SMILES O=C([O-])CCC(=O)[O-]
REMARK SMILES IDX 4 1 2 2 1 3 3 4 5 5 6 6 7 7 8 8
REMARK H PARENT
REMARK Flexibility Score: inf
ROOT
ATOM      1  C   UNL     1     169.518 171.063 164.883  1.00  0.00     0.059 C 
ENDROOT
BRANCH   1   2
ATOM      2  C   UNL     1     170.775 170.347 164.495  1.00  0.00     0.042 C 
ATOM      3  O   UNL     1     171.898 170.876 164.709  1.00  0.00    -0.550 OA
ATOM      4  O   UNL     1     170.708 169.079 163.933  1.00  0.00    -0.550 OA
ENDBRANCH   1   2
BRANCH   1   5
ATOM      5  C   UNL     1     168.975 171.915 163.730  1.00  0.00     0.059 C 
BRANCH   5   6
ATOM      6  C   UNL     1     169.376 173.353 163.871  1.00  0.00     0.042 C 
ATOM      7  O   UNL     1     168.725 174.121 164.625  1.00  0.00    -0.550 OA
ATOM      8  O   UNL     1     170.492 173.832 163.198  1.00  0.00    -0.550 OA
ENDBRANCH   5   6
ENDBRANCH   1   5
TORSDOF 3
ENDMDL
MODEL 6
REMARK VINA RESULT:    -2.770      1.560      2.665
REMARK INTER + INTRA:          -3.412
REMARK INTER:                  -3.284
REMARK INTRA:                  -0.128
REMARK UNBOUND:                -0.155
REMARK SMILES O=C([O-])CCC(=O)[O-]
REMARK SMILES IDX 4 1 2 2 1 3 3 4 5 5 6 6 7 7 8 8
REMARK H PARENT
REMARK Flexibility Score: inf
ROOT
ATOM      1  C   UNL     1     168.933 171.769 163.928  1.00  0.00     0.059 C 
ENDROOT
BRANCH   1   2
ATOM      2  C   UNL     1     169.388 173.197 163.908  1.00  0.00     0.042 C 
ATOM      3  O   UNL     1     168.833 174.050 164.648  1.00  0.00    -0.550 OA
ATOM      4  O   UNL     1     170.453 173.575 163.100  1.00  0.00    -0.550 OA
ENDBRANCH   1   2
BRANCH   1   5
ATOM      5  C   UNL     1     169.631 170.971 165.035  1.00  0.00     0.059 C 
BRANCH   5   6
ATOM      6  C   UNL     1     170.893 170.331 164.541  1.00  0.00     0.042 C 
ATOM      7  O   UNL     1     172.005 170.888 164.737  1.00  0.00    -0.550 OA
ATOM      8  O   UNL     1     170.843 169.100 163.900  1.00  0.00    -0.550 OA
ENDBRANCH   5   6
ENDBRANCH   1   5
TORSDOF 3
ENDMDL
MODEL 7
REMARK VINA RESULT:    -2.730      2.051      2.903
REMARK INTER + INTRA:          -3.364
REMARK INTER:                  -3.251
REMARK INTRA:                  -0.113
REMARK UNBOUND:                -0.155
REMARK SMILES O=C([O-])CCC(=O)[O-]
REMARK SMILES IDX 4 1 2 2 1 3 3 4 5 5 6 6 7 7 8 8
REMARK H PARENT
REMARK Flexibility Score: inf
ROOT
ATOM      1  C   UNL     1     169.545 171.088 164.934  1.00  0.00     0.059 C 
ENDROOT
BRANCH   1   2
ATOM      2  C   UNL     1     170.800 170.389 164.509  1.00  0.00     0.042 C 
ATOM      3  O   UNL     1     170.740 169.272 163.932  1.00  0.00    -0.550 OA
ATOM      4  O   UNL     1     172.035 170.992 164.716  1.00  0.00    -0.550 OA
ENDBRANCH   1   2
BRANCH   1   5
ATOM      5  C   UNL     1     169.095 172.119 163.893  1.00  0.00     0.059 C 
BRANCH   5   6
ATOM      6  C   UNL     1     167.806 171.719 163.241  1.00  0.00     0.042 C 
ATOM      7  O   UNL     1     167.657 170.550 162.797  1.00  0.00    -0.550 OA
ATOM      8  O   UNL     1     166.757 172.625 163.160  1.00  0.00    -0.550 OA
ENDBRANCH   5   6
ENDBRANCH   1   5
TORSDOF 3
ENDMDL
MODEL 8
REMARK VINA RESULT:    -2.690      1.713      3.100
REMARK INTER + INTRA:          -3.317
REMARK INTER:                  -3.137
REMARK INTRA:                  -0.180
REMARK UNBOUND:                -0.155
REMARK SMILES O=C([O-])CCC(=O)[O-]
REMARK SMILES IDX 4 1 2 2 1 3 3 4 5 5 6 6 7 7 8 8
REMARK H PARENT
REMARK Flexibility Score: inf
ROOT
ATOM      1  C   UNL     1     169.146 169.222 163.033  1.00  0.00     0.059 C 
ENDROOT
BRANCH   1   2
ATOM      2  C   UNL     1     169.268 170.336 162.039  1.00  0.00     0.042 C 
ATOM      3  O   UNL     1     168.469 171.307 162.074  1.00  0.00    -0.550 OA
ATOM      4  O   UNL     1     170.290 170.319 161.098  1.00  0.00    -0.550 OA
ENDBRANCH   1   2
BRANCH   1   5
ATOM      5  C   UNL     1     170.419 169.075 163.874  1.00  0.00     0.059 C 
BRANCH   5   6
ATOM      6  C   UNL     1     170.713 170.322 164.651  1.00  0.00     0.042 C 
ATOM      7  O   UNL     1     171.845 170.867 164.571  1.00  0.00    -0.550 OA
ATOM      8  O   UNL     1     169.724 170.904 165.432  1.00  0.00    -0.550 OA
ENDBRANCH   5   6
ENDBRANCH   1   5
TORSDOF 3
ENDMDL
MODEL 9
REMARK VINA RESULT:    -2.678      1.665      2.226
REMARK INTER + INTRA:          -3.303
REMARK INTER:                  -3.142
REMARK INTRA:                  -0.161
REMARK UNBOUND:                -0.155
REMARK SMILES O=C([O-])CCC(=O)[O-]
REMARK SMILES IDX 4 1 2 2 1 3 3 4 5 5 6 6 7 7 8 8
REMARK H PARENT
REMARK Flexibility Score: inf
ROOT
ATOM      1  C   UNL     1     170.439 169.133 163.892  1.00  0.00     0.059 C 
ENDROOT
BRANCH   1   2
ATOM      2  C   UNL     1     170.702 170.403 164.641  1.00  0.00     0.042 C 
ATOM      3  O   UNL     1     171.861 170.893 164.672  1.00  0.00    -0.550 OA
ATOM      4  O   UNL     1     169.657 171.067 165.272  1.00  0.00    -0.550 OA
ENDBRANCH   1   2
BRANCH   1   5
ATOM      5  C   UNL     1     169.134 169.210 163.092  1.00  0.00     0.059 C 
BRANCH   5   6
ATOM      6  C   UNL     1     169.280 170.081 161.881  1.00  0.00     0.042 C 
ATOM      7  O   UNL     1     169.916 169.669 160.876  1.00  0.00    -0.550 OA
ATOM      8  O   UNL     1     168.678 171.332 161.849  1.00  0.00    -0.550 OA
ENDBRANCH   5   6
ENDBRANCH   1   5
TORSDOF 3
ENDMDL
