MODEL 1
REMARK VINA RESULT:    -4.759      0.000      0.000
REMARK INTER + INTRA:          -5.705
REMARK INTER:                  -6.706
REMARK INTRA:                   1.002
REMARK UNBOUND:                 1.002
REMARK SMILES CC1=CCC(=C(C)C)C(=O)CC(C)=CCC1
REMARK SMILES IDX 12 1 14 2 13 3 15 4 16 5 2 6 1 7 3 8 11 10 9 11 10 12 5 13
REMARK SMILES IDX 6 14 7 15 8 16 4 17
REMARK H PARENT
REMARK Flexibility Score: 60.00
ROOT
ATOM      1  C   UNL     1      34.310  20.244  16.534  1.00  0.00    -0.070 C 
ATOM      2  C   UNL     1      33.621  19.776  15.468  1.00  0.00    -0.027 C 
ATOM      3  C   UNL     1      35.071  21.536  16.375  1.00  0.00     0.039 C 
ENDROOT
BRANCH   2   4
ATOM      4  C   UNL     1      32.856  18.473  15.428  1.00  0.00     0.032 C 
BRANCH   4   5
ATOM      5  C   UNL     1      31.341  18.708  15.337  1.00  0.00     0.034 C 
BRANCH   5   6
ATOM      6  C   UNL     1      30.891  20.021  15.962  1.00  0.00    -0.077 C 
ATOM      7  C   UNL     1      30.470  21.151  15.056  1.00  0.00     0.039 C 
ATOM      8  C   UNL     1      30.866  20.241  17.296  1.00  0.00    -0.023 CG0
ATOM      9  G   UNL     1      31.184  19.214  18.360  1.00  0.00     0.000 G0
ENDBRANCH   5   6
ENDBRANCH   4   5
ENDBRANCH   2   4
BRANCH   1  10
ATOM     10  C   UNL     1      34.346  19.530  17.872  1.00  0.00     0.111 C 
BRANCH  10  11
ATOM     11  C   UNL     1      33.502  20.244  18.889  1.00  0.00     0.163 C 
ATOM     12  O   UNL     1      33.895  21.348  19.353  1.00  0.00    -0.294 OA
BRANCH  11  13
ATOM     13  C   UNL     1      32.225  19.664  19.378  1.00  0.00    -0.002 C 
ATOM     14  C   UNL     1      31.996  19.535  20.713  1.00  0.00    -0.069 C 
ATOM     15  C   UNL     1      30.683  18.996  21.230  1.00  0.00     0.039 C 
ATOM     16  C   UNL     1      33.062  19.888  21.727  1.00  0.00     0.039 C 
BRANCH  13  17
ATOM     17  C   UNL     1      31.178  19.214  18.365  1.00  0.00     0.066 CG0
ATOM     18  G   UNL     1      30.885  20.243  17.296  1.00  0.00     0.000 G0
ENDBRANCH  13  17
ENDBRANCH  11  13
ENDBRANCH  10  11
ENDBRANCH   1  10
TORSDOF 0
ENDMDL
MODEL 2
REMARK VINA RESULT:    -4.714      7.798     10.827
REMARK INTER + INTRA:          -5.642
REMARK INTER:                  -6.190
REMARK INTRA:                   0.548
REMARK UNBOUND:                 1.002
REMARK SMILES CC1=CCC(=C(C)C)C(=O)CC(C)=CCC1
REMARK SMILES IDX 12 1 14 2 13 3 15 4 16 5 2 6 1 7 3 8 11 10 9 11 10 12 5 13
REMARK SMILES IDX 6 14 7 15 8 16 4 17
REMARK H PARENT
REMARK Flexibility Score: 60.00
ROOT
ATOM      1  C   UNL     1      35.775  19.770  25.012  1.00  0.00    -0.070 C 
ATOM      2  C   UNL     1      36.232  18.530  25.306  1.00  0.00    -0.027 C 
ATOM      3  C   UNL     1      35.242  20.020  23.625  1.00  0.00     0.039 C 
ENDROOT
BRANCH   2   4
ATOM      4  C   UNL     1      36.854  18.119  26.621  1.00  0.00     0.032 C 
BRANCH   4   5
ATOM      5  C   UNL     1      38.264  17.543  26.424  1.00  0.00     0.034 C 
BRANCH   5   6
ATOM      6  C   UNL     1      39.255  18.544  25.849  1.00  0.00    -0.077 C 
ATOM      7  C   UNL     1      40.027  18.172  24.607  1.00  0.00     0.039 C 
ATOM      8  C   UNL     1      39.498  19.754  26.403  1.00  0.00    -0.023 CG0
ATOM      9  G   UNL     1      38.778  20.330  27.601  1.00  0.00     0.000 G0
ENDBRANCH   5   6
ENDBRANCH   4   5
ENDBRANCH   2   4
BRANCH   1  10
ATOM     10  C   UNL     1      35.776  20.909  26.015  1.00  0.00     0.111 C 
BRANCH  10  11
ATOM     11  C   UNL     1      37.116  21.588  26.062  1.00  0.00     0.163 C 
ATOM     12  O   UNL     1      37.551  22.169  25.031  1.00  0.00    -0.294 OA
BRANCH  11  13
ATOM     13  C   UNL     1      37.949  21.569  27.291  1.00  0.00    -0.002 C 
ATOM     14  C   UNL     1      37.958  22.641  28.130  1.00  0.00    -0.069 C 
ATOM     15  C   UNL     1      38.757  22.620  29.413  1.00  0.00     0.039 C 
ATOM     16  C   UNL     1      37.202  23.907  27.791  1.00  0.00     0.039 C 
BRANCH  13  17
ATOM     17  C   UNL     1      38.792  20.337  27.599  1.00  0.00     0.066 CG0
ATOM     18  G   UNL     1      39.490  19.760  26.389  1.00  0.00     0.000 G0
ENDBRANCH  13  17
ENDBRANCH  11  13
ENDBRANCH  10  11
ENDBRANCH   1  10
TORSDOF 0
ENDMDL
MODEL 3
REMARK VINA RESULT:    -4.706      8.619     10.688
REMARK INTER + INTRA:          -5.630
REMARK INTER:                  -6.500
REMARK INTRA:                   0.870
REMARK UNBOUND:                 1.002
REMARK SMILES CC1=CCC(=C(C)C)C(=O)CC(C)=CCC1
REMARK SMILES IDX 12 1 14 2 13 3 15 4 16 5 2 6 1 7 3 8 11 10 9 11 10 12 5 13
REMARK SMILES IDX 6 14 7 15 8 16 4 17
REMARK H PARENT
REMARK Flexibility Score: 60.00
ROOT
ATOM      1  C   UNL     1      35.504  19.479  24.963  1.00  0.00    -0.070 C 
ATOM      2  C   UNL     1      35.951  20.749  25.103  1.00  0.00    -0.027 C 
ATOM      3  C   UNL     1      34.082  19.179  25.361  1.00  0.00     0.039 C 
ENDROOT
BRANCH   2   4
ATOM      4  C   UNL     1      37.359  21.214  24.813  1.00  0.00     0.032 C 
BRANCH   4   5
ATOM      5  C   UNL     1      37.981  21.928  26.022  1.00  0.00     0.034 C 
BRANCH   5   6
ATOM      6  C   UNL     1      38.385  20.982  27.144  1.00  0.00    -0.077 C 
ATOM      7  C   UNL     1      37.972  21.311  28.557  1.00  0.00     0.039 C 
ATOM      8  C   UNL     1      39.117  19.862  26.946  1.00  0.00    -0.023 CG0
ATOM      9  G   UNL     1      39.562  19.332  25.602  1.00  0.00     0.000 G0
ENDBRANCH   5   6
ENDBRANCH   4   5
ENDBRANCH   2   4
BRANCH   1  10
ATOM     10  C   UNL     1      36.369  18.355  24.425  1.00  0.00     0.111 C 
BRANCH  10  11
ATOM     11  C   UNL     1      37.377  17.910  25.446  1.00  0.00     0.163 C 
ATOM     12  O   UNL     1      36.978  17.441  26.546  1.00  0.00    -0.294 OA
BRANCH  11  13
ATOM     13  C   UNL     1      38.836  18.034  25.196  1.00  0.00    -0.002 C 
ATOM     14  C   UNL     1      39.523  17.008  24.622  1.00  0.00    -0.069 C 
ATOM     15  C   UNL     1      40.996  17.135  24.311  1.00  0.00     0.039 C 
ATOM     16  C   UNL     1      38.848  15.690  24.313  1.00  0.00     0.039 C 
BRANCH  13  17
ATOM     17  C   UNL     1      39.551  19.321  25.590  1.00  0.00     0.066 CG0
ATOM     18  G   UNL     1      39.127  19.865  26.935  1.00  0.00     0.000 G0
ENDBRANCH  13  17
ENDBRANCH  11  13
ENDBRANCH  10  11
ENDBRANCH   1  10
TORSDOF 0
ENDMDL
MODEL 4
REMARK VINA RESULT:    -4.407      8.756     11.221
REMARK INTER + INTRA:          -5.208
REMARK INTER:                  -5.766
REMARK INTRA:                   0.558
REMARK UNBOUND:                 1.002
REMARK SMILES CC1=CCC(=C(C)C)C(=O)CC(C)=CCC1
REMARK SMILES IDX 12 1 14 2 13 3 15 4 16 5 2 6 1 7 3 8 11 10 9 11 10 12 5 13
REMARK SMILES IDX 6 14 7 15 8 16 4 17
REMARK H PARENT
REMARK Flexibility Score: 60.00
ROOT
ATOM      1  C   UNL     1      39.759  16.245  24.716  1.00  0.00    -0.070 C 
ATOM      2  C   UNL     1      40.911  16.940  24.572  1.00  0.00    -0.027 C 
ATOM      3  C   UNL     1      39.850  14.794  25.115  1.00  0.00     0.039 C 
ENDROOT
BRANCH   2   4
ATOM      4  C   UNL     1      41.010  18.379  24.120  1.00  0.00     0.032 C 
BRANCH   4   5
ATOM      5  C   UNL     1      41.720  19.252  25.165  1.00  0.00     0.034 C 
BRANCH   5   6
ATOM      6  C   UNL     1      41.182  19.070  26.576  1.00  0.00    -0.077 C 
ATOM      7  C   UNL     1      42.097  18.509  27.637  1.00  0.00     0.039 C 
ATOM      8  C   UNL     1      39.912  19.368  26.934  1.00  0.00    -0.023 CG0
ATOM      9  G   UNL     1      38.874  20.000  26.035  1.00  0.00     0.000 G0
ENDBRANCH   5   6
ENDBRANCH   4   5
ENDBRANCH   2   4
BRANCH   1  10
ATOM     10  C   UNL     1      38.390  16.862  24.498  1.00  0.00     0.111 C 
BRANCH  10  11
ATOM     11  C   UNL     1      37.932  17.610  25.718  1.00  0.00     0.163 C 
ATOM     12  O   UNL     1      37.710  16.976  26.785  1.00  0.00    -0.294 OA
BRANCH  11  13
ATOM     13  C   UNL     1      37.715  19.079  25.687  1.00  0.00    -0.002 C 
ATOM     14  C   UNL     1      36.503  19.585  25.330  1.00  0.00    -0.069 C 
ATOM     15  C   UNL     1      36.246  21.075  25.343  1.00  0.00     0.039 C 
ATOM     16  C   UNL     1      35.382  18.681  24.869  1.00  0.00     0.039 C 
BRANCH  13  17
ATOM     17  C   UNL     1      38.865  20.009  26.057  1.00  0.00     0.066 CG0
ATOM     18  G   UNL     1      39.911  19.361  26.936  1.00  0.00     0.000 G0
ENDBRANCH  13  17
ENDBRANCH  11  13
ENDBRANCH  10  11
ENDBRANCH   1  10
TORSDOF 0
ENDMDL
MODEL 5
REMARK VINA RESULT:    -4.307      9.648     11.207
REMARK INTER + INTRA:          -5.067
REMARK INTER:                  -5.617
REMARK INTRA:                   0.550
REMARK UNBOUND:                 1.002
REMARK SMILES CC1=CCC(=C(C)C)C(=O)CC(C)=CCC1
REMARK SMILES IDX 12 1 14 2 13 3 15 4 16 5 2 6 1 7 3 8 11 10 9 11 10 12 5 13
REMARK SMILES IDX 6 14 7 15 8 16 4 17
REMARK H PARENT
REMARK Flexibility Score: 60.00
ROOT
ATOM      1  C   UNL     1      38.573  16.653  25.206  1.00  0.00    -0.070 C 
ATOM      2  C   UNL     1      37.456  17.376  24.956  1.00  0.00    -0.027 C 
ATOM      3  C   UNL     1      39.052  15.697  24.145  1.00  0.00     0.039 C 
ENDROOT
BRANCH   2   4
ATOM      4  C   UNL     1      36.801  18.333  25.926  1.00  0.00     0.032 C 
BRANCH   4   5
ATOM      5  C   UNL     1      36.900  19.787  25.441  1.00  0.00     0.034 C 
BRANCH   5   6
ATOM      6  C   UNL     1      37.983  20.589  26.146  1.00  0.00    -0.077 C 
ATOM      7  C   UNL     1      37.602  21.445  27.328  1.00  0.00     0.039 C 
ATOM      8  C   UNL     1      39.279  20.594  25.757  1.00  0.00    -0.023 CG0
ATOM      9  G   UNL     1      39.863  19.753  24.646  1.00  0.00     0.000 G0
ENDBRANCH   5   6
ENDBRANCH   4   5
ENDBRANCH   2   4
BRANCH   1  10
ATOM     10  C   UNL     1      39.356  16.768  26.501  1.00  0.00     0.111 C 
BRANCH  10  11
ATOM     11  C   UNL     1      40.321  17.919  26.449  1.00  0.00     0.163 C 
ATOM     12  O   UNL     1      40.806  18.367  27.523  1.00  0.00    -0.294 OA
BRANCH  11  13
ATOM     13  C   UNL     1      40.697  18.554  25.160  1.00  0.00    -0.002 C 
ATOM     14  C   UNL     1      41.754  18.081  24.445  1.00  0.00    -0.069 C 
ATOM     15  C   UNL     1      42.119  18.680  23.106  1.00  0.00     0.039 C 
ATOM     16  C   UNL     1      42.626  16.967  24.980  1.00  0.00     0.039 C 
BRANCH  13  17
ATOM     17  C   UNL     1      39.886  19.741  24.652  1.00  0.00     0.066 CG0
ATOM     18  G   UNL     1      39.278  20.578  25.754  1.00  0.00     0.000 G0
ENDBRANCH  13  17
ENDBRANCH  11  13
ENDBRANCH  10  11
ENDBRANCH   1  10
TORSDOF 0
ENDMDL
MODEL 6
REMARK VINA RESULT:    -4.232      8.764     11.313
REMARK INTER + INTRA:          -4.962
REMARK INTER:                  -5.353
REMARK INTRA:                   0.392
REMARK UNBOUND:                 1.002
REMARK SMILES CC1=CCC(=C(C)C)C(=O)CC(C)=CCC1
REMARK SMILES IDX 12 1 14 2 13 3 15 4 16 5 2 6 1 7 3 8 11 10 9 11 10 12 5 13
REMARK SMILES IDX 6 14 7 15 8 16 4 17
REMARK H PARENT
REMARK Flexibility Score: 60.00
ROOT
ATOM      1  C   UNL     1      40.060  20.459  27.695  1.00  0.00    -0.070 C 
ATOM      2  C   UNL     1      38.904  21.079  28.029  1.00  0.00    -0.027 C 
ATOM      3  C   UNL     1      41.220  20.558  28.651  1.00  0.00     0.039 C 
ENDROOT
BRANCH   2   4
ATOM      4  C   UNL     1      37.664  21.136  27.167  1.00  0.00     0.032 C 
BRANCH   4   5
ATOM      5  C   UNL     1      36.856  19.832  27.249  1.00  0.00     0.034 C 
BRANCH   5   6
ATOM      6  C   UNL     1      36.572  19.207  25.891  1.00  0.00    -0.077 C 
ATOM      7  C   UNL     1      35.711  19.962  24.909  1.00  0.00     0.039 C 
ATOM      8  C   UNL     1      37.035  17.992  25.518  1.00  0.00    -0.023 CG0
ATOM      9  G   UNL     1      37.964  17.121  26.333  1.00  0.00     0.000 G0
ENDBRANCH   5   6
ENDBRANCH   4   5
ENDBRANCH   2   4
BRANCH   1  10
ATOM     10  C   UNL     1      40.232  19.673  26.409  1.00  0.00     0.111 C 
BRANCH  10  11
ATOM     11  C   UNL     1      40.293  18.196  26.681  1.00  0.00     0.163 C 
ATOM     12  O   UNL     1      41.106  17.759  27.540  1.00  0.00    -0.294 OA
BRANCH  11  13
ATOM     13  C   UNL     1      39.432  17.239  25.943  1.00  0.00    -0.002 C 
ATOM     14  C   UNL     1      39.948  16.493  24.928  1.00  0.00    -0.069 C 
ATOM     15  C   UNL     1      39.101  15.475  24.199  1.00  0.00     0.039 C 
ATOM     16  C   UNL     1      41.375  16.683  24.465  1.00  0.00     0.039 C 
BRANCH  13  17
ATOM     17  C   UNL     1      37.964  17.104  26.335  1.00  0.00     0.066 CG0
ATOM     18  G   UNL     1      37.036  17.979  25.525  1.00  0.00     0.000 G0
ENDBRANCH  13  17
ENDBRANCH  11  13
ENDBRANCH  10  11
ENDBRANCH   1  10
TORSDOF 0
ENDMDL
MODEL 7
REMARK VINA RESULT:    -4.218      9.415     12.469
REMARK INTER + INTRA:          -4.942
REMARK INTER:                  -5.275
REMARK INTRA:                   0.333
REMARK UNBOUND:                 1.002
REMARK SMILES CC1=CCC(=C(C)C)C(=O)CC(C)=CCC1
REMARK SMILES IDX 12 1 14 2 13 3 15 4 16 5 2 6 1 7 3 8 11 10 9 11 10 12 5 13
REMARK SMILES IDX 6 14 7 15 8 16 4 17
REMARK H PARENT
REMARK Flexibility Score: 60.00
ROOT
ATOM      1  C   UNL     1      37.231  20.441  25.435  1.00  0.00    -0.070 C 
ATOM      2  C   UNL     1      36.581  21.500  25.972  1.00  0.00    -0.027 C 
ATOM      3  C   UNL     1      36.409  19.362  24.778  1.00  0.00     0.039 C 
ENDROOT
BRANCH   2   4
ATOM      4  C   UNL     1      37.237  22.639  26.719  1.00  0.00     0.032 C 
BRANCH   4   5
ATOM      5  C   UNL     1      37.589  22.243  28.160  1.00  0.00     0.034 C 
BRANCH   5   6
ATOM      6  C   UNL     1      38.949  22.751  28.615  1.00  0.00    -0.077 C 
ATOM      7  C   UNL     1      39.159  24.237  28.761  1.00  0.00     0.039 C 
ATOM      8  C   UNL     1      39.997  21.938  28.881  1.00  0.00    -0.023 CG0
ATOM      9  G   UNL     1      39.962  20.427  28.859  1.00  0.00     0.000 G0
ENDBRANCH   5   6
ENDBRANCH   4   5
ENDBRANCH   2   4
BRANCH   1  10
ATOM     10  C   UNL     1      38.741  20.299  25.464  1.00  0.00     0.111 C 
BRANCH  10  11
ATOM     11  C   UNL     1      39.179  19.410  26.594  1.00  0.00     0.163 C 
ATOM     12  O   UNL     1      38.581  18.318  26.789  1.00  0.00    -0.294 OA
BRANCH  11  13
ATOM     13  C   UNL     1      40.289  19.803  27.500  1.00  0.00    -0.002 C 
ATOM     14  C   UNL     1      41.583  19.609  27.125  1.00  0.00    -0.069 C 
ATOM     15  C   UNL     1      42.725  20.051  28.010  1.00  0.00     0.039 C 
ATOM     16  C   UNL     1      41.925  18.910  25.828  1.00  0.00     0.039 C 
BRANCH  13  17
ATOM     17  C   UNL     1      39.958  20.422  28.853  1.00  0.00     0.066 CG0
ATOM     18  G   UNL     1      40.012  21.933  28.860  1.00  0.00     0.000 G0
ENDBRANCH  13  17
ENDBRANCH  11  13
ENDBRANCH  10  11
ENDBRANCH   1  10
TORSDOF 0
ENDMDL
MODEL 8
REMARK VINA RESULT:    -4.203      9.672     12.003
REMARK INTER + INTRA:          -4.922
REMARK INTER:                  -5.393
REMARK INTRA:                   0.472
REMARK UNBOUND:                 1.002
REMARK SMILES CC1=CCC(=C(C)C)C(=O)CC(C)=CCC1
REMARK SMILES IDX 12 1 14 2 13 3 15 4 16 5 2 6 1 7 3 8 11 10 9 11 10 12 5 13
REMARK SMILES IDX 6 14 7 15 8 16 4 17
REMARK H PARENT
REMARK Flexibility Score: 60.00
ROOT
ATOM      1  C   UNL     1      37.515  22.932  27.344  1.00  0.00    -0.070 C 
ATOM      2  C   UNL     1      37.267  22.396  26.126  1.00  0.00    -0.027 C 
ATOM      3  C   UNL     1      36.425  23.741  27.998  1.00  0.00     0.039 C 
ENDROOT
BRANCH   2   4
ATOM      4  C   UNL     1      38.261  21.611  25.300  1.00  0.00     0.032 C 
BRANCH   4   5
ATOM      5  C   UNL     1      37.718  20.223  24.929  1.00  0.00     0.034 C 
BRANCH   5   6
ATOM      6  C   UNL     1      37.212  19.429  26.125  1.00  0.00    -0.077 C 
ATOM      7  C   UNL     1      35.777  18.962  26.133  1.00  0.00     0.039 C 
ATOM      8  C   UNL     1      37.977  19.132  27.200  1.00  0.00    -0.023 CG0
ATOM      9  G   UNL     1      39.447  19.453  27.344  1.00  0.00     0.000 G0
ENDBRANCH   5   6
ENDBRANCH   4   5
ENDBRANCH   2   4
BRANCH   1  10
ATOM     10  C   UNL     1      38.833  22.750  28.073  1.00  0.00     0.111 C 
BRANCH  10  11
ATOM     11  C   UNL     1      38.840  21.476  28.870  1.00  0.00     0.163 C 
ATOM     12  O   UNL     1      38.056  21.356  29.849  1.00  0.00    -0.294 OA
BRANCH  11  13
ATOM     13  C   UNL     1      39.769  20.365  28.542  1.00  0.00    -0.002 C 
ATOM     14  C   UNL     1      40.887  20.161  29.291  1.00  0.00    -0.069 C 
ATOM     15  C   UNL     1      41.816  19.004  29.005  1.00  0.00     0.039 C 
ATOM     16  C   UNL     1      41.262  21.107  30.410  1.00  0.00     0.039 C 
BRANCH  13  17
ATOM     17  C   UNL     1      39.454  19.459  27.356  1.00  0.00     0.066 CG0
ATOM     18  G   UNL     1      37.984  19.142  27.206  1.00  0.00     0.000 G0
ENDBRANCH  13  17
ENDBRANCH  11  13
ENDBRANCH  10  11
ENDBRANCH   1  10
TORSDOF 0
ENDMDL
MODEL 9
REMARK VINA RESULT:    -4.091     10.268     12.177
REMARK INTER + INTRA:          -4.763
REMARK INTER:                  -5.157
REMARK INTRA:                   0.394
REMARK UNBOUND:                 1.002
REMARK SMILES CC1=CCC(=C(C)C)C(=O)CC(C)=CCC1
REMARK SMILES IDX 12 1 14 2 13 3 15 4 16 5 2 6 1 7 3 8 11 10 9 11 10 12 5 13
REMARK SMILES IDX 6 14 7 15 8 16 4 17
REMARK H PARENT
REMARK Flexibility Score: 60.00
ROOT
ATOM      1  C   UNL     1      38.655  17.025  24.783  1.00  0.00    -0.070 C 
ATOM      2  C   UNL     1      37.475  17.465  25.280  1.00  0.00    -0.027 C 
ATOM      3  C   UNL     1      38.754  15.581  24.363  1.00  0.00     0.039 C 
ENDROOT
BRANCH   2   4
ATOM      4  C   UNL     1      37.215  18.858  25.804  1.00  0.00     0.032 C 
BRANCH   4   5
ATOM      5  C   UNL     1      37.871  19.079  27.175  1.00  0.00     0.034 C 
BRANCH   5   6
ATOM      6  C   UNL     1      38.669  20.372  27.265  1.00  0.00    -0.077 C 
ATOM      7  C   UNL     1      37.944  21.686  27.118  1.00  0.00     0.039 C 
ATOM      8  C   UNL     1      40.008  20.409  27.452  1.00  0.00    -0.023 CG0
ATOM      9  G   UNL     1      40.894  19.206  27.688  1.00  0.00     0.000 G0
ENDBRANCH   5   6
ENDBRANCH   4   5
ENDBRANCH   2   4
BRANCH   1  10
ATOM     10  C   UNL     1      39.871  17.920  24.631  1.00  0.00     0.111 C 
BRANCH  10  11
ATOM     11  C   UNL     1      40.909  17.604  25.670  1.00  0.00     0.163 C 
ATOM     12  O   UNL     1      41.203  16.401  25.905  1.00  0.00    -0.294 OA
BRANCH  11  13
ATOM     13  C   UNL     1      41.580  18.681  26.443  1.00  0.00    -0.002 C 
ATOM     14  C   UNL     1      42.779  19.176  26.030  1.00  0.00    -0.069 C 
ATOM     15  C   UNL     1      43.451  20.307  26.773  1.00  0.00     0.039 C 
ATOM     16  C   UNL     1      43.501  18.587  24.840  1.00  0.00     0.039 C 
BRANCH  13  17
ATOM     17  C   UNL     1      40.909  19.220  27.701  1.00  0.00     0.066 CG0
ATOM     18  G   UNL     1      40.016  20.413  27.450  1.00  0.00     0.000 G0
ENDBRANCH  13  17
ENDBRANCH  11  13
ENDBRANCH  10  11
ENDBRANCH   1  10
TORSDOF 0
ENDMDL
