MODEL 1
REMARK VINA RESULT:    -4.628      0.000      0.000
REMARK INTER + INTRA:          -9.701
REMARK INTER:                  -8.687
REMARK INTRA:                  -1.014
REMARK UNBOUND:                -1.014
REMARK SMILES O=C([O-])CCCCCCCCCCCCCCC(=O)[O-]
REMARK SMILES IDX 10 1 9 2 8 3 7 4 6 5 5 6 4 7 2 8 1 9 3 10 11 11 12 12 13 13
REMARK SMILES IDX 14 14 15 15 16 16 17 17 18 18 19 19 20 20
REMARK H PARENT
REMARK Flexibility Score: inf
ROOT
ATOM      1  C   UNL     1      -9.477   4.583  -9.336  1.00  0.00     0.000 C 
ENDROOT
BRANCH   1   2
ATOM      2  C   UNL     1      -9.563   5.205 -10.742  1.00  0.00     0.000 C 
BRANCH   2   3
ATOM      3  C   UNL     1      -8.306   5.024 -11.614  1.00  0.00     0.000 C 
BRANCH   3   4
ATOM      4  C   UNL     1      -8.622   4.475 -13.012  1.00  0.00     0.000 C 
BRANCH   4   5
ATOM      5  C   UNL     1      -8.081   5.412 -14.103  1.00  0.00     0.000 C 
BRANCH   5   6
ATOM      6  C   UNL     1      -6.566   5.261 -14.314  1.00  0.00     0.006 C 
BRANCH   6   7
ATOM      7  C   UNL     1      -6.109   3.797 -14.291  1.00  0.00     0.053 C 
BRANCH   7   8
ATOM      8  C   UNL     1      -5.459   3.433 -15.589  1.00  0.00     0.041 C 
ATOM      9  O   UNL     1      -4.583   2.530 -15.628  1.00  0.00    -0.550 OA
ATOM     10  O   UNL     1      -5.788   4.124 -16.749  1.00  0.00    -0.550 OA
ENDBRANCH   7   8
ENDBRANCH   6   7
ENDBRANCH   5   6
ENDBRANCH   4   5
ENDBRANCH   3   4
ENDBRANCH   2   3
ENDBRANCH   1   2
BRANCH   1  11
ATOM     11  C   UNL     1      -9.023   5.544  -8.221  1.00  0.00     0.000 C 
BRANCH  11  12
ATOM     12  C   UNL     1      -7.596   5.267  -7.700  1.00  0.00     0.000 C 
BRANCH  12  13
ATOM     13  C   UNL     1      -6.824   6.557  -7.373  1.00  0.00     0.000 C 
BRANCH  13  14
ATOM     14  C   UNL     1      -7.041   7.012  -5.913  1.00  0.00     0.000 C 
BRANCH  14  15
ATOM     15  C   UNL     1      -7.256   5.848  -4.932  1.00  0.00     0.000 C 
BRANCH  15  16
ATOM     16  C   UNL     1      -8.625   5.902  -4.231  1.00  0.00     0.006 C 
BRANCH  16  17
ATOM     17  C   UNL     1      -9.453   7.116  -4.674  1.00  0.00     0.053 C 
BRANCH  17  18
ATOM     18  C   UNL     1      -9.712   8.056  -3.538  1.00  0.00     0.041 C 
ATOM     19  O   UNL     1      -8.793   8.334  -2.723  1.00  0.00    -0.550 OA
ATOM     20  O   UNL     1     -10.959   8.651  -3.396  1.00  0.00    -0.550 OA
ENDBRANCH  17  18
ENDBRANCH  16  17
ENDBRANCH  15  16
ENDBRANCH  14  15
ENDBRANCH  13  14
ENDBRANCH  12  13
ENDBRANCH  11  12
ENDBRANCH   1  11
TORSDOF 15
ENDMDL
MODEL 2
REMARK VINA RESULT:    -4.619      2.473     10.315
REMARK INTER + INTRA:          -9.684
REMARK INTER:                  -8.947
REMARK INTRA:                  -0.738
REMARK UNBOUND:                -1.014
REMARK SMILES O=C([O-])CCCCCCCCCCCCCCC(=O)[O-]
REMARK SMILES IDX 10 1 9 2 8 3 7 4 6 5 5 6 4 7 2 8 1 9 3 10 11 11 12 12 13 13
REMARK SMILES IDX 14 14 15 15 16 16 17 17 18 18 19 19 20 20
REMARK H PARENT
REMARK Flexibility Score: inf
ROOT
ATOM      1  C   UNL     1      -8.731   4.484 -11.870  1.00  0.00     0.000 C 
ENDROOT
BRANCH   1   2
ATOM      2  C   UNL     1      -9.435   5.181 -10.691  1.00  0.00     0.000 C 
BRANCH   2   3
ATOM      3  C   UNL     1      -9.229   4.510  -9.319  1.00  0.00     0.000 C 
BRANCH   3   4
ATOM      4  C   UNL     1      -9.090   5.521  -8.173  1.00  0.00     0.000 C 
BRANCH   4   5
ATOM      5  C   UNL     1      -7.670   5.496  -7.589  1.00  0.00     0.000 C 
BRANCH   5   6
ATOM      6  C   UNL     1      -7.661   5.345  -6.059  1.00  0.00     0.006 C 
BRANCH   6   7
ATOM      7  C   UNL     1      -9.050   5.547  -5.438  1.00  0.00     0.053 C 
BRANCH   7   8
ATOM      8  C   UNL     1      -8.951   6.387  -4.203  1.00  0.00     0.041 C 
ATOM      9  O   UNL     1      -8.303   5.975  -3.207  1.00  0.00    -0.550 OA
ATOM     10  O   UNL     1      -9.617   7.606  -4.136  1.00  0.00    -0.550 OA
ENDBRANCH   7   8
ENDBRANCH   6   7
ENDBRANCH   5   6
ENDBRANCH   4   5
ENDBRANCH   3   4
ENDBRANCH   2   3
ENDBRANCH   1   2
BRANCH   1  11
ATOM     11  C   UNL     1      -7.960   5.421 -12.819  1.00  0.00     0.000 C 
BRANCH  11  12
ATOM     12  C   UNL     1      -6.425   5.327 -12.677  1.00  0.00     0.000 C 
BRANCH  12  13
ATOM     13  C   UNL     1      -5.709   5.244 -14.037  1.00  0.00     0.000 C 
BRANCH  13  14
ATOM     14  C   UNL     1      -6.696   5.332 -15.221  1.00  0.00     0.000 C 
BRANCH  14  15
ATOM     15  C   UNL     1      -6.063   5.883 -16.510  1.00  0.00     0.000 C 
BRANCH  15  16
ATOM     16  C   UNL     1      -6.582   7.284 -16.879  1.00  0.00     0.006 C 
BRANCH  16  17
ATOM     17  C   UNL     1      -8.115   7.335 -16.939  1.00  0.00     0.053 C 
BRANCH  17  18
ATOM     18  C   UNL     1      -8.615   7.361 -18.351  1.00  0.00     0.041 C 
ATOM     19  O   UNL     1      -7.897   6.919 -19.286  1.00  0.00    -0.550 OA
ATOM     20  O   UNL     1      -9.887   7.844 -18.630  1.00  0.00    -0.550 OA
ENDBRANCH  17  18
ENDBRANCH  16  17
ENDBRANCH  15  16
ENDBRANCH  14  15
ENDBRANCH  13  14
ENDBRANCH  12  13
ENDBRANCH  11  12
ENDBRANCH   1  11
TORSDOF 15
ENDMDL
MODEL 3
REMARK VINA RESULT:    -4.564      2.048      3.122
REMARK INTER + INTRA:          -9.581
REMARK INTER:                  -8.812
REMARK INTRA:                  -0.769
REMARK UNBOUND:                -1.014
REMARK SMILES O=C([O-])CCCCCCCCCCCCCCC(=O)[O-]
REMARK SMILES IDX 10 1 9 2 8 3 7 4 6 5 5 6 4 7 2 8 1 9 3 10 11 11 12 12 13 13
REMARK SMILES IDX 14 14 15 15 16 16 17 17 18 18 19 19 20 20
REMARK H PARENT
REMARK Flexibility Score: inf
ROOT
ATOM      1  C   UNL     1      -8.733   4.496 -11.945  1.00  0.00     0.000 C 
ENDROOT
BRANCH   1   2
ATOM      2  C   UNL     1      -7.687   5.346 -12.690  1.00  0.00     0.000 C 
BRANCH   2   3
ATOM      3  C   UNL     1      -6.565   4.544 -13.378  1.00  0.00     0.000 C 
BRANCH   3   4
ATOM      4  C   UNL     1      -5.625   5.425 -14.211  1.00  0.00     0.000 C 
BRANCH   4   5
ATOM      5  C   UNL     1      -5.914   5.269 -15.712  1.00  0.00     0.000 C 
BRANCH   5   6
ATOM      6  C   UNL     1      -6.358   6.585 -16.370  1.00  0.00     0.006 C 
BRANCH   6   7
ATOM      7  C   UNL     1      -7.884   6.730 -16.432  1.00  0.00     0.053 C 
BRANCH   7   8
ATOM      8  C   UNL     1      -8.360   6.632 -17.847  1.00  0.00     0.041 C 
ATOM      9  O   UNL     1      -9.116   7.518 -18.324  1.00  0.00    -0.550 OA
ATOM     10  O   UNL     1      -8.008   5.535 -18.625  1.00  0.00    -0.550 OA
ENDBRANCH   7   8
ENDBRANCH   6   7
ENDBRANCH   5   6
ENDBRANCH   4   5
ENDBRANCH   3   4
ENDBRANCH   2   3
ENDBRANCH   1   2
BRANCH   1  11
ATOM     11  C   UNL     1      -9.426   5.200 -10.763  1.00  0.00     0.000 C 
BRANCH  11  12
ATOM     12  C   UNL     1      -9.194   4.508  -9.401  1.00  0.00     0.000 C 
BRANCH  12  13
ATOM     13  C   UNL     1      -9.086   5.510  -8.239  1.00  0.00     0.000 C 
BRANCH  13  14
ATOM     14  C   UNL     1      -7.719   5.429  -7.524  1.00  0.00     0.000 C 
BRANCH  14  15
ATOM     15  C   UNL     1      -7.825   5.449  -5.990  1.00  0.00     0.000 C 
BRANCH  15  16
ATOM     16  C   UNL     1      -9.259   5.703  -5.494  1.00  0.00     0.006 C 
BRANCH  16  17
ATOM     17  C   UNL     1      -9.381   7.030  -4.732  1.00  0.00     0.053 C 
BRANCH  17  18
ATOM     18  C   UNL     1      -8.468   7.075  -3.545  1.00  0.00     0.041 C 
ATOM     19  O   UNL     1      -7.572   7.955  -3.467  1.00  0.00    -0.550 OA
ATOM     20  O   UNL     1      -8.628   6.162  -2.510  1.00  0.00    -0.550 OA
ENDBRANCH  17  18
ENDBRANCH  16  17
ENDBRANCH  15  16
ENDBRANCH  14  15
ENDBRANCH  13  14
ENDBRANCH  12  13
ENDBRANCH  11  12
ENDBRANCH   1  11
TORSDOF 15
ENDMDL
MODEL 4
REMARK VINA RESULT:    -4.513      1.560      1.940
REMARK INTER + INTRA:          -9.484
REMARK INTER:                  -8.610
REMARK INTRA:                  -0.874
REMARK UNBOUND:                -1.014
REMARK SMILES O=C([O-])CCCCCCCCCCCCCCC(=O)[O-]
REMARK SMILES IDX 10 1 9 2 8 3 7 4 6 5 5 6 4 7 2 8 1 9 3 10 11 11 12 12 13 13
REMARK SMILES IDX 14 14 15 15 16 16 17 17 18 18 19 19 20 20
REMARK H PARENT
REMARK Flexibility Score: inf
ROOT
ATOM      1  C   UNL     1      -9.152   4.513  -9.435  1.00  0.00     0.000 C 
ENDROOT
BRANCH   1   2
ATOM      2  C   UNL     1      -9.404   5.049 -10.856  1.00  0.00     0.000 C 
BRANCH   2   3
ATOM      3  C   UNL     1      -8.167   5.071 -11.774  1.00  0.00     0.000 C 
BRANCH   3   4
ATOM      4  C   UNL     1      -8.433   4.449 -13.152  1.00  0.00     0.000 C 
BRANCH   4   5
ATOM      5  C   UNL     1      -8.140   5.457 -14.274  1.00  0.00     0.000 C 
BRANCH   5   6
ATOM      6  C   UNL     1      -6.746   5.264 -14.893  1.00  0.00     0.006 C 
BRANCH   6   7
ATOM      7  C   UNL     1      -6.092   3.941 -14.476  1.00  0.00     0.053 C 
BRANCH   7   8
ATOM      8  C   UNL     1      -5.491   3.258 -15.664  1.00  0.00     0.041 C 
ATOM      9  O   UNL     1      -5.764   3.653 -16.827  1.00  0.00    -0.550 OA
ATOM     10  O   UNL     1      -4.665   2.154 -15.489  1.00  0.00    -0.550 OA
ENDBRANCH   7   8
ENDBRANCH   6   7
ENDBRANCH   5   6
ENDBRANCH   4   5
ENDBRANCH   3   4
ENDBRANCH   2   3
ENDBRANCH   1   2
BRANCH   1  11
ATOM     11  C   UNL     1      -9.328   5.545  -8.305  1.00  0.00     0.000 C 
BRANCH  11  12
ATOM     12  C   UNL     1      -8.132   5.611  -7.330  1.00  0.00     0.000 C 
BRANCH  12  13
ATOM     13  C   UNL     1      -6.800   5.893  -8.046  1.00  0.00     0.000 C 
BRANCH  13  14
ATOM     14  C   UNL     1      -5.993   7.014  -7.354  1.00  0.00     0.000 C 
BRANCH  14  15
ATOM     15  C   UNL     1      -6.453   7.306  -5.917  1.00  0.00     0.000 C 
BRANCH  15  16
ATOM     16  C   UNL     1      -5.560   6.640  -4.856  1.00  0.00     0.006 C 
BRANCH  16  17
ATOM     17  C   UNL     1      -6.292   5.521  -4.103  1.00  0.00     0.053 C 
BRANCH  17  18
ATOM     18  C   UNL     1      -7.246   6.068  -3.086  1.00  0.00     0.041 C 
ATOM     19  O   UNL     1      -6.968   7.124  -2.459  1.00  0.00    -0.550 OA
ATOM     20  O   UNL     1      -8.457   5.429  -2.852  1.00  0.00    -0.550 OA
ENDBRANCH  17  18
ENDBRANCH  16  17
ENDBRANCH  15  16
ENDBRANCH  14  15
ENDBRANCH  13  14
ENDBRANCH  12  13
ENDBRANCH  11  12
ENDBRANCH   1  11
TORSDOF 15
ENDMDL
MODEL 5
REMARK VINA RESULT:    -4.498      1.911      9.775
REMARK INTER + INTRA:          -9.457
REMARK INTER:                  -8.350
REMARK INTRA:                  -1.107
REMARK UNBOUND:                -1.014
REMARK SMILES O=C([O-])CCCCCCCCCCCCCCC(=O)[O-]
REMARK SMILES IDX 10 1 9 2 8 3 7 4 6 5 5 6 4 7 2 8 1 9 3 10 11 11 12 12 13 13
REMARK SMILES IDX 14 14 15 15 16 16 17 17 18 18 19 19 20 20
REMARK H PARENT
REMARK Flexibility Score: inf
ROOT
ATOM      1  C   UNL     1      -8.358   5.590  -7.221  1.00  0.00     0.000 C 
ENDROOT
BRANCH   1   2
ATOM      2  C   UNL     1      -6.921   5.848  -7.712  1.00  0.00     0.000 C 
BRANCH   2   3
ATOM      3  C   UNL     1      -6.216   7.053  -7.061  1.00  0.00     0.000 C 
BRANCH   3   4
ATOM      4  C   UNL     1      -6.544   7.203  -5.569  1.00  0.00     0.000 C 
BRANCH   4   5
ATOM      5  C   UNL     1      -5.583   6.368  -4.710  1.00  0.00     0.000 C 
BRANCH   5   6
ATOM      6  C   UNL     1      -6.300   5.253  -3.931  1.00  0.00     0.006 C 
BRANCH   6   7
ATOM      7  C   UNL     1      -7.759   5.604  -3.607  1.00  0.00     0.053 C 
BRANCH   7   8
ATOM      8  C   UNL     1      -8.093   5.202  -2.205  1.00  0.00     0.041 C 
ATOM      9  O   UNL     1      -7.205   4.719  -1.456  1.00  0.00    -0.550 OA
ATOM     10  O   UNL     1      -9.399   5.316  -1.741  1.00  0.00    -0.550 OA
ENDBRANCH   7   8
ENDBRANCH   6   7
ENDBRANCH   5   6
ENDBRANCH   4   5
ENDBRANCH   3   4
ENDBRANCH   2   3
ENDBRANCH   1   2
BRANCH   1  11
ATOM     11  C   UNL     1      -9.428   5.535  -8.327  1.00  0.00     0.000 C 
BRANCH  11  12
ATOM     12  C   UNL     1      -9.103   4.539  -9.461  1.00  0.00     0.000 C 
BRANCH  12  13
ATOM     13  C   UNL     1      -9.513   5.066 -10.847  1.00  0.00     0.000 C 
BRANCH  13  14
ATOM     14  C   UNL     1      -8.521   4.638 -11.951  1.00  0.00     0.000 C 
BRANCH  14  15
ATOM     15  C   UNL     1      -7.324   5.591 -12.104  1.00  0.00     0.000 C 
BRANCH  15  16
ATOM     16  C   UNL     1      -6.221   5.022 -13.014  1.00  0.00     0.006 C 
BRANCH  16  17
ATOM     17  C   UNL     1      -6.792   4.399 -14.295  1.00  0.00     0.053 C 
BRANCH  17  18
ATOM     18  C   UNL     1      -6.963   5.417 -15.380  1.00  0.00     0.041 C 
ATOM     19  O   UNL     1      -6.050   5.602 -16.226  1.00  0.00    -0.550 OA
ATOM     20  O   UNL     1      -8.145   6.141 -15.475  1.00  0.00    -0.550 OA
ENDBRANCH  17  18
ENDBRANCH  16  17
ENDBRANCH  15  16
ENDBRANCH  14  15
ENDBRANCH  13  14
ENDBRANCH  12  13
ENDBRANCH  11  12
ENDBRANCH   1  11
TORSDOF 15
ENDMDL
MODEL 6
REMARK VINA RESULT:    -4.471      2.804      3.249
REMARK INTER + INTRA:          -9.406
REMARK INTER:                  -8.227
REMARK INTRA:                  -1.178
REMARK UNBOUND:                -1.014
REMARK SMILES O=C([O-])CCCCCCCCCCCCCCC(=O)[O-]
REMARK SMILES IDX 10 1 9 2 8 3 7 4 6 5 5 6 4 7 2 8 1 9 3 10 11 11 12 12 13 13
REMARK SMILES IDX 14 14 15 15 16 16 17 17 18 18 19 19 20 20
REMARK H PARENT
REMARK Flexibility Score: inf
ROOT
ATOM      1  C   UNL     1      -9.246   5.549  -8.146  1.00  0.00     0.000 C 
ENDROOT
BRANCH   1   2
ATOM      2  C   UNL     1      -9.160   4.576  -9.337  1.00  0.00     0.000 C 
BRANCH   2   3
ATOM      3  C   UNL     1      -9.481   5.197 -10.710  1.00  0.00     0.000 C 
BRANCH   3   4
ATOM      4  C   UNL     1      -8.527   4.727 -11.816  1.00  0.00     0.000 C 
BRANCH   4   5
ATOM      5  C   UNL     1      -7.251   5.582 -11.838  1.00  0.00     0.000 C 
BRANCH   5   6
ATOM      6  C   UNL     1      -6.260   5.140 -12.928  1.00  0.00     0.006 C 
BRANCH   6   7
ATOM      7  C   UNL     1      -6.963   4.600 -14.180  1.00  0.00     0.053 C 
BRANCH   7   8
ATOM      8  C   UNL     1      -7.028   5.655 -15.238  1.00  0.00     0.041 C 
ATOM      9  O   UNL     1      -5.992   5.981 -15.874  1.00  0.00    -0.550 OA
ATOM     10  O   UNL     1      -8.226   6.315 -15.490  1.00  0.00    -0.550 OA
ENDBRANCH   7   8
ENDBRANCH   6   7
ENDBRANCH   5   6
ENDBRANCH   4   5
ENDBRANCH   3   4
ENDBRANCH   2   3
ENDBRANCH   1   2
BRANCH   1  11
ATOM     11  C   UNL     1      -7.958   5.675  -7.310  1.00  0.00     0.000 C 
BRANCH  11  12
ATOM     12  C   UNL     1      -6.684   5.893  -8.155  1.00  0.00     0.000 C 
BRANCH  12  13
ATOM     13  C   UNL     1      -5.795   7.023  -7.606  1.00  0.00     0.000 C 
BRANCH  13  14
ATOM     14  C   UNL     1      -6.040   7.278  -6.102  1.00  0.00     0.000 C 
BRANCH  14  15
ATOM     15  C   UNL     1      -4.747   7.384  -5.278  1.00  0.00     0.000 C 
BRANCH  15  16
ATOM     16  C   UNL     1      -4.670   6.340  -4.150  1.00  0.00     0.006 C 
BRANCH  16  17
ATOM     17  C   UNL     1      -5.954   5.505  -4.046  1.00  0.00     0.053 C 
BRANCH  17  18
ATOM     18  C   UNL     1      -5.734   4.242  -3.273  1.00  0.00     0.041 C 
ATOM     19  O   UNL     1      -4.900   4.212  -2.332  1.00  0.00    -0.550 OA
ATOM     20  O   UNL     1      -6.474   3.105  -3.572  1.00  0.00    -0.550 OA
ENDBRANCH  17  18
ENDBRANCH  16  17
ENDBRANCH  15  16
ENDBRANCH  14  15
ENDBRANCH  13  14
ENDBRANCH  12  13
ENDBRANCH  11  12
ENDBRANCH   1  11
TORSDOF 15
ENDMDL
MODEL 7
REMARK VINA RESULT:    -4.459      1.985      2.808
REMARK INTER + INTRA:          -9.382
REMARK INTER:                  -8.606
REMARK INTRA:                  -0.776
REMARK UNBOUND:                -1.014
REMARK SMILES O=C([O-])CCCCCCCCCCCCCCC(=O)[O-]
REMARK SMILES IDX 10 1 9 2 8 3 7 4 6 5 5 6 4 7 2 8 1 9 3 10 11 11 12 12 13 13
REMARK SMILES IDX 14 14 15 15 16 16 17 17 18 18 19 19 20 20
REMARK H PARENT
REMARK Flexibility Score: inf
ROOT
ATOM      1  C   UNL     1      -9.444   5.203 -10.745  1.00  0.00     0.000 C 
ENDROOT
BRANCH   1   2
ATOM      2  C   UNL     1      -8.583   4.586 -11.863  1.00  0.00     0.000 C 
BRANCH   2   3
ATOM      3  C   UNL     1      -7.320   5.389 -12.230  1.00  0.00     0.000 C 
BRANCH   3   4
ATOM      4  C   UNL     1      -6.992   5.335 -13.729  1.00  0.00     0.000 C 
BRANCH   4   5
ATOM      5  C   UNL     1      -8.236   5.654 -14.573  1.00  0.00     0.000 C 
BRANCH   5   6
ATOM      6  C   UNL     1      -7.895   6.410 -15.867  1.00  0.00     0.006 C 
BRANCH   6   7
ATOM      7  C   UNL     1      -6.445   6.188 -16.317  1.00  0.00     0.053 C 
BRANCH   7   8
ATOM      8  C   UNL     1      -6.377   5.100 -17.343  1.00  0.00     0.041 C 
ATOM      9  O   UNL     1      -6.930   5.251 -18.463  1.00  0.00    -0.550 OA
ATOM     10  O   UNL     1      -5.745   3.899 -17.043  1.00  0.00    -0.550 OA
ENDBRANCH   7   8
ENDBRANCH   6   7
ENDBRANCH   5   6
ENDBRANCH   4   5
ENDBRANCH   3   4
ENDBRANCH   2   3
ENDBRANCH   1   2
BRANCH   1  11
ATOM     11  C   UNL     1      -9.350   4.496  -9.380  1.00  0.00     0.000 C 
BRANCH  11  12
ATOM     12  C   UNL     1      -9.134   5.459  -8.192  1.00  0.00     0.000 C 
BRANCH  12  13
ATOM     13  C   UNL     1      -7.650   5.610  -7.816  1.00  0.00     0.000 C 
BRANCH  13  14
ATOM     14  C   UNL     1      -7.453   6.491  -6.563  1.00  0.00     0.000 C 
BRANCH  14  15
ATOM     15  C   UNL     1      -8.679   6.523  -5.634  1.00  0.00     0.000 C 
BRANCH  15  16
ATOM     16  C   UNL     1      -8.499   5.653  -4.378  1.00  0.00     0.006 C 
BRANCH  16  17
ATOM     17  C   UNL     1      -7.256   4.757  -4.468  1.00  0.00     0.053 C 
BRANCH  17  18
ATOM     18  C   UNL     1      -6.679   4.471  -3.116  1.00  0.00     0.041 C 
ATOM     19  O   UNL     1      -5.771   3.609  -2.984  1.00  0.00    -0.550 OA
ATOM     20  O   UNL     1      -7.121   5.179  -2.006  1.00  0.00    -0.550 OA
ENDBRANCH  17  18
ENDBRANCH  16  17
ENDBRANCH  15  16
ENDBRANCH  14  15
ENDBRANCH  13  14
ENDBRANCH  12  13
ENDBRANCH  11  12
ENDBRANCH   1  11
TORSDOF 15
ENDMDL
MODEL 8
REMARK VINA RESULT:    -4.445      1.806      3.535
REMARK INTER + INTRA:          -9.358
REMARK INTER:                  -8.649
REMARK INTRA:                  -0.709
REMARK UNBOUND:                -1.014
REMARK SMILES O=C([O-])CCCCCCCCCCCCCCC(=O)[O-]
REMARK SMILES IDX 10 1 9 2 8 3 7 4 6 5 5 6 4 7 2 8 1 9 3 10 11 11 12 12 13 13
REMARK SMILES IDX 14 14 15 15 16 16 17 17 18 18 19 19 20 20
REMARK H PARENT
REMARK Flexibility Score: inf
ROOT
ATOM      1  C   UNL     1      -6.886   6.512  -7.421  1.00  0.00     0.000 C 
ENDROOT
BRANCH   1   2
ATOM      2  C   UNL     1      -7.740   5.237  -7.541  1.00  0.00     0.000 C 
BRANCH   2   3
ATOM      3  C   UNL     1      -9.122   5.437  -8.194  1.00  0.00     0.000 C 
BRANCH   3   4
ATOM      4  C   UNL     1      -9.374   4.479  -9.367  1.00  0.00     0.000 C 
BRANCH   4   5
ATOM      5  C   UNL     1      -9.530   5.255 -10.684  1.00  0.00     0.000 C 
BRANCH   5   6
ATOM      6  C   UNL     1      -8.804   4.579 -11.858  1.00  0.00     0.006 C 
BRANCH   6   7
ATOM      7  C   UNL     1      -7.607   5.398 -12.361  1.00  0.00     0.053 C 
BRANCH   7   8
ATOM      8  C   UNL     1      -7.392   5.163 -13.823  1.00  0.00     0.041 C 
ATOM      9  O   UNL     1      -6.462   4.411 -14.214  1.00  0.00    -0.550 OA
ATOM     10  O   UNL     1      -8.189   5.814 -14.757  1.00  0.00    -0.550 OA
ENDBRANCH   7   8
ENDBRANCH   6   7
ENDBRANCH   5   6
ENDBRANCH   4   5
ENDBRANCH   3   4
ENDBRANCH   2   3
ENDBRANCH   1   2
BRANCH   1  11
ATOM     11  C   UNL     1      -6.841   7.139  -6.015  1.00  0.00     0.000 C 
BRANCH  11  12
ATOM     12  C   UNL     1      -6.896   6.106  -4.868  1.00  0.00     0.000 C 
BRANCH  12  13
ATOM     13  C   UNL     1      -8.321   5.900  -4.325  1.00  0.00     0.000 C 
BRANCH  13  14
ATOM     14  C   UNL     1      -9.213   7.142  -4.542  1.00  0.00     0.000 C 
BRANCH  14  15
ATOM     15  C   UNL     1      -9.596   7.860  -3.237  1.00  0.00     0.000 C 
BRANCH  15  16
ATOM     16  C   UNL     1     -10.891   8.680  -3.364  1.00  0.00     0.006 C 
BRANCH  16  17
ATOM     17  C   UNL     1     -10.887   9.913  -2.450  1.00  0.00     0.053 C 
BRANCH  17  18
ATOM     18  C   UNL     1     -11.652  11.052  -3.051  1.00  0.00     0.041 C 
ATOM     19  O   UNL     1     -12.902  10.980  -3.175  1.00  0.00    -0.550 OA
ATOM     20  O   UNL     1     -10.987  12.206  -3.444  1.00  0.00    -0.550 OA
ENDBRANCH  17  18
ENDBRANCH  16  17
ENDBRANCH  15  16
ENDBRANCH  14  15
ENDBRANCH  13  14
ENDBRANCH  12  13
ENDBRANCH  11  12
ENDBRANCH   1  11
TORSDOF 15
ENDMDL
MODEL 9
REMARK VINA RESULT:    -4.367      1.628     10.297
REMARK INTER + INTRA:          -9.210
REMARK INTER:                  -8.356
REMARK INTRA:                  -0.854
REMARK UNBOUND:                -1.014
REMARK SMILES O=C([O-])CCCCCCCCCCCCCCC(=O)[O-]
REMARK SMILES IDX 10 1 9 2 8 3 7 4 6 5 5 6 4 7 2 8 1 9 3 10 11 11 12 12 13 13
REMARK SMILES IDX 14 14 15 15 16 16 17 17 18 18 19 19 20 20
REMARK H PARENT
REMARK Flexibility Score: inf
ROOT
ATOM      1  C   UNL     1      -9.186   4.440  -9.433  1.00  0.00     0.000 C 
ENDROOT
BRANCH   1   2
ATOM      2  C   UNL     1      -9.076   5.415  -8.246  1.00  0.00     0.000 C 
BRANCH   2   3
ATOM      3  C   UNL     1      -7.671   5.527  -7.623  1.00  0.00     0.000 C 
BRANCH   3   4
ATOM      4  C   UNL     1      -7.687   5.438  -6.091  1.00  0.00     0.000 C 
BRANCH   4   5
ATOM      5  C   UNL     1      -9.119   5.573  -5.550  1.00  0.00     0.000 C 
BRANCH   5   6
ATOM      6  C   UNL     1      -9.401   6.964  -4.961  1.00  0.00     0.006 C 
BRANCH   6   7
ATOM      7  C   UNL     1      -8.226   7.506  -4.136  1.00  0.00     0.053 C 
BRANCH   7   8
ATOM      8  C   UNL     1      -8.498   7.344  -2.673  1.00  0.00     0.041 C 
ATOM      9  O   UNL     1      -8.975   6.266  -2.233  1.00  0.00    -0.550 OA
ATOM     10  O   UNL     1      -8.268   8.402  -1.801  1.00  0.00    -0.550 OA
ENDBRANCH   7   8
ENDBRANCH   6   7
ENDBRANCH   5   6
ENDBRANCH   4   5
ENDBRANCH   3   4
ENDBRANCH   2   3
ENDBRANCH   1   2
BRANCH   1  11
ATOM     11  C   UNL     1      -9.511   5.093 -10.789  1.00  0.00     0.000 C 
BRANCH  11  12
ATOM     12  C   UNL     1      -8.528   4.712 -11.918  1.00  0.00     0.000 C 
BRANCH  12  13
ATOM     13  C   UNL     1      -7.262   5.587 -11.920  1.00  0.00     0.000 C 
BRANCH  13  14
ATOM     14  C   UNL     1      -6.299   5.215 -13.069  1.00  0.00     0.000 C 
BRANCH  14  15
ATOM     15  C   UNL     1      -6.797   4.047 -13.935  1.00  0.00     0.000 C 
BRANCH  15  16
ATOM     16  C   UNL     1      -5.982   3.871 -15.228  1.00  0.00     0.006 C 
BRANCH  16  17
ATOM     17  C   UNL     1      -5.659   5.215 -15.895  1.00  0.00     0.053 C 
BRANCH  17  18
ATOM     18  C   UNL     1      -6.661   5.566 -16.951  1.00  0.00     0.041 C 
ATOM     19  O   UNL     1      -6.354   5.484 -18.169  1.00  0.00    -0.550 OA
ATOM     20  O   UNL     1      -7.945   5.955 -16.590  1.00  0.00    -0.550 OA
ENDBRANCH  17  18
ENDBRANCH  16  17
ENDBRANCH  15  16
ENDBRANCH  14  15
ENDBRANCH  13  14
ENDBRANCH  12  13
ENDBRANCH  11  12
ENDBRANCH   1  11
TORSDOF 15
ENDMDL
