MODEL 1
REMARK VINA RESULT:    -3.813      0.000      0.000
REMARK INTER + INTRA:          -5.088
REMARK INTER:                  -4.928
REMARK INTRA:                  -0.160
REMARK UNBOUND:                -0.160
REMARK SMILES CCCCCCC=O
REMARK SMILES IDX 4 1 3 2 2 3 1 4 5 5 6 6 7 7 8 8
REMARK H PARENT
REMARK Flexibility Score: inf
ROOT
ATOM      1  C   UNL     1      24.781  57.600  -9.055  1.00  0.00     0.000 C 
ENDROOT
BRANCH   1   2
ATOM      2  C   UNL     1      25.650  58.798  -9.504  1.00  0.00    -0.000 C 
BRANCH   2   3
ATOM      3  C   UNL     1      26.816  58.394 -10.423  1.00  0.00    -0.003 C 
ATOM      4  C   UNL     1      27.861  59.501 -10.560  1.00  0.00     0.004 C 
ENDBRANCH   2   3
ENDBRANCH   1   2
BRANCH   1   5
ATOM      5  C   UNL     1      25.509  56.245  -9.152  1.00  0.00     0.008 C 
BRANCH   5   6
ATOM      6  C   UNL     1      24.980  55.184  -8.177  1.00  0.00     0.072 C 
BRANCH   6   7
ATOM      7  C   UNL     1      23.496  55.295  -7.991  1.00  0.00     0.224 C 
ATOM      8  O   UNL     1      22.964  54.863  -6.981  1.00  0.00    -0.303 OA
ENDBRANCH   6   7
ENDBRANCH   5   6
ENDBRANCH   1   5
TORSDOF 5
ENDMDL
MODEL 2
REMARK VINA RESULT:    -3.731      3.176      5.437
REMARK INTER + INTRA:          -4.981
REMARK INTER:                  -4.935
REMARK INTRA:                  -0.046
REMARK UNBOUND:                -0.160
REMARK SMILES CCCCCCC=O
REMARK SMILES IDX 4 1 3 2 2 3 1 4 5 5 6 6 7 7 8 8
REMARK H PARENT
REMARK Flexibility Score: inf
ROOT
ATOM      1  C   UNL     1      25.530  56.741  -9.378  1.00  0.00     0.000 C 
ENDROOT
BRANCH   1   2
ATOM      2  C   UNL     1      24.141  56.401  -8.789  1.00  0.00    -0.000 C 
BRANCH   2   3
ATOM      3  C   UNL     1      24.125  55.087  -7.989  1.00  0.00    -0.003 C 
ATOM      4  C   UNL     1      22.715  54.685  -7.555  1.00  0.00     0.004 C 
ENDBRANCH   2   3
ENDBRANCH   1   2
BRANCH   1   5
ATOM      5  C   UNL     1      25.735  58.247  -9.631  1.00  0.00     0.008 C 
BRANCH   5   6
ATOM      6  C   UNL     1      26.975  58.572 -10.474  1.00  0.00     0.072 C 
BRANCH   6   7
ATOM      7  C   UNL     1      27.384  60.008 -10.326  1.00  0.00     0.224 C 
ATOM      8  O   UNL     1      28.289  60.468 -11.004  1.00  0.00    -0.303 OA
ENDBRANCH   6   7
ENDBRANCH   5   6
ENDBRANCH   1   5
TORSDOF 5
ENDMDL
MODEL 3
REMARK VINA RESULT:    -3.472      1.238      2.067
REMARK INTER + INTRA:          -4.646
REMARK INTER:                  -4.580
REMARK INTRA:                  -0.066
REMARK UNBOUND:                -0.160
REMARK SMILES CCCCCCC=O
REMARK SMILES IDX 4 1 3 2 2 3 1 4 5 5 6 6 7 7 8 8
REMARK H PARENT
REMARK Flexibility Score: inf
ROOT
ATOM      1  C   UNL     1      24.413  55.773  -9.094  1.00  0.00     0.000 C 
ENDROOT
BRANCH   1   2
ATOM      2  C   UNL     1      25.740  56.563  -9.018  1.00  0.00    -0.000 C 
BRANCH   2   3
ATOM      3  C   UNL     1      25.611  58.018  -9.501  1.00  0.00    -0.003 C 
ATOM      4  C   UNL     1      26.803  58.459 -10.351  1.00  0.00     0.004 C 
ENDBRANCH   2   3
ENDBRANCH   1   2
BRANCH   1   5
ATOM      5  C   UNL     1      23.837  55.411  -7.712  1.00  0.00     0.008 C 
BRANCH   5   6
ATOM      6  C   UNL     1      22.433  54.793  -7.767  1.00  0.00     0.072 C 
BRANCH   6   7
ATOM      7  C   UNL     1      22.094  54.076  -6.492  1.00  0.00     0.224 C 
ATOM      8  O   UNL     1      22.612  54.409  -5.438  1.00  0.00    -0.303 OA
ENDBRANCH   6   7
ENDBRANCH   5   6
ENDBRANCH   1   5
TORSDOF 5
ENDMDL
MODEL 4
REMARK VINA RESULT:    -3.366      1.164      2.148
REMARK INTER + INTRA:          -4.509
REMARK INTER:                  -4.415
REMARK INTRA:                  -0.094
REMARK UNBOUND:                -0.160
REMARK SMILES CCCCCCC=O
REMARK SMILES IDX 4 1 3 2 2 3 1 4 5 5 6 6 7 7 8 8
REMARK H PARENT
REMARK Flexibility Score: inf
ROOT
ATOM      1  C   UNL     1      26.967  58.499 -10.483  1.00  0.00     0.000 C 
ENDROOT
BRANCH   1   2
ATOM      2  C   UNL     1      27.336  60.001 -10.496  1.00  0.00    -0.000 C 
BRANCH   2   3
ATOM      3  C   UNL     1      28.851  60.254 -10.588  1.00  0.00    -0.003 C 
ATOM      4  C   UNL     1      29.568  59.204 -11.436  1.00  0.00     0.004 C 
ENDBRANCH   2   3
ENDBRANCH   1   2
BRANCH   1   5
ATOM      5  C   UNL     1      25.748  58.176  -9.599  1.00  0.00     0.008 C 
BRANCH   5   6
ATOM      6  C   UNL     1      25.648  56.699  -9.194  1.00  0.00     0.072 C 
BRANCH   6   7
ATOM      7  C   UNL     1      24.264  56.342  -8.737  1.00  0.00     0.224 C 
ATOM      8  O   UNL     1      24.089  55.798  -7.658  1.00  0.00    -0.303 OA
ENDBRANCH   6   7
ENDBRANCH   5   6
ENDBRANCH   1   5
TORSDOF 5
ENDMDL
MODEL 5
REMARK VINA RESULT:    -3.364     17.252     18.259
REMARK INTER + INTRA:          -4.507
REMARK INTER:                  -4.338
REMARK INTRA:                  -0.170
REMARK UNBOUND:                -0.160
REMARK SMILES CCCCCCC=O
REMARK SMILES IDX 4 1 3 2 2 3 1 4 5 5 6 6 7 7 8 8
REMARK H PARENT
REMARK Flexibility Score: inf
ROOT
ATOM      1  C   UNL     1      17.335  43.544   0.899  1.00  0.00     0.000 C 
ENDROOT
BRANCH   1   2
ATOM      2  C   UNL     1      16.078  44.195   1.521  1.00  0.00    -0.000 C 
BRANCH   2   3
ATOM      3  C   UNL     1      15.323  45.114   0.545  1.00  0.00    -0.003 C 
ATOM      4  C   UNL     1      16.096  45.347  -0.753  1.00  0.00     0.004 C 
ENDBRANCH   2   3
ENDBRANCH   1   2
BRANCH   1   5
ATOM      5  C   UNL     1      18.548  43.524   1.849  1.00  0.00     0.008 C 
BRANCH   5   6
ATOM      6  C   UNL     1      19.861  43.969   1.190  1.00  0.00     0.072 C 
BRANCH   6   7
ATOM      7  C   UNL     1      20.823  42.827   1.048  1.00  0.00     0.224 C 
ATOM      8  O   UNL     1      21.017  42.312  -0.041  1.00  0.00    -0.303 OA
ENDBRANCH   6   7
ENDBRANCH   5   6
ENDBRANCH   1   5
TORSDOF 5
ENDMDL
MODEL 6
REMARK VINA RESULT:    -3.321     16.377     17.879
REMARK INTER + INTRA:          -4.451
REMARK INTER:                  -4.173
REMARK INTRA:                  -0.278
REMARK UNBOUND:                -0.160
REMARK SMILES CCCCCCC=O
REMARK SMILES IDX 4 1 3 2 2 3 1 4 5 5 6 6 7 7 8 8
REMARK H PARENT
REMARK Flexibility Score: inf
ROOT
ATOM      1  C   UNL     1      17.296  43.485   1.026  1.00  0.00     0.000 C 
ENDROOT
BRANCH   1   2
ATOM      2  C   UNL     1      18.556  43.482   1.923  1.00  0.00    -0.000 C 
BRANCH   2   3
ATOM      3  C   UNL     1      19.824  43.958   1.193  1.00  0.00    -0.003 C 
ATOM      4  C   UNL     1      19.505  44.718  -0.095  1.00  0.00     0.004 C 
ENDBRANCH   2   3
ENDBRANCH   1   2
BRANCH   1   5
ATOM      5  C   UNL     1      16.120  44.280   1.625  1.00  0.00     0.008 C 
BRANCH   5   6
ATOM      6  C   UNL     1      15.285  45.035   0.582  1.00  0.00     0.072 C 
BRANCH   6   7
ATOM      7  C   UNL     1      15.878  44.917  -0.792  1.00  0.00     0.224 C 
ATOM      8  O   UNL     1      16.297  45.906  -1.372  1.00  0.00    -0.303 OA
ENDBRANCH   6   7
ENDBRANCH   5   6
ENDBRANCH   1   5
TORSDOF 5
ENDMDL
MODEL 7
REMARK VINA RESULT:    -3.271     16.757     17.844
REMARK INTER + INTRA:          -4.387
REMARK INTER:                  -4.027
REMARK INTRA:                  -0.360
REMARK UNBOUND:                -0.160
REMARK SMILES CCCCCCC=O
REMARK SMILES IDX 4 1 3 2 2 3 1 4 5 5 6 6 7 7 8 8
REMARK H PARENT
REMARK Flexibility Score: inf
ROOT
ATOM      1  C   UNL     1      19.560  44.593  -0.008  1.00  0.00     0.000 C 
ENDROOT
BRANCH   1   2
ATOM      2  C   UNL     1      19.825  43.782   1.282  1.00  0.00    -0.000 C 
BRANCH   2   3
ATOM      3  C   UNL     1      20.985  42.781   1.143  1.00  0.00    -0.003 C 
ATOM      4  C   UNL     1      21.036  42.136  -0.242  1.00  0.00     0.004 C 
ENDBRANCH   2   3
ENDBRANCH   1   2
BRANCH   1   5
ATOM      5  C   UNL     1      18.077  44.609  -0.426  1.00  0.00     0.008 C 
BRANCH   5   6
ATOM      6  C   UNL     1      17.207  43.594   0.329  1.00  0.00     0.072 C 
BRANCH   6   7
ATOM      7  C   UNL     1      16.812  42.443  -0.549  1.00  0.00     0.224 C 
ATOM      8  O   UNL     1      17.626  41.929  -1.299  1.00  0.00    -0.303 OA
ENDBRANCH   6   7
ENDBRANCH   5   6
ENDBRANCH   1   5
TORSDOF 5
ENDMDL
MODEL 8
REMARK VINA RESULT:    -3.238     17.621     18.630
REMARK INTER + INTRA:          -4.345
REMARK INTER:                  -4.006
REMARK INTRA:                  -0.339
REMARK UNBOUND:                -0.160
REMARK SMILES CCCCCCC=O
REMARK SMILES IDX 4 1 3 2 2 3 1 4 5 5 6 6 7 7 8 8
REMARK H PARENT
REMARK Flexibility Score: inf
ROOT
ATOM      1  C   UNL     1      17.402  43.619   1.404  1.00  0.00     0.000 C 
ENDROOT
BRANCH   1   2
ATOM      2  C   UNL     1      17.288  43.338  -0.112  1.00  0.00    -0.000 C 
BRANCH   2   3
ATOM      3  C   UNL     1      16.921  41.879  -0.435  1.00  0.00    -0.003 C 
ATOM      4  C   UNL     1      18.000  41.175  -1.259  1.00  0.00     0.004 C 
ENDBRANCH   2   3
ENDBRANCH   1   2
BRANCH   1   5
ATOM      5  C   UNL     1      18.840  43.497   1.943  1.00  0.00     0.008 C 
BRANCH   5   6
ATOM      6  C   UNL     1      19.924  43.725   0.880  1.00  0.00     0.072 C 
BRANCH   6   7
ATOM      7  C   UNL     1      20.970  42.649   0.917  1.00  0.00     0.224 C 
ATOM      8  O   UNL     1      21.248  42.021  -0.091  1.00  0.00    -0.303 OA
ENDBRANCH   6   7
ENDBRANCH   5   6
ENDBRANCH   1   5
TORSDOF 5
ENDMDL
MODEL 9
REMARK VINA RESULT:    -3.182     17.402     18.295
REMARK INTER + INTRA:          -4.272
REMARK INTER:                  -3.953
REMARK INTRA:                  -0.320
REMARK UNBOUND:                -0.160
REMARK SMILES CCCCCCC=O
REMARK SMILES IDX 4 1 3 2 2 3 1 4 5 5 6 6 7 7 8 8
REMARK H PARENT
REMARK Flexibility Score: inf
ROOT
ATOM      1  C   UNL     1      14.183  43.385 -13.117  1.00  0.00     0.000 C 
ENDROOT
BRANCH   1   2
ATOM      2  C   UNL     1      14.628  44.438 -14.159  1.00  0.00    -0.000 C 
BRANCH   2   3
ATOM      3  C   UNL     1      15.000  43.827 -15.521  1.00  0.00    -0.003 C 
ATOM      4  C   UNL     1      16.511  43.780 -15.745  1.00  0.00     0.004 C 
ENDBRANCH   2   3
ENDBRANCH   1   2
BRANCH   1   5
ATOM      5  C   UNL     1      13.913  41.997 -13.727  1.00  0.00     0.008 C 
BRANCH   5   6
ATOM      6  C   UNL     1      14.769  40.875 -13.122  1.00  0.00     0.072 C 
BRANCH   6   7
ATOM      7  C   UNL     1      16.224  41.239 -13.103  1.00  0.00     0.224 C 
ATOM      8  O   UNL     1      16.845  41.253 -12.052  1.00  0.00    -0.303 OA
ENDBRANCH   6   7
ENDBRANCH   5   6
ENDBRANCH   1   5
TORSDOF 5
ENDMDL
