MODEL 1
REMARK VINA RESULT:    -3.466      0.000      0.000
REMARK INTER + INTRA:          -5.986
REMARK INTER:                  -4.783
REMARK INTRA:                  -1.203
REMARK UNBOUND:                -1.203
REMARK SMILES O=C([O-])[C@H]1O[C@H](Oc2cc3oc(-c4ccccc4)cc(=O)c3c(O)c2O)[C@@H](O)[C@H](O)[C@H]1O
REMARK SMILES IDX 7 1 6 2 4 3 31 4 5 5 29 6 27 7 2 8 1 9 3 10 32 11 30 13
REMARK SMILES IDX 28 15 8 17 25 18 9 19 23 20 10 21 22 22 11 23 20 24 12 25
REMARK SMILES IDX 19 26 21 27 26 28 24 30 13 32 14 33 18 34 15 35 17 36 16 37
REMARK H PARENT 32 12 30 14 28 16 26 29 24 31
REMARK Flexibility Score: inf
ROOT
ATOM      1  O   UNL     1     -38.637  75.375 -25.978  1.00  0.00    -0.458 OA
ENDROOT
BRANCH   1   2
ATOM      2  C   UNL     1     -37.917  76.306 -26.792  1.00  0.00     0.339 C 
ATOM      3  C   UNL     1     -35.834  75.661 -25.922  1.00  0.00     0.199 C 
ATOM      4  C   UNL     1     -35.331  75.065 -27.255  1.00  0.00     0.180 C 
ATOM      5  O   UNL     1     -36.723  76.741 -26.154  1.00  0.00    -0.328 OA
ATOM      6  C   UNL     1     -36.531  74.600 -28.103  1.00  0.00     0.181 C 
ATOM      7  C   UNL     1     -37.626  75.686 -28.179  1.00  0.00     0.214 C 
BRANCH   3   8
ATOM      8  C   UNL     1     -34.681  76.145 -25.092  1.00  0.00     0.073 C 
ATOM      9  O   UNL     1     -34.856  77.049 -24.233  1.00  0.00    -0.547 OA
ATOM     10  O   UNL     1     -33.425  75.565 -25.230  1.00  0.00    -0.547 OA
ENDBRANCH   3   8
BRANCH   4  11
ATOM     11  O   UNL     1     -34.587  76.016 -27.976  1.00  0.00    -0.387 OA
ATOM     12  H   UNL     1     -34.635  75.762 -28.934  1.00  0.00     0.211 HD
ENDBRANCH   4  11
BRANCH   6  13
ATOM     13  O   UNL     1     -37.082  73.432 -27.549  1.00  0.00    -0.387 OA
ATOM     14  H   UNL     1     -37.430  72.889 -28.305  1.00  0.00     0.211 HD
ENDBRANCH   6  13
BRANCH   7  15
ATOM     15  O   UNL     1     -37.288  76.674 -29.124  1.00  0.00    -0.384 OA
ATOM     16  H   UNL     1     -37.717  76.441 -29.987  1.00  0.00     0.211 HD
ENDBRANCH   7  15
ENDBRANCH   1   2
BRANCH   1  17
ATOM     17  C   UNL     1     -39.620  75.667 -25.012  1.00  0.00     0.172 A 
ATOM     18  C   UNL     1     -40.997  75.839 -25.301  1.00  0.00     0.201 A 
ATOM     19  C   UNL     1     -39.175  75.779 -23.695  1.00  0.00     0.098 A 
ATOM     20  C   UNL     1     -41.896  76.186 -24.258  1.00  0.00     0.176 A 
ATOM     21  C   UNL     1     -40.054  76.080 -22.659  1.00  0.00     0.146 A 
ATOM     22  C   UNL     1     -41.424  76.289 -22.926  1.00  0.00     0.111 A 
ATOM     23  O   UNL     1     -39.582  76.170 -21.420  1.00  0.00    -0.456 OA
ATOM     24  C   UNL     1     -42.257  76.607 -21.831  1.00  0.00     0.197 A 
ATOM     25  C   UNL     1     -40.342  76.457 -20.366  1.00  0.00     0.138 A 
ATOM     26  C   UNL     1     -41.713  76.691 -20.549  1.00  0.00     0.100 A 
ATOM     27  O   UNL     1     -43.491  76.820 -21.982  1.00  0.00    -0.289 OA
BRANCH  18  28
ATOM     28  O   UNL     1     -41.452  75.637 -26.606  1.00  0.00    -0.502 OA
ATOM     29  H   UNL     1     -41.013  76.015 -27.432  1.00  0.00     0.293 HD
ENDBRANCH  18  28
BRANCH  20  30
ATOM     30  O   UNL     1     -43.248  76.442 -24.518  1.00  0.00    -0.504 OA
ATOM     31  H   UNL     1     -43.853  76.988 -23.922  1.00  0.00     0.293 HD
ENDBRANCH  20  30
BRANCH  25  32
ATOM     32  C   UNL     1     -39.705  76.532 -19.026  1.00  0.00     0.017 A 
ATOM     33  C   UNL     1     -40.380  77.074 -17.913  1.00  0.00     0.012 A 
ATOM     34  C   UNL     1     -38.405  76.023 -18.848  1.00  0.00     0.012 A 
ATOM     35  C   UNL     1     -39.758  77.122 -16.662  1.00  0.00     0.001 A 
ATOM     36  C   UNL     1     -37.788  76.076 -17.594  1.00  0.00     0.001 A 
ATOM     37  C   UNL     1     -38.462  76.626 -16.503  1.00  0.00     0.000 A 
ENDBRANCH  25  32
ENDBRANCH   1  17
TORSDOF 9
ENDMDL
