MODEL 1
REMARK VINA RESULT:    -4.135      0.000      0.000
REMARK INTER + INTRA:          -5.985
REMARK INTER:                  -6.310
REMARK INTRA:                   0.325
REMARK UNBOUND:                 0.325
REMARK SMILES CC1=CCC[C@@H](C)C(=O)C[C@H](C(C)C)C(=O)C1
REMARK SMILES IDX 8 1 9 2 6 3 7 4 5 5 4 6 3 7 2 8 1 9 10 11 11 12 15 13 16 14
REMARK SMILES IDX 17 15 12 17 13 18 14 19
REMARK H PARENT
REMARK Flexibility Score: 70.00
ROOT
ATOM      1  C   UNL     1       7.453 -16.745  23.174  1.00  0.00     0.136 C 
ATOM      2  O   UNL     1       8.290 -16.814  22.284  1.00  0.00    -0.299 OA
ENDROOT
BRANCH   1   3
ATOM      3  C   UNL     1       7.168 -15.414  23.839  1.00  0.00     0.053 C 
ATOM      4  C   UNL     1       6.756 -14.394  22.774  1.00  0.00     0.016 C 
BRANCH   3   5
ATOM      5  C   UNL     1       8.389 -14.896  24.633  1.00  0.00     0.015 C 
BRANCH   5   6
ATOM      6  C   UNL     1       8.380 -15.322  26.109  1.00  0.00     0.028 C 
BRANCH   6   7
ATOM      7  C   UNL     1       9.370 -16.434  26.365  1.00  0.00    -0.028 C 
ATOM      8  C   UNL     1       9.061 -17.737  26.558  1.00  0.00    -0.070 CG0
ATOM      9  C   UNL     1      10.192 -18.704  26.798  1.00  0.00     0.039 C 
ATOM     10  G   UNL     1       7.636 -18.258  26.580  1.00  0.00     0.000 G0
ENDBRANCH   6   7
ENDBRANCH   5   6
ENDBRANCH   3   5
ENDBRANCH   1   3
BRANCH   1  11
ATOM     11  C   UNL     1       6.710 -17.992  23.576  1.00  0.00     0.087 C 
BRANCH  11  12
ATOM     12  C   UNL     1       7.669 -19.101  24.078  1.00  0.00     0.066 C 
BRANCH  12  13
ATOM     13  C   UNL     1       7.468 -19.363  25.561  1.00  0.00     0.140 C 
ATOM     14  O   UNL     1       7.203 -20.494  25.948  1.00  0.00    -0.299 OA
BRANCH  13  15
ATOM     15  C   UNL     1       7.644 -18.269  26.582  1.00  0.00     0.106 CG0
ATOM     16  G   UNL     1       9.062 -17.731  26.559  1.00  0.00     0.000 G0
ENDBRANCH  13  15
ENDBRANCH  12  13
BRANCH  12  17
ATOM     17  C   UNL     1       7.559 -20.434  23.272  1.00  0.00    -0.006 C 
ATOM     18  C   UNL     1       7.510 -20.237  21.747  1.00  0.00     0.008 C 
ATOM     19  C   UNL     1       8.685 -21.415  23.640  1.00  0.00     0.008 C 
ENDBRANCH  12  17
ENDBRANCH  11  12
ENDBRANCH   1  11
TORSDOF 1
ENDMDL
MODEL 2
REMARK VINA RESULT:    -4.038      2.136      4.464
REMARK INTER + INTRA:          -5.838
REMARK INTER:                  -5.566
REMARK INTRA:                  -0.271
REMARK UNBOUND:                 0.325
REMARK SMILES CC1=CCC[C@@H](C)C(=O)C[C@H](C(C)C)C(=O)C1
REMARK SMILES IDX 8 1 9 2 6 3 7 4 5 5 4 6 3 7 2 8 1 9 10 11 11 12 15 13 16 14
REMARK SMILES IDX 17 15 12 17 13 18 14 19
REMARK H PARENT
REMARK Flexibility Score: 70.00
ROOT
ATOM      1  C   UNL     1       8.053 -18.616  20.738  1.00  0.00     0.136 C 
ATOM      2  O   UNL     1       7.413 -18.619  19.696  1.00  0.00    -0.299 OA
ENDROOT
BRANCH   1   3
ATOM      3  C   UNL     1       8.236 -19.904  21.514  1.00  0.00     0.053 C 
ATOM      4  C   UNL     1       8.726 -21.001  20.564  1.00  0.00     0.016 C 
BRANCH   3   5
ATOM      5  C   UNL     1       6.930 -20.343  22.214  1.00  0.00     0.015 C 
BRANCH   5   6
ATOM      6  C   UNL     1       6.930 -20.075  23.726  1.00  0.00     0.028 C 
BRANCH   6   7
ATOM      7  C   UNL     1       8.337 -19.912  24.253  1.00  0.00    -0.028 C 
ATOM      8  C   UNL     1       8.872 -18.765  24.732  1.00  0.00    -0.070 CG0
ATOM      9  C   UNL     1      10.298 -18.799  25.217  1.00  0.00     0.039 C 
ATOM     10  G   UNL     1       8.118 -17.449  24.769  1.00  0.00     0.000 G0
ENDBRANCH   6   7
ENDBRANCH   5   6
ENDBRANCH   3   5
ENDBRANCH   1   3
BRANCH   1  11
ATOM     11  C   UNL     1       8.662 -17.323  21.216  1.00  0.00     0.087 C 
BRANCH  11  12
ATOM     12  C   UNL     1       7.785 -16.633  22.291  1.00  0.00     0.066 C 
BRANCH  12  13
ATOM     13  C   UNL     1       8.516 -16.555  23.622  1.00  0.00     0.140 C 
ATOM     14  O   UNL     1       9.408 -15.732  23.778  1.00  0.00    -0.299 OA
BRANCH  13  15
ATOM     15  C   UNL     1       8.128 -17.435  24.782  1.00  0.00     0.106 CG0
ATOM     16  G   UNL     1       8.854 -18.765  24.717  1.00  0.00     0.000 G0
ENDBRANCH  13  15
ENDBRANCH  12  13
BRANCH  12  17
ATOM     17  C   UNL     1       7.277 -15.219  21.868  1.00  0.00    -0.006 C 
ATOM     18  C   UNL     1       6.779 -15.146  20.414  1.00  0.00     0.008 C 
ATOM     19  C   UNL     1       6.190 -14.696  22.823  1.00  0.00     0.008 C 
ENDBRANCH  12  17
ENDBRANCH  11  12
ENDBRANCH   1  11
TORSDOF 1
ENDMDL
MODEL 3
REMARK VINA RESULT:    -4.022      1.607      4.188
REMARK INTER + INTRA:          -5.814
REMARK INTER:                  -5.816
REMARK INTRA:                   0.003
REMARK UNBOUND:                 0.325
REMARK SMILES CC1=CCC[C@@H](C)C(=O)C[C@H](C(C)C)C(=O)C1
REMARK SMILES IDX 8 1 9 2 6 3 7 4 5 5 4 6 3 7 2 8 1 9 10 11 11 12 15 13 16 14
REMARK SMILES IDX 17 15 12 17 13 18 14 19
REMARK H PARENT
REMARK Flexibility Score: 70.00
ROOT
ATOM      1  C   UNL     1       7.786 -19.335  23.298  1.00  0.00     0.136 C 
ATOM      2  O   UNL     1       6.742 -19.501  22.682  1.00  0.00    -0.299 OA
ENDROOT
BRANCH   1   3
ATOM      3  C   UNL     1       8.326 -20.444  24.177  1.00  0.00     0.053 C 
ATOM      4  C   UNL     1       8.482 -21.720  23.345  1.00  0.00     0.016 C 
BRANCH   3   5
ATOM      5  C   UNL     1       7.412 -20.708  25.396  1.00  0.00     0.015 C 
BRANCH   5   6
ATOM      6  C   UNL     1       7.877 -19.990  26.671  1.00  0.00     0.028 C 
BRANCH   6   7
ATOM      7  C   UNL     1       9.382 -20.025  26.803  1.00  0.00    -0.028 C 
ATOM      8  C   UNL     1      10.199 -18.947  26.810  1.00  0.00    -0.070 CG0
ATOM      9  C   UNL     1      11.681 -19.185  26.953  1.00  0.00     0.039 C 
ATOM     10  G   UNL     1       9.700 -17.525  26.644  1.00  0.00     0.000 G0
ENDBRANCH   6   7
ENDBRANCH   5   6
ENDBRANCH   3   5
ENDBRANCH   1   3
BRANCH   1  11
ATOM     11  C   UNL     1       8.522 -18.029  23.150  1.00  0.00     0.087 C 
BRANCH  11  12
ATOM     12  C   UNL     1       8.375 -17.136  24.409  1.00  0.00     0.066 C 
BRANCH  12  13
ATOM     13  C   UNL     1       9.671 -17.096  25.201  1.00  0.00     0.140 C 
ATOM     14  O   UNL     1      10.693 -16.676  24.674  1.00  0.00    -0.299 OA
BRANCH  13  15
ATOM     15  C   UNL     1       9.718 -17.510  26.649  1.00  0.00     0.106 CG0
ATOM     16  G   UNL     1      10.196 -18.942  26.786  1.00  0.00     0.000 G0
ENDBRANCH  13  15
ENDBRANCH  12  13
BRANCH  12  17
ATOM     17  C   UNL     1       7.887 -15.687  24.092  1.00  0.00    -0.006 C 
ATOM     18  C   UNL     1       6.386 -15.593  23.768  1.00  0.00     0.008 C 
ATOM     19  C   UNL     1       8.243 -14.708  25.224  1.00  0.00     0.008 C 
ENDBRANCH  12  17
ENDBRANCH  11  12
ENDBRANCH   1  11
TORSDOF 1
ENDMDL
MODEL 4
REMARK VINA RESULT:    -3.944      2.538      4.239
REMARK INTER + INTRA:          -5.694
REMARK INTER:                  -5.377
REMARK INTRA:                  -0.317
REMARK UNBOUND:                 0.325
REMARK SMILES CC1=CCC[C@@H](C)C(=O)C[C@H](C(C)C)C(=O)C1
REMARK SMILES IDX 8 1 9 2 6 3 7 4 5 5 4 6 3 7 2 8 1 9 10 11 11 12 15 13 16 14
REMARK SMILES IDX 17 15 12 17 13 18 14 19
REMARK H PARENT
REMARK Flexibility Score: 70.00
ROOT
ATOM      1  C   UNL     1       8.462 -15.392  23.803  1.00  0.00     0.136 C 
ATOM      2  O   UNL     1       8.686 -14.515  24.624  1.00  0.00    -0.299 OA
ENDROOT
BRANCH   1   3
ATOM      3  C   UNL     1       7.065 -15.961  23.669  1.00  0.00     0.053 C 
ATOM      4  C   UNL     1       6.083 -14.826  23.365  1.00  0.00     0.016 C 
BRANCH   3   5
ATOM      5  C   UNL     1       6.629 -16.720  24.944  1.00  0.00     0.015 C 
BRANCH   5   6
ATOM      6  C   UNL     1       7.241 -18.125  25.054  1.00  0.00     0.028 C 
BRANCH   6   7
ATOM      7  C   UNL     1       7.068 -18.900  23.768  1.00  0.00    -0.028 C 
ATOM      8  C   UNL     1       8.058 -19.510  23.076  1.00  0.00    -0.070 CG0
ATOM      9  C   UNL     1       7.687 -20.240  21.810  1.00  0.00     0.039 C 
ATOM     10  G   UNL     1       9.515 -19.463  23.493  1.00  0.00     0.000 G0
ENDBRANCH   6   7
ENDBRANCH   5   6
ENDBRANCH   3   5
ENDBRANCH   1   3
BRANCH   1  11
ATOM     11  C   UNL     1       9.588 -15.875  22.925  1.00  0.00     0.087 C 
BRANCH  11  12
ATOM     12  C   UNL     1      10.407 -17.003  23.602  1.00  0.00     0.066 C 
BRANCH  12  13
ATOM     13  C   UNL     1      10.247 -18.316  22.856  1.00  0.00     0.140 C 
ATOM     14  O   UNL     1      10.753 -18.452  21.750  1.00  0.00    -0.299 OA
BRANCH  13  15
ATOM     15  C   UNL     1       9.522 -19.485  23.471  1.00  0.00     0.106 CG0
ATOM     16  G   UNL     1       8.060 -19.487  23.068  1.00  0.00     0.000 G0
ENDBRANCH  13  15
ENDBRANCH  12  13
BRANCH  12  17
ATOM     17  C   UNL     1      11.920 -16.657  23.774  1.00  0.00    -0.006 C 
ATOM     18  C   UNL     1      12.248 -15.169  23.556  1.00  0.00     0.008 C 
ATOM     19  C   UNL     1      12.458 -17.120  25.139  1.00  0.00     0.008 C 
ENDBRANCH  12  17
ENDBRANCH  11  12
ENDBRANCH   1  11
TORSDOF 1
ENDMDL
MODEL 5
REMARK VINA RESULT:    -3.931      2.262      5.242
REMARK INTER + INTRA:          -5.674
REMARK INTER:                  -5.380
REMARK INTRA:                  -0.294
REMARK UNBOUND:                 0.325
REMARK SMILES CC1=CCC[C@@H](C)C(=O)C[C@H](C(C)C)C(=O)C1
REMARK SMILES IDX 8 1 9 2 6 3 7 4 5 5 4 6 3 7 2 8 1 9 10 11 11 12 15 13 16 14
REMARK SMILES IDX 17 15 12 17 13 18 14 19
REMARK H PARENT
REMARK Flexibility Score: 70.00
ROOT
ATOM      1  C   UNL     1       7.653 -18.680  25.434  1.00  0.00     0.136 C 
ATOM      2  O   UNL     1       7.737 -18.234  26.569  1.00  0.00    -0.299 OA
ENDROOT
BRANCH   1   3
ATOM      3  C   UNL     1       7.923 -20.149  25.180  1.00  0.00     0.053 C 
ATOM      4  C   UNL     1       7.140 -20.990  26.193  1.00  0.00     0.016 C 
BRANCH   3   5
ATOM      5  C   UNL     1       9.431 -20.478  25.262  1.00  0.00     0.015 C 
BRANCH   5   6
ATOM      6  C   UNL     1      10.117 -20.533  23.889  1.00  0.00     0.028 C 
BRANCH   6   7
ATOM      7  C   UNL     1       9.140 -20.919  22.803  1.00  0.00    -0.028 C 
ATOM      8  C   UNL     1       8.804 -20.157  21.737  1.00  0.00    -0.070 CG0
ATOM      9  C   UNL     1       7.807 -20.717  20.755  1.00  0.00     0.039 C 
ATOM     10  G   UNL     1       9.353 -18.762  21.507  1.00  0.00     0.000 G0
ENDBRANCH   6   7
ENDBRANCH   5   6
ENDBRANCH   3   5
ENDBRANCH   1   3
BRANCH   1  11
ATOM     11  C   UNL     1       7.263 -17.754  24.312  1.00  0.00     0.087 C 
BRANCH  11  12
ATOM     12  C   UNL     1       8.496 -17.265  23.510  1.00  0.00     0.066 C 
BRANCH  12  13
ATOM     13  C   UNL     1       8.408 -17.701  22.057  1.00  0.00     0.140 C 
ATOM     14  O   UNL     1       7.597 -17.170  21.311  1.00  0.00    -0.299 OA
BRANCH  13  15
ATOM     15  C   UNL     1       9.340 -18.742  21.493  1.00  0.00     0.106 CG0
ATOM     16  G   UNL     1       8.805 -20.139  21.743  1.00  0.00     0.000 G0
ENDBRANCH  13  15
ENDBRANCH  12  13
BRANCH  12  17
ATOM     17  C   UNL     1       8.728 -15.724  23.600  1.00  0.00    -0.006 C 
ATOM     18  C   UNL     1       7.462 -14.923  23.953  1.00  0.00     0.008 C 
ATOM     19  C   UNL     1       9.861 -15.376  24.580  1.00  0.00     0.008 C 
ENDBRANCH  12  17
ENDBRANCH  11  12
ENDBRANCH   1  11
TORSDOF 1
ENDMDL
MODEL 6
REMARK VINA RESULT:    -3.918      2.741      4.407
REMARK INTER + INTRA:          -5.655
REMARK INTER:                  -5.407
REMARK INTRA:                  -0.248
REMARK UNBOUND:                 0.325
REMARK SMILES CC1=CCC[C@@H](C)C(=O)C[C@H](C(C)C)C(=O)C1
REMARK SMILES IDX 8 1 9 2 6 3 7 4 5 5 4 6 3 7 2 8 1 9 10 11 11 12 15 13 16 14
REMARK SMILES IDX 17 15 12 17 13 18 14 19
REMARK H PARENT
REMARK Flexibility Score: 70.00
ROOT
ATOM      1  C   UNL     1       8.840 -17.652  24.974  1.00  0.00     0.136 C 
ATOM      2  O   UNL     1       9.010 -17.578  26.182  1.00  0.00    -0.299 OA
ENDROOT
BRANCH   1   3
ATOM      3  C   UNL     1       8.089 -16.554  24.249  1.00  0.00     0.053 C 
ATOM      4  C   UNL     1       6.583 -16.815  24.356  1.00  0.00     0.016 C 
BRANCH   3   5
ATOM      5  C   UNL     1       8.511 -16.451  22.766  1.00  0.00     0.015 C 
BRANCH   5   6
ATOM      6  C   UNL     1       7.437 -16.955  21.791  1.00  0.00     0.028 C 
BRANCH   6   7
ATOM      7  C   UNL     1       8.055 -17.695  20.628  1.00  0.00    -0.028 C 
ATOM      8  C   UNL     1       8.047 -19.037  20.452  1.00  0.00    -0.070 CG0
ATOM      9  C   UNL     1       8.717 -19.592  19.221  1.00  0.00     0.039 C 
ATOM     10  G   UNL     1       7.431 -20.002  21.447  1.00  0.00     0.000 G0
ENDBRANCH   6   7
ENDBRANCH   5   6
ENDBRANCH   3   5
ENDBRANCH   1   3
BRANCH   1  11
ATOM     11  C   UNL     1       9.402 -18.834  24.228  1.00  0.00     0.087 C 
BRANCH  11  12
ATOM     12  C   UNL     1       8.319 -19.904  23.937  1.00  0.00     0.066 C 
BRANCH  12  13
ATOM     13  C   UNL     1       8.427 -20.414  22.510  1.00  0.00     0.140 C 
ATOM     14  O   UNL     1       9.314 -21.203  22.212  1.00  0.00    -0.299 OA
BRANCH  13  15
ATOM     15  C   UNL     1       7.428 -20.012  21.456  1.00  0.00     0.106 CG0
ATOM     16  G   UNL     1       8.054 -19.063  20.451  1.00  0.00     0.000 G0
ENDBRANCH  13  15
ENDBRANCH  12  13
BRANCH  12  17
ATOM     17  C   UNL     1       8.336 -21.098  24.943  1.00  0.00    -0.006 C 
ATOM     18  C   UNL     1       9.700 -21.326  25.616  1.00  0.00     0.008 C 
ATOM     19  C   UNL     1       7.239 -20.957  26.011  1.00  0.00     0.008 C 
ENDBRANCH  12  17
ENDBRANCH  11  12
ENDBRANCH   1  11
TORSDOF 1
ENDMDL
MODEL 7
REMARK VINA RESULT:    -3.880      2.215      5.036
REMARK INTER + INTRA:          -5.597
REMARK INTER:                  -5.351
REMARK INTRA:                  -0.246
REMARK UNBOUND:                 0.325
REMARK SMILES CC1=CCC[C@@H](C)C(=O)C[C@H](C(C)C)C(=O)C1
REMARK SMILES IDX 8 1 9 2 6 3 7 4 5 5 4 6 3 7 2 8 1 9 10 11 11 12 15 13 16 14
REMARK SMILES IDX 17 15 12 17 13 18 14 19
REMARK H PARENT
REMARK Flexibility Score: 70.00
ROOT
ATOM      1  C   UNL     1       9.136 -20.165  26.337  1.00  0.00     0.136 C 
ATOM      2  O   UNL     1       9.716 -21.224  26.533  1.00  0.00    -0.299 OA
ENDROOT
BRANCH   1   3
ATOM      3  C   UNL     1       7.666 -20.167  25.973  1.00  0.00     0.053 C 
ATOM      4  C   UNL     1       6.884 -20.954  27.030  1.00  0.00     0.016 C 
BRANCH   3   5
ATOM      5  C   UNL     1       7.422 -20.768  24.569  1.00  0.00     0.015 C 
BRANCH   5   6
ATOM      6  C   UNL     1       7.528 -19.733  23.439  1.00  0.00     0.028 C 
BRANCH   6   7
ATOM      7  C   UNL     1       7.121 -18.358  23.915  1.00  0.00    -0.028 C 
ATOM      8  C   UNL     1       7.905 -17.255  23.902  1.00  0.00    -0.070 CG0
ATOM      9  C   UNL     1       7.318 -15.966  24.419  1.00  0.00     0.039 C 
ATOM     10  G   UNL     1       9.345 -17.264  23.428  1.00  0.00     0.000 G0
ENDBRANCH   6   7
ENDBRANCH   5   6
ENDBRANCH   3   5
ENDBRANCH   1   3
BRANCH   1  11
ATOM     11  C   UNL     1       9.902 -18.876  26.482  1.00  0.00     0.087 C 
BRANCH  11  12
ATOM     12  C   UNL     1      10.753 -18.564  25.225  1.00  0.00     0.066 C 
BRANCH  12  13
ATOM     13  C   UNL     1      10.314 -17.260  24.580  1.00  0.00     0.140 C 
ATOM     14  O   UNL     1      10.776 -16.199  24.979  1.00  0.00    -0.299 OA
BRANCH  13  15
ATOM     15  C   UNL     1       9.357 -17.244  23.416  1.00  0.00     0.106 CG0
ATOM     16  G   UNL     1       7.919 -17.257  23.897  1.00  0.00     0.000 G0
ENDBRANCH  13  15
ENDBRANCH  12  13
BRANCH  12  17
ATOM     17  C   UNL     1      12.289 -18.541  25.502  1.00  0.00    -0.006 C 
ATOM     18  C   UNL     1      12.736 -19.505  26.615  1.00  0.00     0.008 C 
ATOM     19  C   UNL     1      13.101 -18.804  24.222  1.00  0.00     0.008 C 
ENDBRANCH  12  17
ENDBRANCH  11  12
ENDBRANCH   1  11
TORSDOF 1
ENDMDL
MODEL 8
REMARK VINA RESULT:    -3.829      2.258      4.282
REMARK INTER + INTRA:          -5.519
REMARK INTER:                  -5.490
REMARK INTRA:                  -0.029
REMARK UNBOUND:                 0.325
REMARK SMILES CC1=CCC[C@@H](C)C(=O)C[C@H](C(C)C)C(=O)C1
REMARK SMILES IDX 8 1 9 2 6 3 7 4 5 5 4 6 3 7 2 8 1 9 10 11 11 12 15 13 16 14
REMARK SMILES IDX 17 15 12 17 13 18 14 19
REMARK H PARENT
REMARK Flexibility Score: 70.00
ROOT
ATOM      1  C   UNL     1       8.491 -19.647  21.983  1.00  0.00     0.136 C 
ATOM      2  O   UNL     1       9.575 -20.095  22.329  1.00  0.00    -0.299 OA
ENDROOT
BRANCH   1   3
ATOM      3  C   UNL     1       8.243 -19.314  20.526  1.00  0.00     0.053 C 
ATOM      4  C   UNL     1       9.569 -19.372  19.761  1.00  0.00     0.016 C 
BRANCH   3   5
ATOM      5  C   UNL     1       7.589 -17.923  20.359  1.00  0.00     0.015 C 
BRANCH   5   6
ATOM      6  C   UNL     1       8.490 -16.768  20.820  1.00  0.00     0.028 C 
BRANCH   6   7
ATOM      7  C   UNL     1       7.681 -15.661  21.455  1.00  0.00    -0.028 C 
ATOM      8  C   UNL     1       7.618 -15.388  22.778  1.00  0.00    -0.070 CG0
ATOM      9  C   UNL     1       6.753 -14.236  23.222  1.00  0.00     0.039 C 
ATOM     10  G   UNL     1       8.344 -16.205  23.830  1.00  0.00     0.000 G0
ENDBRANCH   6   7
ENDBRANCH   5   6
ENDBRANCH   3   5
ENDBRANCH   1   3
BRANCH   1  11
ATOM     11  C   UNL     1       7.416 -19.454  23.020  1.00  0.00     0.087 C 
BRANCH  11  12
ATOM     12  C   UNL     1       7.962 -18.772  24.300  1.00  0.00     0.066 C 
BRANCH  12  13
ATOM     13  C   UNL     1       7.514 -17.322  24.378  1.00  0.00     0.140 C 
ATOM     14  O   UNL     1       6.460 -17.040  24.932  1.00  0.00    -0.299 OA
BRANCH  13  15
ATOM     15  C   UNL     1       8.368 -16.207  23.833  1.00  0.00     0.106 CG0
ATOM     16  G   UNL     1       7.611 -15.405  22.792  1.00  0.00     0.000 G0
ENDBRANCH  13  15
ENDBRANCH  12  13
BRANCH  12  17
ATOM     17  C   UNL     1       7.590 -19.526  25.616  1.00  0.00    -0.006 C 
ATOM     18  C   UNL     1       7.464 -21.050  25.446  1.00  0.00     0.008 C 
ATOM     19  C   UNL     1       8.574 -19.203  26.753  1.00  0.00     0.008 C 
ENDBRANCH  12  17
ENDBRANCH  11  12
ENDBRANCH   1  11
TORSDOF 1
ENDMDL
MODEL 9
REMARK VINA RESULT:    -3.812      2.663      5.509
REMARK INTER + INTRA:          -5.493
REMARK INTER:                  -5.275
REMARK INTRA:                  -0.217
REMARK UNBOUND:                 0.325
REMARK SMILES CC1=CCC[C@@H](C)C(=O)C[C@H](C(C)C)C(=O)C1
REMARK SMILES IDX 8 1 9 2 6 3 7 4 5 5 4 6 3 7 2 8 1 9 10 11 11 12 15 13 16 14
REMARK SMILES IDX 17 15 12 17 13 18 14 19
REMARK H PARENT
REMARK Flexibility Score: 70.00
ROOT
ATOM      1  C   UNL     1       7.465 -18.218  24.718  1.00  0.00     0.136 C 
ATOM      2  O   UNL     1       7.138 -17.786  25.814  1.00  0.00    -0.299 OA
ENDROOT
BRANCH   1   3
ATOM      3  C   UNL     1       7.302 -19.692  24.409  1.00  0.00     0.053 C 
ATOM      4  C   UNL     1       8.652 -20.397  24.575  1.00  0.00     0.016 C 
BRANCH   3   5
ATOM      5  C   UNL     1       6.749 -19.922  22.984  1.00  0.00     0.015 C 
BRANCH   5   6
ATOM      6  C   UNL     1       7.782 -20.524  22.020  1.00  0.00     0.028 C 
BRANCH   6   7
ATOM      7  C   UNL     1       7.942 -19.669  20.785  1.00  0.00    -0.028 C 
ATOM      8  C   UNL     1       8.990 -18.856  20.517  1.00  0.00    -0.070 CG0
ATOM      9  C   UNL     1       8.970 -18.081  19.224  1.00  0.00     0.039 C 
ATOM     10  G   UNL     1      10.156 -18.664  21.468  1.00  0.00     0.000 G0
ENDBRANCH   6   7
ENDBRANCH   5   6
ENDBRANCH   3   5
ENDBRANCH   1   3
BRANCH   1  11
ATOM     11  C   UNL     1       8.010 -17.262  23.689  1.00  0.00     0.087 C 
BRANCH  11  12
ATOM     12  C   UNL     1       9.558 -17.284  23.640  1.00  0.00     0.066 C 
BRANCH  12  13
ATOM     13  C   UNL     1      10.057 -17.348  22.206  1.00  0.00     0.140 C 
ATOM     14  O   UNL     1      10.428 -16.326  21.645  1.00  0.00    -0.299 OA
BRANCH  13  15
ATOM     15  C   UNL     1      10.158 -18.658  21.468  1.00  0.00     0.106 CG0
ATOM     16  G   UNL     1       8.973 -18.850  20.541  1.00  0.00     0.000 G0
ENDBRANCH  13  15
ENDBRANCH  12  13
BRANCH  12  17
ATOM     17  C   UNL     1      10.224 -16.089  24.392  1.00  0.00    -0.006 C 
ATOM     18  C   UNL     1       9.287 -14.888  24.606  1.00  0.00     0.008 C 
ATOM     19  C   UNL     1      10.829 -16.530  25.736  1.00  0.00     0.008 C 
ENDBRANCH  12  17
ENDBRANCH  11  12
ENDBRANCH   1  11
TORSDOF 1
ENDMDL
