MODEL 1
REMARK VINA RESULT:    -2.449      0.000      0.000
REMARK INTER + INTRA:          -2.656
REMARK INTER:                  -2.878
REMARK INTRA:                   0.222
REMARK UNBOUND:                 0.222
REMARK SMILES C=C[C@@]1(C)CC[C@H](C(=C)C)C[C@@H]1C(=C)C
REMARK SMILES IDX 7 1 6 2 5 3 3 4 12 5 11 6 4 7 8 8 10 9 9 10 13 11 14 12
REMARK SMILES IDX 15 13 2 14 1 15
REMARK H PARENT
REMARK Flexibility Score: inf
ROOT
ATOM      1  C   UNL     1     147.004 147.265 131.961  1.00  0.00     0.015 C 
ATOM      2  C   UNL     1     146.157 147.762 133.144  1.00  0.00     0.009 C 
ATOM      3  C   UNL     1     145.508 146.585 133.887  1.00  0.00     0.012 C 
ATOM      4  C   UNL     1     144.625 145.689 132.968  1.00  0.00    -0.008 C 
ATOM      5  C   UNL     1     145.479 145.242 131.722  1.00  0.00     0.024 C 
ATOM      6  C   UNL     1     146.150 146.429 130.991  1.00  0.00     0.017 C 
ATOM      7  C   UNL     1     143.343 146.456 132.553  1.00  0.00     0.016 C 
ENDROOT
BRANCH   1   8
ATOM      8  C   UNL     1     147.678 148.426 131.240  1.00  0.00    -0.077 C 
ATOM      9  C   UNL     1     148.788 149.216 131.888  1.00  0.00     0.039 C 
ATOM     10  C   UNL     1     147.287 148.768 130.001  1.00  0.00     0.008 C 
ENDBRANCH   1   8
BRANCH   5  11
ATOM     11  C   UNL     1     144.736 144.333 130.736  1.00  0.00    -0.077 C 
ATOM     12  C   UNL     1     144.600 144.708 129.452  1.00  0.00     0.008 C 
ATOM     13  C   UNL     1     144.114 143.020 131.152  1.00  0.00     0.039 C 
ENDBRANCH   5  11
BRANCH   4  14
ATOM     14  C   UNL     1     144.217 144.450 133.768  1.00  0.00    -0.028 C 
ATOM     15  C   UNL     1     145.079 143.487 134.123  1.00  0.00     0.004 C 
ENDBRANCH   4  14
TORSDOF 3
ENDMDL
MODEL 2
REMARK VINA RESULT:    -2.390      1.364      4.990
REMARK INTER + INTRA:          -2.587
REMARK INTER:                  -2.768
REMARK INTRA:                   0.181
REMARK UNBOUND:                 0.222
REMARK SMILES C=C[C@@]1(C)CC[C@H](C(=C)C)C[C@@H]1C(=C)C
REMARK SMILES IDX 7 1 6 2 5 3 3 4 12 5 11 6 4 7 8 8 10 9 9 10 13 11 14 12
REMARK SMILES IDX 15 13 2 14 1 15
REMARK H PARENT
REMARK Flexibility Score: inf
ROOT
ATOM      1  C   UNL     1     143.732 143.509 131.936  1.00  0.00     0.015 C 
ATOM      2  C   UNL     1     144.602 142.995 133.096  1.00  0.00     0.009 C 
ATOM      3  C   UNL     1     145.271 144.161 133.839  1.00  0.00     0.012 C 
ATOM      4  C   UNL     1     146.138 145.066 132.912  1.00  0.00    -0.008 C 
ATOM      5  C   UNL     1     145.259 145.530 131.690  1.00  0.00     0.024 C 
ATOM      6  C   UNL     1     144.569 144.354 130.959  1.00  0.00     0.017 C 
ATOM      7  C   UNL     1     147.408 144.299 132.462  1.00  0.00     0.016 C 
ENDROOT
BRANCH   1   8
ATOM      8  C   UNL     1     143.039 142.360 131.216  1.00  0.00    -0.077 C 
ATOM      9  C   UNL     1     141.909 141.595 131.860  1.00  0.00     0.039 C 
ATOM     10  C   UNL     1     143.431 142.004 129.981  1.00  0.00     0.008 C 
ENDBRANCH   1   8
BRANCH   5  11
ATOM     11  C   UNL     1     145.985 146.448 130.699  1.00  0.00    -0.077 C 
ATOM     12  C   UNL     1     146.141 146.063 129.421  1.00  0.00     0.008 C 
ATOM     13  C   UNL     1     146.569 147.782 131.105  1.00  0.00     0.039 C 
ENDBRANCH   5  11
BRANCH   4  14
ATOM     14  C   UNL     1     146.567 146.293 133.718  1.00  0.00    -0.028 C 
ATOM     15  C   UNL     1     145.716 147.254 134.104  1.00  0.00     0.004 C 
ENDBRANCH   4  14
TORSDOF 3
ENDMDL
MODEL 3
REMARK VINA RESULT:    -1.778      2.432      3.654
REMARK INTER + INTRA:          -1.868
REMARK INTER:                  -1.968
REMARK INTRA:                   0.100
REMARK UNBOUND:                 0.222
REMARK SMILES C=C[C@@]1(C)CC[C@H](C(=C)C)C[C@@H]1C(=C)C
REMARK SMILES IDX 7 1 6 2 5 3 3 4 12 5 11 6 4 7 8 8 10 9 9 10 13 11 14 12
REMARK SMILES IDX 15 13 2 14 1 15
REMARK H PARENT
REMARK Flexibility Score: inf
ROOT
ATOM      1  C   UNL     1     147.266 143.601 131.958  1.00  0.00     0.015 C 
ATOM      2  C   UNL     1     147.805 144.388 133.164  1.00  0.00     0.009 C 
ATOM      3  C   UNL     1     146.665 145.096 133.910  1.00  0.00     0.012 C 
ATOM      4  C   UNL     1     145.837 146.056 133.004  1.00  0.00    -0.008 C 
ATOM      5  C   UNL     1     145.349 145.259 131.735  1.00  0.00     0.024 C 
ATOM      6  C   UNL     1     146.498 144.528 131.000  1.00  0.00     0.017 C 
ATOM      7  C   UNL     1     146.690 147.293 132.624  1.00  0.00     0.016 C 
ENDROOT
BRANCH   1   8
ATOM      8  C   UNL     1     148.388 142.868 131.232  1.00  0.00    -0.077 C 
ATOM      9  C   UNL     1     149.120 141.717 131.876  1.00  0.00     0.039 C 
ATOM     10  C   UNL     1     148.748 143.244 129.993  1.00  0.00     0.008 C 
ENDBRANCH   1   8
BRANCH   5  11
ATOM     11  C   UNL     1     144.500 146.081 130.757  1.00  0.00    -0.077 C 
ATOM     12  C   UNL     1     144.993 146.399 129.548  1.00  0.00     0.008 C 
ATOM     13  C   UNL     1     143.118 146.583 131.105  1.00  0.00     0.039 C 
ENDBRANCH   5  11
BRANCH   4  14
ATOM     14  C   UNL     1     144.620 146.525 133.801  1.00  0.00    -0.028 C 
ATOM     15  C   UNL     1     143.597 145.722 134.125  1.00  0.00     0.004 C 
ENDBRANCH   4  14
TORSDOF 3
ENDMDL
MODEL 4
REMARK VINA RESULT:    -1.681      2.366      3.457
REMARK INTER + INTRA:          -1.754
REMARK INTER:                  -1.703
REMARK INTRA:                  -0.051
REMARK UNBOUND:                 0.222
REMARK SMILES C=C[C@@]1(C)CC[C@H](C(=C)C)C[C@@H]1C(=C)C
REMARK SMILES IDX 7 1 6 2 5 3 3 4 12 5 11 6 4 7 8 8 10 9 9 10 13 11 14 12
REMARK SMILES IDX 15 13 2 14 1 15
REMARK H PARENT
REMARK Flexibility Score: inf
ROOT
ATOM      1  C   UNL     1     143.481 147.189 131.938  1.00  0.00     0.015 C 
ATOM      2  C   UNL     1     142.961 146.419 133.163  1.00  0.00     0.009 C 
ATOM      3  C   UNL     1     144.112 145.715 133.898  1.00  0.00     0.012 C 
ATOM      4  C   UNL     1     144.920 144.741 132.988  1.00  0.00    -0.008 C 
ATOM      5  C   UNL     1     145.388 145.521 131.701  1.00  0.00     0.024 C 
ATOM      6  C   UNL     1     144.229 146.247 130.978  1.00  0.00     0.017 C 
ATOM      7  C   UNL     1     144.055 143.503 132.639  1.00  0.00     0.016 C 
ENDROOT
BRANCH   1   8
ATOM      8  C   UNL     1     142.349 147.917 131.224  1.00  0.00    -0.077 C 
ATOM      9  C   UNL     1     141.609 149.056 131.881  1.00  0.00     0.039 C 
ATOM     10  C   UNL     1     141.987 147.548 129.984  1.00  0.00     0.008 C 
ENDBRANCH   1   8
BRANCH   5  11
ATOM     11  C   UNL     1     146.216 144.683 130.718  1.00  0.00    -0.077 C 
ATOM     12  C   UNL     1     145.666 144.269 129.564  1.00  0.00     0.008 C 
ATOM     13  C   UNL     1     147.641 144.271 131.003  1.00  0.00     0.039 C 
ENDBRANCH   5  11
BRANCH   4  14
ATOM     14  C   UNL     1     146.150 144.277 133.769  1.00  0.00    -0.028 C 
ATOM     15  C   UNL     1     147.152 145.095 134.119  1.00  0.00     0.004 C 
ENDBRANCH   4  14
TORSDOF 3
ENDMDL
MODEL 5
REMARK VINA RESULT:    -1.555      1.299      2.607
REMARK INTER + INTRA:          -1.605
REMARK INTER:                  -1.793
REMARK INTRA:                   0.188
REMARK UNBOUND:                 0.222
REMARK SMILES C=C[C@@]1(C)CC[C@H](C(=C)C)C[C@@H]1C(=C)C
REMARK SMILES IDX 7 1 6 2 5 3 3 4 12 5 11 6 4 7 8 8 10 9 9 10 13 11 14 12
REMARK SMILES IDX 15 13 2 14 1 15
REMARK H PARENT
REMARK Flexibility Score: inf
ROOT
ATOM      1  C   UNL     1     146.493 147.777 131.512  1.00  0.00     0.015 C 
ATOM      2  C   UNL     1     145.437 147.357 130.477  1.00  0.00     0.009 C 
ATOM      3  C   UNL     1     144.310 146.550 131.138  1.00  0.00     0.012 C 
ATOM      4  C   UNL     1     144.818 145.284 131.891  1.00  0.00    -0.008 C 
ATOM      5  C   UNL     1     145.949 145.714 132.900  1.00  0.00     0.024 C 
ATOM      6  C   UNL     1     147.071 146.546 132.233  1.00  0.00     0.017 C 
ATOM      7  C   UNL     1     145.313 144.226 130.873  1.00  0.00     0.016 C 
ENDROOT
BRANCH   1   8
ATOM      8  C   UNL     1     147.597 148.606 130.869  1.00  0.00    -0.077 C 
ATOM      9  C   UNL     1     148.759 149.130 131.676  1.00  0.00     0.039 C 
ATOM     10  C   UNL     1     147.551 148.888 129.556  1.00  0.00     0.008 C 
ENDBRANCH   1   8
BRANCH   5  11
ATOM     11  C   UNL     1     146.532 144.562 133.728  1.00  0.00    -0.077 C 
ATOM     12  C   UNL     1     147.816 144.606 134.125  1.00  0.00     0.008 C 
ATOM     13  C   UNL     1     145.723 143.343 134.106  1.00  0.00     0.039 C 
ENDBRANCH   5  11
BRANCH   4  14
ATOM     14  C   UNL     1     143.642 144.698 132.675  1.00  0.00    -0.028 C 
ATOM     15  C   UNL     1     142.841 145.432 133.459  1.00  0.00     0.004 C 
ENDBRANCH   4  14
TORSDOF 3
ENDMDL
MODEL 6
REMARK VINA RESULT:    -0.691      1.250      2.614
REMARK INTER + INTRA:          -0.590
REMARK INTER:                  -0.882
REMARK INTRA:                   0.292
REMARK UNBOUND:                 0.222
REMARK SMILES C=C[C@@]1(C)CC[C@H](C(=C)C)C[C@@H]1C(=C)C
REMARK SMILES IDX 7 1 6 2 5 3 3 4 12 5 11 6 4 7 8 8 10 9 9 10 13 11 14 12
REMARK SMILES IDX 15 13 2 14 1 15
REMARK H PARENT
REMARK Flexibility Score: inf
ROOT
ATOM      1  C   UNL     1     146.789 147.061 131.043  1.00  0.00     0.015 C 
ATOM      2  C   UNL     1     147.630 145.931 131.659  1.00  0.00     0.009 C 
ATOM      3  C   UNL     1     146.804 144.643 131.793  1.00  0.00     0.012 C 
ATOM      4  C   UNL     1     145.505 144.828 132.633  1.00  0.00    -0.008 C 
ATOM      5  C   UNL     1     144.684 146.034 132.037  1.00  0.00     0.024 C 
ATOM      6  C   UNL     1     145.526 147.322 131.882  1.00  0.00     0.017 C 
ATOM      7  C   UNL     1     145.865 145.046 134.125  1.00  0.00     0.016 C 
ENDROOT
BRANCH   1   8
ATOM      8  C   UNL     1     147.612 148.332 130.876  1.00  0.00    -0.077 C 
ATOM      9  C   UNL     1     147.623 149.097 129.575  1.00  0.00     0.039 C 
ATOM     10  C   UNL     1     148.351 148.796 131.898  1.00  0.00     0.008 C 
ENDBRANCH   1   8
BRANCH   5  11
ATOM     11  C   UNL     1     143.362 146.320 132.760  1.00  0.00    -0.077 C 
ATOM     12  C   UNL     1     142.446 147.121 132.189  1.00  0.00     0.008 C 
ATOM     13  C   UNL     1     143.044 145.753 134.125  1.00  0.00     0.039 C 
ENDBRANCH   5  11
BRANCH   4  14
ATOM     14  C   UNL     1     144.677 143.548 132.510  1.00  0.00    -0.028 C 
ATOM     15  C   UNL     1     144.180 143.101 131.349  1.00  0.00     0.004 C 
ENDBRANCH   4  14
TORSDOF 3
ENDMDL
MODEL 7
REMARK VINA RESULT:    -0.681      1.474      5.159
REMARK INTER + INTRA:          -0.578
REMARK INTER:                  -1.154
REMARK INTRA:                   0.576
REMARK UNBOUND:                 0.222
REMARK SMILES C=C[C@@]1(C)CC[C@H](C(=C)C)C[C@@H]1C(=C)C
REMARK SMILES IDX 7 1 6 2 5 3 3 4 12 5 11 6 4 7 8 8 10 9 9 10 13 11 14 12
REMARK SMILES IDX 15 13 2 14 1 15
REMARK H PARENT
REMARK Flexibility Score: inf
ROOT
ATOM      1  C   UNL     1     144.640 143.971 130.751  1.00  0.00     0.015 C 
ATOM      2  C   UNL     1     143.926 145.241 130.263  1.00  0.00     0.009 C 
ATOM      3  C   UNL     1     144.906 146.420 130.167  1.00  0.00     0.012 C 
ATOM      4  C   UNL     1     145.633 146.728 131.510  1.00  0.00    -0.008 C 
ATOM      5  C   UNL     1     146.303 145.404 132.039  1.00  0.00     0.024 C 
ATOM      6  C   UNL     1     145.317 144.214 132.112  1.00  0.00     0.017 C 
ATOM      7  C   UNL     1     144.629 147.324 132.530  1.00  0.00     0.016 C 
ENDROOT
BRANCH   1   8
ATOM      8  C   UNL     1     143.681 142.789 130.817  1.00  0.00    -0.077 C 
ATOM      9  C   UNL     1     143.283 142.030 129.576  1.00  0.00     0.039 C 
ATOM     10  C   UNL     1     143.166 142.404 131.997  1.00  0.00     0.008 C 
ENDBRANCH   1   8
BRANCH   5  11
ATOM     11  C   UNL     1     147.074 145.565 133.355  1.00  0.00    -0.077 C 
ATOM     12  C   UNL     1     146.875 146.653 134.119  1.00  0.00     0.008 C 
ATOM     13  C   UNL     1     148.088 144.551 133.831  1.00  0.00     0.039 C 
ENDBRANCH   5  11
BRANCH   4  14
ATOM     14  C   UNL     1     146.722 147.765 131.230  1.00  0.00    -0.028 C 
ATOM     15  C   UNL     1     147.039 148.184 129.998  1.00  0.00     0.004 C 
ENDBRANCH   4  14
TORSDOF 3
ENDMDL
MODEL 8
REMARK VINA RESULT:    -0.607      2.031      4.300
REMARK INTER + INTRA:          -0.492
REMARK INTER:                  -0.777
REMARK INTRA:                   0.285
REMARK UNBOUND:                 0.222
REMARK SMILES C=C[C@@]1(C)CC[C@H](C(=C)C)C[C@@H]1C(=C)C
REMARK SMILES IDX 7 1 6 2 5 3 3 4 12 5 11 6 4 7 8 8 10 9 9 10 13 11 14 12
REMARK SMILES IDX 15 13 2 14 1 15
REMARK H PARENT
REMARK Flexibility Score: inf
ROOT
ATOM      1  C   UNL     1     146.756 144.188 131.105  1.00  0.00     0.015 C 
ATOM      2  C   UNL     1     145.538 143.407 131.624  1.00  0.00     0.009 C 
ATOM      3  C   UNL     1     144.288 144.299 131.663  1.00  0.00     0.012 C 
ATOM      4  C   UNL     1     144.475 145.584 132.524  1.00  0.00    -0.008 C 
ATOM      5  C   UNL     1     145.765 146.342 132.031  1.00  0.00     0.024 C 
ATOM      6  C   UNL     1     147.016 145.433 131.973  1.00  0.00     0.017 C 
ATOM      7  C   UNL     1     144.555 145.208 134.026  1.00  0.00     0.016 C 
ENDROOT
BRANCH   1   8
ATOM      8  C   UNL     1     147.991 143.300 131.033  1.00  0.00    -0.077 C 
ATOM      9  C   UNL     1     148.778 143.150 129.754  1.00  0.00     0.039 C 
ATOM     10  C   UNL     1     148.402 142.626 132.121  1.00  0.00     0.008 C 
ENDBRANCH   1   8
BRANCH   5  11
ATOM     11  C   UNL     1     146.062 147.644 132.785  1.00  0.00    -0.077 C 
ATOM     12  C   UNL     1     146.971 148.507 132.298  1.00  0.00     0.008 C 
ATOM     13  C   UNL     1     145.387 148.000 134.089  1.00  0.00     0.039 C 
ENDBRANCH   5  11
BRANCH   4  14
ATOM     14  C   UNL     1     143.253 146.478 132.308  1.00  0.00    -0.028 C 
ATOM     15  C   UNL     1     142.856 146.902 131.100  1.00  0.00     0.004 C 
ENDBRANCH   4  14
TORSDOF 3
ENDMDL
MODEL 9
REMARK VINA RESULT:    -0.521      1.865      3.729
REMARK INTER + INTRA:          -0.390
REMARK INTER:                  -0.684
REMARK INTRA:                   0.294
REMARK UNBOUND:                 0.222
REMARK SMILES C=C[C@@]1(C)CC[C@H](C(=C)C)C[C@@H]1C(=C)C
REMARK SMILES IDX 7 1 6 2 5 3 3 4 12 5 11 6 4 7 8 8 10 9 9 10 13 11 14 12
REMARK SMILES IDX 15 13 2 14 1 15
REMARK H PARENT
REMARK Flexibility Score: inf
ROOT
ATOM      1  C   UNL     1     144.031 146.610 131.182  1.00  0.00     0.015 C 
ATOM      2  C   UNL     1     145.237 147.385 131.739  1.00  0.00     0.009 C 
ATOM      3  C   UNL     1     146.488 146.494 131.785  1.00  0.00     0.012 C 
ATOM      4  C   UNL     1     146.288 145.193 132.618  1.00  0.00    -0.008 C 
ATOM      5  C   UNL     1     145.009 144.442 132.086  1.00  0.00     0.024 C 
ATOM      6  C   UNL     1     143.757 145.349 132.020  1.00  0.00     0.017 C 
ATOM      7  C   UNL     1     146.177 145.540 134.125  1.00  0.00     0.016 C 
ENDROOT
BRANCH   1   8
ATOM      8  C   UNL     1     142.795 147.497 131.103  1.00  0.00    -0.077 C 
ATOM      9  C   UNL     1     142.000 147.625 129.827  1.00  0.00     0.039 C 
ATOM     10  C   UNL     1     142.392 148.190 132.181  1.00  0.00     0.008 C 
ENDBRANCH   1   8
BRANCH   5  11
ATOM     11  C   UNL     1     144.700 143.124 132.808  1.00  0.00    -0.077 C 
ATOM     12  C   UNL     1     143.782 142.283 132.303  1.00  0.00     0.008 C 
ATOM     13  C   UNL     1     145.375 142.731 134.102  1.00  0.00     0.039 C 
ENDBRANCH   5  11
BRANCH   4  14
ATOM     14  C   UNL     1     147.515 144.305 132.408  1.00  0.00    -0.028 C 
ATOM     15  C   UNL     1     147.916 143.875 131.204  1.00  0.00     0.004 C 
ENDBRANCH   4  14
TORSDOF 3
ENDMDL
