MODEL 1
REMARK VINA RESULT:    -4.302      0.000      0.000
REMARK INTER + INTRA:          -6.895
REMARK INTER:                  -5.812
REMARK INTRA:                  -1.083
REMARK UNBOUND:                -1.083
REMARK SMILES CC(=O)CCC=C(C)CCC=C(C)C
REMARK SMILES IDX 7 1 6 2 8 3 9 4 10 5 11 6 13 7 12 8 14 9 5 10 4 11 2 12 3 13
REMARK SMILES IDX 1 14
REMARK H PARENT
REMARK Flexibility Score: inf
ROOT
ATOM      1  C   UNL     1      -1.228  27.047  53.265  1.00  0.00    -0.077 C 
ATOM      2  C   UNL     1       0.082  26.753  53.420  1.00  0.00    -0.028 C 
ATOM      3  C   UNL     1      -1.910  28.081  54.129  1.00  0.00     0.039 C 
ENDROOT
BRANCH   1   4
ATOM      4  C   UNL     1      -2.021  26.334  52.192  1.00  0.00     0.034 C 
BRANCH   4   5
ATOM      5  C   UNL     1      -2.712  27.340  51.265  1.00  0.00     0.032 C 
BRANCH   5   6
ATOM      6  C   UNL     1      -1.738  27.891  50.253  1.00  0.00    -0.028 C 
ATOM      7  C   UNL     1      -0.426  29.605  49.079  1.00  0.00     0.039 C 
ATOM      8  C   UNL     1      -1.383  29.192  50.166  1.00  0.00    -0.080 C 
ATOM      9  C   UNL     1      -1.905  30.230  51.132  1.00  0.00     0.039 C 
ENDBRANCH   5   6
ENDBRANCH   4   5
ENDBRANCH   1   4
BRANCH   2  10
ATOM     10  C   UNL     1       0.960  27.412  54.459  1.00  0.00     0.035 C 
BRANCH  10  11
ATOM     11  C   UNL     1       1.593  26.392  55.413  1.00  0.00     0.079 C 
BRANCH  11  12
ATOM     12  C   UNL     1       0.556  25.655  56.222  1.00  0.00     0.130 C 
ATOM     13  O   UNL     1       0.545  24.433  56.226  1.00  0.00    -0.300 OA
ATOM     14  C   UNL     1      -0.440  26.410  57.049  1.00  0.00     0.087 C 
ENDBRANCH  11  12
ENDBRANCH  10  11
ENDBRANCH   2  10
TORSDOF 6
ENDMDL
MODEL 2
REMARK VINA RESULT:    -4.246      1.223      1.949
REMARK INTER + INTRA:          -6.819
REMARK INTER:                  -5.821
REMARK INTRA:                  -0.998
REMARK UNBOUND:                -1.083
REMARK SMILES CC(=O)CCC=C(C)CCC=C(C)C
REMARK SMILES IDX 7 1 6 2 8 3 9 4 10 5 11 6 13 7 12 8 14 9 5 10 4 11 2 12 3 13
REMARK SMILES IDX 1 14
REMARK H PARENT
REMARK Flexibility Score: inf
ROOT
ATOM      1  C   UNL     1      -2.160  26.632  51.902  1.00  0.00    -0.077 C 
ATOM      2  C   UNL     1      -1.409  26.968  52.974  1.00  0.00    -0.028 C 
ATOM      3  C   UNL     1      -1.797  25.458  51.024  1.00  0.00     0.039 C 
ENDROOT
BRANCH   1   4
ATOM      4  C   UNL     1      -3.397  27.443  51.586  1.00  0.00     0.034 C 
BRANCH   4   5
ATOM      5  C   UNL     1      -3.036  28.907  51.313  1.00  0.00     0.032 C 
BRANCH   5   6
ATOM      6  C   UNL     1      -2.209  29.028  50.057  1.00  0.00    -0.028 C 
ATOM      7  C   UNL     1      -0.255  29.606  48.684  1.00  0.00     0.039 C 
ATOM      8  C   UNL     1      -0.947  29.508  50.018  1.00  0.00    -0.080 C 
ATOM      9  C   UNL     1      -0.211  29.928  51.270  1.00  0.00     0.039 C 
ENDBRANCH   5   6
ENDBRANCH   4   5
ENDBRANCH   1   4
BRANCH   2  10
ATOM     10  C   UNL     1      -0.158  26.221  53.375  1.00  0.00     0.035 C 
BRANCH  10  11
ATOM     11  C   UNL     1       0.842  27.119  54.113  1.00  0.00     0.079 C 
BRANCH  11  12
ATOM     12  C   UNL     1       1.232  26.548  55.453  1.00  0.00     0.130 C 
ATOM     13  O   UNL     1       2.228  26.965  56.024  1.00  0.00    -0.300 OA
ATOM     14  C   UNL     1       0.386  25.497  56.106  1.00  0.00     0.087 C 
ENDBRANCH  11  12
ENDBRANCH  10  11
ENDBRANCH   2  10
TORSDOF 6
ENDMDL
MODEL 3
REMARK VINA RESULT:    -4.209      2.655      5.386
REMARK INTER + INTRA:          -6.769
REMARK INTER:                  -5.500
REMARK INTRA:                  -1.269
REMARK UNBOUND:                -1.083
REMARK SMILES CC(=O)CCC=C(C)CCC=C(C)C
REMARK SMILES IDX 7 1 6 2 8 3 9 4 10 5 11 6 13 7 12 8 14 9 5 10 4 11 2 12 3 13
REMARK SMILES IDX 1 14
REMARK H PARENT
REMARK Flexibility Score: inf
ROOT
ATOM      1  C   UNL     1      -2.136  28.062  50.816  1.00  0.00    -0.077 C 
ATOM      2  C   UNL     1      -3.345  28.507  51.225  1.00  0.00    -0.028 C 
ATOM      3  C   UNL     1      -1.154  28.978  50.126  1.00  0.00     0.039 C 
ENDROOT
BRANCH   1   4
ATOM      4  C   UNL     1      -1.757  26.620  51.071  1.00  0.00     0.034 C 
BRANCH   4   5
ATOM      5  C   UNL     1      -1.731  26.320  52.574  1.00  0.00     0.032 C 
BRANCH   5   6
ATOM      6  C   UNL     1      -0.327  26.419  53.115  1.00  0.00    -0.028 C 
ATOM      7  C   UNL     1       1.594  27.459  54.240  1.00  0.00     0.039 C 
ATOM      8  C   UNL     1       0.156  27.483  53.792  1.00  0.00    -0.080 C 
ATOM      9  C   UNL     1      -0.706  28.680  54.124  1.00  0.00     0.039 C 
ENDBRANCH   5   6
ENDBRANCH   4   5
ENDBRANCH   1   4
BRANCH   2  10
ATOM     10  C   UNL     1      -3.816  29.928  51.021  1.00  0.00     0.035 C 
BRANCH  10  11
ATOM     11  C   UNL     1      -4.334  30.558  52.321  1.00  0.00     0.079 C 
BRANCH  11  12
ATOM     12  C   UNL     1      -3.234  31.236  53.097  1.00  0.00     0.130 C 
ATOM     13  O   UNL     1      -3.279  31.262  54.317  1.00  0.00    -0.300 OA
ATOM     14  C   UNL     1      -2.066  31.849  52.383  1.00  0.00     0.087 C 
ENDBRANCH  11  12
ENDBRANCH  10  11
ENDBRANCH   2  10
TORSDOF 6
ENDMDL
MODEL 4
REMARK VINA RESULT:    -4.197      2.034      4.088
REMARK INTER + INTRA:          -6.752
REMARK INTER:                  -5.454
REMARK INTRA:                  -1.298
REMARK UNBOUND:                -1.083
REMARK SMILES CC(=O)CCC=C(C)CCC=C(C)C
REMARK SMILES IDX 7 1 6 2 8 3 9 4 10 5 11 6 13 7 12 8 14 9 5 10 4 11 2 12 3 13
REMARK SMILES IDX 1 14
REMARK H PARENT
REMARK Flexibility Score: inf
ROOT
ATOM      1  C   UNL     1      -2.356  29.009  50.384  1.00  0.00    -0.077 C 
ATOM      2  C   UNL     1      -2.674  27.854  51.008  1.00  0.00    -0.028 C 
ATOM      3  C   UNL     1      -0.954  29.275  49.889  1.00  0.00     0.039 C 
ENDROOT
BRANCH   1   4
ATOM      4  C   UNL     1      -3.432  30.049  50.165  1.00  0.00     0.034 C 
BRANCH   4   5
ATOM      5  C   UNL     1      -3.108  31.340  50.924  1.00  0.00     0.032 C 
BRANCH   5   6
ATOM      6  C   UNL     1      -3.176  31.115  52.414  1.00  0.00    -0.028 C 
ATOM      7  C   UNL     1      -2.363  31.064  54.733  1.00  0.00     0.039 C 
ATOM      8  C   UNL     1      -2.165  31.375  53.272  1.00  0.00    -0.080 C 
ATOM      9  C   UNL     1      -0.860  31.982  52.811  1.00  0.00     0.039 C 
ENDBRANCH   5   6
ENDBRANCH   4   5
ENDBRANCH   1   4
BRANCH   2  10
ATOM     10  C   UNL     1      -1.673  26.753  51.271  1.00  0.00     0.035 C 
BRANCH  10  11
ATOM     11  C   UNL     1      -1.494  26.478  52.770  1.00  0.00     0.079 C 
BRANCH  11  12
ATOM     12  C   UNL     1      -0.158  26.957  53.276  1.00  0.00     0.130 C 
ATOM     13  O   UNL     1       0.738  26.152  53.478  1.00  0.00    -0.300 OA
ATOM     14  C   UNL     1       0.090  28.419  53.500  1.00  0.00     0.087 C 
ENDBRANCH  11  12
ENDBRANCH  10  11
ENDBRANCH   2  10
TORSDOF 6
ENDMDL
MODEL 5
REMARK VINA RESULT:    -4.189      1.483      2.448
REMARK INTER + INTRA:          -6.742
REMARK INTER:                  -5.638
REMARK INTRA:                  -1.104
REMARK UNBOUND:                -1.083
REMARK SMILES CC(=O)CCC=C(C)CCC=C(C)C
REMARK SMILES IDX 7 1 6 2 8 3 9 4 10 5 11 6 13 7 12 8 14 9 5 10 4 11 2 12 3 13
REMARK SMILES IDX 1 14
REMARK H PARENT
REMARK Flexibility Score: inf
ROOT
ATOM      1  C   UNL     1      -2.511  27.494  52.198  1.00  0.00    -0.077 C 
ATOM      2  C   UNL     1      -1.337  26.841  52.054  1.00  0.00    -0.028 C 
ATOM      3  C   UNL     1      -3.162  27.652  53.552  1.00  0.00     0.039 C 
ENDROOT
BRANCH   1   4
ATOM      4  C   UNL     1      -3.177  28.090  50.978  1.00  0.00     0.034 C 
BRANCH   4   5
ATOM      5  C   UNL     1      -2.318  29.209  50.379  1.00  0.00     0.032 C 
BRANCH   5   6
ATOM      6  C   UNL     1      -2.249  30.390  51.316  1.00  0.00    -0.028 C 
ATOM      7  C   UNL     1      -1.211  31.985  52.870  1.00  0.00     0.039 C 
ATOM      8  C   UNL     1      -1.121  30.813  51.929  1.00  0.00    -0.080 C 
ATOM      9  C   UNL     1       0.218  30.156  51.682  1.00  0.00     0.039 C 
ENDBRANCH   5   6
ENDBRANCH   4   5
ENDBRANCH   1   4
BRANCH   2  10
ATOM     10  C   UNL     1      -0.592  26.214  53.210  1.00  0.00     0.035 C 
BRANCH  10  11
ATOM     11  C   UNL     1       0.513  27.131  53.752  1.00  0.00     0.079 C 
BRANCH  11  12
ATOM     12  C   UNL     1       1.078  26.625  55.055  1.00  0.00     0.130 C 
ATOM     13  O   UNL     1       2.081  27.141  55.522  1.00  0.00    -0.300 OA
ATOM     14  C   UNL     1       0.396  25.516  55.799  1.00  0.00     0.087 C 
ENDBRANCH  11  12
ENDBRANCH  10  11
ENDBRANCH   2  10
TORSDOF 6
ENDMDL
MODEL 6
REMARK VINA RESULT:    -4.162      1.593      2.911
REMARK INTER + INTRA:          -6.705
REMARK INTER:                  -5.262
REMARK INTRA:                  -1.442
REMARK UNBOUND:                -1.083
REMARK SMILES CC(=O)CCC=C(C)CCC=C(C)C
REMARK SMILES IDX 7 1 6 2 8 3 9 4 10 5 11 6 13 7 12 8 14 9 5 10 4 11 2 12 3 13
REMARK SMILES IDX 1 14
REMARK H PARENT
REMARK Flexibility Score: inf
ROOT
ATOM      1  C   UNL     1      -2.983  27.616  51.386  1.00  0.00    -0.077 C 
ATOM      2  C   UNL     1      -1.759  27.042  51.396  1.00  0.00    -0.028 C 
ATOM      3  C   UNL     1      -3.976  27.370  52.497  1.00  0.00     0.039 C 
ENDROOT
BRANCH   1   4
ATOM      4  C   UNL     1      -3.355  28.536  50.245  1.00  0.00     0.034 C 
BRANCH   4   5
ATOM      5  C   UNL     1      -2.282  29.612  50.038  1.00  0.00     0.032 C 
BRANCH   5   6
ATOM      6  C   UNL     1      -2.255  30.570  51.203  1.00  0.00    -0.028 C 
ATOM      7  C   UNL     1      -1.308  31.749  53.139  1.00  0.00     0.039 C 
ATOM      8  C   UNL     1      -1.177  30.789  51.986  1.00  0.00    -0.080 C 
ATOM      9  C   UNL     1       0.151  30.114  51.727  1.00  0.00     0.039 C 
ENDBRANCH   5   6
ENDBRANCH   4   5
ENDBRANCH   1   4
BRANCH   2  10
ATOM     10  C   UNL     1      -1.291  26.112  52.492  1.00  0.00     0.035 C 
BRANCH  10  11
ATOM     11  C   UNL     1      -0.061  26.658  53.228  1.00  0.00     0.079 C 
BRANCH  11  12
ATOM     12  C   UNL     1      -0.402  27.145  54.613  1.00  0.00     0.130 C 
ATOM     13  O   UNL     1       0.083  26.591  55.588  1.00  0.00    -0.300 OA
ATOM     14  C   UNL     1      -1.305  28.327  54.803  1.00  0.00     0.087 C 
ENDBRANCH  11  12
ENDBRANCH  10  11
ENDBRANCH   2  10
TORSDOF 6
ENDMDL
MODEL 7
REMARK VINA RESULT:    -4.101      1.792      3.613
REMARK INTER + INTRA:          -6.623
REMARK INTER:                  -5.343
REMARK INTRA:                  -1.280
REMARK UNBOUND:                -1.083
REMARK SMILES CC(=O)CCC=C(C)CCC=C(C)C
REMARK SMILES IDX 7 1 6 2 8 3 9 4 10 5 11 6 13 7 12 8 14 9 5 10 4 11 2 12 3 13
REMARK SMILES IDX 1 14
REMARK H PARENT
REMARK Flexibility Score: inf
ROOT
ATOM      1  C   UNL     1      -0.229  28.188  53.035  1.00  0.00    -0.077 C 
ATOM      2  C   UNL     1       0.946  28.074  53.693  1.00  0.00    -0.028 C 
ATOM      3  C   UNL     1      -1.045  26.972  52.666  1.00  0.00     0.039 C 
ENDROOT
BRANCH   1   4
ATOM      4  C   UNL     1      -0.742  29.565  52.677  1.00  0.00     0.034 C 
BRANCH   4   5
ATOM      5  C   UNL     1      -2.152  29.785  53.234  1.00  0.00     0.032 C 
BRANCH   5   6
ATOM      6  C   UNL     1      -2.108  30.015  54.725  1.00  0.00    -0.028 C 
ATOM      7  C   UNL     1      -2.692  29.662  57.085  1.00  0.00     0.039 C 
ATOM      8  C   UNL     1      -2.804  29.293  55.629  1.00  0.00    -0.080 C 
ATOM      9  C   UNL     1      -3.672  28.124  55.223  1.00  0.00     0.039 C 
ENDBRANCH   5   6
ENDBRANCH   4   5
ENDBRANCH   1   4
BRANCH   2  10
ATOM     10  C   UNL     1       1.541  26.745  54.098  1.00  0.00     0.035 C 
BRANCH  10  11
ATOM     11  C   UNL     1       1.675  26.611  55.620  1.00  0.00     0.079 C 
BRANCH  11  12
ATOM     12  C   UNL     1       0.541  25.821  56.220  1.00  0.00     0.130 C 
ATOM     13  O   UNL     1       0.605  24.601  56.260  1.00  0.00    -0.300 OA
ATOM     14  C   UNL     1      -0.651  26.521  56.799  1.00  0.00     0.087 C 
ENDBRANCH  11  12
ENDBRANCH  10  11
ENDBRANCH   2  10
TORSDOF 6
ENDMDL
MODEL 8
REMARK VINA RESULT:    -4.070      1.592      2.765
REMARK INTER + INTRA:          -6.580
REMARK INTER:                  -5.943
REMARK INTRA:                  -0.637
REMARK UNBOUND:                -1.083
REMARK SMILES CC(=O)CCC=C(C)CCC=C(C)C
REMARK SMILES IDX 7 1 6 2 8 3 9 4 10 5 11 6 13 7 12 8 14 9 5 10 4 11 2 12 3 13
REMARK SMILES IDX 1 14
REMARK H PARENT
REMARK Flexibility Score: inf
ROOT
ATOM      1  C   UNL     1      -1.424  27.820  51.509  1.00  0.00    -0.077 C 
ATOM      2  C   UNL     1      -0.995  28.705  52.436  1.00  0.00    -0.028 C 
ATOM      3  C   UNL     1      -1.419  26.334  51.780  1.00  0.00     0.039 C 
ENDROOT
BRANCH   1   4
ATOM      4  C   UNL     1      -1.933  28.333  50.180  1.00  0.00     0.034 C 
BRANCH   4   5
ATOM      5  C   UNL     1      -1.330  29.704  49.857  1.00  0.00     0.032 C 
BRANCH   5   6
ATOM      6  C   UNL     1      -0.058  29.554  49.059  1.00  0.00    -0.028 C 
ATOM      7  C   UNL     1       1.402  29.677  47.087  1.00  0.00     0.039 C 
ATOM      8  C   UNL     1       0.081  29.924  47.768  1.00  0.00    -0.080 C 
ATOM      9  C   UNL     1      -1.039  30.588  47.000  1.00  0.00     0.039 C 
ENDBRANCH   5   6
ENDBRANCH   4   5
ENDBRANCH   1   4
BRANCH   2  10
ATOM     10  C   UNL     1      -0.472  28.294  53.792  1.00  0.00     0.035 C 
BRANCH  10  11
ATOM     11  C   UNL     1       1.050  28.101  53.792  1.00  0.00     0.079 C 
BRANCH  11  12
ATOM     12  C   UNL     1       1.449  26.766  54.367  1.00  0.00     0.130 C 
ATOM     13  O   UNL     1       1.659  25.822  53.621  1.00  0.00    -0.300 OA
ATOM     14  C   UNL     1       1.627  26.598  55.846  1.00  0.00     0.087 C 
ENDBRANCH  11  12
ENDBRANCH  10  11
ENDBRANCH   2  10
TORSDOF 6
ENDMDL
MODEL 9
REMARK VINA RESULT:    -4.064      3.021      4.216
REMARK INTER + INTRA:          -6.572
REMARK INTER:                  -5.207
REMARK INTRA:                  -1.365
REMARK UNBOUND:                -1.083
REMARK SMILES CC(=O)CCC=C(C)CCC=C(C)C
REMARK SMILES IDX 7 1 6 2 8 3 9 4 10 5 11 6 13 7 12 8 14 9 5 10 4 11 2 12 3 13
REMARK SMILES IDX 1 14
REMARK H PARENT
REMARK Flexibility Score: inf
ROOT
ATOM      1  C   UNL     1      -0.838  27.503  53.417  1.00  0.00    -0.077 C 
ATOM      2  C   UNL     1      -1.971  28.001  53.960  1.00  0.00    -0.028 C 
ATOM      3  C   UNL     1       0.504  28.149  53.669  1.00  0.00     0.039 C 
ENDROOT
BRANCH   1   4
ATOM      4  C   UNL     1      -0.918  26.265  52.551  1.00  0.00     0.034 C 
BRANCH   4   5
ATOM      5  C   UNL     1      -1.898  26.472  51.391  1.00  0.00     0.032 C 
BRANCH   5   6
ATOM      6  C   UNL     1      -1.611  27.768  50.674  1.00  0.00    -0.028 C 
ATOM      7  C   UNL     1      -2.122  29.913  49.591  1.00  0.00     0.039 C 
ATOM      8  C   UNL     1      -2.551  28.680  50.341  1.00  0.00    -0.080 C 
ATOM      9  C   UNL     1      -4.005  28.503  50.714  1.00  0.00     0.039 C 
ENDBRANCH   5   6
ENDBRANCH   4   5
ENDBRANCH   1   4
BRANCH   2  10
ATOM     10  C   UNL     1      -1.996  29.228  54.840  1.00  0.00     0.035 C 
BRANCH  10  11
ATOM     11  C   UNL     1      -3.108  30.206  54.439  1.00  0.00     0.079 C 
BRANCH  11  12
ATOM     12  C   UNL     1      -2.714  31.056  53.259  1.00  0.00     0.130 C 
ATOM     13  O   UNL     1      -3.575  31.497  52.513  1.00  0.00    -0.300 OA
ATOM     14  C   UNL     1      -1.274  31.395  53.013  1.00  0.00     0.087 C 
ENDBRANCH  11  12
ENDBRANCH  10  11
ENDBRANCH   2  10
TORSDOF 6
ENDMDL
