MODEL 1
REMARK VINA RESULT:    -6.839      0.000      0.000
REMARK INTER + INTRA:         -16.327
REMARK INTER:                 -13.036
REMARK INTRA:                  -3.290
REMARK UNBOUND:                -3.290
REMARK SMILES C[C@@H]1O[C@H](O[C@@H]2[C@@H](O)[C@H](OCCc3ccc(O)c(O)c3)O[C@H](CO)[C@H]2OC(=O)C=Cc2ccc(O)c(O)c2)[C@H](O)[C@H](O)[C@H]1O
REMARK SMILES IDX 6 1 7 2 9 3 21 4 22 5 25 6 5 7 4 8 1 9 2 10 43 11 3 12 41 13
REMARK SMILES IDX 39 14 44 15 42 17 40 19 8 21 26 23 27 24 28 25 29 26 30 27
REMARK SMILES IDX 31 28 38 29 32 30 36 31 33 32 34 33 37 34 35 36 10 38 11 39
REMARK SMILES IDX 12 40 13 41 20 42 14 43 18 44 15 45 16 46 19 47 17 49 23 51
REMARK SMILES IDX 24 52
REMARK H PARENT 44 16 42 18 40 20 8 22 37 35 35 37 19 48 17 50 24 53
REMARK Flexibility Score: inf
ROOT
ATOM      1  C   UNL     1      71.706  43.174   6.469  1.00  0.00     0.199 C 
ATOM      2  C   UNL     1      72.355  44.185   5.478  1.00  0.00     0.203 C 
ATOM      3  C   UNL     1      72.919  45.423   6.212  1.00  0.00     0.282 C 
ATOM      4  O   UNL     1      73.558  45.021   7.413  1.00  0.00    -0.340 OA
ATOM      5  C   UNL     1      72.601  44.647   8.395  1.00  0.00     0.190 C 
ATOM      6  C   UNL     1      71.383  43.842   7.822  1.00  0.00     0.240 C 
ENDROOT
BRANCH   1   7
ATOM      7  O   UNL     1      72.574  42.059   6.683  1.00  0.00    -0.340 OA
BRANCH   7   8
ATOM      8  C   UNL     1      71.889  40.817   6.544  1.00  0.00     0.282 C 
ATOM      9  C   UNL     1      74.280  40.976   4.516  1.00  0.00     0.041 C 
ATOM     10  C   UNL     1      73.322  39.838   4.889  1.00  0.00     0.150 C 
ATOM     11  C   UNL     1      73.905  38.825   5.908  1.00  0.00     0.174 C 
ATOM     12  O   UNL     1      72.020  40.307   5.225  1.00  0.00    -0.344 OA
ATOM     13  C   UNL     1      73.780  39.332   7.357  1.00  0.00     0.179 C 
ATOM     14  C   UNL     1      72.349  39.815   7.615  1.00  0.00     0.202 C 
BRANCH  11  15
ATOM     15  O   UNL     1      73.209  37.609   5.802  1.00  0.00    -0.388 OA
ATOM     16  H   UNL     1      72.491  37.623   6.492  1.00  0.00     0.211 HD
ENDBRANCH  11  15
BRANCH  13  17
ATOM     17  O   UNL     1      74.697  40.368   7.614  1.00  0.00    -0.387 OA
ATOM     18  H   UNL     1      74.728  40.931   6.793  1.00  0.00     0.211 HD
ENDBRANCH  13  17
BRANCH  14  19
ATOM     19  O   UNL     1      72.254  40.405   8.888  1.00  0.00    -0.385 OA
ATOM     20  H   UNL     1      73.183  40.526   9.223  1.00  0.00     0.211 HD
ENDBRANCH  14  19
ENDBRANCH   7   8
ENDBRANCH   1   7
BRANCH   2  21
ATOM     21  O   UNL     1      71.444  44.573   4.470  1.00  0.00    -0.385 OA
ATOM     22  H   UNL     1      71.019  43.740   4.105  1.00  0.00     0.211 HD
ENDBRANCH   2  21
BRANCH   6  23
ATOM     23  O   UNL     1      70.273  44.722   7.615  1.00  0.00    -0.453 OA
BRANCH  23  24
ATOM     24  C   UNL     1      69.158  44.795   8.462  1.00  0.00     0.331 C 
ATOM     25  O   UNL     1      68.119  44.111   8.227  1.00  0.00    -0.247 OA
BRANCH  24  26
ATOM     26  C   UNL     1      69.254  45.658   9.654  1.00  0.00     0.094 C 
ATOM     27  C   UNL     1      68.292  46.470  10.122  1.00  0.00     0.016 C 
BRANCH  27  28
ATOM     28  C   UNL     1      67.023  46.783   9.437  1.00  0.00    -0.021 A 
ATOM     29  C   UNL     1      67.035  47.610   8.305  1.00  0.00     0.058 A 
ATOM     30  C   UNL     1      65.819  46.169   9.825  1.00  0.00     0.012 A 
ATOM     31  C   UNL     1      65.853  47.863   7.591  1.00  0.00     0.157 A 
ATOM     32  C   UNL     1      64.644  46.417   9.114  1.00  0.00     0.051 A 
ATOM     33  C   UNL     1      64.650  47.267   8.003  1.00  0.00     0.157 A 
BRANCH  31  34
ATOM     34  O   UNL     1      65.869  48.697   6.472  1.00  0.00    -0.504 OA
ATOM     35  H   UNL     1      65.582  48.364   5.566  1.00  0.00     0.293 HD
ENDBRANCH  31  34
BRANCH  33  36
ATOM     36  O   UNL     1      63.456  47.496   7.318  1.00  0.00    -0.504 OA
ATOM     37  H   UNL     1      62.676  46.855   7.365  1.00  0.00     0.293 HD
ENDBRANCH  33  36
ENDBRANCH  27  28
ENDBRANCH  24  26
ENDBRANCH  23  24
ENDBRANCH   6  23
BRANCH   3  38
ATOM     38  O   UNL     1      73.764  46.179   5.354  1.00  0.00    -0.350 OA
BRANCH  38  39
ATOM     39  C   UNL     1      73.399  47.540   5.240  1.00  0.00     0.168 C 
BRANCH  39  40
ATOM     40  C   UNL     1      73.584  48.238   6.602  1.00  0.00     0.064 C 
BRANCH  40  41
ATOM     41  C   UNL     1      72.299  48.863   7.082  1.00  0.00    -0.042 A 
ATOM     42  C   UNL     1      71.128  48.784   6.309  1.00  0.00     0.054 A 
ATOM     43  C   UNL     1      72.252  49.473   8.344  1.00  0.00     0.008 A 
ATOM     44  C   UNL     1      69.926  49.324   6.785  1.00  0.00     0.157 A 
ATOM     45  C   UNL     1      71.054  50.017   8.822  1.00  0.00     0.050 A 
ATOM     46  C   UNL     1      69.889  49.947   8.047  1.00  0.00     0.157 A 
BRANCH  44  47
ATOM     47  O   UNL     1      68.779  49.223   6.000  1.00  0.00    -0.504 OA
ATOM     48  H   UNL     1      67.846  49.227   6.397  1.00  0.00     0.293 HD
ENDBRANCH  44  47
BRANCH  46  49
ATOM     49  O   UNL     1      68.698  50.491   8.527  1.00  0.00    -0.504 OA
ATOM     50  H   UNL     1      67.950  49.911   8.898  1.00  0.00     0.293 HD
ENDBRANCH  46  49
ENDBRANCH  40  41
ENDBRANCH  39  40
ENDBRANCH  38  39
ENDBRANCH   3  38
BRANCH   5  51
ATOM     51  C   UNL     1      73.306  43.855   9.505  1.00  0.00     0.192 C 
BRANCH  51  52
ATOM     52  O   UNL     1      74.100  42.834   8.955  1.00  0.00    -0.394 OA
ATOM     53  H   UNL     1      74.686  43.255   8.268  1.00  0.00     0.210 HD
ENDBRANCH  51  52
ENDBRANCH   5  51
TORSDOF 20
ENDMDL
MODEL 2
REMARK VINA RESULT:    -6.567      1.344      4.978
REMARK INTER + INTRA:         -15.808
REMARK INTER:                 -13.049
REMARK INTRA:                  -2.759
REMARK UNBOUND:                -3.290
REMARK SMILES C[C@@H]1O[C@H](O[C@@H]2[C@@H](O)[C@H](OCCc3ccc(O)c(O)c3)O[C@H](CO)[C@H]2OC(=O)C=Cc2ccc(O)c(O)c2)[C@H](O)[C@H](O)[C@H]1O
REMARK SMILES IDX 6 1 7 2 9 3 21 4 22 5 25 6 5 7 4 8 1 9 2 10 43 11 3 12 41 13
REMARK SMILES IDX 39 14 44 15 42 17 40 19 8 21 26 23 27 24 28 25 29 26 30 27
REMARK SMILES IDX 31 28 38 29 32 30 36 31 33 32 34 33 37 34 35 36 10 38 11 39
REMARK SMILES IDX 12 40 13 41 20 42 14 43 18 44 15 45 16 46 19 47 17 49 23 51
REMARK SMILES IDX 24 52
REMARK H PARENT 44 16 42 18 40 20 8 22 37 35 35 37 19 48 17 50 24 53
REMARK Flexibility Score: inf
ROOT
ATOM      1  C   UNL     1      72.917  43.807   7.930  1.00  0.00     0.199 C 
ATOM      2  C   UNL     1      71.623  44.141   8.729  1.00  0.00     0.203 C 
ATOM      3  C   UNL     1      70.982  45.463   8.250  1.00  0.00     0.282 C 
ATOM      4  O   UNL     1      71.043  45.543   6.835  1.00  0.00    -0.340 OA
ATOM      5  C   UNL     1      72.368  45.815   6.399  1.00  0.00     0.190 C 
ATOM      6  C   UNL     1      73.473  45.054   7.212  1.00  0.00     0.240 C 
ENDROOT
BRANCH   1   7
ATOM      7  O   UNL     1      72.659  42.779   6.970  1.00  0.00    -0.340 OA
BRANCH   7   8
ATOM      8  C   UNL     1      73.731  41.842   6.893  1.00  0.00     0.282 C 
ATOM      9  C   UNL     1      71.137  40.445   7.976  1.00  0.00     0.041 C 
ATOM     10  C   UNL     1      72.508  39.893   7.567  1.00  0.00     0.150 C 
ATOM     11  C   UNL     1      72.553  39.298   6.137  1.00  0.00     0.174 C 
ATOM     12  O   UNL     1      73.568  40.801   7.847  1.00  0.00    -0.344 OA
ATOM     13  C   UNL     1      72.735  40.389   5.067  1.00  0.00     0.179 C 
ATOM     14  C   UNL     1      73.893  41.312   5.460  1.00  0.00     0.202 C 
BRANCH  11  15
ATOM     15  O   UNL     1      73.630  38.399   6.043  1.00  0.00    -0.388 OA
ATOM     16  H   UNL     1      73.263  37.542   5.691  1.00  0.00     0.211 HD
ENDBRANCH  11  15
BRANCH  13  17
ATOM     17  O   UNL     1      71.554  41.135   4.896  1.00  0.00    -0.387 OA
ATOM     18  H   UNL     1      70.797  40.496   4.990  1.00  0.00     0.211 HD
ENDBRANCH  13  17
BRANCH  14  19
ATOM     19  O   UNL     1      73.984  42.391   4.563  1.00  0.00    -0.385 OA
ATOM     20  H   UNL     1      73.277  42.259   3.875  1.00  0.00     0.211 HD
ENDBRANCH  14  19
ENDBRANCH   7   8
ENDBRANCH   1   7
BRANCH   2  21
ATOM     21  O   UNL     1      71.873  44.181  10.119  1.00  0.00    -0.385 OA
ATOM     22  H   UNL     1      72.209  43.276  10.395  1.00  0.00     0.211 HD
ENDBRANCH   2  21
BRANCH   6  23
ATOM     23  O   UNL     1      74.024  45.918   8.211  1.00  0.00    -0.453 OA
BRANCH  23  24
ATOM     24  C   UNL     1      73.632  47.251   8.400  1.00  0.00     0.331 C 
ATOM     25  O   UNL     1      73.018  47.605   9.450  1.00  0.00    -0.247 OA
BRANCH  24  26
ATOM     26  C   UNL     1      73.996  48.230   7.360  1.00  0.00     0.094 C 
ATOM     27  C   UNL     1      73.256  49.281   6.968  1.00  0.00     0.016 C 
BRANCH  27  28
ATOM     28  C   UNL     1      71.867  49.555   7.381  1.00  0.00    -0.021 A 
ATOM     29  C   UNL     1      70.806  49.031   6.628  1.00  0.00     0.058 A 
ATOM     30  C   UNL     1      71.587  50.228   8.584  1.00  0.00     0.012 A 
ATOM     31  C   UNL     1      69.476  49.213   7.041  1.00  0.00     0.157 A 
ATOM     32  C   UNL     1      70.266  50.407   8.997  1.00  0.00     0.051 A 
ATOM     33  C   UNL     1      69.207  49.911   8.230  1.00  0.00     0.157 A 
BRANCH  31  34
ATOM     34  O   UNL     1      68.425  48.700   6.281  1.00  0.00    -0.504 OA
ATOM     35  H   UNL     1      68.052  49.205   5.493  1.00  0.00     0.293 HD
ENDBRANCH  31  34
BRANCH  33  36
ATOM     36  O   UNL     1      67.898  50.112   8.671  1.00  0.00    -0.504 OA
ATOM     37  H   UNL     1      67.674  50.261   9.645  1.00  0.00     0.293 HD
ENDBRANCH  33  36
ENDBRANCH  27  28
ENDBRANCH  24  26
ENDBRANCH  23  24
ENDBRANCH   6  23
BRANCH   3  38
ATOM     38  O   UNL     1      69.663  45.602   8.762  1.00  0.00    -0.350 OA
BRANCH  38  39
ATOM     39  C   UNL     1      68.692  44.844   8.066  1.00  0.00     0.168 C 
BRANCH  39  40
ATOM     40  C   UNL     1      67.498  44.559   8.998  1.00  0.00     0.064 C 
BRANCH  40  41
ATOM     41  C   UNL     1      66.306  45.411   8.646  1.00  0.00    -0.042 A 
ATOM     42  C   UNL     1      66.470  46.751   8.257  1.00  0.00     0.054 A 
ATOM     43  C   UNL     1      65.023  44.844   8.643  1.00  0.00     0.008 A 
ATOM     44  C   UNL     1      65.360  47.521   7.884  1.00  0.00     0.157 A 
ATOM     45  C   UNL     1      63.912  45.611   8.276  1.00  0.00     0.050 A 
ATOM     46  C   UNL     1      64.073  46.950   7.896  1.00  0.00     0.157 A 
BRANCH  44  47
ATOM     47  O   UNL     1      65.554  48.846   7.493  1.00  0.00    -0.504 OA
ATOM     48  H   UNL     1      66.261  49.438   7.913  1.00  0.00     0.293 HD
ENDBRANCH  44  47
BRANCH  46  49
ATOM     49  O   UNL     1      62.964  47.711   7.531  1.00  0.00    -0.504 OA
ATOM     50  H   UNL     1      62.013  47.368   7.640  1.00  0.00     0.293 HD
ENDBRANCH  46  49
ENDBRANCH  40  41
ENDBRANCH  39  40
ENDBRANCH  38  39
ENDBRANCH   3  38
BRANCH   5  51
ATOM     51  C   UNL     1      72.477  45.500   4.901  1.00  0.00     0.192 C 
BRANCH  51  52
ATOM     52  O   UNL     1      71.731  44.353   4.581  1.00  0.00    -0.394 OA
ATOM     53  H   UNL     1      72.380  43.611   4.436  1.00  0.00     0.210 HD
ENDBRANCH  51  52
ENDBRANCH   5  51
TORSDOF 20
ENDMDL
MODEL 3
REMARK VINA RESULT:    -6.442      2.388      8.577
REMARK INTER + INTRA:         -15.570
REMARK INTER:                 -12.947
REMARK INTRA:                  -2.623
REMARK UNBOUND:                -3.290
REMARK SMILES C[C@@H]1O[C@H](O[C@@H]2[C@@H](O)[C@H](OCCc3ccc(O)c(O)c3)O[C@H](CO)[C@H]2OC(=O)C=Cc2ccc(O)c(O)c2)[C@H](O)[C@H](O)[C@H]1O
REMARK SMILES IDX 6 1 7 2 9 3 21 4 22 5 25 6 5 7 4 8 1 9 2 10 43 11 3 12 41 13
REMARK SMILES IDX 39 14 44 15 42 17 40 19 8 21 26 23 27 24 28 25 29 26 30 27
REMARK SMILES IDX 31 28 38 29 32 30 36 31 33 32 34 33 37 34 35 36 10 38 11 39
REMARK SMILES IDX 12 40 13 41 20 42 14 43 18 44 15 45 16 46 19 47 17 49 23 51
REMARK SMILES IDX 24 52
REMARK H PARENT 44 16 42 18 40 20 8 22 37 35 35 37 19 48 17 50 24 53
REMARK Flexibility Score: inf
ROOT
ATOM      1  C   UNL     1      66.814  47.182   7.523  1.00  0.00     0.199 C 
ATOM      2  C   UNL     1      67.509  45.985   8.236  1.00  0.00     0.203 C 
ATOM      3  C   UNL     1      68.562  46.465   9.261  1.00  0.00     0.282 C 
ATOM      4  O   UNL     1      68.065  47.588   9.972  1.00  0.00    -0.340 OA
ATOM      5  C   UNL     1      68.068  48.748   9.151  1.00  0.00     0.190 C 
ATOM      6  C   UNL     1      67.637  48.479   7.667  1.00  0.00     0.240 C 
ENDROOT
BRANCH   1   7
ATOM      7  O   UNL     1      65.504  47.387   8.056  1.00  0.00    -0.340 OA
BRANCH   7   8
ATOM      8  C   UNL     1      65.069  46.277   8.839  1.00  0.00     0.282 C 
ATOM      9  C   UNL     1      63.576  48.892   9.728  1.00  0.00     0.041 C 
ATOM     10  C   UNL     1      63.397  47.420  10.122  1.00  0.00     0.150 C 
ATOM     11  C   UNL     1      62.246  46.699   9.376  1.00  0.00     0.174 C 
ATOM     12  O   UNL     1      64.625  46.701  10.120  1.00  0.00    -0.344 OA
ATOM     13  C   UNL     1      62.682  46.215   7.980  1.00  0.00     0.179 C 
ATOM     14  C   UNL     1      64.009  45.457   8.086  1.00  0.00     0.202 C 
BRANCH  11  15
ATOM     15  O   UNL     1      61.836  45.582  10.125  1.00  0.00    -0.388 OA
ATOM     16  H   UNL     1      61.016  45.224   9.687  1.00  0.00     0.211 HD
ENDBRANCH  11  15
BRANCH  13  17
ATOM     17  O   UNL     1      62.806  47.293   7.085  1.00  0.00    -0.387 OA
ATOM     18  H   UNL     1      63.454  47.929   7.493  1.00  0.00     0.211 HD
ENDBRANCH  13  17
BRANCH  14  19
ATOM     19  O   UNL     1      64.487  45.128   6.805  1.00  0.00    -0.385 OA
ATOM     20  H   UNL     1      63.728  44.720   6.307  1.00  0.00     0.211 HD
ENDBRANCH  14  19
ENDBRANCH   7   8
ENDBRANCH   1   7
BRANCH   2  21
ATOM     21  O   UNL     1      68.089  45.097   7.303  1.00  0.00    -0.385 OA
ATOM     22  H   UNL     1      69.085  45.222   7.338  1.00  0.00     0.211 HD
ENDBRANCH   2  21
BRANCH   6  23
ATOM     23  O   UNL     1      68.799  48.348   6.841  1.00  0.00    -0.453 OA
BRANCH  23  24
ATOM     24  C   UNL     1      69.688  49.395   6.563  1.00  0.00     0.331 C 
ATOM     25  O   UNL     1      69.720  49.932   5.416  1.00  0.00    -0.247 OA
BRANCH  24  26
ATOM     26  C   UNL     1      70.549  49.877   7.658  1.00  0.00     0.094 C 
ATOM     27  C   UNL     1      71.860  49.623   7.805  1.00  0.00     0.016 C 
BRANCH  27  28
ATOM     28  C   UNL     1      72.647  48.675   6.995  1.00  0.00    -0.021 A 
ATOM     29  C   UNL     1      72.182  48.299   5.726  1.00  0.00     0.058 A 
ATOM     30  C   UNL     1      73.913  48.235   7.419  1.00  0.00     0.012 A 
ATOM     31  C   UNL     1      72.948  47.456   4.904  1.00  0.00     0.157 A 
ATOM     32  C   UNL     1      74.677  47.401   6.601  1.00  0.00     0.051 A 
ATOM     33  C   UNL     1      74.200  47.000   5.348  1.00  0.00     0.157 A 
BRANCH  31  34
ATOM     34  O   UNL     1      72.475  47.076   3.647  1.00  0.00    -0.504 OA
ATOM     35  H   UNL     1      72.185  46.129   3.461  1.00  0.00     0.293 HD
ENDBRANCH  31  34
BRANCH  33  36
ATOM     36  O   UNL     1      74.988  46.162   4.559  1.00  0.00    -0.504 OA
ATOM     37  H   UNL     1      74.587  45.489   3.920  1.00  0.00     0.293 HD
ENDBRANCH  33  36
ENDBRANCH  27  28
ENDBRANCH  24  26
ENDBRANCH  23  24
ENDBRANCH   6  23
BRANCH   3  38
ATOM     38  O   UNL     1      68.964  45.398  10.111  1.00  0.00    -0.350 OA
BRANCH  38  39
ATOM     39  C   UNL     1      70.337  45.072  10.015  1.00  0.00     0.168 C 
BRANCH  39  40
ATOM     40  C   UNL     1      70.998  45.945   8.931  1.00  0.00     0.064 C 
BRANCH  40  41
ATOM     41  C   UNL     1      71.721  45.105   7.909  1.00  0.00    -0.042 A 
ATOM     42  C   UNL     1      71.176  44.901   6.630  1.00  0.00     0.054 A 
ATOM     43  C   UNL     1      72.985  44.576   8.212  1.00  0.00     0.008 A 
ATOM     44  C   UNL     1      71.878  44.160   5.670  1.00  0.00     0.157 A 
ATOM     45  C   UNL     1      73.687  43.833   7.258  1.00  0.00     0.050 A 
ATOM     46  C   UNL     1      73.140  43.620   5.986  1.00  0.00     0.157 A 
BRANCH  44  47
ATOM     47  O   UNL     1      71.316  43.981   4.407  1.00  0.00    -0.504 OA
ATOM     48  H   UNL     1      70.593  43.294   4.226  1.00  0.00     0.293 HD
ENDBRANCH  44  47
BRANCH  46  49
ATOM     49  O   UNL     1      73.843  42.879   5.038  1.00  0.00    -0.504 OA
ATOM     50  H   UNL     1      73.444  42.640   4.134  1.00  0.00     0.293 HD
ENDBRANCH  46  49
ENDBRANCH  40  41
ENDBRANCH  39  40
ENDBRANCH  38  39
ENDBRANCH   3  38
BRANCH   5  51
ATOM     51  C   UNL     1      67.173  49.818   9.794  1.00  0.00     0.192 C 
BRANCH  51  52
ATOM     52  O   UNL     1      67.623  51.106   9.460  1.00  0.00    -0.394 OA
ATOM     53  H   UNL     1      67.264  51.316   8.555  1.00  0.00     0.210 HD
ENDBRANCH  51  52
ENDBRANCH   5  51
TORSDOF 20
ENDMDL
MODEL 4
REMARK VINA RESULT:    -6.014      2.238      6.879
REMARK INTER + INTRA:         -14.754
REMARK INTER:                 -11.686
REMARK INTRA:                  -3.069
REMARK UNBOUND:                -3.290
REMARK SMILES C[C@@H]1O[C@H](O[C@@H]2[C@@H](O)[C@H](OCCc3ccc(O)c(O)c3)O[C@H](CO)[C@H]2OC(=O)C=Cc2ccc(O)c(O)c2)[C@H](O)[C@H](O)[C@H]1O
REMARK SMILES IDX 6 1 7 2 9 3 21 4 22 5 25 6 5 7 4 8 1 9 2 10 43 11 3 12 41 13
REMARK SMILES IDX 39 14 44 15 42 17 40 19 8 21 26 23 27 24 28 25 29 26 30 27
REMARK SMILES IDX 31 28 38 29 32 30 36 31 33 32 34 33 37 34 35 36 10 38 11 39
REMARK SMILES IDX 12 40 13 41 20 42 14 43 18 44 15 45 16 46 19 47 17 49 23 51
REMARK SMILES IDX 24 52
REMARK H PARENT 44 16 42 18 40 20 8 22 37 35 35 37 19 48 17 50 24 53
REMARK Flexibility Score: inf
ROOT
ATOM      1  C   UNL     1      71.539  44.874   7.161  1.00  0.00     0.199 C 
ATOM      2  C   UNL     1      70.076  45.000   7.682  1.00  0.00     0.203 C 
ATOM      3  C   UNL     1      69.815  44.066   8.885  1.00  0.00     0.282 C 
ATOM      4  O   UNL     1      70.934  44.079   9.756  1.00  0.00    -0.340 OA
ATOM      5  C   UNL     1      72.021  43.354   9.195  1.00  0.00     0.190 C 
ATOM      6  C   UNL     1      72.199  43.569   7.651  1.00  0.00     0.240 C 
ENDROOT
BRANCH   1   7
ATOM      7  O   UNL     1      72.317  45.993   7.589  1.00  0.00    -0.340 OA
BRANCH   7   8
ATOM      8  C   UNL     1      71.581  47.212   7.520  1.00  0.00     0.282 C 
ATOM      9  C   UNL     1      73.848  47.430   9.680  1.00  0.00     0.041 C 
ATOM     10  C   UNL     1      72.874  48.465   9.103  1.00  0.00     0.150 C 
ATOM     11  C   UNL     1      73.481  49.356   7.989  1.00  0.00     0.174 C 
ATOM     12  O   UNL     1      71.613  47.898   8.763  1.00  0.00    -0.344 OA
ATOM     13  C   UNL     1      73.463  48.655   6.619  1.00  0.00     0.179 C 
ATOM     14  C   UNL     1      72.068  48.081   6.350  1.00  0.00     0.202 C 
BRANCH  11  15
ATOM     15  O   UNL     1      72.737  50.545   7.891  1.00  0.00    -0.388 OA
ATOM     16  H   UNL     1      73.185  51.217   8.475  1.00  0.00     0.211 HD
ENDBRANCH  11  15
BRANCH  13  17
ATOM     17  O   UNL     1      74.430  47.635   6.556  1.00  0.00    -0.387 OA
ATOM     18  H   UNL     1      75.216  48.017   6.080  1.00  0.00     0.211 HD
ENDBRANCH  13  17
BRANCH  14  19
ATOM     19  O   UNL     1      72.072  47.322   5.165  1.00  0.00    -0.385 OA
ATOM     20  H   UNL     1      71.529  46.507   5.339  1.00  0.00     0.211 HD
ENDBRANCH  14  19
ENDBRANCH   7   8
ENDBRANCH   1   7
BRANCH   2  21
ATOM     21  O   UNL     1      69.141  44.759   6.650  1.00  0.00    -0.385 OA
ATOM     22  H   UNL     1      68.628  43.930   6.888  1.00  0.00     0.211 HD
ENDBRANCH   2  21
BRANCH   6  23
ATOM     23  O   UNL     1      71.596  42.484   6.938  1.00  0.00    -0.453 OA
BRANCH  23  24
ATOM     24  C   UNL     1      72.270  41.310   6.575  1.00  0.00     0.331 C 
ATOM     25  O   UNL     1      72.230  40.881   5.384  1.00  0.00    -0.247 OA
BRANCH  24  26
ATOM     26  C   UNL     1      73.059  40.620   7.611  1.00  0.00     0.094 C 
ATOM     27  C   UNL     1      72.623  39.633   8.412  1.00  0.00     0.016 C 
BRANCH  27  28
ATOM     28  C   UNL     1      71.227  39.173   8.525  1.00  0.00    -0.021 A 
ATOM     29  C   UNL     1      70.238  40.066   8.964  1.00  0.00     0.058 A 
ATOM     30  C   UNL     1      70.848  37.892   8.086  1.00  0.00     0.012 A 
ATOM     31  C   UNL     1      68.890  39.676   9.009  1.00  0.00     0.157 A 
ATOM     32  C   UNL     1      69.507  37.504   8.127  1.00  0.00     0.051 A 
ATOM     33  C   UNL     1      68.525  38.384   8.594  1.00  0.00     0.157 A 
BRANCH  31  34
ATOM     34  O   UNL     1      67.913  40.565   9.457  1.00  0.00    -0.504 OA
ATOM     35  H   UNL     1      67.910  40.906  10.405  1.00  0.00     0.293 HD
ENDBRANCH  31  34
BRANCH  33  36
ATOM     36  O   UNL     1      67.196  37.962   8.625  1.00  0.00    -0.504 OA
ATOM     37  H   UNL     1      66.424  38.599   8.484  1.00  0.00     0.293 HD
ENDBRANCH  33  36
ENDBRANCH  27  28
ENDBRANCH  24  26
ENDBRANCH  23  24
ENDBRANCH   6  23
BRANCH   3  38
ATOM     38  O   UNL     1      68.596  44.404   9.534  1.00  0.00    -0.350 OA
BRANCH  38  39
ATOM     39  C   UNL     1      68.594  45.691  10.120  1.00  0.00     0.168 C 
BRANCH  39  40
ATOM     40  C   UNL     1      67.227  46.362   9.880  1.00  0.00     0.064 C 
BRANCH  40  41
ATOM     41  C   UNL     1      67.365  47.855   9.718  1.00  0.00    -0.042 A 
ATOM     42  C   UNL     1      68.518  48.412   9.140  1.00  0.00     0.054 A 
ATOM     43  C   UNL     1      66.303  48.695  10.088  1.00  0.00     0.008 A 
ATOM     44  C   UNL     1      68.616  49.796   8.949  1.00  0.00     0.157 A 
ATOM     45  C   UNL     1      66.399  50.078   9.902  1.00  0.00     0.050 A 
ATOM     46  C   UNL     1      67.553  50.635   9.334  1.00  0.00     0.157 A 
BRANCH  44  47
ATOM     47  O   UNL     1      69.768  50.320   8.364  1.00  0.00    -0.504 OA
ATOM     48  H   UNL     1      69.845  50.484   7.367  1.00  0.00     0.293 HD
ENDBRANCH  44  47
BRANCH  46  49
ATOM     49  O   UNL     1      67.644  52.014   9.150  1.00  0.00    -0.504 OA
ATOM     50  H   UNL     1      67.196  52.487   8.369  1.00  0.00     0.293 HD
ENDBRANCH  46  49
ENDBRANCH  40  41
ENDBRANCH  39  40
ENDBRANCH  38  39
ENDBRANCH   3  38
BRANCH   5  51
ATOM     51  C   UNL     1      73.308  43.720   9.949  1.00  0.00     0.192 C 
BRANCH  51  52
ATOM     52  O   UNL     1      74.340  44.028   9.047  1.00  0.00    -0.394 OA
ATOM     53  H   UNL     1      75.133  43.487   9.313  1.00  0.00     0.210 HD
ENDBRANCH  51  52
ENDBRANCH   5  51
TORSDOF 20
ENDMDL
MODEL 5
REMARK VINA RESULT:    -5.896      1.373      5.144
REMARK INTER + INTRA:         -14.529
REMARK INTER:                 -11.669
REMARK INTRA:                  -2.860
REMARK UNBOUND:                -3.290
REMARK SMILES C[C@@H]1O[C@H](O[C@@H]2[C@@H](O)[C@H](OCCc3ccc(O)c(O)c3)O[C@H](CO)[C@H]2OC(=O)C=Cc2ccc(O)c(O)c2)[C@H](O)[C@H](O)[C@H]1O
REMARK SMILES IDX 6 1 7 2 9 3 21 4 22 5 25 6 5 7 4 8 1 9 2 10 43 11 3 12 41 13
REMARK SMILES IDX 39 14 44 15 42 17 40 19 8 21 26 23 27 24 28 25 29 26 30 27
REMARK SMILES IDX 31 28 38 29 32 30 36 31 33 32 34 33 37 34 35 36 10 38 11 39
REMARK SMILES IDX 12 40 13 41 20 42 14 43 18 44 15 45 16 46 19 47 17 49 23 51
REMARK SMILES IDX 24 52
REMARK H PARENT 44 16 42 18 40 20 8 22 37 35 35 37 19 48 17 50 24 53
REMARK Flexibility Score: inf
ROOT
ATOM      1  C   UNL     1      73.111  43.543   7.850  1.00  0.00     0.199 C 
ATOM      2  C   UNL     1      72.717  44.359   9.116  1.00  0.00     0.203 C 
ATOM      3  C   UNL     1      71.501  45.275   8.850  1.00  0.00     0.282 C 
ATOM      4  O   UNL     1      70.543  44.586   8.062  1.00  0.00    -0.340 OA
ATOM      5  C   UNL     1      70.984  44.472   6.715  1.00  0.00     0.190 C 
ATOM      6  C   UNL     1      72.515  44.167   6.571  1.00  0.00     0.240 C 
ENDROOT
BRANCH   1   7
ATOM      7  O   UNL     1      72.669  42.190   7.972  1.00  0.00    -0.340 OA
BRANCH   7   8
ATOM      8  C   UNL     1      73.754  41.267   7.907  1.00  0.00     0.282 C 
ATOM      9  C   UNL     1      71.591  40.265   9.950  1.00  0.00     0.041 C 
ATOM     10  C   UNL     1      72.863  39.611   9.395  1.00  0.00     0.150 C 
ATOM     11  C   UNL     1      72.610  38.618   8.231  1.00  0.00     0.174 C 
ATOM     12  O   UNL     1      73.893  40.557   9.130  1.00  0.00    -0.344 OA
ATOM     13  C   UNL     1      72.459  39.342   6.881  1.00  0.00     0.179 C 
ATOM     14  C   UNL     1      73.610  40.335   6.694  1.00  0.00     0.202 C 
BRANCH  11  15
ATOM     15  O   UNL     1      73.694  37.728   8.139  1.00  0.00    -0.388 OA
ATOM     16  H   UNL     1      74.148  37.911   7.272  1.00  0.00     0.211 HD
ENDBRANCH  11  15
BRANCH  13  17
ATOM     17  O   UNL     1      71.222  40.009   6.798  1.00  0.00    -0.387 OA
ATOM     18  H   UNL     1      70.552  39.331   6.510  1.00  0.00     0.211 HD
ENDBRANCH  13  17
BRANCH  14  19
ATOM     19  O   UNL     1      73.412  41.099   5.530  1.00  0.00    -0.385 OA
ATOM     20  H   UNL     1      72.877  40.542   4.903  1.00  0.00     0.211 HD
ENDBRANCH  14  19
ENDBRANCH   7   8
ENDBRANCH   1   7
BRANCH   2  21
ATOM     21  O   UNL     1      73.810  45.109   9.606  1.00  0.00    -0.385 OA
ATOM     22  H   UNL     1      73.793  45.057  10.608  1.00  0.00     0.211 HD
ENDBRANCH   2  21
BRANCH   6  23
ATOM     23  O   UNL     1      73.229  45.379   6.308  1.00  0.00    -0.453 OA
BRANCH  23  24
ATOM     24  C   UNL     1      73.405  45.927   5.029  1.00  0.00     0.331 C 
ATOM     25  O   UNL     1      72.709  45.525   4.050  1.00  0.00    -0.247 OA
BRANCH  24  26
ATOM     26  C   UNL     1      74.392  47.010   4.874  1.00  0.00     0.094 C 
ATOM     27  C   UNL     1      74.380  48.190   5.517  1.00  0.00     0.016 C 
BRANCH  27  28
ATOM     28  C   UNL     1      73.286  48.693   6.368  1.00  0.00    -0.021 A 
ATOM     29  C   UNL     1      71.960  48.581   5.926  1.00  0.00     0.058 A 
ATOM     30  C   UNL     1      73.538  49.171   7.666  1.00  0.00     0.012 A 
ATOM     31  C   UNL     1      70.895  48.983   6.749  1.00  0.00     0.157 A 
ATOM     32  C   UNL     1      72.480  49.568   8.486  1.00  0.00     0.051 A 
ATOM     33  C   UNL     1      71.159  49.485   8.033  1.00  0.00     0.157 A 
BRANCH  31  34
ATOM     34  O   UNL     1      69.578  48.880   6.298  1.00  0.00    -0.504 OA
ATOM     35  H   UNL     1      68.839  49.430   6.707  1.00  0.00     0.293 HD
ENDBRANCH  31  34
BRANCH  33  36
ATOM     36  O   UNL     1      70.126  49.894   8.878  1.00  0.00    -0.504 OA
ATOM     37  H   UNL     1      70.066  50.836   9.239  1.00  0.00     0.293 HD
ENDBRANCH  33  36
ENDBRANCH  27  28
ENDBRANCH  24  26
ENDBRANCH  23  24
ENDBRANCH   6  23
BRANCH   3  38
ATOM     38  O   UNL     1      70.967  45.776  10.069  1.00  0.00    -0.350 OA
BRANCH  38  39
ATOM     39  C   UNL     1      69.818  46.584   9.906  1.00  0.00     0.168 C 
BRANCH  39  40
ATOM     40  C   UNL     1      68.554  45.729  10.125  1.00  0.00     0.064 C 
BRANCH  40  41
ATOM     41  C   UNL     1      67.369  46.294   9.384  1.00  0.00    -0.042 A 
ATOM     42  C   UNL     1      67.548  47.076   8.230  1.00  0.00     0.054 A 
ATOM     43  C   UNL     1      66.069  45.983   9.811  1.00  0.00     0.008 A 
ATOM     44  C   UNL     1      66.440  47.555   7.520  1.00  0.00     0.157 A 
ATOM     45  C   UNL     1      64.960  46.464   9.107  1.00  0.00     0.050 A 
ATOM     46  C   UNL     1      65.138  47.251   7.962  1.00  0.00     0.157 A 
BRANCH  44  47
ATOM     47  O   UNL     1      66.648  48.321   6.373  1.00  0.00    -0.504 OA
ATOM     48  H   UNL     1      65.888  48.761   5.869  1.00  0.00     0.293 HD
ENDBRANCH  44  47
BRANCH  46  49
ATOM     49  O   UNL     1      64.030  47.728   7.263  1.00  0.00    -0.504 OA
ATOM     50  H   UNL     1      63.316  48.299   7.707  1.00  0.00     0.293 HD
ENDBRANCH  46  49
ENDBRANCH  40  41
ENDBRANCH  39  40
ENDBRANCH  38  39
ENDBRANCH   3  38
BRANCH   5  51
ATOM     51  C   UNL     1      70.144  43.402   6.004  1.00  0.00     0.192 C 
BRANCH  51  52
ATOM     52  O   UNL     1      70.968  42.535   5.266  1.00  0.00    -0.394 OA
ATOM     53  H   UNL     1      70.398  42.115   4.565  1.00  0.00     0.210 HD
ENDBRANCH  51  52
ENDBRANCH   5  51
TORSDOF 20
ENDMDL
MODEL 6
REMARK VINA RESULT:    -5.812      1.980      8.554
REMARK INTER + INTRA:         -14.369
REMARK INTER:                 -10.772
REMARK INTRA:                  -3.598
REMARK UNBOUND:                -3.290
REMARK SMILES C[C@@H]1O[C@H](O[C@@H]2[C@@H](O)[C@H](OCCc3ccc(O)c(O)c3)O[C@H](CO)[C@H]2OC(=O)C=Cc2ccc(O)c(O)c2)[C@H](O)[C@H](O)[C@H]1O
REMARK SMILES IDX 6 1 7 2 9 3 21 4 22 5 25 6 5 7 4 8 1 9 2 10 43 11 3 12 41 13
REMARK SMILES IDX 39 14 44 15 42 17 40 19 8 21 26 23 27 24 28 25 29 26 30 27
REMARK SMILES IDX 31 28 38 29 32 30 36 31 33 32 34 33 37 34 35 36 10 38 11 39
REMARK SMILES IDX 12 40 13 41 20 42 14 43 18 44 15 45 16 46 19 47 17 49 23 51
REMARK SMILES IDX 24 52
REMARK H PARENT 44 16 42 18 40 20 8 22 37 35 35 37 19 48 17 50 24 53
REMARK Flexibility Score: inf
ROOT
ATOM      1  C   UNL     1      69.362  44.981   7.592  1.00  0.00     0.199 C 
ATOM      2  C   UNL     1      68.694  43.707   8.189  1.00  0.00     0.203 C 
ATOM      3  C   UNL     1      69.598  43.029   9.244  1.00  0.00     0.282 C 
ATOM      4  O   UNL     1      70.213  44.017  10.056  1.00  0.00    -0.340 OA
ATOM      5  C   UNL     1      71.240  44.692   9.343  1.00  0.00     0.190 C 
ATOM      6  C   UNL     1      70.884  44.990   7.844  1.00  0.00     0.240 C 
ENDROOT
BRANCH   1   7
ATOM      7  O   UNL     1      68.778  46.158   8.152  1.00  0.00    -0.340 OA
BRANCH   7   8
ATOM      8  C   UNL     1      67.944  46.837   7.215  1.00  0.00     0.282 C 
ATOM      9  C   UNL     1      66.591  46.793  10.047  1.00  0.00     0.041 C 
ATOM     10  C   UNL     1      66.214  47.497   8.738  1.00  0.00     0.150 C 
ATOM     11  C   UNL     1      66.641  48.985   8.670  1.00  0.00     0.174 C 
ATOM     12  O   UNL     1      66.577  46.741   7.587  1.00  0.00    -0.344 OA
ATOM     13  C   UNL     1      68.118  49.141   8.265  1.00  0.00     0.179 C 
ATOM     14  C   UNL     1      68.406  48.290   7.023  1.00  0.00     0.202 C 
BRANCH  11  15
ATOM     15  O   UNL     1      65.847  49.653   7.722  1.00  0.00    -0.388 OA
ATOM     16  H   UNL     1      66.230  50.566   7.612  1.00  0.00     0.211 HD
ENDBRANCH  11  15
BRANCH  13  17
ATOM     17  O   UNL     1      68.976  48.772   9.317  1.00  0.00    -0.387 OA
ATOM     18  H   UNL     1      69.492  47.982   9.001  1.00  0.00     0.211 HD
ENDBRANCH  13  17
BRANCH  14  19
ATOM     19  O   UNL     1      69.779  48.315   6.721  1.00  0.00    -0.385 OA
ATOM     20  H   UNL     1      70.072  49.265   6.774  1.00  0.00     0.211 HD
ENDBRANCH  14  19
ENDBRANCH   7   8
ENDBRANCH   1   7
BRANCH   2  21
ATOM     21  O   UNL     1      68.336  42.790   7.175  1.00  0.00    -0.385 OA
ATOM     22  H   UNL     1      67.764  43.278   6.509  1.00  0.00     0.211 HD
ENDBRANCH   2  21
BRANCH   6  23
ATOM     23  O   UNL     1      71.468  43.993   7.000  1.00  0.00    -0.453 OA
BRANCH  23  24
ATOM     24  C   UNL     1      72.128  44.271   5.794  1.00  0.00     0.331 C 
ATOM     25  O   UNL     1      71.479  44.639   4.770  1.00  0.00    -0.247 OA
BRANCH  24  26
ATOM     26  C   UNL     1      73.598  44.165   5.773  1.00  0.00     0.094 C 
ATOM     27  C   UNL     1      74.464  45.086   6.228  1.00  0.00     0.016 C 
BRANCH  27  28
ATOM     28  C   UNL     1      74.115  46.447   6.676  1.00  0.00    -0.021 A 
ATOM     29  C   UNL     1      74.379  46.828   7.999  1.00  0.00     0.058 A 
ATOM     30  C   UNL     1      73.634  47.408   5.768  1.00  0.00     0.012 A 
ATOM     31  C   UNL     1      74.126  48.140   8.430  1.00  0.00     0.157 A 
ATOM     32  C   UNL     1      73.386  48.714   6.195  1.00  0.00     0.051 A 
ATOM     33  C   UNL     1      73.620  49.085   7.523  1.00  0.00     0.157 A 
BRANCH  31  34
ATOM     34  O   UNL     1      74.379  48.510   9.752  1.00  0.00    -0.504 OA
ATOM     35  H   UNL     1      74.291  47.849  10.507  1.00  0.00     0.293 HD
ENDBRANCH  31  34
BRANCH  33  36
ATOM     36  O   UNL     1      73.356  50.398   7.916  1.00  0.00    -0.504 OA
ATOM     37  H   UNL     1      73.494  51.185   7.297  1.00  0.00     0.293 HD
ENDBRANCH  33  36
ENDBRANCH  27  28
ENDBRANCH  24  26
ENDBRANCH  23  24
ENDBRANCH   6  23
BRANCH   3  38
ATOM     38  O   UNL     1      68.870  42.064   9.991  1.00  0.00    -0.350 OA
BRANCH  38  39
ATOM     39  C   UNL     1      69.239  40.726   9.719  1.00  0.00     0.168 C 
BRANCH  39  40
ATOM     40  C   UNL     1      70.755  40.557   9.941  1.00  0.00     0.064 C 
BRANCH  40  41
ATOM     41  C   UNL     1      71.415  39.885   8.764  1.00  0.00    -0.042 A 
ATOM     42  C   UNL     1      71.690  40.602   7.588  1.00  0.00     0.054 A 
ATOM     43  C   UNL     1      71.820  38.545   8.866  1.00  0.00     0.008 A 
ATOM     44  C   UNL     1      72.348  39.982   6.517  1.00  0.00     0.157 A 
ATOM     45  C   UNL     1      72.474  37.922   7.798  1.00  0.00     0.050 A 
ATOM     46  C   UNL     1      72.740  38.633   6.621  1.00  0.00     0.157 A 
BRANCH  44  47
ATOM     47  O   UNL     1      72.616  40.721   5.366  1.00  0.00    -0.504 OA
ATOM     48  H   UNL     1      71.886  41.182   4.834  1.00  0.00     0.293 HD
ENDBRANCH  44  47
BRANCH  46  49
ATOM     49  O   UNL     1      73.391  38.008   5.559  1.00  0.00    -0.504 OA
ATOM     50  H   UNL     1      74.045  38.504   4.959  1.00  0.00     0.293 HD
ENDBRANCH  46  49
ENDBRANCH  40  41
ENDBRANCH  39  40
ENDBRANCH  38  39
ENDBRANCH   3  38
BRANCH   5  51
ATOM     51  C   UNL     1      71.597  45.987  10.087  1.00  0.00     0.192 C 
BRANCH  51  52
ATOM     52  O   UNL     1      71.127  47.108   9.382  1.00  0.00    -0.394 OA
ATOM     53  H   UNL     1      71.656  47.168   8.540  1.00  0.00     0.210 HD
ENDBRANCH  51  52
ENDBRANCH   5  51
TORSDOF 20
ENDMDL
MODEL 7
REMARK VINA RESULT:    -5.596      1.999      7.914
REMARK INTER + INTRA:         -13.958
REMARK INTER:                 -10.707
REMARK INTRA:                  -3.250
REMARK UNBOUND:                -3.290
REMARK SMILES C[C@@H]1O[C@H](O[C@@H]2[C@@H](O)[C@H](OCCc3ccc(O)c(O)c3)O[C@H](CO)[C@H]2OC(=O)C=Cc2ccc(O)c(O)c2)[C@H](O)[C@H](O)[C@H]1O
REMARK SMILES IDX 6 1 7 2 9 3 21 4 22 5 25 6 5 7 4 8 1 9 2 10 43 11 3 12 41 13
REMARK SMILES IDX 39 14 44 15 42 17 40 19 8 21 26 23 27 24 28 25 29 26 30 27
REMARK SMILES IDX 31 28 38 29 32 30 36 31 33 32 34 33 37 34 35 36 10 38 11 39
REMARK SMILES IDX 12 40 13 41 20 42 14 43 18 44 15 45 16 46 19 47 17 49 23 51
REMARK SMILES IDX 24 52
REMARK H PARENT 44 16 42 18 40 20 8 22 37 35 35 37 19 48 17 50 24 53
REMARK Flexibility Score: inf
ROOT
ATOM      1  C   UNL     1      69.751  46.473   9.524  1.00  0.00     0.199 C 
ATOM      2  C   UNL     1      70.697  47.605   9.024  1.00  0.00     0.203 C 
ATOM      3  C   UNL     1      71.687  47.091   7.954  1.00  0.00     0.282 C 
ATOM      4  O   UNL     1      71.018  46.211   7.064  1.00  0.00    -0.340 OA
ATOM      5  C   UNL     1      70.759  44.961   7.688  1.00  0.00     0.190 C 
ATOM      6  C   UNL     1      70.316  45.078   9.188  1.00  0.00     0.240 C 
ENDROOT
BRANCH   1   7
ATOM      7  O   UNL     1      68.454  46.616   8.943  1.00  0.00    -0.340 OA
BRANCH   7   8
ATOM      8  C   UNL     1      67.486  47.045   9.898  1.00  0.00     0.282 C 
ATOM      9  C   UNL     1      67.896  49.246   7.697  1.00  0.00     0.041 C 
ATOM     10  C   UNL     1      66.897  49.122   8.855  1.00  0.00     0.150 C 
ATOM     11  C   UNL     1      65.504  48.584   8.436  1.00  0.00     0.174 C 
ATOM     12  O   UNL     1      67.452  48.462   9.988  1.00  0.00    -0.344 OA
ATOM     13  C   UNL     1      65.490  47.048   8.331  1.00  0.00     0.179 C 
ATOM     14  C   UNL     1      66.108  46.437   9.593  1.00  0.00     0.202 C 
BRANCH  11  15
ATOM     15  O   UNL     1      64.551  48.973   9.393  1.00  0.00    -0.388 OA
ATOM     16  H   UNL     1      63.696  48.523   9.151  1.00  0.00     0.211 HD
ENDBRANCH  11  15
BRANCH  13  17
ATOM     17  O   UNL     1      66.184  46.610   7.188  1.00  0.00    -0.387 OA
ATOM     18  H   UNL     1      67.147  46.805   7.348  1.00  0.00     0.211 HD
ENDBRANCH  13  17
BRANCH  14  19
ATOM     19  O   UNL     1      66.225  45.043   9.454  1.00  0.00    -0.385 OA
ATOM     20  H   UNL     1      65.903  44.812   8.541  1.00  0.00     0.211 HD
ENDBRANCH  14  19
ENDBRANCH   7   8
ENDBRANCH   1   7
BRANCH   2  21
ATOM     21  O   UNL     1      71.391  48.207  10.099  1.00  0.00    -0.385 OA
ATOM     22  H   UNL     1      70.898  49.045  10.350  1.00  0.00     0.211 HD
ENDBRANCH   2  21
BRANCH   6  23
ATOM     23  O   UNL     1      71.440  44.848  10.045  1.00  0.00    -0.453 OA
BRANCH  23  24
ATOM     24  C   UNL     1      72.425  43.879   9.807  1.00  0.00     0.331 C 
ATOM     25  O   UNL     1      72.156  42.645   9.897  1.00  0.00    -0.247 OA
BRANCH  24  26
ATOM     26  C   UNL     1      73.766  44.344   9.408  1.00  0.00     0.094 C 
ATOM     27  C   UNL     1      74.478  43.898   8.360  1.00  0.00     0.016 C 
BRANCH  27  28
ATOM     28  C   UNL     1      74.129  42.741   7.514  1.00  0.00    -0.021 A 
ATOM     29  C   UNL     1      74.652  41.477   7.822  1.00  0.00     0.058 A 
ATOM     30  C   UNL     1      73.186  42.859   6.477  1.00  0.00     0.012 A 
ATOM     31  C   UNL     1      74.276  40.346   7.079  1.00  0.00     0.157 A 
ATOM     32  C   UNL     1      72.809  41.736   5.740  1.00  0.00     0.051 A 
ATOM     33  C   UNL     1      73.354  40.479   6.027  1.00  0.00     0.157 A 
BRANCH  31  34
ATOM     34  O   UNL     1      74.808  39.093   7.383  1.00  0.00    -0.504 OA
ATOM     35  H   UNL     1      75.000  38.821   8.334  1.00  0.00     0.293 HD
ENDBRANCH  31  34
BRANCH  33  36
ATOM     36  O   UNL     1      72.958  39.379   5.267  1.00  0.00    -0.504 OA
ATOM     37  H   UNL     1      72.322  38.678   5.623  1.00  0.00     0.293 HD
ENDBRANCH  33  36
ENDBRANCH  27  28
ENDBRANCH  24  26
ENDBRANCH  23  24
ENDBRANCH   6  23
BRANCH   3  38
ATOM     38  O   UNL     1      72.327  48.175   7.294  1.00  0.00    -0.350 OA
BRANCH  38  39
ATOM     39  C   UNL     1      73.733  48.193   7.447  1.00  0.00     0.168 C 
BRANCH  39  40
ATOM     40  C   UNL     1      74.400  48.287   6.061  1.00  0.00     0.064 C 
BRANCH  40  41
ATOM     41  C   UNL     1      73.649  47.482   5.031  1.00  0.00    -0.042 A 
ATOM     42  C   UNL     1      72.811  48.113   4.095  1.00  0.00     0.054 A 
ATOM     43  C   UNL     1      73.839  46.094   4.960  1.00  0.00     0.008 A 
ATOM     44  C   UNL     1      72.157  47.362   3.110  1.00  0.00     0.157 A 
ATOM     45  C   UNL     1      73.184  45.340   3.980  1.00  0.00     0.050 A 
ATOM     46  C   UNL     1      72.341  45.967   3.054  1.00  0.00     0.157 A 
BRANCH  44  47
ATOM     47  O   UNL     1      71.339  48.017   2.190  1.00  0.00    -0.504 OA
ATOM     48  H   UNL     1      71.202  47.676   1.246  1.00  0.00     0.293 HD
ENDBRANCH  44  47
BRANCH  46  49
ATOM     49  O   UNL     1      71.690  45.212   2.079  1.00  0.00    -0.504 OA
ATOM     50  H   UNL     1      71.012  45.622   1.441  1.00  0.00     0.293 HD
ENDBRANCH  46  49
ENDBRANCH  40  41
ENDBRANCH  39  40
ENDBRANCH  38  39
ENDBRANCH   3  38
BRANCH   5  51
ATOM     51  C   UNL     1      69.708  44.201   6.866  1.00  0.00     0.192 C 
BRANCH  51  52
ATOM     52  O   UNL     1      68.422  44.406   7.395  1.00  0.00    -0.394 OA
ATOM     53  H   UNL     1      68.504  44.364   8.387  1.00  0.00     0.210 HD
ENDBRANCH  51  52
ENDBRANCH   5  51
TORSDOF 20
ENDMDL
MODEL 8
REMARK VINA RESULT:    -5.524      1.808      7.563
REMARK INTER + INTRA:         -13.819
REMARK INTER:                 -10.334
REMARK INTRA:                  -3.485
REMARK UNBOUND:                -3.290
REMARK SMILES C[C@@H]1O[C@H](O[C@@H]2[C@@H](O)[C@H](OCCc3ccc(O)c(O)c3)O[C@H](CO)[C@H]2OC(=O)C=Cc2ccc(O)c(O)c2)[C@H](O)[C@H](O)[C@H]1O
REMARK SMILES IDX 6 1 7 2 9 3 21 4 22 5 25 6 5 7 4 8 1 9 2 10 43 11 3 12 41 13
REMARK SMILES IDX 39 14 44 15 42 17 40 19 8 21 26 23 27 24 28 25 29 26 30 27
REMARK SMILES IDX 31 28 38 29 32 30 36 31 33 32 34 33 37 34 35 36 10 38 11 39
REMARK SMILES IDX 12 40 13 41 20 42 14 43 18 44 15 45 16 46 19 47 17 49 23 51
REMARK SMILES IDX 24 52
REMARK H PARENT 44 16 42 18 40 20 8 22 37 35 35 37 19 48 17 50 24 53
REMARK Flexibility Score: inf
ROOT
ATOM      1  C   UNL     1      72.035  45.225   7.035  1.00  0.00     0.199 C 
ATOM      2  C   UNL     1      70.609  44.786   7.480  1.00  0.00     0.203 C 
ATOM      3  C   UNL     1      70.662  43.676   8.554  1.00  0.00     0.282 C 
ATOM      4  O   UNL     1      71.695  43.957   9.485  1.00  0.00    -0.340 OA
ATOM      5  C   UNL     1      72.973  43.717   8.912  1.00  0.00     0.190 C 
ATOM      6  C   UNL     1      73.093  44.169   7.414  1.00  0.00     0.240 C 
ENDROOT
BRANCH   1   7
ATOM      7  O   UNL     1      72.378  46.479   7.629  1.00  0.00    -0.340 OA
BRANCH   7   8
ATOM      8  C   UNL     1      72.074  47.576   6.770  1.00  0.00     0.282 C 
ATOM      9  C   UNL     1      71.056  48.156   9.682  1.00  0.00     0.041 C 
ATOM     10  C   UNL     1      71.121  49.029   8.423  1.00  0.00     0.150 C 
ATOM     11  C   UNL     1      72.343  49.982   8.373  1.00  0.00     0.174 C 
ATOM     12  O   UNL     1      70.928  48.279   7.228  1.00  0.00    -0.344 OA
ATOM     13  C   UNL     1      73.611  49.265   7.876  1.00  0.00     0.179 C 
ATOM     14  C   UNL     1      73.298  48.488   6.593  1.00  0.00     0.202 C 
BRANCH  11  15
ATOM     15  O   UNL     1      72.064  51.048   7.500  1.00  0.00    -0.388 OA
ATOM     16  H   UNL     1      71.855  51.840   8.066  1.00  0.00     0.211 HD
ENDBRANCH  11  15
BRANCH  13  17
ATOM     17  O   UNL     1      74.122  48.396   8.859  1.00  0.00    -0.387 OA
ATOM     18  H   UNL     1      73.693  47.511   8.707  1.00  0.00     0.211 HD
ENDBRANCH  13  17
BRANCH  14  19
ATOM     19  O   UNL     1      74.409  47.720   6.203  1.00  0.00    -0.385 OA
ATOM     20  H   UNL     1      74.733  47.242   7.013  1.00  0.00     0.211 HD
ENDBRANCH  14  19
ENDBRANCH   7   8
ENDBRANCH   1   7
BRANCH   2  21
ATOM     21  O   UNL     1      69.829  44.375   6.375  1.00  0.00    -0.385 OA
ATOM     22  H   UNL     1      68.896  44.206   6.704  1.00  0.00     0.211 HD
ENDBRANCH   2  21
BRANCH   6  23
ATOM     23  O   UNL     1      72.908  43.042   6.551  1.00  0.00    -0.453 OA
BRANCH  23  24
ATOM     24  C   UNL     1      73.948  42.218   6.100  1.00  0.00     0.331 C 
ATOM     25  O   UNL     1      74.054  41.919   4.873  1.00  0.00    -0.247 OA
BRANCH  24  26
ATOM     26  C   UNL     1      74.936  41.750   7.089  1.00  0.00     0.094 C 
ATOM     27  C   UNL     1      74.859  40.618   7.809  1.00  0.00     0.016 C 
BRANCH  27  28
ATOM     28  C   UNL     1      73.692  39.719   7.874  1.00  0.00    -0.021 A 
ATOM     29  C   UNL     1      72.560  40.107   8.605  1.00  0.00     0.058 A 
ATOM     30  C   UNL     1      73.646  38.535   7.116  1.00  0.00     0.012 A 
ATOM     31  C   UNL     1      71.408  39.304   8.621  1.00  0.00     0.157 A 
ATOM     32  C   UNL     1      72.500  37.738   7.128  1.00  0.00     0.051 A 
ATOM     33  C   UNL     1      71.382  38.109   7.883  1.00  0.00     0.157 A 
BRANCH  31  34
ATOM     34  O   UNL     1      70.289  39.689   9.361  1.00  0.00    -0.504 OA
ATOM     35  H   UNL     1      69.385  39.791   8.929  1.00  0.00     0.293 HD
ENDBRANCH  31  34
BRANCH  33  36
ATOM     36  O   UNL     1      70.255  37.286   7.875  1.00  0.00    -0.504 OA
ATOM     37  H   UNL     1      70.215  36.422   8.397  1.00  0.00     0.293 HD
ENDBRANCH  33  36
ENDBRANCH  27  28
ENDBRANCH  24  26
ENDBRANCH  23  24
ENDBRANCH   6  23
BRANCH   3  38
ATOM     38  O   UNL     1      69.390  43.501   9.166  1.00  0.00    -0.350 OA
BRANCH  38  39
ATOM     39  C   UNL     1      68.887  44.665   9.792  1.00  0.00     0.168 C 
BRANCH  39  40
ATOM     40  C   UNL     1      67.367  44.760   9.552  1.00  0.00     0.064 C 
BRANCH  40  41
ATOM     41  C   UNL     1      66.974  46.118   9.029  1.00  0.00    -0.042 A 
ATOM     42  C   UNL     1      67.671  46.706   7.959  1.00  0.00     0.054 A 
ATOM     43  C   UNL     1      65.859  46.776   9.569  1.00  0.00     0.008 A 
ATOM     44  C   UNL     1      67.267  47.945   7.446  1.00  0.00     0.157 A 
ATOM     45  C   UNL     1      65.455  48.016   9.062  1.00  0.00     0.050 A 
ATOM     46  C   UNL     1      66.155  48.606   8.002  1.00  0.00     0.157 A 
BRANCH  44  47
ATOM     47  O   UNL     1      67.972  48.500   6.379  1.00  0.00    -0.504 OA
ATOM     48  H   UNL     1      67.806  49.444   6.049  1.00  0.00     0.293 HD
ENDBRANCH  44  47
BRANCH  46  49
ATOM     49  O   UNL     1      65.750  49.842   7.500  1.00  0.00    -0.504 OA
ATOM     50  H   UNL     1      66.408  50.598   7.329  1.00  0.00     0.293 HD
ENDBRANCH  46  49
ENDBRANCH  40  41
ENDBRANCH  39  40
ENDBRANCH  38  39
ENDBRANCH   3  38
BRANCH   5  51
ATOM     51  C   UNL     1      74.045  44.397   9.776  1.00  0.00     0.192 C 
BRANCH  51  52
ATOM     52  O   UNL     1      73.675  45.720  10.073  1.00  0.00    -0.394 OA
ATOM     53  H   UNL     1      73.835  46.260   9.252  1.00  0.00     0.210 HD
ENDBRANCH  51  52
ENDBRANCH   5  51
TORSDOF 20
ENDMDL
