MODEL 1
REMARK VINA RESULT:    -3.592      0.000      0.000
REMARK INTER + INTRA:          -5.875
REMARK INTER:                  -5.272
REMARK INTRA:                  -0.603
REMARK UNBOUND:                -0.603
REMARK SMILES O=C([O-])CCCCCCCC(=O)[O-]
REMARK SMILES IDX 7 1 6 2 5 3 4 4 2 5 1 6 3 7 8 8 9 9 10 10 11 11 12 12 13 13
REMARK H PARENT
REMARK Flexibility Score: inf
ROOT
ATOM      1  C   UNL     1      15.344 128.411  56.625  1.00  0.00     0.000 C 
ENDROOT
BRANCH   1   2
ATOM      2  C   UNL     1      16.483 128.871  57.545  1.00  0.00     0.000 C 
BRANCH   2   3
ATOM      3  C   UNL     1      17.306 129.987  56.886  1.00  0.00     0.006 C 
BRANCH   3   4
ATOM      4  C   UNL     1      18.813 129.808  57.110  1.00  0.00     0.053 C 
BRANCH   4   5
ATOM      5  C   UNL     1      19.545 129.603  55.819  1.00  0.00     0.041 C 
ATOM      6  O   UNL     1      20.386 130.452  55.425  1.00  0.00    -0.550 OA
ATOM      7  O   UNL     1      19.273 128.489  55.035  1.00  0.00    -0.550 OA
ENDBRANCH   4   5
ENDBRANCH   3   4
ENDBRANCH   2   3
ENDBRANCH   1   2
BRANCH   1   8
ATOM      8  C   UNL     1      15.885 127.581  55.453  1.00  0.00     0.000 C 
BRANCH   8   9
ATOM      9  C   UNL     1      15.586 128.221  54.087  1.00  0.00     0.006 C 
BRANCH   9  10
ATOM     10  C   UNL     1      16.457 127.646  52.962  1.00  0.00     0.053 C 
BRANCH  10  11
ATOM     11  C   UNL     1      17.042 128.749  52.140  1.00  0.00     0.041 C 
ATOM     12  O   UNL     1      17.338 129.850  52.675  1.00  0.00    -0.550 OA
ATOM     13  O   UNL     1      17.307 128.547  50.792  1.00  0.00    -0.550 OA
ENDBRANCH  10  11
ENDBRANCH   9  10
ENDBRANCH   8   9
ENDBRANCH   1   8
TORSDOF 8
ENDMDL
MODEL 2
REMARK VINA RESULT:    -3.545      0.827      4.188
REMARK INTER + INTRA:          -5.805
REMARK INTER:                  -5.151
REMARK INTRA:                  -0.655
REMARK UNBOUND:                -0.603
REMARK SMILES O=C([O-])CCCCCCCC(=O)[O-]
REMARK SMILES IDX 7 1 6 2 5 3 4 4 2 5 1 6 3 7 8 8 9 9 10 10 11 11 12 12 13 13
REMARK H PARENT
REMARK Flexibility Score: inf
ROOT
ATOM      1  C   UNL     1      16.046 129.155  56.262  1.00  0.00     0.000 C 
ENDROOT
BRANCH   1   2
ATOM      2  C   UNL     1      15.927 127.720  55.731  1.00  0.00     0.000 C 
BRANCH   2   3
ATOM      3  C   UNL     1      16.901 127.479  54.570  1.00  0.00     0.006 C 
BRANCH   3   4
ATOM      4  C   UNL     1      16.265 127.775  53.205  1.00  0.00     0.053 C 
BRANCH   4   5
ATOM      5  C   UNL     1      17.172 128.590  52.335  1.00  0.00     0.041 C 
ATOM      6  O   UNL     1      18.042 129.339  52.852  1.00  0.00    -0.550 OA
ATOM      7  O   UNL     1      17.033 128.547  50.954  1.00  0.00    -0.550 OA
ENDBRANCH   4   5
ENDBRANCH   3   4
ENDBRANCH   2   3
ENDBRANCH   1   2
BRANCH   1   8
ATOM      8  C   UNL     1      16.732 129.177  57.635  1.00  0.00     0.000 C 
BRANCH   8   9
ATOM      9  C   UNL     1      18.164 129.735  57.572  1.00  0.00     0.006 C 
BRANCH   9  10
ATOM     10  C   UNL     1      18.450 130.479  56.262  1.00  0.00     0.053 C 
BRANCH  10  11
ATOM     11  C   UNL     1      19.814 130.133  55.754  1.00  0.00     0.041 C 
ATOM     12  O   UNL     1      20.225 128.944  55.803  1.00  0.00    -0.550 OA
ATOM     13  O   UNL     1      20.612 131.113  55.180  1.00  0.00    -0.550 OA
ENDBRANCH  10  11
ENDBRANCH   9  10
ENDBRANCH   8   9
ENDBRANCH   1   8
TORSDOF 8
ENDMDL
MODEL 3
REMARK VINA RESULT:    -3.513      1.559      2.349
REMARK INTER + INTRA:          -5.758
REMARK INTER:                  -5.070
REMARK INTRA:                  -0.688
REMARK UNBOUND:                -0.603
REMARK SMILES O=C([O-])CCCCCCCC(=O)[O-]
REMARK SMILES IDX 7 1 6 2 5 3 4 4 2 5 1 6 3 7 8 8 9 9 10 10 11 11 12 12 13 13
REMARK H PARENT
REMARK Flexibility Score: inf
ROOT
ATOM      1  C   UNL     1      17.150 129.771  56.878  1.00  0.00     0.000 C 
ENDROOT
BRANCH   1   2
ATOM      2  C   UNL     1      18.665 129.801  57.114  1.00  0.00     0.000 C 
BRANCH   2   3
ATOM      3  C   UNL     1      19.431 129.509  55.816  1.00  0.00     0.006 C 
BRANCH   3   4
ATOM      4  C   UNL     1      18.925 130.355  54.640  1.00  0.00     0.053 C 
BRANCH   4   5
ATOM      5  C   UNL     1      19.704 131.627  54.496  1.00  0.00     0.041 C 
ATOM      6  O   UNL     1      20.884 131.700  54.930  1.00  0.00    -0.550 OA
ATOM      7  O   UNL     1      19.114 132.741  53.913  1.00  0.00    -0.550 OA
ENDBRANCH   4   5
ENDBRANCH   3   4
ENDBRANCH   2   3
ENDBRANCH   1   2
BRANCH   1   8
ATOM      8  C   UNL     1      16.608 128.337  56.963  1.00  0.00     0.000 C 
BRANCH   8   9
ATOM      9  C   UNL     1      15.712 127.971  55.768  1.00  0.00     0.006 C 
BRANCH   9  10
ATOM     10  C   UNL     1      16.512 127.446  54.570  1.00  0.00     0.053 C 
BRANCH  10  11
ATOM     11  C   UNL     1      16.050 128.102  53.307  1.00  0.00     0.041 C 
ATOM     12  O   UNL     1      14.979 128.763  53.292  1.00  0.00    -0.550 OA
ATOM     13  O   UNL     1      16.827 128.024  52.159  1.00  0.00    -0.550 OA
ENDBRANCH  10  11
ENDBRANCH   9  10
ENDBRANCH   8   9
ENDBRANCH   1   8
TORSDOF 8
ENDMDL
MODEL 4
REMARK VINA RESULT:    -3.500      1.466      4.261
REMARK INTER + INTRA:          -5.739
REMARK INTER:                  -5.073
REMARK INTRA:                  -0.665
REMARK UNBOUND:                -0.603
REMARK SMILES O=C([O-])CCCCCCCC(=O)[O-]
REMARK SMILES IDX 7 1 6 2 5 3 4 4 2 5 1 6 3 7 8 8 9 9 10 10 11 11 12 12 13 13
REMARK H PARENT
REMARK Flexibility Score: inf
ROOT
ATOM      1  C   UNL     1      17.189 129.385  56.459  1.00  0.00     0.000 C 
ENDROOT
BRANCH   1   2
ATOM      2  C   UNL     1      16.857 127.942  56.059  1.00  0.00     0.000 C 
BRANCH   2   3
ATOM      3  C   UNL     1      15.860 127.909  54.892  1.00  0.00     0.006 C 
BRANCH   3   4
ATOM      4  C   UNL     1      16.521 127.483  53.574  1.00  0.00     0.053 C 
BRANCH   4   5
ATOM      5  C   UNL     1      16.529 128.596  52.573  1.00  0.00     0.041 C 
ATOM      6  O   UNL     1      15.753 129.579  52.710  1.00  0.00    -0.550 OA
ATOM      7  O   UNL     1      17.371 128.533  51.470  1.00  0.00    -0.550 OA
ENDBRANCH   4   5
ENDBRANCH   3   4
ENDBRANCH   2   3
ENDBRANCH   1   2
BRANCH   1   8
ATOM      8  C   UNL     1      18.683 129.537  56.777  1.00  0.00     0.000 C 
BRANCH   8   9
ATOM      9  C   UNL     1      19.558 129.559  55.513  1.00  0.00     0.006 C 
BRANCH   9  10
ATOM     10  C   UNL     1      19.020 130.512  54.438  1.00  0.00     0.053 C 
BRANCH  10  11
ATOM     11  C   UNL     1      19.828 131.770  54.406  1.00  0.00     0.041 C 
ATOM     12  O   UNL     1      19.315 132.843  53.994  1.00  0.00    -0.550 OA
ATOM     13  O   UNL     1      21.134 131.770  54.878  1.00  0.00    -0.550 OA
ENDBRANCH  10  11
ENDBRANCH   9  10
ENDBRANCH   8   9
ENDBRANCH   1   8
TORSDOF 8
ENDMDL
MODEL 5
REMARK VINA RESULT:    -3.470      2.578      5.686
REMARK INTER + INTRA:          -5.696
REMARK INTER:                  -5.262
REMARK INTRA:                  -0.434
REMARK UNBOUND:                -0.603
REMARK SMILES O=C([O-])CCCCCCCC(=O)[O-]
REMARK SMILES IDX 7 1 6 2 5 3 4 4 2 5 1 6 3 7 8 8 9 9 10 10 11 11 12 12 13 13
REMARK H PARENT
REMARK Flexibility Score: inf
ROOT
ATOM      1  C   UNL     1      16.330 128.898  56.986  1.00  0.00     0.000 C 
ENDROOT
BRANCH   1   2
ATOM      2  C   UNL     1      15.686 128.110  55.837  1.00  0.00     0.000 C 
BRANCH   2   3
ATOM      3  C   UNL     1      16.752 127.554  54.884  1.00  0.00     0.006 C 
BRANCH   3   4
ATOM      4  C   UNL     1      16.288 127.566  53.421  1.00  0.00     0.053 C 
BRANCH   4   5
ATOM      5  C   UNL     1      17.146 128.454  52.574  1.00  0.00     0.041 C 
ATOM      6  O   UNL     1      17.032 128.437  51.320  1.00  0.00    -0.550 OA
ATOM      7  O   UNL     1      18.094 129.277  53.168  1.00  0.00    -0.550 OA
ENDBRANCH   4   5
ENDBRANCH   3   4
ENDBRANCH   2   3
ENDBRANCH   1   2
BRANCH   1   8
ATOM      8  C   UNL     1      17.829 129.110  56.733  1.00  0.00     0.000 C 
BRANCH   8   9
ATOM      9  C   UNL     1      18.479 130.038  57.773  1.00  0.00     0.006 C 
BRANCH   9  10
ATOM     10  C   UNL     1      17.690 130.095  59.087  1.00  0.00     0.053 C 
BRANCH  10  11
ATOM     11  C   UNL     1      18.577 129.753  60.242  1.00  0.00     0.041 C 
ATOM     12  O   UNL     1      19.827 129.716  60.092  1.00  0.00    -0.550 OA
ATOM     13  O   UNL     1      18.029 129.523  61.497  1.00  0.00    -0.550 OA
ENDBRANCH  10  11
ENDBRANCH   9  10
ENDBRANCH   8   9
ENDBRANCH   1   8
TORSDOF 8
ENDMDL
MODEL 6
REMARK VINA RESULT:    -3.442      4.890      7.341
REMARK INTER + INTRA:          -5.654
REMARK INTER:                  -5.244
REMARK INTRA:                  -0.410
REMARK UNBOUND:                -0.603
REMARK SMILES O=C([O-])CCCCCCCC(=O)[O-]
REMARK SMILES IDX 7 1 6 2 5 3 4 4 2 5 1 6 3 7 8 8 9 9 10 10 11 11 12 12 13 13
REMARK H PARENT
REMARK Flexibility Score: inf
ROOT
ATOM      1  C   UNL     1      18.735 129.854  60.792  1.00  0.00     0.000 C 
ENDROOT
BRANCH   1   2
ATOM      2  C   UNL     1      17.297 129.646  60.298  1.00  0.00     0.000 C 
BRANCH   2   3
ATOM      3  C   UNL     1      17.179 129.955  58.799  1.00  0.00     0.006 C 
BRANCH   3   4
ATOM      4  C   UNL     1      18.534 130.299  58.168  1.00  0.00     0.053 C 
BRANCH   4   5
ATOM      5  C   UNL     1      18.749 129.564  56.880  1.00  0.00     0.041 C 
ATOM      6  O   UNL     1      19.856 129.637  56.285  1.00  0.00    -0.550 OA
ATOM      7  O   UNL     1      17.714 128.826  56.321  1.00  0.00    -0.550 OA
ENDBRANCH   4   5
ENDBRANCH   3   4
ENDBRANCH   2   3
ENDBRANCH   1   2
BRANCH   1   8
ATOM      8  C   UNL     1      19.093 128.840  61.887  1.00  0.00     0.000 C 
BRANCH   8   9
ATOM      9  C   UNL     1      17.857 128.125  62.458  1.00  0.00     0.006 C 
BRANCH   9  10
ATOM     10  C   UNL     1      18.220 127.071  63.512  1.00  0.00     0.053 C 
BRANCH  10  11
ATOM     11  C   UNL     1      18.147 125.698  62.922  1.00  0.00     0.041 C 
ATOM     12  O   UNL     1      17.031 125.183  62.652  1.00  0.00    -0.550 OA
ATOM     13  O   UNL     1      19.314 125.006  62.624  1.00  0.00    -0.550 OA
ENDBRANCH  10  11
ENDBRANCH   9  10
ENDBRANCH   8   9
ENDBRANCH   1   8
TORSDOF 8
ENDMDL
MODEL 7
REMARK VINA RESULT:    -3.435      1.592      2.488
REMARK INTER + INTRA:          -5.644
REMARK INTER:                  -4.990
REMARK INTRA:                  -0.654
REMARK UNBOUND:                -0.603
REMARK SMILES O=C([O-])CCCCCCCC(=O)[O-]
REMARK SMILES IDX 7 1 6 2 5 3 4 4 2 5 1 6 3 7 8 8 9 9 10 10 11 11 12 12 13 13
REMARK H PARENT
REMARK Flexibility Score: inf
ROOT
ATOM      1  C   UNL     1      15.383 128.505  53.699  1.00  0.00     0.000 C 
ENDROOT
BRANCH   1   2
ATOM      2  C   UNL     1      15.547 128.285  55.208  1.00  0.00     0.000 C 
BRANCH   2   3
ATOM      3  C   UNL     1      16.984 127.871  55.552  1.00  0.00     0.006 C 
BRANCH   3   4
ATOM      4  C   UNL     1      17.778 129.010  56.205  1.00  0.00     0.053 C 
BRANCH   4   5
ATOM      5  C   UNL     1      18.981 129.384  55.395  1.00  0.00     0.041 C 
ATOM      6  O   UNL     1      18.853 130.075  54.351  1.00  0.00    -0.550 OA
ATOM      7  O   UNL     1      20.241 128.939  55.776  1.00  0.00    -0.550 OA
ENDBRANCH   4   5
ENDBRANCH   3   4
ENDBRANCH   2   3
ENDBRANCH   1   2
BRANCH   1   8
ATOM      8  C   UNL     1      16.431 127.709  52.910  1.00  0.00     0.000 C 
BRANCH   8   9
ATOM      9  C   UNL     1      17.103 128.544  51.807  1.00  0.00     0.006 C 
BRANCH   9  10
ATOM     10  C   UNL     1      16.396 129.885  51.570  1.00  0.00     0.053 C 
BRANCH  10  11
ATOM     11  C   UNL     1      16.455 130.255  50.122  1.00  0.00     0.041 C 
ATOM     12  O   UNL     1      17.284 129.694  49.357  1.00  0.00    -0.550 OA
ATOM     13  O   UNL     1      15.563 131.185  49.604  1.00  0.00    -0.550 OA
ENDBRANCH  10  11
ENDBRANCH   9  10
ENDBRANCH   8   9
ENDBRANCH   1   8
TORSDOF 8
ENDMDL
MODEL 8
REMARK VINA RESULT:    -3.433      2.267      2.663
REMARK INTER + INTRA:          -5.641
REMARK INTER:                  -5.224
REMARK INTRA:                  -0.418
REMARK UNBOUND:                -0.603
REMARK SMILES O=C([O-])CCCCCCCC(=O)[O-]
REMARK SMILES IDX 7 1 6 2 5 3 4 4 2 5 1 6 3 7 8 8 9 9 10 10 11 11 12 12 13 13
REMARK H PARENT
REMARK Flexibility Score: inf
ROOT
ATOM      1  C   UNL     1      16.816 128.377  56.615  1.00  0.00     0.000 C 
ENDROOT
BRANCH   1   2
ATOM      2  C   UNL     1      18.097 129.050  56.104  1.00  0.00     0.000 C 
BRANCH   2   3
ATOM      3  C   UNL     1      18.828 129.777  57.241  1.00  0.00     0.006 C 
BRANCH   3   4
ATOM      4  C   UNL     1      17.946 129.949  58.484  1.00  0.00     0.053 C 
BRANCH   4   5
ATOM      5  C   UNL     1      18.729 130.458  59.655  1.00  0.00     0.041 C 
ATOM      6  O   UNL     1      19.636 129.750  60.168  1.00  0.00    -0.550 OA
ATOM      7  O   UNL     1      18.436 131.701  60.200  1.00  0.00    -0.550 OA
ENDBRANCH   4   5
ENDBRANCH   3   4
ENDBRANCH   2   3
ENDBRANCH   1   2
BRANCH   1   8
ATOM      8  C   UNL     1      16.138 127.568  55.500  1.00  0.00     0.000 C 
BRANCH   8   9
ATOM      9  C   UNL     1      16.998 127.476  54.229  1.00  0.00     0.006 C 
BRANCH   9  10
ATOM     10  C   UNL     1      16.238 127.910  52.969  1.00  0.00     0.053 C 
BRANCH  10  11
ATOM     11  C   UNL     1      17.053 128.884  52.179  1.00  0.00     0.041 C 
ATOM     12  O   UNL     1      17.513 129.919  52.729  1.00  0.00    -0.550 OA
ATOM     13  O   UNL     1      17.346 128.625  50.846  1.00  0.00    -0.550 OA
ENDBRANCH  10  11
ENDBRANCH   9  10
ENDBRANCH   8   9
ENDBRANCH   1   8
TORSDOF 8
ENDMDL
MODEL 9
REMARK VINA RESULT:    -3.429      1.655      4.798
REMARK INTER + INTRA:          -5.636
REMARK INTER:                  -4.955
REMARK INTRA:                  -0.680
REMARK UNBOUND:                -0.603
REMARK SMILES O=C([O-])CCCCCCCC(=O)[O-]
REMARK SMILES IDX 7 1 6 2 5 3 4 4 2 5 1 6 3 7 8 8 9 9 10 10 11 11 12 12 13 13
REMARK H PARENT
REMARK Flexibility Score: inf
ROOT
ATOM      1  C   UNL     1      16.521 127.510  53.772  1.00  0.00     0.000 C 
ENDROOT
BRANCH   1   2
ATOM      2  C   UNL     1      15.614 128.654  53.301  1.00  0.00     0.000 C 
BRANCH   2   3
ATOM      3  C   UNL     1      16.318 129.516  52.243  1.00  0.00     0.006 C 
BRANCH   3   4
ATOM      4  C   UNL     1      17.270 128.694  51.363  1.00  0.00     0.053 C 
BRANCH   4   5
ATOM      5  C   UNL     1      17.100 129.016  49.910  1.00  0.00     0.041 C 
ATOM      6  O   UNL     1      17.623 128.281  49.032  1.00  0.00    -0.550 OA
ATOM      7  O   UNL     1      16.391 130.147  49.528  1.00  0.00    -0.550 OA
ENDBRANCH   4   5
ENDBRANCH   3   4
ENDBRANCH   2   3
ENDBRANCH   1   2
BRANCH   1   8
ATOM      8  C   UNL     1      16.607 127.473  55.305  1.00  0.00     0.000 C 
BRANCH   8   9
ATOM      9  C   UNL     1      17.354 128.685  55.885  1.00  0.00     0.006 C 
BRANCH   9  10
ATOM     10  C   UNL     1      18.743 128.877  55.261  1.00  0.00     0.053 C 
BRANCH  10  11
ATOM     11  C   UNL     1      19.032 130.332  55.071  1.00  0.00     0.041 C 
ATOM     12  O   UNL     1      18.097 131.136  54.817  1.00  0.00    -0.550 OA
ATOM     13  O   UNL     1      20.327 130.809  55.220  1.00  0.00    -0.550 OA
ENDBRANCH  10  11
ENDBRANCH   9  10
ENDBRANCH   8   9
ENDBRANCH   1   8
TORSDOF 8
ENDMDL
