MODEL 1
REMARK VINA RESULT:    -4.915      0.000      0.000
REMARK INTER + INTRA:         -10.907
REMARK INTER:                  -8.937
REMARK INTRA:                  -1.969
REMARK UNBOUND:                -1.969
REMARK SMILES CCCCCCCCCCCCCCCC(=O)[O-]
REMARK SMILES IDX 9 1 10 2 11 3 12 4 13 5 14 6 15 7 16 8 17 9 18 10 8 11 7 12
REMARK SMILES IDX 6 13 5 14 4 15 3 16 2 17 1 18
REMARK H PARENT
REMARK Flexibility Score: inf
ROOT
ATOM      1  C   UNL     1      10.115  18.712  33.552  1.00  0.00     0.000 C 
ENDROOT
BRANCH   1   2
ATOM      2  C   UNL     1       8.714  18.151  33.857  1.00  0.00     0.000 C 
BRANCH   2   3
ATOM      3  C   UNL     1       7.943  19.011  34.871  1.00  0.00     0.000 C 
BRANCH   3   4
ATOM      4  C   UNL     1       8.677  20.320  35.213  1.00  0.00     0.000 C 
BRANCH   4   5
ATOM      5  C   UNL     1       9.016  20.432  36.707  1.00  0.00     0.000 C 
BRANCH   5   6
ATOM      6  C   UNL     1       8.312  19.358  37.554  1.00  0.00     0.006 C 
BRANCH   6   7
ATOM      7  C   UNL     1       9.306  18.527  38.378  1.00  0.00     0.053 C 
BRANCH   7   8
ATOM      8  C   UNL     1      10.259  17.776  37.500  1.00  0.00     0.041 C 
ATOM      9  O   UNL     1      11.421  18.219  37.299  1.00  0.00    -0.550 OA
ATOM     10  O   UNL     1       9.854  16.603  36.875  1.00  0.00    -0.550 OA
ENDBRANCH   7   8
ENDBRANCH   6   7
ENDBRANCH   5   6
ENDBRANCH   4   5
ENDBRANCH   3   4
ENDBRANCH   2   3
ENDBRANCH   1   2
BRANCH   1  11
ATOM     11  C   UNL     1      10.289  19.100  32.076  1.00  0.00     0.000 C 
BRANCH  11  12
ATOM     12  C   UNL     1       9.052  18.761  31.227  1.00  0.00    -0.000 C 
BRANCH  12  13
ATOM     13  C   UNL     1       8.427  19.999  30.559  1.00  0.00    -0.000 C 
BRANCH  13  14
ATOM     14  C   UNL     1       7.987  21.115  31.529  1.00  0.00    -0.000 C 
BRANCH  14  15
ATOM     15  C   UNL     1       8.610  22.498  31.260  1.00  0.00    -0.000 C 
BRANCH  15  16
ATOM     16  C   UNL     1       9.720  22.916  32.246  1.00  0.00    -0.000 C 
BRANCH  16  17
ATOM     17  C   UNL     1       9.224  23.652  33.503  1.00  0.00    -0.003 C 
ATOM     18  C   UNL     1       9.693  25.105  33.566  1.00  0.00     0.004 C 
ENDBRANCH  16  17
ENDBRANCH  15  16
ENDBRANCH  14  15
ENDBRANCH  13  14
ENDBRANCH  12  13
ENDBRANCH  11  12
ENDBRANCH   1  11
TORSDOF 14
ENDMDL
MODEL 2
REMARK VINA RESULT:    -4.885      2.920      4.357
REMARK INTER + INTRA:         -10.853
REMARK INTER:                  -8.498
REMARK INTRA:                  -2.355
REMARK UNBOUND:                -1.969
REMARK SMILES CCCCCCCCCCCCCCCC(=O)[O-]
REMARK SMILES IDX 9 1 10 2 11 3 12 4 13 5 14 6 15 7 16 8 17 9 18 10 8 11 7 12
REMARK SMILES IDX 6 13 5 14 4 15 3 16 2 17 1 18
REMARK H PARENT
REMARK Flexibility Score: inf
ROOT
ATOM      1  C   UNL     1       8.142  17.662  35.199  1.00  0.00     0.000 C 
ENDROOT
BRANCH   1   2
ATOM      2  C   UNL     1       9.475  16.925  35.422  1.00  0.00     0.000 C 
BRANCH   2   3
ATOM      3  C   UNL     1       9.956  17.006  36.880  1.00  0.00     0.000 C 
BRANCH   3   4
ATOM      4  C   UNL     1      11.461  17.306  36.989  1.00  0.00     0.000 C 
BRANCH   4   5
ATOM      5  C   UNL     1      12.205  17.079  35.663  1.00  0.00     0.000 C 
BRANCH   5   6
ATOM      6  C   UNL     1      13.455  16.199  35.831  1.00  0.00     0.006 C 
BRANCH   6   7
ATOM      7  C   UNL     1      13.763  15.905  37.305  1.00  0.00     0.053 C 
BRANCH   7   8
ATOM      8  C   UNL     1      15.113  15.277  37.474  1.00  0.00     0.041 C 
ATOM      9  O   UNL     1      16.107  15.732  36.849  1.00  0.00    -0.550 OA
ATOM     10  O   UNL     1      15.266  14.167  38.295  1.00  0.00    -0.550 OA
ENDBRANCH   7   8
ENDBRANCH   6   7
ENDBRANCH   5   6
ENDBRANCH   4   5
ENDBRANCH   3   4
ENDBRANCH   2   3
ENDBRANCH   1   2
BRANCH   1  11
ATOM     11  C   UNL     1       8.084  18.384  33.844  1.00  0.00     0.000 C 
BRANCH  11  12
ATOM     12  C   UNL     1       9.190  17.921  32.881  1.00  0.00    -0.000 C 
BRANCH  12  13
ATOM     13  C   UNL     1       9.976  19.093  32.264  1.00  0.00    -0.000 C 
BRANCH  13  14
ATOM     14  C   UNL     1      11.156  19.609  33.113  1.00  0.00    -0.000 C 
BRANCH  14  15
ATOM     15  C   UNL     1      10.858  20.867  33.952  1.00  0.00    -0.000 C 
BRANCH  15  16
ATOM     16  C   UNL     1      10.615  20.608  35.452  1.00  0.00    -0.000 C 
BRANCH  16  17
ATOM     17  C   UNL     1       9.283  21.153  35.995  1.00  0.00    -0.003 C 
ATOM     18  C   UNL     1       8.923  20.586  37.368  1.00  0.00     0.004 C 
ENDBRANCH  16  17
ENDBRANCH  15  16
ENDBRANCH  14  15
ENDBRANCH  13  14
ENDBRANCH  12  13
ENDBRANCH  11  12
ENDBRANCH   1  11
TORSDOF 14
ENDMDL
MODEL 3
REMARK VINA RESULT:    -4.864      3.177      6.029
REMARK INTER + INTRA:         -10.814
REMARK INTER:                  -8.606
REMARK INTRA:                  -2.207
REMARK UNBOUND:                -1.969
REMARK SMILES CCCCCCCCCCCCCCCC(=O)[O-]
REMARK SMILES IDX 9 1 10 2 11 3 12 4 13 5 14 6 15 7 16 8 17 9 18 10 8 11 7 12
REMARK SMILES IDX 6 13 5 14 4 15 3 16 2 17 1 18
REMARK H PARENT
REMARK Flexibility Score: inf
ROOT
ATOM      1  C   UNL     1      10.364  21.623  32.745  1.00  0.00     0.000 C 
ENDROOT
BRANCH   1   2
ATOM      2  C   UNL     1      10.152  22.096  34.195  1.00  0.00     0.000 C 
BRANCH   2   3
ATOM      3  C   UNL     1       8.989  23.092  34.325  1.00  0.00     0.000 C 
BRANCH   3   4
ATOM      4  C   UNL     1       9.470  24.528  34.603  1.00  0.00     0.000 C 
BRANCH   4   5
ATOM      5  C   UNL     1       9.784  25.303  33.314  1.00  0.00     0.000 C 
BRANCH   5   6
ATOM      6  C   UNL     1      11.290  25.565  33.136  1.00  0.00     0.006 C 
BRANCH   6   7
ATOM      7  C   UNL     1      11.797  25.108  31.761  1.00  0.00     0.053 C 
BRANCH   7   8
ATOM      8  C   UNL     1      13.126  24.423  31.862  1.00  0.00     0.041 C 
ATOM      9  O   UNL     1      13.348  23.602  32.791  1.00  0.00    -0.550 OA
ATOM     10  O   UNL     1      14.131  24.716  30.949  1.00  0.00    -0.550 OA
ENDBRANCH   7   8
ENDBRANCH   6   7
ENDBRANCH   5   6
ENDBRANCH   4   5
ENDBRANCH   3   4
ENDBRANCH   2   3
ENDBRANCH   1   2
BRANCH   1  11
ATOM     11  C   UNL     1       9.203  22.016  31.818  1.00  0.00     0.000 C 
BRANCH  11  12
ATOM     12  C   UNL     1       8.191  20.874  31.623  1.00  0.00    -0.000 C 
BRANCH  12  13
ATOM     13  C   UNL     1       8.619  19.876  30.531  1.00  0.00    -0.000 C 
BRANCH  13  14
ATOM     14  C   UNL     1       9.173  18.534  31.050  1.00  0.00    -0.000 C 
BRANCH  14  15
ATOM     15  C   UNL     1       8.741  18.158  32.481  1.00  0.00    -0.000 C 
BRANCH  15  16
ATOM     16  C   UNL     1       9.883  18.115  33.516  1.00  0.00    -0.000 C 
BRANCH  16  17
ATOM     17  C   UNL     1       9.478  18.524  34.943  1.00  0.00    -0.003 C 
ATOM     18  C   UNL     1       8.055  19.075  35.024  1.00  0.00     0.004 C 
ENDBRANCH  16  17
ENDBRANCH  15  16
ENDBRANCH  14  15
ENDBRANCH  13  14
ENDBRANCH  12  13
ENDBRANCH  11  12
ENDBRANCH   1  11
TORSDOF 14
ENDMDL
MODEL 4
REMARK VINA RESULT:    -4.843      5.021      7.809
REMARK INTER + INTRA:         -10.776
REMARK INTER:                  -9.183
REMARK INTRA:                  -1.593
REMARK UNBOUND:                -1.969
REMARK SMILES CCCCCCCCCCCCCCCC(=O)[O-]
REMARK SMILES IDX 9 1 10 2 11 3 12 4 13 5 14 6 15 7 16 8 17 9 18 10 8 11 7 12
REMARK SMILES IDX 6 13 5 14 4 15 3 16 2 17 1 18
REMARK H PARENT
REMARK Flexibility Score: inf
ROOT
ATOM      1  C   UNL     1      13.563  16.226  35.720  1.00  0.00     0.000 C 
ENDROOT
BRANCH   1   2
ATOM      2  C   UNL     1      12.559  17.361  35.447  1.00  0.00     0.000 C 
BRANCH   2   3
ATOM      3  C   UNL     1      11.414  17.393  36.473  1.00  0.00     0.000 C 
BRANCH   3   4
ATOM      4  C   UNL     1      10.054  17.029  35.851  1.00  0.00     0.000 C 
BRANCH   4   5
ATOM      5  C   UNL     1      10.097  17.004  34.316  1.00  0.00     0.000 C 
BRANCH   5   6
ATOM      6  C   UNL     1       9.250  18.122  33.684  1.00  0.00     0.006 C 
BRANCH   6   7
ATOM      7  C   UNL     1      10.015  18.880  32.590  1.00  0.00     0.053 C 
BRANCH   7   8
ATOM      8  C   UNL     1       9.447  18.610  31.230  1.00  0.00     0.041 C 
ATOM      9  O   UNL     1       8.626  19.415  30.714  1.00  0.00    -0.550 OA
ATOM     10  O   UNL     1       9.798  17.454  30.546  1.00  0.00    -0.550 OA
ENDBRANCH   7   8
ENDBRANCH   6   7
ENDBRANCH   5   6
ENDBRANCH   4   5
ENDBRANCH   3   4
ENDBRANCH   2   3
ENDBRANCH   1   2
BRANCH   1  11
ATOM     11  C   UNL     1      13.576  15.788  37.193  1.00  0.00     0.000 C 
BRANCH  11  12
ATOM     12  C   UNL     1      14.907  16.111  37.892  1.00  0.00    -0.000 C 
BRANCH  12  13
ATOM     13  C   UNL     1      15.102  17.618  38.140  1.00  0.00    -0.000 C 
BRANCH  13  14
ATOM     14  C   UNL     1      16.393  18.218  37.546  1.00  0.00    -0.000 C 
BRANCH  14  15
ATOM     15  C   UNL     1      16.280  18.698  36.086  1.00  0.00    -0.000 C 
BRANCH  15  16
ATOM     16  C   UNL     1      17.347  18.131  35.129  1.00  0.00    -0.000 C 
BRANCH  16  17
ATOM     17  C   UNL     1      17.200  16.633  34.812  1.00  0.00    -0.003 C 
ATOM     18  C   UNL     1      18.496  15.850  35.019  1.00  0.00     0.004 C 
ENDBRANCH  16  17
ENDBRANCH  15  16
ENDBRANCH  14  15
ENDBRANCH  13  14
ENDBRANCH  12  13
ENDBRANCH  11  12
ENDBRANCH   1  11
TORSDOF 14
ENDMDL
MODEL 5
REMARK VINA RESULT:    -4.822      2.761      5.281
REMARK INTER + INTRA:         -10.738
REMARK INTER:                  -9.288
REMARK INTRA:                  -1.449
REMARK UNBOUND:                -1.969
REMARK SMILES CCCCCCCCCCCCCCCC(=O)[O-]
REMARK SMILES IDX 9 1 10 2 11 3 12 4 13 5 14 6 15 7 16 8 17 9 18 10 8 11 7 12
REMARK SMILES IDX 6 13 5 14 4 15 3 16 2 17 1 18
REMARK H PARENT
REMARK Flexibility Score: inf
ROOT
ATOM      1  C   UNL     1      10.810  18.534  37.841  1.00  0.00     0.000 C 
ENDROOT
BRANCH   1   2
ATOM      2  C   UNL     1      10.594  17.115  37.285  1.00  0.00     0.000 C 
BRANCH   2   3
ATOM      3  C   UNL     1      10.929  17.012  35.788  1.00  0.00     0.000 C 
BRANCH   3   4
ATOM      4  C   UNL     1      11.870  18.135  35.316  1.00  0.00     0.000 C 
BRANCH   4   5
ATOM      5  C   UNL     1      13.353  17.759  35.457  1.00  0.00     0.000 C 
BRANCH   5   6
ATOM      6  C   UNL     1      13.563  16.248  35.653  1.00  0.00     0.006 C 
BRANCH   6   7
ATOM      7  C   UNL     1      14.787  15.941  36.526  1.00  0.00     0.053 C 
BRANCH   7   8
ATOM      8  C   UNL     1      14.390  15.409  37.868  1.00  0.00     0.041 C 
ATOM      9  O   UNL     1      13.870  16.172  38.726  1.00  0.00    -0.550 OA
ATOM     10  O   UNL     1      14.624  14.077  38.186  1.00  0.00    -0.550 OA
ENDBRANCH   7   8
ENDBRANCH   6   7
ENDBRANCH   5   6
ENDBRANCH   4   5
ENDBRANCH   3   4
ENDBRANCH   2   3
ENDBRANCH   1   2
BRANCH   1  11
ATOM     11  C   UNL     1       9.571  19.082  38.566  1.00  0.00     0.000 C 
BRANCH  11  12
ATOM     12  C   UNL     1       8.324  19.106  37.665  1.00  0.00    -0.000 C 
BRANCH  12  13
ATOM     13  C   UNL     1       8.579  19.790  36.310  1.00  0.00    -0.000 C 
BRANCH  13  14
ATOM     14  C   UNL     1       7.993  19.057  35.085  1.00  0.00    -0.000 C 
BRANCH  14  15
ATOM     15  C   UNL     1       8.581  19.482  33.726  1.00  0.00    -0.000 C 
BRANCH  15  16
ATOM     16  C   UNL     1       8.698  18.352  32.684  1.00  0.00    -0.000 C 
BRANCH  16  17
ATOM     17  C   UNL     1       9.066  18.817  31.264  1.00  0.00    -0.003 C 
ATOM     18  C   UNL     1       9.877  17.779  30.489  1.00  0.00     0.004 C 
ENDBRANCH  16  17
ENDBRANCH  15  16
ENDBRANCH  14  15
ENDBRANCH  13  14
ENDBRANCH  12  13
ENDBRANCH  11  12
ENDBRANCH   1  11
TORSDOF 14
ENDMDL
MODEL 6
REMARK VINA RESULT:    -4.812      1.666      3.467
REMARK INTER + INTRA:         -10.719
REMARK INTER:                  -8.764
REMARK INTRA:                  -1.956
REMARK UNBOUND:                -1.969
REMARK SMILES CCCCCCCCCCCCCCCC(=O)[O-]
REMARK SMILES IDX 9 1 10 2 11 3 12 4 13 5 14 6 15 7 16 8 17 9 18 10 8 11 7 12
REMARK SMILES IDX 6 13 5 14 4 15 3 16 2 17 1 18
REMARK H PARENT
REMARK Flexibility Score: inf
ROOT
ATOM      1  C   UNL     1       9.317  21.672  31.963  1.00  0.00     0.000 C 
ENDROOT
BRANCH   1   2
ATOM      2  C   UNL     1       8.461  20.393  31.924  1.00  0.00     0.000 C 
BRANCH   2   3
ATOM      3  C   UNL     1       9.283  19.146  31.559  1.00  0.00     0.000 C 
BRANCH   3   4
ATOM      4  C   UNL     1       9.374  18.139  32.718  1.00  0.00     0.000 C 
BRANCH   4   5
ATOM      5  C   UNL     1       8.185  18.246  33.686  1.00  0.00     0.000 C 
BRANCH   5   6
ATOM      6  C   UNL     1       8.565  17.880  35.131  1.00  0.00     0.006 C 
BRANCH   6   7
ATOM      7  C   UNL     1       7.876  18.788  36.158  1.00  0.00     0.053 C 
BRANCH   7   8
ATOM      8  C   UNL     1       8.530  18.696  37.503  1.00  0.00     0.041 C 
ATOM      9  O   UNL     1       8.114  19.402  38.461  1.00  0.00    -0.550 OA
ATOM     10  O   UNL     1       9.620  17.856  37.692  1.00  0.00    -0.550 OA
ENDBRANCH   7   8
ENDBRANCH   6   7
ENDBRANCH   5   6
ENDBRANCH   4   5
ENDBRANCH   3   4
ENDBRANCH   2   3
ENDBRANCH   1   2
BRANCH   1  11
ATOM     11  C   UNL     1      10.464  21.586  32.982  1.00  0.00     0.000 C 
BRANCH  11  12
ATOM     12  C   UNL     1       9.959  21.492  34.432  1.00  0.00    -0.000 C 
BRANCH  12  13
ATOM     13  C   UNL     1       9.055  22.673  34.829  1.00  0.00    -0.000 C 
BRANCH  13  14
ATOM     14  C   UNL     1       9.729  23.751  35.702  1.00  0.00    -0.000 C 
BRANCH  14  15
ATOM     15  C   UNL     1       9.889  25.130  35.032  1.00  0.00    -0.000 C 
BRANCH  15  16
ATOM     16  C   UNL     1       9.691  25.138  33.503  1.00  0.00    -0.000 C 
BRANCH  16  17
ATOM     17  C   UNL     1      10.928  25.568  32.694  1.00  0.00    -0.003 C 
ATOM     18  C   UNL     1      12.220  24.924  33.193  1.00  0.00     0.004 C 
ENDBRANCH  16  17
ENDBRANCH  15  16
ENDBRANCH  14  15
ENDBRANCH  13  14
ENDBRANCH  12  13
ENDBRANCH  11  12
ENDBRANCH   1  11
TORSDOF 14
ENDMDL
MODEL 7
REMARK VINA RESULT:    -4.809      2.568      5.731
REMARK INTER + INTRA:         -10.714
REMARK INTER:                  -8.968
REMARK INTRA:                  -1.746
REMARK UNBOUND:                -1.969
REMARK SMILES CCCCCCCCCCCCCCCC(=O)[O-]
REMARK SMILES IDX 9 1 10 2 11 3 12 4 13 5 14 6 15 7 16 8 17 9 18 10 8 11 7 12
REMARK SMILES IDX 6 13 5 14 4 15 3 16 2 17 1 18
REMARK H PARENT
REMARK Flexibility Score: inf
ROOT
ATOM      1  C   UNL     1       9.969  19.272  32.290  1.00  0.00     0.000 C 
ENDROOT
BRANCH   1   2
ATOM      2  C   UNL     1       9.109  18.836  31.090  1.00  0.00     0.000 C 
BRANCH   2   3
ATOM      3  C   UNL     1       8.281  19.994  30.509  1.00  0.00     0.000 C 
BRANCH   3   4
ATOM      4  C   UNL     1       8.095  21.147  31.511  1.00  0.00     0.000 C 
BRANCH   4   5
ATOM      5  C   UNL     1       8.501  22.508  30.925  1.00  0.00     0.000 C 
BRANCH   5   6
ATOM      6  C   UNL     1       9.462  23.282  31.843  1.00  0.00     0.006 C 
BRANCH   6   7
ATOM      7  C   UNL     1       9.138  23.074  33.329  1.00  0.00     0.053 C 
BRANCH   7   8
ATOM      8  C   UNL     1       9.655  24.200  34.171  1.00  0.00     0.041 C 
ATOM      9  O   UNL     1      10.400  23.964  35.159  1.00  0.00    -0.550 OA
ATOM     10  O   UNL     1       9.287  25.509  33.885  1.00  0.00    -0.550 OA
ENDBRANCH   7   8
ENDBRANCH   6   7
ENDBRANCH   5   6
ENDBRANCH   4   5
ENDBRANCH   3   4
ENDBRANCH   2   3
ENDBRANCH   1   2
BRANCH   1  11
ATOM     11  C   UNL     1       9.709  18.423  33.544  1.00  0.00     0.000 C 
BRANCH  11  12
ATOM     12  C   UNL     1       8.208  18.219  33.817  1.00  0.00    -0.000 C 
BRANCH  12  13
ATOM     13  C   UNL     1       7.929  17.622  35.209  1.00  0.00    -0.000 C 
BRANCH  13  14
ATOM     14  C   UNL     1       9.183  17.219  36.012  1.00  0.00    -0.000 C 
BRANCH  14  15
ATOM     15  C   UNL     1       9.442  18.055  37.281  1.00  0.00    -0.000 C 
BRANCH  15  16
ATOM     16  C   UNL     1       8.282  18.978  37.702  1.00  0.00    -0.000 C 
BRANCH  16  17
ATOM     17  C   UNL     1       8.594  20.483  37.631  1.00  0.00    -0.003 C 
ATOM     18  C   UNL     1       9.458  20.855  36.428  1.00  0.00     0.004 C 
ENDBRANCH  16  17
ENDBRANCH  15  16
ENDBRANCH  14  15
ENDBRANCH  13  14
ENDBRANCH  12  13
ENDBRANCH  11  12
ENDBRANCH   1  11
TORSDOF 14
ENDMDL
MODEL 8
REMARK VINA RESULT:    -4.751      1.606      2.526
REMARK INTER + INTRA:         -10.609
REMARK INTER:                  -8.747
REMARK INTRA:                  -1.862
REMARK UNBOUND:                -1.969
REMARK SMILES CCCCCCCCCCCCCCCC(=O)[O-]
REMARK SMILES IDX 9 1 10 2 11 3 12 4 13 5 14 6 15 7 16 8 17 9 18 10 8 11 7 12
REMARK SMILES IDX 6 13 5 14 4 15 3 16 2 17 1 18
REMARK H PARENT
REMARK Flexibility Score: inf
ROOT
ATOM      1  C   UNL     1       9.350  18.658  31.148  1.00  0.00     0.000 C 
ENDROOT
BRANCH   1   2
ATOM      2  C   UNL     1       8.694  18.147  32.443  1.00  0.00     0.000 C 
BRANCH   2   3
ATOM      3  C   UNL     1       9.726  17.785  33.523  1.00  0.00     0.000 C 
BRANCH   3   4
ATOM      4  C   UNL     1       9.888  18.893  34.579  1.00  0.00     0.000 C 
BRANCH   4   5
ATOM      5  C   UNL     1       8.559  19.256  35.259  1.00  0.00     0.000 C 
BRANCH   5   6
ATOM      6  C   UNL     1       8.340  18.489  36.574  1.00  0.00     0.006 C 
BRANCH   6   7
ATOM      7  C   UNL     1       7.875  19.410  37.711  1.00  0.00     0.053 C 
BRANCH   7   8
ATOM      8  C   UNL     1       8.958  19.626  38.724  1.00  0.00     0.041 C 
ATOM      9  O   UNL     1       9.346  18.674  39.452  1.00  0.00    -0.550 OA
ATOM     10  O   UNL     1       9.515  20.888  38.889  1.00  0.00    -0.550 OA
ENDBRANCH   7   8
ENDBRANCH   6   7
ENDBRANCH   5   6
ENDBRANCH   4   5
ENDBRANCH   3   4
ENDBRANCH   2   3
ENDBRANCH   1   2
BRANCH   1  11
ATOM     11  C   UNL     1       8.641  19.893  30.571  1.00  0.00     0.000 C 
BRANCH  11  12
ATOM     12  C   UNL     1       8.253  20.911  31.657  1.00  0.00    -0.000 C 
BRANCH  12  13
ATOM     13  C   UNL     1       8.547  22.365  31.246  1.00  0.00    -0.000 C 
BRANCH  13  14
ATOM     14  C   UNL     1       9.765  23.009  31.939  1.00  0.00    -0.000 C 
BRANCH  14  15
ATOM     15  C   UNL     1      10.637  22.039  32.762  1.00  0.00    -0.000 C 
BRANCH  15  16
ATOM     16  C   UNL     1      11.042  22.552  34.158  1.00  0.00    -0.000 C 
BRANCH  16  17
ATOM     17  C   UNL     1      10.048  23.535  34.799  1.00  0.00    -0.003 C 
ATOM     18  C   UNL     1       9.194  22.891  35.891  1.00  0.00     0.004 C 
ENDBRANCH  16  17
ENDBRANCH  15  16
ENDBRANCH  14  15
ENDBRANCH  13  14
ENDBRANCH  12  13
ENDBRANCH  11  12
ENDBRANCH   1  11
TORSDOF 14
ENDMDL
