MODEL 1
REMARK VINA RESULT:    -4.626      0.000      0.000
REMARK INTER + INTRA:          -5.032
REMARK INTER:                  -5.032
REMARK INTRA:                   0.000
REMARK UNBOUND:                 0.000
REMARK SMILES Oc1cccc(O)c1O
REMARK SMILES IDX 4 1 5 2 6 3 8 4 2 5 3 6 7 7 1 9 9 11
REMARK H PARENT 7 8 1 10 9 12
REMARK Flexibility Score: inf
ROOT
ATOM      1  C   UNL     1     -48.616 -15.121  12.716  1.00  0.00     0.008 A 
ATOM      2  C   UNL     1     -47.339 -15.125  12.153  1.00  0.00     0.050 A 
ATOM      3  C   UNL     1     -46.965 -14.123  11.246  1.00  0.00     0.161 A 
ATOM      4  C   UNL     1     -47.878 -13.113  10.903  1.00  0.00     0.200 A 
ATOM      5  C   UNL     1     -49.166 -13.112  11.471  1.00  0.00     0.161 A 
ATOM      6  C   UNL     1     -49.528 -14.119  12.378  1.00  0.00     0.050 A 
ENDROOT
BRANCH   3   7
ATOM      7  O   UNL     1     -45.691 -14.122  10.683  1.00  0.00    -0.504 OA
ATOM      8  H   UNL     1     -44.947 -14.702  11.052  1.00  0.00     0.293 HD
ENDBRANCH   3   7
BRANCH   5   9
ATOM      9  O   UNL     1     -50.077 -12.112  11.135  1.00  0.00    -0.504 OA
ATOM     10  H   UNL     1     -50.019 -11.615  10.254  1.00  0.00     0.293 HD
ENDBRANCH   5   9
BRANCH   4  11
ATOM     11  O   UNL     1     -47.491 -12.124   9.999  1.00  0.00    -0.502 OA
ATOM     12  H   UNL     1     -46.696 -12.239   9.383  1.00  0.00     0.293 HD
ENDBRANCH   4  11
TORSDOF 3
ENDMDL
MODEL 2
REMARK VINA RESULT:    -4.614      0.050      2.799
REMARK INTER + INTRA:          -5.019
REMARK INTER:                  -5.019
REMARK INTRA:                   0.000
REMARK UNBOUND:                 0.000
REMARK SMILES Oc1cccc(O)c1O
REMARK SMILES IDX 4 1 5 2 6 3 8 4 2 5 3 6 7 7 1 9 9 11
REMARK H PARENT 7 8 1 10 9 12
REMARK Flexibility Score: inf
ROOT
ATOM      1  C   UNL     1     -48.600 -15.112  12.760  1.00  0.00     0.008 A 
ATOM      2  C   UNL     1     -49.505 -14.109  12.409  1.00  0.00     0.050 A 
ATOM      3  C   UNL     1     -49.132 -13.111  11.497  1.00  0.00     0.161 A 
ATOM      4  C   UNL     1     -47.845 -13.120  10.937  1.00  0.00     0.200 A 
ATOM      5  C   UNL     1     -46.934 -14.131  11.293  1.00  0.00     0.161 A 
ATOM      6  C   UNL     1     -47.318 -15.125  12.206  1.00  0.00     0.050 A 
ENDROOT
BRANCH   3   7
ATOM      7  O   UNL     1     -50.032 -12.108  11.142  1.00  0.00    -0.504 OA
ATOM      8  H   UNL     1     -49.734 -11.149  11.013  1.00  0.00     0.293 HD
ENDBRANCH   3   7
BRANCH   5   9
ATOM      9  O   UNL     1     -45.654 -14.146  10.740  1.00  0.00    -0.504 OA
ATOM     10  H   UNL     1     -44.958 -13.456  10.995  1.00  0.00     0.293 HD
ENDBRANCH   5   9
BRANCH   4  11
ATOM     11  O   UNL     1     -47.489 -12.120  10.032  1.00  0.00    -0.502 OA
ATOM     12  H   UNL     1     -46.646 -12.174   9.474  1.00  0.00     0.293 HD
ENDBRANCH   4  11
TORSDOF 3
ENDMDL
MODEL 3
REMARK VINA RESULT:    -4.612      1.955      2.818
REMARK INTER + INTRA:          -5.016
REMARK INTER:                  -5.016
REMARK INTRA:                   0.000
REMARK UNBOUND:                 0.000
REMARK SMILES Oc1cccc(O)c1O
REMARK SMILES IDX 4 1 5 2 6 3 8 4 2 5 3 6 7 7 1 9 9 11
REMARK H PARENT 7 8 1 10 9 12
REMARK Flexibility Score: inf
ROOT
ATOM      1  C   UNL     1     -46.687 -12.130  10.511  1.00  0.00     0.008 A 
ATOM      2  C   UNL     1     -45.842 -12.621  11.507  1.00  0.00     0.050 A 
ATOM      3  C   UNL     1     -46.291 -13.621  12.382  1.00  0.00     0.161 A 
ATOM      4  C   UNL     1     -47.592 -14.130  12.255  1.00  0.00     0.200 A 
ATOM      5  C   UNL     1     -48.443 -13.633  11.250  1.00  0.00     0.161 A 
ATOM      6  C   UNL     1     -47.984 -12.633  10.381  1.00  0.00     0.050 A 
ENDROOT
BRANCH   3   7
ATOM      7  O   UNL     1     -45.450 -14.115  13.378  1.00  0.00    -0.504 OA
ATOM      8  H   UNL     1     -45.811 -14.418  14.274  1.00  0.00     0.293 HD
ENDBRANCH   3   7
BRANCH   5   9
ATOM      9  O   UNL     1     -49.737 -14.134  11.120  1.00  0.00    -0.504 OA
ATOM     10  H   UNL     1     -50.460 -13.922  11.797  1.00  0.00     0.293 HD
ENDBRANCH   5   9
BRANCH   4  11
ATOM     11  O   UNL     1     -48.024 -15.125  13.134  1.00  0.00    -0.502 OA
ATOM     12  H   UNL     1     -47.748 -16.093  13.027  1.00  0.00     0.293 HD
ENDBRANCH   4  11
TORSDOF 3
ENDMDL
MODEL 4
REMARK VINA RESULT:    -4.605      1.965      3.738
REMARK INTER + INTRA:          -5.009
REMARK INTER:                  -5.009
REMARK INTRA:                   0.000
REMARK UNBOUND:                 0.000
REMARK SMILES Oc1cccc(O)c1O
REMARK SMILES IDX 4 1 5 2 6 3 8 4 2 5 3 6 7 7 1 9 9 11
REMARK H PARENT 7 8 1 10 9 12
REMARK Flexibility Score: inf
ROOT
ATOM      1  C   UNL     1     -46.599 -12.131  10.501  1.00  0.00     0.008 A 
ATOM      2  C   UNL     1     -47.890 -12.646  10.369  1.00  0.00     0.050 A 
ATOM      3  C   UNL     1     -48.343 -13.646  11.242  1.00  0.00     0.161 A 
ATOM      4  C   UNL     1     -47.497 -14.129  12.252  1.00  0.00     0.200 A 
ATOM      5  C   UNL     1     -46.196 -13.609  12.383  1.00  0.00     0.161 A 
ATOM      6  C   UNL     1     -45.753 -12.610  11.503  1.00  0.00     0.050 A 
ENDROOT
BRANCH   3   7
ATOM      7  O   UNL     1     -49.631 -14.162  11.115  1.00  0.00    -0.504 OA
ATOM      8  H   UNL     1     -49.797 -15.157  11.022  1.00  0.00     0.293 HD
ENDBRANCH   3   7
BRANCH   5   9
ATOM      9  O   UNL     1     -45.350 -14.086  13.383  1.00  0.00    -0.504 OA
ATOM     10  H   UNL     1     -44.398 -14.367  13.185  1.00  0.00     0.293 HD
ENDBRANCH   5   9
BRANCH   4  11
ATOM     11  O   UNL     1     -47.962 -15.124  13.112  1.00  0.00    -0.502 OA
ATOM     12  H   UNL     1     -47.630 -15.210  14.065  1.00  0.00     0.293 HD
ENDBRANCH   4  11
TORSDOF 3
ENDMDL
MODEL 5
REMARK VINA RESULT:    -4.590      0.982      2.795
REMARK INTER + INTRA:          -4.993
REMARK INTER:                  -4.993
REMARK INTRA:                   0.000
REMARK UNBOUND:                 0.000
REMARK SMILES Oc1cccc(O)c1O
REMARK SMILES IDX 4 1 5 2 6 3 8 4 2 5 3 6 7 7 1 9 9 11
REMARK H PARENT 7 8 1 10 9 12
REMARK Flexibility Score: inf
ROOT
ATOM      1  C   UNL     1     -47.329 -15.087  11.951  1.00  0.00     0.008 A 
ATOM      2  C   UNL     1     -48.609 -15.125  12.507  1.00  0.00     0.050 A 
ATOM      3  C   UNL     1     -49.527 -14.100  12.235  1.00  0.00     0.161 A 
ATOM      4  C   UNL     1     -49.158 -13.033  11.402  1.00  0.00     0.200 A 
ATOM      5  C   UNL     1     -47.868 -12.996  10.843  1.00  0.00     0.161 A 
ATOM      6  C   UNL     1     -46.957 -14.026  11.122  1.00  0.00     0.050 A 
ENDROOT
BRANCH   3   7
ATOM      7  O   UNL     1     -50.806 -14.135  12.787  1.00  0.00    -0.504 OA
ATOM      8  H   UNL     1     -51.036 -14.756  13.554  1.00  0.00     0.293 HD
ENDBRANCH   3   7
BRANCH   5   9
ATOM      9  O   UNL     1     -47.495 -11.938  10.015  1.00  0.00    -0.504 OA
ATOM     10  H   UNL     1     -47.860 -11.003  10.151  1.00  0.00     0.293 HD
ENDBRANCH   5   9
BRANCH   4  11
ATOM     11  O   UNL     1     -50.083 -12.021  11.142  1.00  0.00    -0.502 OA
ATOM     12  H   UNL     1     -50.015 -11.106  11.570  1.00  0.00     0.293 HD
ENDBRANCH   4  11
TORSDOF 3
ENDMDL
MODEL 6
REMARK VINA RESULT:    -4.554      0.998      2.053
REMARK INTER + INTRA:          -4.953
REMARK INTER:                  -4.953
REMARK INTRA:                   0.000
REMARK UNBOUND:                 0.000
REMARK SMILES Oc1cccc(O)c1O
REMARK SMILES IDX 4 1 5 2 6 3 8 4 2 5 3 6 7 7 1 9 9 11
REMARK H PARENT 7 8 1 10 9 12
REMARK Flexibility Score: inf
ROOT
ATOM      1  C   UNL     1     -47.125 -15.011  12.009  1.00  0.00     0.008 A 
ATOM      2  C   UNL     1     -46.829 -13.943  11.160  1.00  0.00     0.050 A 
ATOM      3  C   UNL     1     -47.806 -12.980  10.871  1.00  0.00     0.161 A 
ATOM      4  C   UNL     1     -49.086 -13.090  11.436  1.00  0.00     0.200 A 
ATOM      5  C   UNL     1     -49.383 -14.167  12.292  1.00  0.00     0.161 A 
ATOM      6  C   UNL     1     -48.397 -15.125  12.574  1.00  0.00     0.050 A 
ENDROOT
BRANCH   3   7
ATOM      7  O   UNL     1     -47.515 -11.913  10.024  1.00  0.00    -0.504 OA
ATOM      8  H   UNL     1     -47.007 -11.100  10.351  1.00  0.00     0.293 HD
ENDBRANCH   3   7
BRANCH   5   9
ATOM      9  O   UNL     1     -50.652 -14.282  12.856  1.00  0.00    -0.504 OA
ATOM     10  H   UNL     1     -51.123 -15.176  12.927  1.00  0.00     0.293 HD
ENDBRANCH   5   9
BRANCH   4  11
ATOM     11  O   UNL     1     -50.048 -12.125  11.138  1.00  0.00    -0.502 OA
ATOM     12  H   UNL     1     -50.575 -12.139  10.273  1.00  0.00     0.293 HD
ENDBRANCH   4  11
TORSDOF 3
ENDMDL
MODEL 7
REMARK VINA RESULT:    -4.529     10.488     11.010
REMARK INTER + INTRA:          -4.926
REMARK INTER:                  -4.926
REMARK INTRA:                   0.000
REMARK UNBOUND:                 0.000
REMARK SMILES Oc1cccc(O)c1O
REMARK SMILES IDX 4 1 5 2 6 3 8 4 2 5 3 6 7 7 1 9 9 11
REMARK H PARENT 7 8 1 10 9 12
REMARK Flexibility Score: inf
ROOT
ATOM      1  C   UNL     1     -42.623  -8.391   5.158  1.00  0.00     0.008 A 
ATOM      2  C   UNL     1     -41.330  -8.390   5.683  1.00  0.00     0.050 A 
ATOM      3  C   UNL     1     -40.323  -9.155   5.078  1.00  0.00     0.161 A 
ATOM      4  C   UNL     1     -40.616  -9.924   3.941  1.00  0.00     0.200 A 
ATOM      5  C   UNL     1     -41.920  -9.924   3.414  1.00  0.00     0.161 A 
ATOM      6  C   UNL     1     -42.920  -9.155   4.027  1.00  0.00     0.050 A 
ENDROOT
BRANCH   3   7
ATOM      7  O   UNL     1     -39.030  -9.156   5.598  1.00  0.00    -0.504 OA
ATOM      8  H   UNL     1     -38.216  -9.113   4.996  1.00  0.00     0.293 HD
ENDBRANCH   3   7
BRANCH   5   9
ATOM      9  O   UNL     1     -42.218 -10.686   2.285  1.00  0.00    -0.504 OA
ATOM     10  H   UNL     1     -43.050 -10.518   1.734  1.00  0.00     0.293 HD
ENDBRANCH   5   9
BRANCH   4  11
ATOM     11  O   UNL     1     -39.603 -10.680   3.350  1.00  0.00    -0.502 OA
ATOM     12  H   UNL     1     -39.345 -10.567   2.378  1.00  0.00     0.293 HD
ENDBRANCH   4  11
TORSDOF 3
ENDMDL
MODEL 8
REMARK VINA RESULT:    -4.527     10.483     11.141
REMARK INTER + INTRA:          -4.924
REMARK INTER:                  -4.924
REMARK INTRA:                   0.000
REMARK UNBOUND:                 0.000
REMARK SMILES Oc1cccc(O)c1O
REMARK SMILES IDX 4 1 5 2 6 3 8 4 2 5 3 6 7 7 1 9 9 11
REMARK H PARENT 7 8 1 10 9 12
REMARK Flexibility Score: inf
ROOT
ATOM      1  C   UNL     1     -42.612  -8.399   5.175  1.00  0.00     0.008 A 
ATOM      2  C   UNL     1     -42.893  -9.167   4.044  1.00  0.00     0.050 A 
ATOM      3  C   UNL     1     -41.884  -9.934   3.443  1.00  0.00     0.161 A 
ATOM      4  C   UNL     1     -40.588  -9.930   3.981  1.00  0.00     0.200 A 
ATOM      5  C   UNL     1     -40.306  -9.154   5.121  1.00  0.00     0.161 A 
ATOM      6  C   UNL     1     -41.323  -8.391   5.713  1.00  0.00     0.050 A 
ENDROOT
BRANCH   3   7
ATOM      7  O   UNL     1     -42.161 -10.703   2.315  1.00  0.00    -0.504 OA
ATOM      8  H   UNL     1     -41.423 -11.146   1.781  1.00  0.00     0.293 HD
ENDBRANCH   3   7
BRANCH   5   9
ATOM      9  O   UNL     1     -39.020  -9.145   5.660  1.00  0.00    -0.504 OA
ATOM     10  H   UNL     1     -38.637  -8.321   6.105  1.00  0.00     0.293 HD
ENDBRANCH   5   9
BRANCH   4  11
ATOM     11  O   UNL     1     -39.595 -10.698   3.372  1.00  0.00    -0.502 OA
ATOM     12  H   UNL     1     -38.868 -10.283   2.802  1.00  0.00     0.293 HD
ENDBRANCH   4  11
TORSDOF 3
ENDMDL
MODEL 9
REMARK VINA RESULT:    -4.448      2.488      3.620
REMARK INTER + INTRA:          -4.838
REMARK INTER:                  -4.838
REMARK INTRA:                   0.000
REMARK UNBOUND:                 0.000
REMARK SMILES Oc1cccc(O)c1O
REMARK SMILES IDX 4 1 5 2 6 3 8 4 2 5 3 6 7 7 1 9 9 11
REMARK H PARENT 7 8 1 10 9 12
REMARK Flexibility Score: inf
ROOT
ATOM      1  C   UNL     1     -48.407 -13.082  14.127  1.00  0.00     0.008 A 
ATOM      2  C   UNL     1     -48.500 -13.474  12.791  1.00  0.00     0.050 A 
ATOM      3  C   UNL     1     -49.757 -13.651  12.194  1.00  0.00     0.161 A 
ATOM      4  C   UNL     1     -50.924 -13.434  12.942  1.00  0.00     0.200 A 
ATOM      5  C   UNL     1     -50.828 -13.039  14.289  1.00  0.00     0.161 A 
ATOM      6  C   UNL     1     -49.566 -12.865  14.876  1.00  0.00     0.050 A 
ENDROOT
BRANCH   3   7
ATOM      7  O   UNL     1     -49.855 -14.041  10.859  1.00  0.00    -0.504 OA
ATOM      8  H   UNL     1     -50.125 -13.387  10.135  1.00  0.00     0.293 HD
ENDBRANCH   3   7
BRANCH   5   9
ATOM      9  O   UNL     1     -51.984 -12.822  15.038  1.00  0.00    -0.504 OA
ATOM     10  H   UNL     1     -52.449 -13.577  15.528  1.00  0.00     0.293 HD
ENDBRANCH   5   9
BRANCH   4  11
ATOM     11  O   UNL     1     -52.167 -13.614  12.334  1.00  0.00    -0.502 OA
ATOM     12  H   UNL     1     -52.443 -14.499  11.925  1.00  0.00     0.293 HD
ENDBRANCH   4  11
TORSDOF 3
ENDMDL
