MODEL 1
REMARK VINA RESULT:    25.258      0.000      0.000
REMARK INTER + INTRA:          25.258
REMARK INTER:                  25.258
REMARK INTRA:                   0.000
REMARK UNBOUND:                 0.000
REMARK SMILES C[C@@H]1CCC=C2CC[C@@H]3[C@@H](C3(C)C)[C@@]21C
REMARK SMILES IDX 1 1 2 2 3 3 4 4 5 5 6 6 14 7 10 8 9 9 11 10 12 11 13 12 8 13
REMARK SMILES IDX 7 14 15 15
REMARK H PARENT
REMARK Flexibility Score: inf
ROOT
ATOM      1  C   UNL     1      -2.767   7.763  -8.455  1.00  0.00     0.008 C 
ATOM      2  C   UNL     1      -1.507   7.145  -7.815  1.00  0.00    -0.004 C 
ATOM      3  C   UNL     1      -0.525   8.246  -7.392  1.00  0.00     0.008 C 
ATOM      4  C   UNL     1       0.589   7.618  -6.563  1.00  0.00     0.027 C 
ATOM      5  C   UNL     1       1.269   6.521  -7.328  1.00  0.00    -0.027 C 
ATOM      6  C   UNL     1       0.656   5.800  -8.293  1.00  0.00    -0.068 C 
ATOM      7  C   UNL     1      -0.811   6.030  -8.701  1.00  0.00    -0.005 C 
ATOM      8  C   UNL     1      -0.772   6.521 -10.200  1.00  0.00     0.009 C 
ATOM      9  C   UNL     1       0.233   5.787 -11.127  1.00  0.00    -0.000 C 
ATOM     10  C   UNL     1      -1.263   5.810 -11.481  1.00  0.00    -0.028 C 
ATOM     11  C   UNL     1      -1.624   6.783 -12.613  1.00  0.00     0.012 C 
ATOM     12  C   UNL     1      -2.130   4.539 -11.454  1.00  0.00     0.012 C 
ATOM     13  C   UNL     1       0.925   4.556 -10.510  1.00  0.00     0.009 C 
ATOM     14  C   UNL     1       1.523   4.872  -9.129  1.00  0.00     0.031 C 
ATOM     15  C   UNL     1      -1.590   4.717  -8.425  1.00  0.00     0.017 C 
ENDROOT
TORSDOF 0
ENDMDL
MODEL 2
REMARK VINA RESULT:    27.245      1.216      4.591
REMARK INTER + INTRA:          27.245
REMARK INTER:                  27.245
REMARK INTRA:                   0.000
REMARK UNBOUND:                 0.000
REMARK SMILES C[C@@H]1CCC=C2CC[C@@H]3[C@@H](C3(C)C)[C@@]21C
REMARK SMILES IDX 1 1 2 2 3 3 4 4 5 5 6 6 14 7 10 8 9 9 11 10 12 11 13 12 8 13
REMARK SMILES IDX 7 14 15 15
REMARK H PARENT
REMARK Flexibility Score: inf
ROOT
ATOM      1  C   UNL     1       2.481   6.234 -10.130  1.00  0.00     0.008 C 
ATOM      2  C   UNL     1       1.089   5.718 -10.549  1.00  0.00    -0.004 C 
ATOM      3  C   UNL     1       0.651   6.366 -11.869  1.00  0.00     0.008 C 
ATOM      4  C   UNL     1      -0.609   5.666 -12.365  1.00  0.00     0.027 C 
ATOM      5  C   UNL     1      -1.691   5.717 -11.326  1.00  0.00    -0.027 C 
ATOM      6  C   UNL     1      -1.442   5.803 -10.000  1.00  0.00    -0.068 C 
ATOM      7  C   UNL     1      -0.016   5.850  -9.420  1.00  0.00    -0.005 C 
ATOM      8  C   UNL     1       0.124   7.264  -8.733  1.00  0.00     0.009 C 
ATOM      9  C   UNL     1      -1.108   7.748  -7.923  1.00  0.00    -0.000 C 
ATOM     10  C   UNL     1       0.261   7.619  -7.234  1.00  0.00    -0.028 C 
ATOM     11  C   UNL     1       0.970   8.960  -6.992  1.00  0.00     0.012 C 
ATOM     12  C   UNL     1       0.532   6.567  -6.144  1.00  0.00     0.012 C 
ATOM     13  C   UNL     1      -2.233   6.710  -7.745  1.00  0.00     0.009 C 
ATOM     14  C   UNL     1      -2.626   6.062  -9.083  1.00  0.00     0.031 C 
ATOM     15  C   UNL     1       0.162   4.614  -8.500  1.00  0.00     0.017 C 
ENDROOT
TORSDOF 0
ENDMDL
