MODEL 1
REMARK VINA RESULT:    -4.164      0.000      0.000
REMARK INTER + INTRA:          -4.930
REMARK INTER:                  -4.895
REMARK INTRA:                  -0.036
REMARK UNBOUND:                -0.036
REMARK SMILES O=C([O-])CCC(=O)[O-]
REMARK SMILES IDX 4 1 2 2 1 3 3 4 5 5 6 6 7 7 8 8
REMARK H PARENT
REMARK Flexibility Score: inf
ROOT
ATOM      1  C   UNL     1     -11.364   1.296  -9.362  1.00  0.00     0.059 C 
ENDROOT
BRANCH   1   2
ATOM      2  C   UNL     1     -11.789   0.271 -10.366  1.00  0.00     0.042 C 
ATOM      3  O   UNL     1     -10.939  -0.263 -11.125  1.00  0.00    -0.550 OA
ATOM      4  O   UNL     1     -13.133  -0.057 -10.497  1.00  0.00    -0.550 OA
ENDBRANCH   1   2
BRANCH   1   5
ATOM      5  C   UNL     1     -12.284   2.516  -9.420  1.00  0.00     0.059 C 
BRANCH   5   6
ATOM      6  C   UNL     1     -11.746   3.619  -8.563  1.00  0.00     0.042 C 
ATOM      7  O   UNL     1     -10.548   3.596  -8.179  1.00  0.00    -0.550 OA
ATOM      8  O   UNL     1     -12.582   4.647  -8.149  1.00  0.00    -0.550 OA
ENDBRANCH   5   6
ENDBRANCH   1   5
TORSDOF 3
ENDMDL
MODEL 2
REMARK VINA RESULT:    -3.937      1.818      4.079
REMARK INTER + INTRA:          -4.663
REMARK INTER:                  -4.555
REMARK INTRA:                  -0.108
REMARK UNBOUND:                -0.036
REMARK SMILES O=C([O-])CCC(=O)[O-]
REMARK SMILES IDX 4 1 2 2 1 3 3 4 5 5 6 6 7 7 8 8
REMARK H PARENT
REMARK Flexibility Score: inf
ROOT
ATOM      1  C   UNL     1     -12.160   2.323  -9.236  1.00  0.00     0.059 C 
ENDROOT
BRANCH   1   2
ATOM      2  C   UNL     1     -11.785   3.594  -8.543  1.00  0.00     0.042 C 
ATOM      3  O   UNL     1     -10.627   3.741  -8.071  1.00  0.00    -0.550 OA
ATOM      4  O   UNL     1     -12.730   4.599  -8.374  1.00  0.00    -0.550 OA
ENDBRANCH   1   2
BRANCH   1   5
ATOM      5  C   UNL     1     -13.540   2.452  -9.883  1.00  0.00     0.059 C 
BRANCH   5   6
ATOM      6  C   UNL     1     -14.503   1.492  -9.259  1.00  0.00     0.042 C 
ATOM      7  O   UNL     1     -15.123   1.807  -8.210  1.00  0.00    -0.550 OA
ATOM      8  O   UNL     1     -14.679   0.229  -9.810  1.00  0.00    -0.550 OA
ENDBRANCH   5   6
ENDBRANCH   1   5
TORSDOF 3
ENDMDL
MODEL 3
REMARK VINA RESULT:    -3.929      1.877      2.537
REMARK INTER + INTRA:          -4.654
REMARK INTER:                  -4.535
REMARK INTRA:                  -0.118
REMARK UNBOUND:                -0.036
REMARK SMILES O=C([O-])CCC(=O)[O-]
REMARK SMILES IDX 4 1 2 2 1 3 3 4 5 5 6 6 7 7 8 8
REMARK H PARENT
REMARK Flexibility Score: inf
ROOT
ATOM      1  C   UNL     1     -13.518   2.383  -9.888  1.00  0.00     0.059 C 
ENDROOT
BRANCH   1   2
ATOM      2  C   UNL     1     -14.533   1.532  -9.193  1.00  0.00     0.042 C 
ATOM      3  O   UNL     1     -15.099   1.946  -8.148  1.00  0.00    -0.550 OA
ATOM      4  O   UNL     1     -14.817   0.258  -9.671  1.00  0.00    -0.550 OA
ENDBRANCH   1   2
BRANCH   1   5
ATOM      5  C   UNL     1     -12.152   2.246  -9.215  1.00  0.00     0.059 C 
BRANCH   5   6
ATOM      6  C   UNL     1     -11.756   3.535  -8.566  1.00  0.00     0.042 C 
ATOM      7  O   UNL     1     -10.593   3.684  -8.110  1.00  0.00    -0.550 OA
ATOM      8  O   UNL     1     -12.688   4.555  -8.423  1.00  0.00    -0.550 OA
ENDBRANCH   5   6
ENDBRANCH   1   5
TORSDOF 3
ENDMDL
MODEL 4
REMARK VINA RESULT:    -3.822      2.173      4.631
REMARK INTER + INTRA:          -4.528
REMARK INTER:                  -4.422
REMARK INTRA:                  -0.106
REMARK UNBOUND:                -0.036
REMARK SMILES O=C([O-])CCC(=O)[O-]
REMARK SMILES IDX 4 1 2 2 1 3 3 4 5 5 6 6 7 7 8 8
REMARK H PARENT
REMARK Flexibility Score: inf
ROOT
ATOM      1  C   UNL     1     -12.141  -0.001 -10.501  1.00  0.00     0.059 C 
ENDROOT
BRANCH   1   2
ATOM      2  C   UNL     1     -12.063   1.238  -9.668  1.00  0.00     0.042 C 
ATOM      3  O   UNL     1     -13.018   2.058  -9.659  1.00  0.00    -0.550 OA
ATOM      4  O   UNL     1     -10.912   1.514  -8.938  1.00  0.00    -0.550 OA
ENDBRANCH   1   2
BRANCH   1   5
ATOM      5  C   UNL     1     -10.770  -0.673 -10.592  1.00  0.00     0.059 C 
BRANCH   5   6
ATOM      6  C   UNL     1     -10.746  -1.926  -9.775  1.00  0.00     0.042 C 
ATOM      7  O   UNL     1     -11.433  -2.922 -10.121  1.00  0.00    -0.550 OA
ATOM      8  O   UNL     1     -10.001  -1.976  -8.604  1.00  0.00    -0.550 OA
ENDBRANCH   5   6
ENDBRANCH   1   5
TORSDOF 3
ENDMDL
MODEL 5
REMARK VINA RESULT:    -3.632      2.155      2.940
REMARK INTER + INTRA:          -4.305
REMARK INTER:                  -4.264
REMARK INTRA:                  -0.040
REMARK UNBOUND:                -0.036
REMARK SMILES O=C([O-])CCC(=O)[O-]
REMARK SMILES IDX 4 1 2 2 1 3 3 4 5 5 6 6 7 7 8 8
REMARK H PARENT
REMARK Flexibility Score: inf
ROOT
ATOM      1  C   UNL     1     -10.595  -0.738  -9.490  1.00  0.00     0.059 C 
ENDROOT
BRANCH   1   2
ATOM      2  C   UNL     1     -10.668  -2.175  -9.901  1.00  0.00     0.042 C 
ATOM      3  O   UNL     1     -11.783  -2.717 -10.114  1.00  0.00    -0.550 OA
ATOM      4  O   UNL     1      -9.505  -2.929 -10.001  1.00  0.00    -0.550 OA
ENDBRANCH   1   2
BRANCH   1   5
ATOM      5  C   UNL     1     -11.537   0.112 -10.343  1.00  0.00     0.059 C 
BRANCH   5   6
ATOM      6  C   UNL     1     -11.917   1.363  -9.616  1.00  0.00     0.042 C 
ATOM      7  O   UNL     1     -11.087   1.934  -8.861  1.00  0.00    -0.550 OA
ATOM      8  O   UNL     1     -13.204   1.871  -9.734  1.00  0.00    -0.550 OA
ENDBRANCH   5   6
ENDBRANCH   1   5
TORSDOF 3
ENDMDL
MODEL 6
REMARK VINA RESULT:    -3.556      3.661      5.012
REMARK INTER + INTRA:          -4.215
REMARK INTER:                  -4.183
REMARK INTRA:                  -0.032
REMARK UNBOUND:                -0.036
REMARK SMILES O=C([O-])CCC(=O)[O-]
REMARK SMILES IDX 4 1 2 2 1 3 3 4 5 5 6 6 7 7 8 8
REMARK H PARENT
REMARK Flexibility Score: inf
ROOT
ATOM      1  C   UNL     1      -9.909  -2.188  -8.495  1.00  0.00     0.059 C 
ENDROOT
BRANCH   1   2
ATOM      2  C   UNL     1      -9.556  -3.631  -8.320  1.00  0.00     0.042 C 
ATOM      3  O   UNL     1      -9.872  -4.237  -7.263  1.00  0.00    -0.550 OA
ATOM      4  O   UNL     1      -8.832  -4.294  -9.304  1.00  0.00    -0.550 OA
ENDBRANCH   1   2
BRANCH   1   5
ATOM      5  C   UNL     1     -10.178  -1.878  -9.969  1.00  0.00     0.059 C 
BRANCH   5   6
ATOM      6  C   UNL     1     -10.836  -0.541 -10.111  1.00  0.00     0.042 C 
ATOM      7  O   UNL     1     -11.542  -0.286 -11.121  1.00  0.00    -0.550 OA
ATOM      8  O   UNL     1     -10.629   0.440  -9.150  1.00  0.00    -0.550 OA
ENDBRANCH   5   6
ENDBRANCH   1   5
TORSDOF 3
ENDMDL
MODEL 7
REMARK VINA RESULT:    -3.519      0.182      4.277
REMARK INTER + INTRA:          -4.172
REMARK INTER:                  -4.133
REMARK INTRA:                  -0.039
REMARK UNBOUND:                -0.036
REMARK SMILES O=C([O-])CCC(=O)[O-]
REMARK SMILES IDX 4 1 2 2 1 3 3 4 5 5 6 6 7 7 8 8
REMARK H PARENT
REMARK Flexibility Score: inf
ROOT
ATOM      1  C   UNL     1     -12.356   2.391  -9.262  1.00  0.00     0.059 C 
ENDROOT
BRANCH   1   2
ATOM      2  C   UNL     1     -11.828   3.560  -8.492  1.00  0.00     0.042 C 
ATOM      3  O   UNL     1     -10.621   3.592  -8.136  1.00  0.00    -0.550 OA
ATOM      4  O   UNL     1     -12.683   4.592  -8.123  1.00  0.00    -0.550 OA
ENDBRANCH   1   2
BRANCH   1   5
ATOM      5  C   UNL     1     -11.325   1.261  -9.294  1.00  0.00     0.059 C 
BRANCH   5   6
ATOM      6  C   UNL     1     -11.665   0.273 -10.365  1.00  0.00     0.042 C 
ATOM      7  O   UNL     1     -12.860  -0.074 -10.551  1.00  0.00    -0.550 OA
ATOM      8  O   UNL     1     -10.654  -0.301 -11.125  1.00  0.00    -0.550 OA
ENDBRANCH   5   6
ENDBRANCH   1   5
TORSDOF 3
ENDMDL
MODEL 8
REMARK VINA RESULT:    -3.451     15.461     16.827
REMARK INTER + INTRA:          -4.091
REMARK INTER:                  -3.969
REMARK INTRA:                  -0.122
REMARK UNBOUND:                -0.036
REMARK SMILES O=C([O-])CCC(=O)[O-]
REMARK SMILES IDX 4 1 2 2 1 3 3 4 5 5 6 6 7 7 8 8
REMARK H PARENT
REMARK Flexibility Score: inf
ROOT
ATOM      1  C   UNL     1     -12.740   4.634   6.925  1.00  0.00     0.059 C 
ENDROOT
BRANCH   1   2
ATOM      2  C   UNL     1     -12.908   5.683   5.872  1.00  0.00     0.042 C 
ATOM      3  O   UNL     1     -13.511   5.414   4.800  1.00  0.00    -0.550 OA
ATOM      4  O   UNL     1     -12.354   6.944   6.052  1.00  0.00    -0.550 OA
ENDBRANCH   1   2
BRANCH   1   5
ATOM      5  C   UNL     1     -11.389   3.933   6.772  1.00  0.00     0.059 C 
BRANCH   5   6
ATOM      6  C   UNL     1     -10.384   4.525   7.709  1.00  0.00     0.042 C 
ATOM      7  O   UNL     1      -9.589   5.415   7.307  1.00  0.00    -0.550 OA
ATOM      8  O   UNL     1     -10.292   4.058   9.014  1.00  0.00    -0.550 OA
ENDBRANCH   5   6
ENDBRANCH   1   5
TORSDOF 3
ENDMDL
MODEL 9
REMARK VINA RESULT:    -3.446     15.502     16.856
REMARK INTER + INTRA:          -4.086
REMARK INTER:                  -3.967
REMARK INTRA:                  -0.119
REMARK UNBOUND:                -0.036
REMARK SMILES O=C([O-])CCC(=O)[O-]
REMARK SMILES IDX 4 1 2 2 1 3 3 4 5 5 6 6 7 7 8 8
REMARK H PARENT
REMARK Flexibility Score: inf
ROOT
ATOM      1  C   UNL     1     -11.328   3.954   6.775  1.00  0.00     0.059 C 
ENDROOT
BRANCH   1   2
ATOM      2  C   UNL     1     -10.328   4.578   7.697  1.00  0.00     0.042 C 
ATOM      3  O   UNL     1      -9.532   5.455   7.269  1.00  0.00    -0.550 OA
ATOM      4  O   UNL     1     -10.241   4.155   9.018  1.00  0.00    -0.550 OA
ENDBRANCH   1   2
BRANCH   1   5
ATOM      5  C   UNL     1     -12.698   4.612   6.946  1.00  0.00     0.059 C 
BRANCH   5   6
ATOM      6  C   UNL     1     -12.896   5.681   5.919  1.00  0.00     0.042 C 
ATOM      7  O   UNL     1     -13.491   5.421   4.840  1.00  0.00    -0.550 OA
ATOM      8  O   UNL     1     -12.382   6.953   6.132  1.00  0.00    -0.550 OA
ENDBRANCH   5   6
ENDBRANCH   1   5
TORSDOF 3
ENDMDL
