MODEL 1
REMARK VINA RESULT:    -7.276      0.000      0.000
REMARK INTER + INTRA:          -9.089
REMARK INTER:                  -8.765
REMARK INTRA:                  -0.324
REMARK UNBOUND:                -0.324
REMARK SMILES O=c1c(O)c(-c2ccc(O)c(O)c2)oc2cc(O)cc(O)c12
REMARK SMILES IDX 5 1 3 2 2 3 1 4 22 5 20 6 19 7 17 8 16 9 15 10 14 11 6 12
REMARK SMILES IDX 7 13 8 14 9 15 13 16 11 17 10 18 12 20 4 22 21 24 18 26
REMARK H PARENT 10 19 12 21 4 23 21 25 18 27
REMARK Flexibility Score: inf
ROOT
ATOM      1  C   UNL     1     -13.288 -29.650 -11.995  1.00  0.00     0.180 A 
ATOM      2  C   UNL     1     -13.543 -30.787 -12.781  1.00  0.00     0.208 A 
ATOM      3  C   UNL     1     -13.093 -32.039 -12.333  1.00  0.00     0.238 A 
ATOM      4  O   UNL     1     -13.371 -33.060 -13.014  1.00  0.00    -0.285 OA
ATOM      5  C   UNL     1     -12.381 -32.137 -11.113  1.00  0.00     0.111 A 
ATOM      6  C   UNL     1     -11.844 -33.349 -10.583  1.00  0.00     0.134 A 
ATOM      7  C   UNL     1     -11.273 -33.350  -9.305  1.00  0.00     0.093 A 
ATOM      8  C   UNL     1     -11.159 -32.173  -8.566  1.00  0.00     0.123 A 
ATOM      9  C   UNL     1     -11.627 -30.971  -9.100  1.00  0.00     0.094 A 
ATOM     10  C   UNL     1     -12.235 -30.945 -10.357  1.00  0.00     0.146 A 
ATOM     11  O   UNL     1     -12.676 -29.783 -10.824  1.00  0.00    -0.452 OA
ENDROOT
BRANCH   1  12
ATOM     12  C   UNL     1     -13.709 -28.292 -12.412  1.00  0.00     0.025 A 
ATOM     13  C   UNL     1     -14.967 -27.774 -12.057  1.00  0.00     0.016 A 
ATOM     14  C   UNL     1     -15.352 -26.500 -12.482  1.00  0.00     0.051 A 
ATOM     15  C   UNL     1     -14.493 -25.731 -13.279  1.00  0.00     0.157 A 
ATOM     16  C   UNL     1     -12.860 -27.526 -13.228  1.00  0.00     0.062 A 
ATOM     17  C   UNL     1     -13.243 -26.250 -13.656  1.00  0.00     0.158 A 
BRANCH  15  18
ATOM     18  O   UNL     1     -14.880 -24.460 -13.699  1.00  0.00    -0.504 OA
ATOM     19  H   UNL     1     -14.224 -23.824 -14.138  1.00  0.00     0.293 HD
ENDBRANCH  15  18
BRANCH  17  20
ATOM     20  O   UNL     1     -12.368 -25.513 -14.454  1.00  0.00    -0.504 OA
ATOM     21  H   UNL     1     -12.678 -25.035 -15.292  1.00  0.00     0.293 HD
ENDBRANCH  17  20
ENDBRANCH   1  12
BRANCH   2  22
ATOM     22  O   UNL     1     -14.266 -30.671 -13.971  1.00  0.00    -0.502 OA
ATOM     23  H   UNL     1     -15.233 -30.371 -13.994  1.00  0.00     0.293 HD
ENDBRANCH   2  22
BRANCH   6  24
ATOM     24  O   UNL     1     -11.824 -34.562 -11.276  1.00  0.00    -0.507 OA
ATOM     25  H   UNL     1     -12.016 -35.463 -10.865  1.00  0.00     0.293 HD
ENDBRANCH   6  24
BRANCH   8  26
ATOM     26  O   UNL     1     -10.570 -32.207  -7.303  1.00  0.00    -0.508 OA
ATOM     27  H   UNL     1     -10.815 -32.916  -6.623  1.00  0.00     0.293 HD
ENDBRANCH   8  26
TORSDOF 6
ENDMDL
MODEL 2
REMARK VINA RESULT:    -6.929      1.273      2.978
REMARK INTER + INTRA:          -8.670
REMARK INTER:                  -8.358
REMARK INTRA:                  -0.312
REMARK UNBOUND:                -0.324
REMARK SMILES O=c1c(O)c(-c2ccc(O)c(O)c2)oc2cc(O)cc(O)c12
REMARK SMILES IDX 5 1 3 2 2 3 1 4 22 5 20 6 19 7 17 8 16 9 15 10 14 11 6 12
REMARK SMILES IDX 7 13 8 14 9 15 13 16 11 17 10 18 12 20 4 22 21 24 18 26
REMARK H PARENT 10 19 12 21 4 23 21 25 18 27
REMARK Flexibility Score: inf
ROOT
ATOM      1  C   UNL     1     -13.050 -29.719 -11.952  1.00  0.00     0.180 A 
ATOM      2  C   UNL     1     -12.556 -29.953 -10.656  1.00  0.00     0.208 A 
ATOM      3  C   UNL     1     -12.091 -31.236 -10.327  1.00  0.00     0.238 A 
ATOM      4  O   UNL     1     -11.600 -31.425  -9.183  1.00  0.00    -0.285 OA
ATOM      5  C   UNL     1     -12.140 -32.272 -11.290  1.00  0.00     0.111 A 
ATOM      6  C   UNL     1     -11.732 -33.620 -11.052  1.00  0.00     0.134 A 
ATOM      7  C   UNL     1     -11.702 -34.529 -12.116  1.00  0.00     0.093 A 
ATOM      8  C   UNL     1     -12.125 -34.160 -13.392  1.00  0.00     0.123 A 
ATOM      9  C   UNL     1     -12.582 -32.861 -13.622  1.00  0.00     0.094 A 
ATOM     10  C   UNL     1     -12.590 -31.921 -12.590  1.00  0.00     0.146 A 
ATOM     11  O   UNL     1     -13.022 -30.693 -12.852  1.00  0.00    -0.452 OA
ENDROOT
BRANCH   1  12
ATOM     12  C   UNL     1     -13.581 -28.400 -12.366  1.00  0.00     0.025 A 
ATOM     13  C   UNL     1     -14.884 -27.996 -12.026  1.00  0.00     0.016 A 
ATOM     14  C   UNL     1     -15.373 -26.757 -12.448  1.00  0.00     0.051 A 
ATOM     15  C   UNL     1     -14.573 -25.909 -13.226  1.00  0.00     0.157 A 
ATOM     16  C   UNL     1     -12.791 -27.556 -13.164  1.00  0.00     0.062 A 
ATOM     17  C   UNL     1     -13.277 -26.315 -13.588  1.00  0.00     0.158 A 
BRANCH  15  18
ATOM     18  O   UNL     1     -15.063 -24.673 -13.644  1.00  0.00    -0.504 OA
ATOM     19  H   UNL     1     -14.446 -23.948 -13.992  1.00  0.00     0.293 HD
ENDBRANCH  15  18
BRANCH  17  20
ATOM     20  O   UNL     1     -12.459 -25.497 -14.368  1.00  0.00    -0.504 OA
ATOM     21  H   UNL     1     -11.809 -25.877 -15.047  1.00  0.00     0.293 HD
ENDBRANCH  17  20
ENDBRANCH   1  12
BRANCH   2  22
ATOM     22  O   UNL     1     -12.497 -28.911  -9.727  1.00  0.00    -0.502 OA
ATOM     23  H   UNL     1     -13.293 -28.319  -9.522  1.00  0.00     0.293 HD
ENDBRANCH   2  22
BRANCH   6  24
ATOM     24  O   UNL     1     -11.377 -34.118  -9.796  1.00  0.00    -0.507 OA
ATOM     25  H   UNL     1     -11.746 -34.962  -9.387  1.00  0.00     0.293 HD
ENDBRANCH   6  24
BRANCH   8  26
ATOM     26  O   UNL     1     -12.096 -35.095 -14.425  1.00  0.00    -0.508 OA
ATOM     27  H   UNL     1     -12.849 -35.759 -14.561  1.00  0.00     0.293 HD
ENDBRANCH   8  26
TORSDOF 6
ENDMDL
MODEL 3
REMARK VINA RESULT:    -6.772      2.364      6.762
REMARK INTER + INTRA:          -8.481
REMARK INTER:                  -8.146
REMARK INTRA:                  -0.335
REMARK UNBOUND:                -0.324
REMARK SMILES O=c1c(O)c(-c2ccc(O)c(O)c2)oc2cc(O)cc(O)c12
REMARK SMILES IDX 5 1 3 2 2 3 1 4 22 5 20 6 19 7 17 8 16 9 15 10 14 11 6 12
REMARK SMILES IDX 7 13 8 14 9 15 13 16 11 17 10 18 12 20 4 22 21 24 18 26
REMARK H PARENT 10 19 12 21 4 23 21 25 18 27
REMARK Flexibility Score: inf
ROOT
ATOM      1  C   UNL     1     -13.806 -30.844 -12.289  1.00  0.00     0.180 A 
ATOM      2  C   UNL     1     -14.040 -30.802 -10.903  1.00  0.00     0.208 A 
ATOM      3  C   UNL     1     -14.259 -29.559 -10.287  1.00  0.00     0.238 A 
ATOM      4  O   UNL     1     -14.522 -29.533  -9.057  1.00  0.00    -0.285 OA
ATOM      5  C   UNL     1     -14.227 -28.374 -11.061  1.00  0.00     0.111 A 
ATOM      6  C   UNL     1     -14.396 -27.058 -10.534  1.00  0.00     0.134 A 
ATOM      7  C   UNL     1     -14.475 -25.969 -11.410  1.00  0.00     0.093 A 
ATOM      8  C   UNL     1     -14.326 -26.139 -12.786  1.00  0.00     0.123 A 
ATOM      9  C   UNL     1     -14.100 -27.414 -13.306  1.00  0.00     0.094 A 
ATOM     10  C   UNL     1     -14.053 -28.525 -12.461  1.00  0.00     0.146 A 
ATOM     11  O   UNL     1     -13.846 -29.722 -12.997  1.00  0.00    -0.452 OA
ENDROOT
BRANCH   1  12
ATOM     12  C   UNL     1     -13.541 -32.113 -13.006  1.00  0.00     0.025 A 
ATOM     13  C   UNL     1     -12.236 -32.619 -13.139  1.00  0.00     0.016 A 
ATOM     14  C   UNL     1     -12.008 -33.806 -13.840  1.00  0.00     0.051 A 
ATOM     15  C   UNL     1     -13.075 -34.497 -14.428  1.00  0.00     0.157 A 
ATOM     16  C   UNL     1     -14.605 -32.798 -13.614  1.00  0.00     0.062 A 
ATOM     17  C   UNL     1     -14.380 -33.987 -14.317  1.00  0.00     0.158 A 
BRANCH  15  18
ATOM     18  O   UNL     1     -12.844 -35.682 -15.125  1.00  0.00    -0.504 OA
ATOM     19  H   UNL     1     -12.478 -35.679 -16.070  1.00  0.00     0.293 HD
ENDBRANCH  15  18
BRANCH  17  20
ATOM     20  O   UNL     1     -15.463 -34.647 -14.897  1.00  0.00    -0.504 OA
ATOM     21  H   UNL     1     -16.400 -34.582 -14.516  1.00  0.00     0.293 HD
ENDBRANCH  17  20
ENDBRANCH   1  12
BRANCH   2  22
ATOM     22  O   UNL     1     -14.089 -31.986 -10.162  1.00  0.00    -0.502 OA
ATOM     23  H   UNL     1     -14.076 -31.995  -9.150  1.00  0.00     0.293 HD
ENDBRANCH   2  22
BRANCH   6  24
ATOM     24  O   UNL     1     -14.464 -26.767  -9.168  1.00  0.00    -0.507 OA
ATOM     25  H   UNL     1     -14.242 -27.417  -8.431  1.00  0.00     0.293 HD
ENDBRANCH   6  24
BRANCH   8  26
ATOM     26  O   UNL     1     -14.395 -25.031 -13.627  1.00  0.00    -0.508 OA
ATOM     27  H   UNL     1     -14.043 -24.125 -13.342  1.00  0.00     0.293 HD
ENDBRANCH   8  26
TORSDOF 6
ENDMDL
MODEL 4
REMARK VINA RESULT:    -6.728      2.660      6.051
REMARK INTER + INTRA:          -8.428
REMARK INTER:                  -8.105
REMARK INTRA:                  -0.323
REMARK UNBOUND:                -0.324
REMARK SMILES O=c1c(O)c(-c2ccc(O)c(O)c2)oc2cc(O)cc(O)c12
REMARK SMILES IDX 5 1 3 2 2 3 1 4 22 5 20 6 19 7 17 8 16 9 15 10 14 11 6 12
REMARK SMILES IDX 7 13 8 14 9 15 13 16 11 17 10 18 12 20 4 22 21 24 18 26
REMARK H PARENT 10 19 12 21 4 23 21 25 18 27
REMARK Flexibility Score: inf
ROOT
ATOM      1  C   UNL     1     -13.624 -30.747 -12.310  1.00  0.00     0.180 A 
ATOM      2  C   UNL     1     -13.642 -29.513 -12.983  1.00  0.00     0.208 A 
ATOM      3  C   UNL     1     -13.851 -28.338 -12.244  1.00  0.00     0.238 A 
ATOM      4  O   UNL     1     -13.811 -27.232 -12.843  1.00  0.00    -0.285 OA
ATOM      5  C   UNL     1     -14.055 -28.412 -10.845  1.00  0.00     0.111 A 
ATOM      6  C   UNL     1     -14.316 -27.289 -10.003  1.00  0.00     0.134 A 
ATOM      7  C   UNL     1     -14.373 -27.465  -8.615  1.00  0.00     0.093 A 
ATOM      8  C   UNL     1     -14.243 -28.730  -8.043  1.00  0.00     0.123 A 
ATOM      9  C   UNL     1     -14.048 -29.844  -8.862  1.00  0.00     0.094 A 
ATOM     10  C   UNL     1     -13.951 -29.696 -10.247  1.00  0.00     0.146 A 
ATOM     11  O   UNL     1     -13.754 -30.779 -10.989  1.00  0.00    -0.452 OA
ENDROOT
BRANCH   1  12
ATOM     12  C   UNL     1     -13.435 -32.031 -13.024  1.00  0.00     0.025 A 
ATOM     13  C   UNL     1     -12.154 -32.574 -13.226  1.00  0.00     0.016 A 
ATOM     14  C   UNL     1     -11.997 -33.775 -13.922  1.00  0.00     0.051 A 
ATOM     15  C   UNL     1     -13.115 -34.444 -14.439  1.00  0.00     0.157 A 
ATOM     16  C   UNL     1     -14.550 -32.695 -13.561  1.00  0.00     0.062 A 
ATOM     17  C   UNL     1     -14.397 -33.897 -14.260  1.00  0.00     0.158 A 
BRANCH  15  18
ATOM     18  O   UNL     1     -12.955 -35.643 -15.132  1.00  0.00    -0.504 OA
ATOM     19  H   UNL     1     -13.608 -36.410 -15.022  1.00  0.00     0.293 HD
ENDBRANCH  15  18
BRANCH  17  20
ATOM     20  O   UNL     1     -15.529 -34.535 -14.768  1.00  0.00    -0.504 OA
ATOM     21  H   UNL     1     -15.614 -35.544 -14.788  1.00  0.00     0.293 HD
ENDBRANCH  17  20
ENDBRANCH   1  12
BRANCH   2  22
ATOM     22  O   UNL     1     -13.416 -29.460 -14.361  1.00  0.00    -0.502 OA
ATOM     23  H   UNL     1     -13.936 -30.027 -15.020  1.00  0.00     0.293 HD
ENDBRANCH   2  22
BRANCH   6  24
ATOM     24  O   UNL     1     -14.552 -25.996 -10.478  1.00  0.00    -0.507 OA
ATOM     25  H   UNL     1     -13.859 -25.264 -10.520  1.00  0.00     0.293 HD
ENDBRANCH   6  24
BRANCH   8  26
ATOM     26  O   UNL     1     -14.320 -28.871  -6.659  1.00  0.00    -0.508 OA
ATOM     27  H   UNL     1     -13.708 -28.356  -6.039  1.00  0.00     0.293 HD
ENDBRANCH   8  26
TORSDOF 6
ENDMDL
MODEL 5
REMARK VINA RESULT:    -6.569      2.648      5.888
REMARK INTER + INTRA:          -8.237
REMARK INTER:                  -7.907
REMARK INTRA:                  -0.330
REMARK UNBOUND:                -0.324
REMARK SMILES O=c1c(O)c(-c2ccc(O)c(O)c2)oc2cc(O)cc(O)c12
REMARK SMILES IDX 5 1 3 2 2 3 1 4 22 5 20 6 19 7 17 8 16 9 15 10 14 11 6 12
REMARK SMILES IDX 7 13 8 14 9 15 13 16 11 17 10 18 12 20 4 22 21 24 18 26
REMARK H PARENT 10 19 12 21 4 23 21 25 18 27
REMARK Flexibility Score: inf
ROOT
ATOM      1  C   UNL     1     -13.790 -30.170 -11.847  1.00  0.00     0.180 A 
ATOM      2  C   UNL     1     -13.828 -28.910 -12.468  1.00  0.00     0.208 A 
ATOM      3  C   UNL     1     -14.046 -27.769 -11.680  1.00  0.00     0.238 A 
ATOM      4  O   UNL     1     -14.025 -26.639 -12.234  1.00  0.00    -0.285 OA
ATOM      5  C   UNL     1     -14.240 -27.903 -10.284  1.00  0.00     0.111 A 
ATOM      6  C   UNL     1     -14.508 -26.818  -9.395  1.00  0.00     0.134 A 
ATOM      7  C   UNL     1     -14.553 -27.052  -8.016  1.00  0.00     0.093 A 
ATOM      8  C   UNL     1     -14.404 -28.337  -7.497  1.00  0.00     0.123 A 
ATOM      9  C   UNL     1     -14.200 -29.414  -8.362  1.00  0.00     0.094 A 
ATOM     10  C   UNL     1     -14.115 -29.208  -9.740  1.00  0.00     0.146 A 
ATOM     11  O   UNL     1     -13.910 -30.257 -10.527  1.00  0.00    -0.452 OA
ENDROOT
BRANCH   1  12
ATOM     12  C   UNL     1     -13.590 -31.422 -12.614  1.00  0.00     0.025 A 
ATOM     13  C   UNL     1     -14.680 -32.158 -13.111  1.00  0.00     0.016 A 
ATOM     14  C   UNL     1     -14.468 -33.348 -13.812  1.00  0.00     0.051 A 
ATOM     15  C   UNL     1     -13.167 -33.827 -14.013  1.00  0.00     0.157 A 
ATOM     16  C   UNL     1     -12.289 -31.917 -12.801  1.00  0.00     0.062 A 
ATOM     17  C   UNL     1     -12.073 -33.109 -13.501  1.00  0.00     0.158 A 
BRANCH  15  18
ATOM     18  O   UNL     1     -12.959 -35.014 -14.714  1.00  0.00    -0.504 OA
ATOM     19  H   UNL     1     -12.914 -35.032 -15.726  1.00  0.00     0.293 HD
ENDBRANCH  15  18
BRANCH  17  20
ATOM     20  O   UNL     1     -10.766 -33.563 -13.679  1.00  0.00    -0.504 OA
ATOM     21  H   UNL     1     -10.470 -34.030 -14.528  1.00  0.00     0.293 HD
ENDBRANCH  17  20
ENDBRANCH   1  12
BRANCH   2  22
ATOM     22  O   UNL     1     -13.613 -28.798 -13.845  1.00  0.00    -0.502 OA
ATOM     23  H   UNL     1     -12.873 -29.298 -14.322  1.00  0.00     0.293 HD
ENDBRANCH   2  22
BRANCH   6  24
ATOM     24  O   UNL     1     -14.764 -25.510  -9.815  1.00  0.00    -0.507 OA
ATOM     25  H   UNL     1     -15.592 -25.217 -10.311  1.00  0.00     0.293 HD
ENDBRANCH   6  24
BRANCH   8  26
ATOM     26  O   UNL     1     -14.469 -28.535  -6.119  1.00  0.00    -0.508 OA
ATOM     27  H   UNL     1     -13.635 -28.544  -5.544  1.00  0.00     0.293 HD
ENDBRANCH   8  26
TORSDOF 6
ENDMDL
MODEL 6
REMARK VINA RESULT:    -6.517      2.298      6.613
REMARK INTER + INTRA:          -8.174
REMARK INTER:                  -7.844
REMARK INTRA:                  -0.330
REMARK UNBOUND:                -0.324
REMARK SMILES O=c1c(O)c(-c2ccc(O)c(O)c2)oc2cc(O)cc(O)c12
REMARK SMILES IDX 5 1 3 2 2 3 1 4 22 5 20 6 19 7 17 8 16 9 15 10 14 11 6 12
REMARK SMILES IDX 7 13 8 14 9 15 13 16 11 17 10 18 12 20 4 22 21 24 18 26
REMARK H PARENT 10 19 12 21 4 23 21 25 18 27
REMARK Flexibility Score: inf
ROOT
ATOM      1  C   UNL     1     -12.586 -30.635 -11.147  1.00  0.00     0.180 A 
ATOM      2  C   UNL     1     -13.056 -30.797  -9.832  1.00  0.00     0.208 A 
ATOM      3  C   UNL     1     -13.675 -29.711  -9.192  1.00  0.00     0.238 A 
ATOM      4  O   UNL     1     -14.142 -29.878  -8.035  1.00  0.00    -0.285 OA
ATOM      5  C   UNL     1     -13.802 -28.474  -9.868  1.00  0.00     0.111 A 
ATOM      6  C   UNL     1     -14.376 -27.295  -9.302  1.00  0.00     0.134 A 
ATOM      7  C   UNL     1     -14.568 -26.166 -10.106  1.00  0.00     0.093 A 
ATOM      8  C   UNL     1     -14.149 -26.149 -11.436  1.00  0.00     0.123 A 
ATOM      9  C   UNL     1     -13.533 -27.275 -11.983  1.00  0.00     0.094 A 
ATOM     10  C   UNL     1     -13.360 -28.430 -11.217  1.00  0.00     0.146 A 
ATOM     11  O   UNL     1     -12.778 -29.483 -11.778  1.00  0.00    -0.452 OA
ENDROOT
BRANCH   1  12
ATOM     12  C   UNL     1     -11.901 -31.726 -11.878  1.00  0.00     0.025 A 
ATOM     13  C   UNL     1     -10.503 -31.873 -11.831  1.00  0.00     0.016 A 
ATOM     14  C   UNL     1      -9.876 -32.895 -12.548  1.00  0.00     0.051 A 
ATOM     15  C   UNL     1     -10.632 -33.776 -13.333  1.00  0.00     0.157 A 
ATOM     16  C   UNL     1     -12.652 -32.599 -12.682  1.00  0.00     0.062 A 
ATOM     17  C   UNL     1     -12.027 -33.623 -13.402  1.00  0.00     0.158 A 
BRANCH  15  18
ATOM     18  O   UNL     1     -10.003 -34.795 -14.045  1.00  0.00    -0.504 OA
ATOM     19  H   UNL     1     -10.068 -35.763 -13.754  1.00  0.00     0.293 HD
ENDBRANCH  15  18
BRANCH  17  20
ATOM     20  O   UNL     1     -12.808 -34.479 -14.179  1.00  0.00    -0.504 OA
ATOM     21  H   UNL     1     -12.402 -35.099 -14.869  1.00  0.00     0.293 HD
ENDBRANCH  17  20
ENDBRANCH   1  12
BRANCH   2  22
ATOM     22  O   UNL     1     -12.940 -32.033  -9.190  1.00  0.00    -0.502 OA
ATOM     23  H   UNL     1     -12.792 -32.897  -9.697  1.00  0.00     0.293 HD
ENDBRANCH   2  22
BRANCH   6  24
ATOM     24  O   UNL     1     -14.745 -27.175  -7.959  1.00  0.00    -0.507 OA
ATOM     25  H   UNL     1     -15.075 -26.326  -7.528  1.00  0.00     0.293 HD
ENDBRANCH   6  24
BRANCH   8  26
ATOM     26  O   UNL     1     -14.342 -25.002 -12.204  1.00  0.00    -0.508 OA
ATOM     27  H   UNL     1     -13.612 -24.309 -12.315  1.00  0.00     0.293 HD
ENDBRANCH   8  26
TORSDOF 6
ENDMDL
MODEL 7
REMARK VINA RESULT:    -6.506      1.940      3.673
REMARK INTER + INTRA:          -8.161
REMARK INTER:                  -8.352
REMARK INTRA:                   0.192
REMARK UNBOUND:                -0.324
REMARK SMILES O=c1c(O)c(-c2ccc(O)c(O)c2)oc2cc(O)cc(O)c12
REMARK SMILES IDX 5 1 3 2 2 3 1 4 22 5 20 6 19 7 17 8 16 9 15 10 14 11 6 12
REMARK SMILES IDX 7 13 8 14 9 15 13 16 11 17 10 18 12 20 4 22 21 24 18 26
REMARK H PARENT 10 19 12 21 4 23 21 25 18 27
REMARK Flexibility Score: inf
ROOT
ATOM      1  C   UNL     1     -12.494 -30.505 -11.572  1.00  0.00     0.180 A 
ATOM      2  C   UNL     1     -11.820 -31.024 -10.454  1.00  0.00     0.208 A 
ATOM      3  C   UNL     1     -11.432 -32.374 -10.459  1.00  0.00     0.238 A 
ATOM      4  O   UNL     1     -10.781 -32.819  -9.478  1.00  0.00    -0.285 OA
ATOM      5  C   UNL     1     -11.737 -33.190 -11.574  1.00  0.00     0.111 A 
ATOM      6  C   UNL     1     -11.427 -34.581 -11.670  1.00  0.00     0.134 A 
ATOM      7  C   UNL     1     -11.658 -35.259 -12.872  1.00  0.00     0.093 A 
ATOM      8  C   UNL     1     -12.247 -34.616 -13.960  1.00  0.00     0.123 A 
ATOM      9  C   UNL     1     -12.609 -33.271 -13.858  1.00  0.00     0.094 A 
ATOM     10  C   UNL     1     -12.358 -32.558 -12.683  1.00  0.00     0.146 A 
ATOM     11  O   UNL     1     -12.708 -31.279 -12.630  1.00  0.00    -0.452 OA
ENDROOT
BRANCH   1  12
ATOM     12  C   UNL     1     -12.957 -29.099 -11.631  1.00  0.00     0.025 A 
ATOM     13  C   UNL     1     -12.198 -28.055 -11.075  1.00  0.00     0.016 A 
ATOM     14  C   UNL     1     -12.665 -26.739 -11.121  1.00  0.00     0.051 A 
ATOM     15  C   UNL     1     -13.903 -26.449 -11.710  1.00  0.00     0.157 A 
ATOM     16  C   UNL     1     -14.206 -28.806 -12.202  1.00  0.00     0.062 A 
ATOM     17  C   UNL     1     -14.678 -27.490 -12.249  1.00  0.00     0.158 A 
BRANCH  15  18
ATOM     18  O   UNL     1     -14.366 -25.135 -11.756  1.00  0.00    -0.504 OA
ATOM     19  H   UNL     1     -14.595 -24.684 -12.634  1.00  0.00     0.293 HD
ENDBRANCH  15  18
BRANCH  17  20
ATOM     20  O   UNL     1     -15.918 -27.235 -12.837  1.00  0.00    -0.504 OA
ATOM     21  H   UNL     1     -16.700 -26.871 -12.305  1.00  0.00     0.293 HD
ENDBRANCH  17  20
ENDBRANCH   1  12
BRANCH   2  22
ATOM     22  O   UNL     1     -11.509 -30.195  -9.372  1.00  0.00    -0.502 OA
ATOM     23  H   UNL     1     -11.678 -29.197  -9.386  1.00  0.00     0.293 HD
ENDBRANCH   2  22
BRANCH   6  24
ATOM     24  O   UNL     1     -10.920 -35.342 -10.612  1.00  0.00    -0.507 OA
ATOM     25  H   UNL     1     -10.548 -34.960  -9.756  1.00  0.00     0.293 HD
ENDBRANCH   6  24
BRANCH   8  26
ATOM     26  O   UNL     1     -12.478 -35.324 -15.137  1.00  0.00    -0.508 OA
ATOM     27  H   UNL     1     -13.371 -35.287 -15.613  1.00  0.00     0.293 HD
ENDBRANCH   8  26
TORSDOF 6
ENDMDL
MODEL 8
REMARK VINA RESULT:    -6.411      2.911      4.677
REMARK INTER + INTRA:          -8.046
REMARK INTER:                  -7.733
REMARK INTRA:                  -0.313
REMARK UNBOUND:                -0.324
REMARK SMILES O=c1c(O)c(-c2ccc(O)c(O)c2)oc2cc(O)cc(O)c12
REMARK SMILES IDX 5 1 3 2 2 3 1 4 22 5 20 6 19 7 17 8 16 9 15 10 14 11 6 12
REMARK SMILES IDX 7 13 8 14 9 15 13 16 11 17 10 18 12 20 4 22 21 24 18 26
REMARK H PARENT 10 19 12 21 4 23 21 25 18 27
REMARK Flexibility Score: inf
ROOT
ATOM      1  C   UNL     1     -13.126 -30.588 -11.359  1.00  0.00     0.180 A 
ATOM      2  C   UNL     1     -11.755 -30.882 -11.457  1.00  0.00     0.208 A 
ATOM      3  C   UNL     1     -11.346 -31.966 -12.250  1.00  0.00     0.238 A 
ATOM      4  O   UNL     1     -10.114 -32.191 -12.377  1.00  0.00    -0.285 OA
ATOM      5  C   UNL     1     -12.313 -32.752 -12.922  1.00  0.00     0.111 A 
ATOM      6  C   UNL     1     -12.014 -33.898 -13.720  1.00  0.00     0.134 A 
ATOM      7  C   UNL     1     -13.038 -34.521 -14.444  1.00  0.00     0.093 A 
ATOM      8  C   UNL     1     -14.357 -34.082 -14.349  1.00  0.00     0.123 A 
ATOM      9  C   UNL     1     -14.670 -32.999 -13.525  1.00  0.00     0.094 A 
ATOM     10  C   UNL     1     -13.666 -32.334 -12.818  1.00  0.00     0.146 A 
ATOM     11  O   UNL     1     -14.003 -31.303 -12.053  1.00  0.00    -0.452 OA
ENDROOT
BRANCH   1  12
ATOM     12  C   UNL     1     -13.636 -29.477 -10.523  1.00  0.00     0.025 A 
ATOM     13  C   UNL     1     -13.883 -28.205 -11.068  1.00  0.00     0.016 A 
ATOM     14  C   UNL     1     -14.342 -27.165 -10.256  1.00  0.00     0.051 A 
ATOM     15  C   UNL     1     -14.548 -27.376  -8.886  1.00  0.00     0.157 A 
ATOM     16  C   UNL     1     -13.825 -29.678  -9.146  1.00  0.00     0.062 A 
ATOM     17  C   UNL     1     -14.284 -28.639  -8.329  1.00  0.00     0.158 A 
BRANCH  15  18
ATOM     18  O   UNL     1     -15.008 -26.337  -8.078  1.00  0.00    -0.504 OA
ATOM     19  H   UNL     1     -15.818 -25.786  -8.334  1.00  0.00     0.293 HD
ENDBRANCH  15  18
BRANCH  17  20
ATOM     20  O   UNL     1     -14.472 -28.880  -6.968  1.00  0.00    -0.504 OA
ATOM     21  H   UNL     1     -15.175 -28.390  -6.427  1.00  0.00     0.293 HD
ENDBRANCH  17  20
ENDBRANCH   1  12
BRANCH   2  22
ATOM     22  O   UNL     1     -10.815 -30.081 -10.803  1.00  0.00    -0.502 OA
ATOM     23  H   UNL     1      -9.827 -30.114 -11.019  1.00  0.00     0.293 HD
ENDBRANCH   2  22
BRANCH   6  24
ATOM     24  O   UNL     1     -10.744 -34.474 -13.813  1.00  0.00    -0.507 OA
ATOM     25  H   UNL     1     -10.151 -34.430 -14.627  1.00  0.00     0.293 HD
ENDBRANCH   6  24
BRANCH   8  26
ATOM     26  O   UNL     1     -15.354 -34.735 -15.071  1.00  0.00    -0.508 OA
ATOM     27  H   UNL     1     -15.794 -35.579 -14.724  1.00  0.00     0.293 HD
ENDBRANCH   8  26
TORSDOF 6
ENDMDL
