MODEL 1
REMARK VINA RESULT:    -6.486      0.000      0.000
REMARK INTER + INTRA:          -8.000
REMARK INTER:                  -7.813
REMARK INTRA:                  -0.187
REMARK UNBOUND:                -0.187
REMARK SMILES O=c1c(O)c(-c2ccc(O)cc2O)oc2cc(O)cc(O)c12
REMARK SMILES IDX 5 1 3 2 2 3 1 4 22 5 20 6 19 7 17 8 16 9 15 10 14 11 6 12
REMARK SMILES IDX 8 13 7 14 9 15 11 16 12 17 10 18 13 20 4 22 21 24 18 26
REMARK H PARENT 10 19 13 21 4 23 21 25 18 27
REMARK Flexibility Score: inf
ROOT
ATOM      1  C   UNL     1      61.706  45.003  17.247  1.00  0.00     0.184 A 
ATOM      2  C   UNL     1      61.385  43.648  17.426  1.00  0.00     0.208 A 
ATOM      3  C   UNL     1      61.727  42.731  16.419  1.00  0.00     0.238 A 
ATOM      4  O   UNL     1      61.504  41.508  16.618  1.00  0.00    -0.285 OA
ATOM      5  C   UNL     1      62.333  43.189  15.224  1.00  0.00     0.111 A 
ATOM      6  C   UNL     1      62.682  42.355  14.119  1.00  0.00     0.134 A 
ATOM      7  C   UNL     1      63.374  42.903  13.032  1.00  0.00     0.093 A 
ATOM      8  C   UNL     1      63.675  44.264  12.980  1.00  0.00     0.123 A 
ATOM      9  C   UNL     1      63.290  45.099  14.030  1.00  0.00     0.094 A 
ATOM     10  C   UNL     1      62.631  44.575  15.146  1.00  0.00     0.146 A 
ATOM     11  O   UNL     1      62.303  45.401  16.132  1.00  0.00    -0.451 OA
ENDROOT
BRANCH   1  12
ATOM     12  C   UNL     1      61.381  46.018  18.271  1.00  0.00     0.063 A 
ATOM     13  C   UNL     1      60.259  48.095  18.852  1.00  0.00     0.047 A 
ATOM     14  C   UNL     1      60.580  47.113  17.912  1.00  0.00     0.020 A 
ATOM     15  C   UNL     1      60.748  48.001  20.162  1.00  0.00     0.119 A 
ATOM     16  C   UNL     1      61.567  46.927  20.521  1.00  0.00     0.093 A 
ATOM     17  C   UNL     1      61.898  45.940  19.581  1.00  0.00     0.130 A 
BRANCH  15  18
ATOM     18  O   UNL     1      60.432  48.973  21.108  1.00  0.00    -0.508 OA
ATOM     19  H   UNL     1      60.224  49.928  20.840  1.00  0.00     0.293 HD
ENDBRANCH  15  18
BRANCH  17  20
ATOM     20  O   UNL     1      62.756  44.900  19.939  1.00  0.00    -0.507 OA
ATOM     21  H   UNL     1      63.717  44.870  19.621  1.00  0.00     0.293 HD
ENDBRANCH  17  20
ENDBRANCH   1  12
BRANCH   2  22
ATOM     22  O   UNL     1      60.722  43.233  18.583  1.00  0.00    -0.502 OA
ATOM     23  H   UNL     1      60.694  43.796  19.425  1.00  0.00     0.293 HD
ENDBRANCH   2  22
BRANCH   6  24
ATOM     24  O   UNL     1      62.354  40.999  14.027  1.00  0.00    -0.507 OA
ATOM     25  H   UNL     1      62.919  40.297  13.575  1.00  0.00     0.293 HD
ENDBRANCH   6  24
BRANCH   8  26
ATOM     26  O   UNL     1      64.350  44.777  11.875  1.00  0.00    -0.508 OA
ATOM     27  H   UNL     1      63.855  45.217  11.108  1.00  0.00     0.293 HD
ENDBRANCH   8  26
TORSDOF 6
ENDMDL
MODEL 2
REMARK VINA RESULT:    -6.302      1.340      1.818
REMARK INTER + INTRA:          -7.779
REMARK INTER:                  -7.788
REMARK INTRA:                   0.009
REMARK UNBOUND:                -0.187
REMARK SMILES O=c1c(O)c(-c2ccc(O)cc2O)oc2cc(O)cc(O)c12
REMARK SMILES IDX 5 1 3 2 2 3 1 4 22 5 20 6 19 7 17 8 16 9 15 10 14 11 6 12
REMARK SMILES IDX 8 13 7 14 9 15 11 16 12 17 10 18 13 20 4 22 21 24 18 26
REMARK H PARENT 10 19 13 21 4 23 21 25 18 27
REMARK Flexibility Score: inf
ROOT
ATOM      1  C   UNL     1      62.072  44.644  17.528  1.00  0.00     0.184 A 
ATOM      2  C   UNL     1      61.640  43.360  17.163  1.00  0.00     0.208 A 
ATOM      3  C   UNL     1      61.994  42.858  15.900  1.00  0.00     0.238 A 
ATOM      4  O   UNL     1      61.667  41.677  15.608  1.00  0.00    -0.285 OA
ATOM      5  C   UNL     1      62.725  43.669  14.999  1.00  0.00     0.111 A 
ATOM      6  C   UNL     1      63.100  43.279  13.677  1.00  0.00     0.134 A 
ATOM      7  C   UNL     1      63.915  44.125  12.914  1.00  0.00     0.093 A 
ATOM      8  C   UNL     1      64.317  45.369  13.397  1.00  0.00     0.123 A 
ATOM      9  C   UNL     1      63.911  45.783  14.667  1.00  0.00     0.094 A 
ATOM     10  C   UNL     1      63.129  44.947  15.467  1.00  0.00     0.146 A 
ATOM     11  O   UNL     1      62.783  45.371  16.677  1.00  0.00    -0.451 OA
ENDROOT
BRANCH   1  12
ATOM     12  C   UNL     1      61.741  45.229  18.845  1.00  0.00     0.063 A 
ATOM     13  C   UNL     1      61.424  44.914  21.235  1.00  0.00     0.047 A 
ATOM     14  C   UNL     1      61.738  44.397  19.976  1.00  0.00     0.020 A 
ATOM     15  C   UNL     1      61.094  46.268  21.376  1.00  0.00     0.119 A 
ATOM     16  C   UNL     1      61.071  47.098  20.252  1.00  0.00     0.093 A 
ATOM     17  C   UNL     1      61.380  46.585  18.984  1.00  0.00     0.130 A 
BRANCH  15  18
ATOM     18  O   UNL     1      60.782  46.795  22.627  1.00  0.00    -0.508 OA
ATOM     19  H   UNL     1      59.845  46.738  23.009  1.00  0.00     0.293 HD
ENDBRANCH  15  18
BRANCH  17  20
ATOM     20  O   UNL     1      61.305  47.412  17.863  1.00  0.00    -0.507 OA
ATOM     21  H   UNL     1      61.059  48.392  17.941  1.00  0.00     0.293 HD
ENDBRANCH  17  20
ENDBRANCH   1  12
BRANCH   2  22
ATOM     22  O   UNL     1      60.858  42.608  18.043  1.00  0.00    -0.502 OA
ATOM     23  H   UNL     1      59.982  42.183  17.764  1.00  0.00     0.293 HD
ENDBRANCH   2  22
BRANCH   6  24
ATOM     24  O   UNL     1      62.682  42.096  13.061  1.00  0.00    -0.507 OA
ATOM     25  H   UNL     1      62.024  41.441  13.454  1.00  0.00     0.293 HD
ENDBRANCH   6  24
BRANCH   8  26
ATOM     26  O   UNL     1      65.113  46.191  12.603  1.00  0.00    -0.508 OA
ATOM     27  H   UNL     1      65.350  47.135  12.887  1.00  0.00     0.293 HD
ENDBRANCH   8  26
TORSDOF 6
ENDMDL
MODEL 3
REMARK VINA RESULT:    -6.152      1.735      3.067
REMARK INTER + INTRA:          -7.598
REMARK INTER:                  -7.410
REMARK INTRA:                  -0.188
REMARK UNBOUND:                -0.187
REMARK SMILES O=c1c(O)c(-c2ccc(O)cc2O)oc2cc(O)cc(O)c12
REMARK SMILES IDX 5 1 3 2 2 3 1 4 22 5 20 6 19 7 17 8 16 9 15 10 14 11 6 12
REMARK SMILES IDX 8 13 7 14 9 15 11 16 12 17 10 18 13 20 4 22 21 24 18 26
REMARK H PARENT 10 19 13 21 4 23 21 25 18 27
REMARK Flexibility Score: inf
ROOT
ATOM      1  C   UNL     1      61.948  45.869  17.913  1.00  0.00     0.184 A 
ATOM      2  C   UNL     1      63.005  46.559  17.298  1.00  0.00     0.208 A 
ATOM      3  C   UNL     1      63.338  46.248  15.970  1.00  0.00     0.238 A 
ATOM      4  O   UNL     1      64.236  46.921  15.400  1.00  0.00    -0.285 OA
ATOM      5  C   UNL     1      62.647  45.212  15.294  1.00  0.00     0.111 A 
ATOM      6  C   UNL     1      62.930  44.782  13.963  1.00  0.00     0.134 A 
ATOM      7  C   UNL     1      62.112  43.818  13.360  1.00  0.00     0.093 A 
ATOM      8  C   UNL     1      61.061  43.226  14.058  1.00  0.00     0.123 A 
ATOM      9  C   UNL     1      60.809  43.599  15.380  1.00  0.00     0.094 A 
ATOM     10  C   UNL     1      61.585  44.584  15.996  1.00  0.00     0.146 A 
ATOM     11  O   UNL     1      61.297  44.925  17.247  1.00  0.00    -0.451 OA
ENDROOT
BRANCH   1  12
ATOM     12  C   UNL     1      61.542  46.154  19.305  1.00  0.00     0.063 A 
ATOM     13  C   UNL     1      60.944  47.792  20.999  1.00  0.00     0.047 A 
ATOM     14  C   UNL     1      61.323  47.486  19.690  1.00  0.00     0.020 A 
ATOM     15  C   UNL     1      60.794  46.770  21.945  1.00  0.00     0.119 A 
ATOM     16  C   UNL     1      61.034  45.443  21.577  1.00  0.00     0.093 A 
ATOM     17  C   UNL     1      61.420  45.128  20.265  1.00  0.00     0.130 A 
BRANCH  15  18
ATOM     18  O   UNL     1      60.414  47.063  23.253  1.00  0.00    -0.508 OA
ATOM     19  H   UNL     1      60.978  46.779  24.045  1.00  0.00     0.293 HD
ENDBRANCH  15  18
BRANCH  17  20
ATOM     20  O   UNL     1      61.703  43.806  19.923  1.00  0.00    -0.507 OA
ATOM     21  H   UNL     1      62.467  43.297  20.354  1.00  0.00     0.293 HD
ENDBRANCH  17  20
ENDBRANCH   1  12
BRANCH   2  22
ATOM     22  O   UNL     1      63.717  47.527  18.010  1.00  0.00    -0.502 OA
ATOM     23  H   UNL     1      64.597  47.325  18.470  1.00  0.00     0.293 HD
ENDBRANCH   2  22
BRANCH   6  24
ATOM     24  O   UNL     1      64.009  45.244  13.203  1.00  0.00    -0.507 OA
ATOM     25  H   UNL     1      64.363  46.188  13.216  1.00  0.00     0.293 HD
ENDBRANCH   6  24
BRANCH   8  26
ATOM     26  O   UNL     1      60.277  42.259  13.433  1.00  0.00    -0.508 OA
ATOM     27  H   UNL     1      60.362  42.068  12.441  1.00  0.00     0.293 HD
ENDBRANCH   8  26
TORSDOF 6
ENDMDL
MODEL 4
REMARK VINA RESULT:    -6.055      1.805      6.836
REMARK INTER + INTRA:          -7.481
REMARK INTER:                  -7.474
REMARK INTRA:                  -0.007
REMARK UNBOUND:                -0.187
REMARK SMILES O=c1c(O)c(-c2ccc(O)cc2O)oc2cc(O)cc(O)c12
REMARK SMILES IDX 5 1 3 2 2 3 1 4 22 5 20 6 19 7 17 8 16 9 15 10 14 11 6 12
REMARK SMILES IDX 8 13 7 14 9 15 11 16 12 17 10 18 13 20 4 22 21 24 18 26
REMARK H PARENT 10 19 13 21 4 23 21 25 18 27
REMARK Flexibility Score: inf
ROOT
ATOM      1  C   UNL     1      61.092  45.350  16.163  1.00  0.00     0.184 A 
ATOM      2  C   UNL     1      60.218  46.245  15.526  1.00  0.00     0.208 A 
ATOM      3  C   UNL     1      59.803  47.395  16.217  1.00  0.00     0.238 A 
ATOM      4  O   UNL     1      59.080  48.231  15.615  1.00  0.00    -0.285 OA
ATOM      5  C   UNL     1      60.221  47.604  17.554  1.00  0.00     0.111 A 
ATOM      6  C   UNL     1      59.826  48.711  18.365  1.00  0.00     0.134 A 
ATOM      7  C   UNL     1      60.387  48.869  19.638  1.00  0.00     0.093 A 
ATOM      8  C   UNL     1      61.279  47.931  20.155  1.00  0.00     0.123 A 
ATOM      9  C   UNL     1      61.630  46.815  19.392  1.00  0.00     0.094 A 
ATOM     10  C   UNL     1      61.116  46.649  18.104  1.00  0.00     0.146 A 
ATOM     11  O   UNL     1      61.494  45.585  17.405  1.00  0.00    -0.451 OA
ENDROOT
BRANCH   1  12
ATOM     12  C   UNL     1      61.574  44.125  15.489  1.00  0.00     0.063 A 
ATOM     13  C   UNL     1      62.340  43.042  13.452  1.00  0.00     0.047 A 
ATOM     14  C   UNL     1      61.888  44.181  14.122  1.00  0.00     0.020 A 
ATOM     15  C   UNL     1      62.469  41.828  14.138  1.00  0.00     0.119 A 
ATOM     16  C   UNL     1      62.135  41.757  15.493  1.00  0.00     0.093 A 
ATOM     17  C   UNL     1      61.676  42.896  16.172  1.00  0.00     0.130 A 
BRANCH  15  18
ATOM     18  O   UNL     1      62.921  40.686  13.481  1.00  0.00    -0.508 OA
ATOM     19  H   UNL     1      63.803  40.248  13.723  1.00  0.00     0.293 HD
ENDBRANCH  15  18
BRANCH  17  20
ATOM     20  O   UNL     1      61.299  42.801  17.512  1.00  0.00    -0.507 OA
ATOM     21  H   UNL     1      61.499  41.974  18.063  1.00  0.00     0.293 HD
ENDBRANCH  17  20
ENDBRANCH   1  12
BRANCH   2  22
ATOM     22  O   UNL     1      59.764  45.979  14.233  1.00  0.00    -0.502 OA
ATOM     23  H   UNL     1      59.621  46.710  13.546  1.00  0.00     0.293 HD
ENDBRANCH   2  22
BRANCH   6  24
ATOM     24  O   UNL     1      58.875  49.662  17.982  1.00  0.00    -0.507 OA
ATOM     25  H   UNL     1      58.864  50.145  17.097  1.00  0.00     0.293 HD
ENDBRANCH   6  24
BRANCH   8  26
ATOM     26  O   UNL     1      61.804  48.111  21.432  1.00  0.00    -0.508 OA
ATOM     27  H   UNL     1      61.206  48.265  22.235  1.00  0.00     0.293 HD
ENDBRANCH   8  26
TORSDOF 6
ENDMDL
MODEL 5
REMARK VINA RESULT:    -5.957      3.111      5.890
REMARK INTER + INTRA:          -7.363
REMARK INTER:                  -6.962
REMARK INTRA:                  -0.401
REMARK UNBOUND:                -0.187
REMARK SMILES O=c1c(O)c(-c2ccc(O)cc2O)oc2cc(O)cc(O)c12
REMARK SMILES IDX 5 1 3 2 2 3 1 4 22 5 20 6 19 7 17 8 16 9 15 10 14 11 6 12
REMARK SMILES IDX 8 13 7 14 9 15 11 16 12 17 10 18 13 20 4 22 21 24 18 26
REMARK H PARENT 10 19 13 21 4 23 21 25 18 27
REMARK Flexibility Score: inf
ROOT
ATOM      1  C   UNL     1      63.913  45.962  15.172  1.00  0.00     0.184 A 
ATOM      2  C   UNL     1      63.092  45.970  14.034  1.00  0.00     0.208 A 
ATOM      3  C   UNL     1      61.801  45.427  14.123  1.00  0.00     0.238 A 
ATOM      4  O   UNL     1      61.044  45.505  13.121  1.00  0.00    -0.285 OA
ATOM      5  C   UNL     1      61.368  44.833  15.334  1.00  0.00     0.111 A 
ATOM      6  C   UNL     1      60.097  44.212  15.525  1.00  0.00     0.134 A 
ATOM      7  C   UNL     1      59.738  43.751  16.798  1.00  0.00     0.093 A 
ATOM      8  C   UNL     1      60.625  43.830  17.870  1.00  0.00     0.123 A 
ATOM      9  C   UNL     1      61.892  44.385  17.682  1.00  0.00     0.094 A 
ATOM     10  C   UNL     1      62.266  44.888  16.433  1.00  0.00     0.146 A 
ATOM     11  O   UNL     1      63.472  45.427  16.303  1.00  0.00    -0.451 OA
ENDROOT
BRANCH   1  12
ATOM     12  C   UNL     1      65.279  46.525  15.148  1.00  0.00     0.063 A 
ATOM     13  C   UNL     1      66.728  48.468  15.342  1.00  0.00     0.047 A 
ATOM     14  C   UNL     1      65.451  47.901  15.365  1.00  0.00     0.020 A 
ATOM     15  C   UNL     1      67.848  47.667  15.087  1.00  0.00     0.119 A 
ATOM     16  C   UNL     1      67.684  46.300  14.845  1.00  0.00     0.093 A 
ATOM     17  C   UNL     1      66.405  45.725  14.861  1.00  0.00     0.130 A 
BRANCH  15  18
ATOM     18  O   UNL     1      69.126  48.221  15.064  1.00  0.00    -0.508 OA
ATOM     19  H   UNL     1      69.503  48.719  15.863  1.00  0.00     0.293 HD
ENDBRANCH  15  18
BRANCH  17  20
ATOM     20  O   UNL     1      66.249  44.369  14.569  1.00  0.00    -0.507 OA
ATOM     21  H   UNL     1      66.882  43.670  14.940  1.00  0.00     0.293 HD
ENDBRANCH  17  20
ENDBRANCH   1  12
BRANCH   2  22
ATOM     22  O   UNL     1      63.569  46.498  12.831  1.00  0.00    -0.502 OA
ATOM     23  H   UNL     1      64.127  47.343  12.792  1.00  0.00     0.293 HD
ENDBRANCH   2  22
BRANCH   6  24
ATOM     24  O   UNL     1      59.167  44.002  14.503  1.00  0.00    -0.507 OA
ATOM     25  H   UNL     1      58.205  44.305  14.525  1.00  0.00     0.293 HD
ENDBRANCH   6  24
BRANCH   8  26
ATOM     26  O   UNL     1      60.241  43.347  19.119  1.00  0.00    -0.508 OA
ATOM     27  H   UNL     1      59.482  43.769  19.641  1.00  0.00     0.293 HD
ENDBRANCH   8  26
TORSDOF 6
ENDMDL
MODEL 6
REMARK VINA RESULT:    -5.909      1.803      3.295
REMARK INTER + INTRA:          -7.305
REMARK INTER:                  -7.095
REMARK INTRA:                  -0.210
REMARK UNBOUND:                -0.187
REMARK SMILES O=c1c(O)c(-c2ccc(O)cc2O)oc2cc(O)cc(O)c12
REMARK SMILES IDX 5 1 3 2 2 3 1 4 22 5 20 6 19 7 17 8 16 9 15 10 14 11 6 12
REMARK SMILES IDX 8 13 7 14 9 15 11 16 12 17 10 18 13 20 4 22 21 24 18 26
REMARK H PARENT 10 19 13 21 4 23 21 25 18 27
REMARK Flexibility Score: inf
ROOT
ATOM      1  C   UNL     1      62.002  45.819  17.894  1.00  0.00     0.184 A 
ATOM      2  C   UNL     1      63.055  46.513  17.278  1.00  0.00     0.208 A 
ATOM      3  C   UNL     1      63.378  46.214  15.945  1.00  0.00     0.238 A 
ATOM      4  O   UNL     1      64.273  46.893  15.376  1.00  0.00    -0.285 OA
ATOM      5  C   UNL     1      62.681  45.186  15.264  1.00  0.00     0.111 A 
ATOM      6  C   UNL     1      62.955  44.769  13.927  1.00  0.00     0.134 A 
ATOM      7  C   UNL     1      62.130  43.812  13.320  1.00  0.00     0.093 A 
ATOM      8  C   UNL     1      61.084  43.214  14.020  1.00  0.00     0.123 A 
ATOM      9  C   UNL     1      60.842  43.574  15.347  1.00  0.00     0.094 A 
ATOM     10  C   UNL     1      61.623  44.553  15.968  1.00  0.00     0.146 A 
ATOM     11  O   UNL     1      61.345  44.881  17.223  1.00  0.00    -0.451 OA
ENDROOT
BRANCH   1  12
ATOM     12  C   UNL     1      61.606  46.090  19.292  1.00  0.00     0.063 A 
ATOM     13  C   UNL     1      61.263  45.260  21.551  1.00  0.00     0.047 A 
ATOM     14  C   UNL     1      61.637  45.040  20.223  1.00  0.00     0.020 A 
ATOM     15  C   UNL     1      60.839  46.530  21.961  1.00  0.00     0.119 A 
ATOM     16  C   UNL     1      60.781  47.575  21.035  1.00  0.00     0.093 A 
ATOM     17  C   UNL     1      61.150  47.361  19.699  1.00  0.00     0.130 A 
BRANCH  15  18
ATOM     18  O   UNL     1      60.466  46.761  23.283  1.00  0.00    -0.508 OA
ATOM     19  H   UNL     1      59.552  46.497  23.631  1.00  0.00     0.293 HD
ENDBRANCH  15  18
BRANCH  17  20
ATOM     20  O   UNL     1      61.042  48.400  18.773  1.00  0.00    -0.507 OA
ATOM     21  H   UNL     1      60.417  49.184  18.925  1.00  0.00     0.293 HD
ENDBRANCH  17  20
ENDBRANCH   1  12
BRANCH   2  22
ATOM     22  O   UNL     1      63.773  47.473  17.995  1.00  0.00    -0.502 OA
ATOM     23  H   UNL     1      64.642  47.867  17.655  1.00  0.00     0.293 HD
ENDBRANCH   2  22
BRANCH   6  24
ATOM     24  O   UNL     1      64.028  45.237  13.164  1.00  0.00    -0.507 OA
ATOM     25  H   UNL     1      64.050  46.121  12.678  1.00  0.00     0.293 HD
ENDBRANCH   6  24
BRANCH   8  26
ATOM     26  O   UNL     1      60.295  42.254  13.391  1.00  0.00    -0.508 OA
ATOM     27  H   UNL     1      59.442  41.908  13.814  1.00  0.00     0.293 HD
ENDBRANCH   8  26
TORSDOF 6
ENDMDL
MODEL 7
REMARK VINA RESULT:    -5.858      1.905      7.174
REMARK INTER + INTRA:          -7.244
REMARK INTER:                  -6.838
REMARK INTRA:                  -0.407
REMARK UNBOUND:                -0.187
REMARK SMILES O=c1c(O)c(-c2ccc(O)cc2O)oc2cc(O)cc(O)c12
REMARK SMILES IDX 5 1 3 2 2 3 1 4 22 5 20 6 19 7 17 8 16 9 15 10 14 11 6 12
REMARK SMILES IDX 8 13 7 14 9 15 11 16 12 17 10 18 13 20 4 22 21 24 18 26
REMARK H PARENT 10 19 13 21 4 23 21 25 18 27
REMARK Flexibility Score: inf
ROOT
ATOM      1  C   UNL     1      61.281  46.097  16.600  1.00  0.00     0.184 A 
ATOM      2  C   UNL     1      60.796  47.381  16.306  1.00  0.00     0.208 A 
ATOM      3  C   UNL     1      60.527  48.264  17.364  1.00  0.00     0.238 A 
ATOM      4  O   UNL     1      60.165  49.439  17.091  1.00  0.00    -0.285 OA
ATOM      5  C   UNL     1      60.693  47.832  18.703  1.00  0.00     0.111 A 
ATOM      6  C   UNL     1      60.408  48.627  19.854  1.00  0.00     0.134 A 
ATOM      7  C   UNL     1      60.710  48.131  21.128  1.00  0.00     0.093 A 
ATOM      8  C   UNL     1      61.227  46.847  21.298  1.00  0.00     0.123 A 
ATOM      9  C   UNL     1      61.458  46.040  20.183  1.00  0.00     0.094 A 
ATOM     10  C   UNL     1      61.202  46.521  18.896  1.00  0.00     0.146 A 
ATOM     11  O   UNL     1      61.456  45.728  17.862  1.00  0.00    -0.451 OA
ENDROOT
BRANCH   1  12
ATOM     12  C   UNL     1      61.591  45.122  15.533  1.00  0.00     0.063 A 
ATOM     13  C   UNL     1      63.209  44.199  13.972  1.00  0.00     0.047 A 
ATOM     14  C   UNL     1      62.883  45.102  14.986  1.00  0.00     0.020 A 
ATOM     15  C   UNL     1      62.241  43.312  13.482  1.00  0.00     0.119 A 
ATOM     16  C   UNL     1      60.945  43.342  14.005  1.00  0.00     0.093 A 
ATOM     17  C   UNL     1      60.609  44.250  15.019  1.00  0.00     0.130 A 
BRANCH  15  18
ATOM     18  O   UNL     1      62.556  42.405  12.473  1.00  0.00    -0.508 OA
ATOM     19  H   UNL     1      63.517  42.195  12.229  1.00  0.00     0.293 HD
ENDBRANCH  15  18
BRANCH  17  20
ATOM     20  O   UNL     1      59.299  44.303  15.498  1.00  0.00    -0.507 OA
ATOM     21  H   UNL     1      58.860  45.181  15.750  1.00  0.00     0.293 HD
ENDBRANCH  17  20
ENDBRANCH   1  12
BRANCH   2  22
ATOM     22  O   UNL     1      60.574  47.758  14.980  1.00  0.00    -0.502 OA
ATOM     23  H   UNL     1      60.407  48.720  14.709  1.00  0.00     0.293 HD
ENDBRANCH   2  22
BRANCH   6  24
ATOM     24  O   UNL     1      59.811  49.890  19.805  1.00  0.00    -0.507 OA
ATOM     25  H   UNL     1      60.255  50.728  19.459  1.00  0.00     0.293 HD
ENDBRANCH   6  24
BRANCH   8  26
ATOM     26  O   UNL     1      61.500  46.380  22.581  1.00  0.00    -0.508 OA
ATOM     27  H   UNL     1      62.443  46.150  22.873  1.00  0.00     0.293 HD
ENDBRANCH   8  26
TORSDOF 6
ENDMDL
MODEL 8
REMARK VINA RESULT:    -5.793      3.142      5.789
REMARK INTER + INTRA:          -7.166
REMARK INTER:                  -6.971
REMARK INTRA:                  -0.195
REMARK UNBOUND:                -0.187
REMARK SMILES O=c1c(O)c(-c2ccc(O)cc2O)oc2cc(O)cc(O)c12
REMARK SMILES IDX 5 1 3 2 2 3 1 4 22 5 20 6 19 7 17 8 16 9 15 10 14 11 6 12
REMARK SMILES IDX 8 13 7 14 9 15 11 16 12 17 10 18 13 20 4 22 21 24 18 26
REMARK H PARENT 10 19 13 21 4 23 21 25 18 27
REMARK Flexibility Score: inf
ROOT
ATOM      1  C   UNL     1      64.265  45.627  14.287  1.00  0.00     0.184 A 
ATOM      2  C   UNL     1      64.169  44.645  13.289  1.00  0.00     0.208 A 
ATOM      3  C   UNL     1      62.984  43.898  13.183  1.00  0.00     0.238 A 
ATOM      4  O   UNL     1      62.876  43.072  12.239  1.00  0.00    -0.285 OA
ATOM      5  C   UNL     1      61.935  44.104  14.112  1.00  0.00     0.111 A 
ATOM      6  C   UNL     1      60.709  43.374  14.126  1.00  0.00     0.134 A 
ATOM      7  C   UNL     1      59.700  43.737  15.027  1.00  0.00     0.093 A 
ATOM      8  C   UNL     1      59.895  44.759  15.954  1.00  0.00     0.123 A 
ATOM      9  C   UNL     1      61.111  45.444  15.986  1.00  0.00     0.094 A 
ATOM     10  C   UNL     1      62.123  45.130  15.075  1.00  0.00     0.146 A 
ATOM     11  O   UNL     1      63.255  45.821  15.125  1.00  0.00    -0.451 OA
ENDROOT
BRANCH   1  12
ATOM     12  C   UNL     1      65.480  46.452  14.448  1.00  0.00     0.063 A 
ATOM     13  C   UNL     1      66.521  48.649  14.386  1.00  0.00     0.047 A 
ATOM     14  C   UNL     1      65.391  47.839  14.248  1.00  0.00     0.020 A 
ATOM     15  C   UNL     1      67.758  48.080  14.711  1.00  0.00     0.119 A 
ATOM     16  C   UNL     1      67.861  46.697  14.888  1.00  0.00     0.093 A 
ATOM     17  C   UNL     1      66.733  45.876  14.747  1.00  0.00     0.130 A 
BRANCH  15  18
ATOM     18  O   UNL     1      68.891  48.878  14.853  1.00  0.00    -0.508 OA
ATOM     19  H   UNL     1      69.699  48.564  15.379  1.00  0.00     0.293 HD
ENDBRANCH  15  18
BRANCH  17  20
ATOM     20  O   UNL     1      66.859  44.493  14.878  1.00  0.00    -0.507 OA
ATOM     21  H   UNL     1      66.637  43.864  14.115  1.00  0.00     0.293 HD
ENDBRANCH  17  20
ENDBRANCH   1  12
BRANCH   2  22
ATOM     22  O   UNL     1      65.246  44.412  12.430  1.00  0.00    -0.502 OA
ATOM     23  H   UNL     1      65.633  43.488  12.283  1.00  0.00     0.293 HD
ENDBRANCH   2  22
BRANCH   6  24
ATOM     24  O   UNL     1      60.441  42.277  13.302  1.00  0.00    -0.507 OA
ATOM     25  H   UNL     1      60.206  41.352  13.628  1.00  0.00     0.293 HD
ENDBRANCH   6  24
BRANCH   8  26
ATOM     26  O   UNL     1      58.875  45.082  16.847  1.00  0.00    -0.508 OA
ATOM     27  H   UNL     1      58.762  44.588  17.724  1.00  0.00     0.293 HD
ENDBRANCH   8  26
TORSDOF 6
ENDMDL
MODEL 9
REMARK VINA RESULT:    -5.654      2.915      5.740
REMARK INTER + INTRA:          -6.999
REMARK INTER:                  -6.592
REMARK INTRA:                  -0.407
REMARK UNBOUND:                -0.187
REMARK SMILES O=c1c(O)c(-c2ccc(O)cc2O)oc2cc(O)cc(O)c12
REMARK SMILES IDX 5 1 3 2 2 3 1 4 22 5 20 6 19 7 17 8 16 9 15 10 14 11 6 12
REMARK SMILES IDX 8 13 7 14 9 15 11 16 12 17 10 18 13 20 4 22 21 24 18 26
REMARK H PARENT 10 19 13 21 4 23 21 25 18 27
REMARK Flexibility Score: inf
ROOT
ATOM      1  C   UNL     1      64.374  45.502  14.215  1.00  0.00     0.184 A 
ATOM      2  C   UNL     1      64.194  44.670  13.099  1.00  0.00     0.208 A 
ATOM      3  C   UNL     1      63.341  43.560  13.210  1.00  0.00     0.238 A 
ATOM      4  O   UNL     1      63.125  42.862  12.184  1.00  0.00    -0.285 OA
ATOM      5  C   UNL     1      62.724  43.266  14.450  1.00  0.00     0.111 A 
ATOM      6  C   UNL     1      61.876  42.142  14.688  1.00  0.00     0.134 A 
ATOM      7  C   UNL     1      61.236  42.011  15.927  1.00  0.00     0.093 A 
ATOM      8  C   UNL     1      61.462  42.924  16.956  1.00  0.00     0.123 A 
ATOM      9  C   UNL     1      62.332  43.996  16.752  1.00  0.00     0.094 A 
ATOM     10  C   UNL     1      62.956  44.176  15.515  1.00  0.00     0.146 A 
ATOM     11  O   UNL     1      63.759  45.221  15.357  1.00  0.00    -0.451 OA
ENDROOT
BRANCH   1  12
ATOM     12  C   UNL     1      65.251  46.690  14.164  1.00  0.00     0.063 A 
ATOM     13  C   UNL     1      65.520  49.052  13.654  1.00  0.00     0.047 A 
ATOM     14  C   UNL     1      64.717  47.910  13.721  1.00  0.00     0.020 A 
ATOM     15  C   UNL     1      66.872  48.983  14.015  1.00  0.00     0.119 A 
ATOM     16  C   UNL     1      67.417  47.766  14.433  1.00  0.00     0.093 A 
ATOM     17  C   UNL     1      66.619  46.615  14.499  1.00  0.00     0.130 A 
BRANCH  15  18
ATOM     18  O   UNL     1      67.681  50.115  13.954  1.00  0.00    -0.508 OA
ATOM     19  H   UNL     1      68.550  50.119  13.433  1.00  0.00     0.293 HD
ENDBRANCH  15  18
BRANCH  17  20
ATOM     20  O   UNL     1      67.187  45.396  14.871  1.00  0.00    -0.507 OA
ATOM     21  H   UNL     1      67.378  44.668  14.192  1.00  0.00     0.293 HD
ENDBRANCH  17  20
ENDBRANCH   1  12
BRANCH   2  22
ATOM     22  O   UNL     1      64.870  44.942  11.908  1.00  0.00    -0.502 OA
ATOM     23  H   UNL     1      65.445  44.251  11.440  1.00  0.00     0.293 HD
ENDBRANCH   2  22
BRANCH   6  24
ATOM     24  O   UNL     1      61.648  41.122  13.760  1.00  0.00    -0.507 OA
ATOM     25  H   UNL     1      62.316  40.409  13.508  1.00  0.00     0.293 HD
ENDBRANCH   6  24
BRANCH   8  26
ATOM     26  O   UNL     1      60.822  42.753  18.181  1.00  0.00    -0.508 OA
ATOM     27  H   UNL     1      59.947  43.219  18.392  1.00  0.00     0.293 HD
ENDBRANCH   8  26
TORSDOF 6
ENDMDL
