MODEL 1
REMARK VINA RESULT:    65.105      0.000      0.000
REMARK INTER + INTRA:          87.268
REMARK INTER:                  86.038
REMARK INTRA:                   1.230
REMARK UNBOUND:                 1.230
REMARK SMILES CC[C@H](C=C[C@H](C)[C@H]1CC[C@@H]2C3=CC[C@@H]4C[C@@H](O)CC[C@]4(C)[C@H]3CC[C@]21C)C(C)C
REMARK SMILES IDX 6 1 7 2 5 3 4 4 3 5 2 6 1 7 28 8 29 9 30 10 8 11 9 12 26 13
REMARK SMILES IDX 10 14 11 15 25 16 27 17 12 18 24 19 23 20 13 21 21 22 14 23
REMARK SMILES IDX 15 24 20 25 22 26 16 27 19 28 17 29 18 30
REMARK H PARENT 18 31
REMARK Flexibility Score: inf
ROOT
ATOM      1  C   UNL     1     -29.535  31.772  -2.431  1.00  0.00     0.012 C 
ATOM      2  C   UNL     1     -29.826  33.147  -3.066  1.00  0.00     0.012 C 
ENDROOT
BRANCH   1   3
ATOM      3  C   UNL     1     -30.626  30.767  -2.760  1.00  0.00    -0.028 C 
ATOM      4  C   UNL     1     -31.902  30.887  -2.355  1.00  0.00    -0.027 C 
BRANCH   4   5
ATOM      5  C   UNL     1     -32.969  29.891  -2.769  1.00  0.00     0.014 C 
BRANCH   5   6
ATOM      6  C   UNL     1     -33.181  28.813  -1.671  1.00  0.00     0.004 C 
ATOM      7  C   UNL     1     -34.586  28.209  -1.602  1.00  0.00     0.004 C 
ENDBRANCH   5   6
BRANCH   5   8
ATOM      8  C   UNL     1     -34.266  30.584  -3.311  1.00  0.00    -0.011 C 
ATOM      9  C   UNL     1     -35.493  30.489  -2.386  1.00  0.00     0.008 C 
ATOM     10  C   UNL     1     -34.625  30.133  -4.734  1.00  0.00     0.008 C 
ENDBRANCH   5   8
ENDBRANCH   4   5
ENDBRANCH   1   3
BRANCH   1  11
ATOM     11  C   UNL     1     -28.111  31.160  -2.702  1.00  0.00     0.002 C 
ATOM     12  C   UNL     1     -28.071  29.606  -2.725  1.00  0.00     0.005 C 
ATOM     13  C   UNL     1     -27.359  31.559  -4.020  1.00  0.00    -0.023 C 
ATOM     14  C   UNL     1     -27.721  29.173  -4.158  1.00  0.00     0.009 C 
ATOM     15  C   UNL     1     -27.802  30.452  -4.982  1.00  0.00     0.021 C 
ATOM     16  C   UNL     1     -27.707  32.926  -4.679  1.00  0.00     0.008 C 
ATOM     17  C   UNL     1     -25.807  31.492  -3.728  1.00  0.00     0.012 C 
ATOM     18  C   UNL     1     -27.089  30.502  -6.324  1.00  0.00    -0.067 C 
ATOM     19  C   UNL     1     -27.366  33.000  -6.203  1.00  0.00     0.009 C 
ATOM     20  C   UNL     1     -26.470  31.843  -6.767  1.00  0.00     0.021 C 
ATOM     21  C   UNL     1     -27.267  29.473  -7.171  1.00  0.00    -0.027 C 
ATOM     22  C   UNL     1     -26.084  31.954  -8.322  1.00  0.00    -0.023 C 
ATOM     23  C   UNL     1     -26.747  29.484  -8.563  1.00  0.00     0.031 C 
ATOM     24  C   UNL     1     -26.851  30.890  -9.180  1.00  0.00     0.002 C 
ATOM     25  C   UNL     1     -24.545  31.709  -8.472  1.00  0.00     0.010 C 
ATOM     26  C   UNL     1     -26.394  33.379  -8.877  1.00  0.00     0.012 C 
ATOM     27  C   UNL     1     -26.371  30.847 -10.653  1.00  0.00     0.036 C 
ATOM     28  C   UNL     1     -24.053  31.654  -9.930  1.00  0.00     0.032 C 
ATOM     29  C   UNL     1     -24.847  30.644 -10.778  1.00  0.00     0.114 C 
BRANCH  29  30
ATOM     30  O   UNL     1     -24.452  30.715 -12.125  1.00  0.00    -0.393 OA
ATOM     31  H   UNL     1     -25.137  30.241 -12.666  1.00  0.00     0.210 HD
ENDBRANCH  29  30
ENDBRANCH   1  11
TORSDOF 6
ENDMDL
MODEL 2
REMARK VINA RESULT:    66.848      3.204      8.640
REMARK INTER + INTRA:          89.572
REMARK INTER:                  89.328
REMARK INTRA:                   0.244
REMARK UNBOUND:                 1.230
REMARK SMILES CC[C@H](C=C[C@H](C)[C@H]1CC[C@@H]2C3=CC[C@@H]4C[C@@H](O)CC[C@]4(C)[C@H]3CC[C@]21C)C(C)C
REMARK SMILES IDX 6 1 7 2 5 3 4 4 3 5 2 6 1 7 28 8 29 9 30 10 8 11 9 12 26 13
REMARK SMILES IDX 10 14 11 15 25 16 27 17 12 18 24 19 23 20 13 21 21 22 14 23
REMARK SMILES IDX 15 24 20 25 22 26 16 27 19 28 17 29 18 30
REMARK H PARENT 18 31
REMARK Flexibility Score: inf
ROOT
ATOM      1  C   UNL     1     -26.910  31.586  -3.572  1.00  0.00     0.012 C 
ATOM      2  C   UNL     1     -26.511  30.224  -2.968  1.00  0.00     0.012 C 
ENDROOT
BRANCH   1   3
ATOM      3  C   UNL     1     -27.312  31.449  -5.031  1.00  0.00    -0.028 C 
ATOM      4  C   UNL     1     -26.488  31.008  -5.997  1.00  0.00    -0.027 C 
BRANCH   4   5
ATOM      5  C   UNL     1     -26.960  30.824  -7.428  1.00  0.00     0.014 C 
BRANCH   5   6
ATOM      6  C   UNL     1     -26.226  31.800  -8.387  1.00  0.00     0.004 C 
ATOM      7  C   UNL     1     -24.758  31.470  -8.669  1.00  0.00     0.004 C 
ENDBRANCH   5   6
BRANCH   5   8
ATOM      8  C   UNL     1     -26.986  29.319  -7.866  1.00  0.00    -0.011 C 
ATOM      9  C   UNL     1     -27.806  28.387  -6.956  1.00  0.00     0.008 C 
ATOM     10  C   UNL     1     -25.579  28.748  -8.099  1.00  0.00     0.008 C 
ENDBRANCH   5   8
ENDBRANCH   4   5
ENDBRANCH   1   3
BRANCH   1  11
ATOM     11  C   UNL     1     -27.976  32.423  -2.774  1.00  0.00     0.002 C 
ATOM     12  C   UNL     1     -28.429  33.732  -3.482  1.00  0.00     0.005 C 
ATOM     13  C   UNL     1     -29.333  31.738  -2.384  1.00  0.00    -0.023 C 
ATOM     14  C   UNL     1     -29.913  33.569  -3.851  1.00  0.00     0.009 C 
ATOM     15  C   UNL     1     -30.225  32.104  -3.575  1.00  0.00     0.021 C 
ATOM     16  C   UNL     1     -29.356  30.188  -2.233  1.00  0.00     0.008 C 
ATOM     17  C   UNL     1     -29.842  32.407  -1.045  1.00  0.00     0.012 C 
ATOM     18  C   UNL     1     -31.675  31.689  -3.388  1.00  0.00    -0.067 C 
ATOM     19  C   UNL     1     -30.776  29.556  -2.399  1.00  0.00     0.009 C 
ATOM     20  C   UNL     1     -31.983  30.558  -2.386  1.00  0.00     0.021 C 
ATOM     21  C   UNL     1     -32.576  32.122  -4.288  1.00  0.00    -0.027 C 
ATOM     22  C   UNL     1     -33.441  29.896  -2.507  1.00  0.00    -0.023 C 
ATOM     23  C   UNL     1     -33.986  31.658  -4.295  1.00  0.00     0.031 C 
ATOM     24  C   UNL     1     -34.080  30.171  -3.911  1.00  0.00     0.002 C 
ATOM     25  C   UNL     1     -34.363  30.515  -1.403  1.00  0.00     0.010 C 
ATOM     26  C   UNL     1     -33.380  28.355  -2.266  1.00  0.00     0.012 C 
ATOM     27  C   UNL     1     -35.555  29.703  -4.003  1.00  0.00     0.036 C 
ATOM     28  C   UNL     1     -35.834  30.067  -1.485  1.00  0.00     0.032 C 
ATOM     29  C   UNL     1     -36.437  30.293  -2.883  1.00  0.00     0.114 C 
BRANCH  29  30
ATOM     30  O   UNL     1     -37.736  29.759  -2.950  1.00  0.00    -0.393 OA
ATOM     31  H   UNL     1     -37.942  29.354  -2.066  1.00  0.00     0.210 HD
ENDBRANCH  29  30
ENDBRANCH   1  11
TORSDOF 6
ENDMDL
