MODEL 1
REMARK VINA RESULT:    -3.988      0.000      0.000
REMARK INTER + INTRA:          -7.432
REMARK INTER:                  -6.320
REMARK INTRA:                  -1.112
REMARK UNBOUND:                -1.112
REMARK SMILES CCCCCCCCCCCC(=O)[O-]
REMARK SMILES IDX 7 1 8 2 9 3 10 4 11 5 12 6 13 7 14 8 6 9 5 10 4 11 3 12 2 13
REMARK SMILES IDX 1 14
REMARK H PARENT
REMARK Flexibility Score: inf
ROOT
ATOM      1  C   UNL     1      -6.355  23.994  58.090  1.00  0.00     0.000 C 
ENDROOT
BRANCH   1   2
ATOM      2  C   UNL     1      -7.463  24.939  57.602  1.00  0.00     0.000 C 
BRANCH   2   3
ATOM      3  C   UNL     1      -7.490  26.230  58.433  1.00  0.00     0.000 C 
BRANCH   3   4
ATOM      4  C   UNL     1      -8.238  26.062  59.765  1.00  0.00     0.006 C 
BRANCH   4   5
ATOM      5  C   UNL     1      -7.292  25.842  60.951  1.00  0.00     0.053 C 
BRANCH   5   6
ATOM      6  C   UNL     1      -8.046  25.922  62.242  1.00  0.00     0.041 C 
ATOM      7  O   UNL     1      -7.437  26.157  63.319  1.00  0.00    -0.550 OA
ATOM      8  O   UNL     1      -9.415  25.688  62.263  1.00  0.00    -0.550 OA
ENDBRANCH   5   6
ENDBRANCH   4   5
ENDBRANCH   3   4
ENDBRANCH   2   3
ENDBRANCH   1   2
BRANCH   1   9
ATOM      9  C   UNL     1      -5.222  23.813  57.064  1.00  0.00     0.000 C 
BRANCH   9  10
ATOM     10  C   UNL     1      -5.096  24.945  56.027  1.00  0.00    -0.000 C 
BRANCH  10  11
ATOM     11  C   UNL     1      -3.835  25.801  56.223  1.00  0.00    -0.000 C 
BRANCH  11  12
ATOM     12  C   UNL     1      -4.186  27.152  56.865  1.00  0.00    -0.000 C 
BRANCH  12  13
ATOM     13  C   UNL     1      -4.025  27.138  58.393  1.00  0.00    -0.003 C 
ATOM     14  C   UNL     1      -2.988  26.122  58.870  1.00  0.00     0.004 C 
ENDBRANCH  12  13
ENDBRANCH  11  12
ENDBRANCH  10  11
ENDBRANCH   9  10
ENDBRANCH   1   9
TORSDOF 10
ENDMDL
MODEL 2
REMARK VINA RESULT:    -3.900      2.997      4.749
REMARK INTER + INTRA:          -7.292
REMARK INTER:                  -5.896
REMARK INTRA:                  -1.396
REMARK UNBOUND:                -1.112
REMARK SMILES CCCCCCCCCCCC(=O)[O-]
REMARK SMILES IDX 7 1 8 2 9 3 10 4 11 5 12 6 13 7 14 8 6 9 5 10 4 11 3 12 2 13
REMARK SMILES IDX 1 14
REMARK H PARENT
REMARK Flexibility Score: inf
ROOT
ATOM      1  C   UNL     1      -2.151  27.352  58.341  1.00  0.00     0.000 C 
ENDROOT
BRANCH   1   2
ATOM      2  C   UNL     1      -3.117  26.165  58.209  1.00  0.00     0.000 C 
BRANCH   2   3
ATOM      3  C   UNL     1      -4.108  26.129  59.381  1.00  0.00     0.000 C 
BRANCH   3   4
ATOM      4  C   UNL     1      -5.568  26.002  58.919  1.00  0.00     0.006 C 
BRANCH   4   5
ATOM      5  C   UNL     1      -5.695  25.372  57.527  1.00  0.00     0.053 C 
BRANCH   5   6
ATOM      6  C   UNL     1      -6.518  24.123  57.592  1.00  0.00     0.041 C 
ATOM      7  O   UNL     1      -6.275  23.249  58.466  1.00  0.00    -0.550 OA
ATOM      8  O   UNL     1      -7.522  23.902  56.658  1.00  0.00    -0.550 OA
ENDBRANCH   5   6
ENDBRANCH   4   5
ENDBRANCH   3   4
ENDBRANCH   2   3
ENDBRANCH   1   2
BRANCH   1   9
ATOM      9  C   UNL     1      -2.529  28.312  59.484  1.00  0.00     0.000 C 
BRANCH   9  10
ATOM     10  C   UNL     1      -2.581  29.801  59.093  1.00  0.00    -0.000 C 
BRANCH  10  11
ATOM     11  C   UNL     1      -2.663  30.021  57.575  1.00  0.00    -0.000 C 
BRANCH  11  12
ATOM     12  C   UNL     1      -4.058  30.518  57.169  1.00  0.00    -0.000 C 
BRANCH  12  13
ATOM     13  C   UNL     1      -4.960  29.386  56.652  1.00  0.00    -0.003 C 
ATOM     14  C   UNL     1      -4.289  28.544  55.567  1.00  0.00     0.004 C 
ENDBRANCH  12  13
ENDBRANCH  11  12
ENDBRANCH  10  11
ENDBRANCH   9  10
ENDBRANCH   1   9
TORSDOF 10
ENDMDL
MODEL 3
REMARK VINA RESULT:    -3.889      3.035      5.359
REMARK INTER + INTRA:          -7.276
REMARK INTER:                  -6.387
REMARK INTRA:                  -0.889
REMARK UNBOUND:                -1.112
REMARK SMILES CCCCCCCCCCCC(=O)[O-]
REMARK SMILES IDX 7 1 8 2 9 3 10 4 11 5 12 6 13 7 14 8 6 9 5 10 4 11 3 12 2 13
REMARK SMILES IDX 1 14
REMARK H PARENT
REMARK Flexibility Score: inf
ROOT
ATOM      1  C   UNL     1      -5.735  23.716  57.435  1.00  0.00     0.000 C 
ENDROOT
BRANCH   1   2
ATOM      2  C   UNL     1      -4.390  24.212  56.881  1.00  0.00     0.000 C 
BRANCH   2   3
ATOM      3  C   UNL     1      -3.830  25.355  57.740  1.00  0.00     0.000 C 
BRANCH   3   4
ATOM      4  C   UNL     1      -3.693  26.671  56.958  1.00  0.00     0.006 C 
BRANCH   4   5
ATOM      5  C   UNL     1      -4.367  26.614  55.582  1.00  0.00     0.053 C 
BRANCH   5   6
ATOM      6  C   UNL     1      -5.733  27.224  55.644  1.00  0.00     0.041 C 
ATOM      7  O   UNL     1      -6.730  26.592  55.205  1.00  0.00    -0.550 OA
ATOM      8  O   UNL     1      -5.898  28.509  56.143  1.00  0.00    -0.550 OA
ENDBRANCH   5   6
ENDBRANCH   4   5
ENDBRANCH   3   4
ENDBRANCH   2   3
ENDBRANCH   1   2
BRANCH   1   9
ATOM      9  C   UNL     1      -6.310  24.631  58.530  1.00  0.00     0.000 C 
BRANCH   9  10
ATOM     10  C   UNL     1      -7.673  25.267  58.199  1.00  0.00    -0.000 C 
BRANCH  10  11
ATOM     11  C   UNL     1      -8.206  26.166  59.325  1.00  0.00    -0.000 C 
BRANCH  11  12
ATOM     12  C   UNL     1      -7.269  26.134  60.541  1.00  0.00    -0.000 C 
BRANCH  12  13
ATOM     13  C   UNL     1      -7.983  25.678  61.823  1.00  0.00    -0.003 C 
ATOM     14  C   UNL     1      -7.282  26.159  63.093  1.00  0.00     0.004 C 
ENDBRANCH  12  13
ENDBRANCH  11  12
ENDBRANCH  10  11
ENDBRANCH   9  10
ENDBRANCH   1   9
TORSDOF 10
ENDMDL
MODEL 4
REMARK VINA RESULT:    -3.858      4.617      6.584
REMARK INTER + INTRA:          -7.226
REMARK INTER:                  -6.819
REMARK INTRA:                  -0.407
REMARK UNBOUND:                -1.112
REMARK SMILES CCCCCCCCCCCC(=O)[O-]
REMARK SMILES IDX 7 1 8 2 9 3 10 4 11 5 12 6 13 7 14 8 6 9 5 10 4 11 3 12 2 13
REMARK SMILES IDX 1 14
REMARK H PARENT
REMARK Flexibility Score: inf
ROOT
ATOM      1  C   UNL     1      -4.525  28.025  57.596  1.00  0.00     0.000 C 
ENDROOT
BRANCH   1   2
ATOM      2  C   UNL     1      -5.102  29.025  56.582  1.00  0.00     0.000 C 
BRANCH   2   3
ATOM      3  C   UNL     1      -4.392  30.382  56.684  1.00  0.00     0.000 C 
BRANCH   3   4
ATOM      4  C   UNL     1      -5.138  31.499  55.937  1.00  0.00     0.006 C 
BRANCH   4   5
ATOM      5  C   UNL     1      -6.031  30.963  54.811  1.00  0.00     0.053 C 
BRANCH   5   6
ATOM      6  C   UNL     1      -7.334  31.700  54.783  1.00  0.00     0.041 C 
ATOM      7  O   UNL     1      -7.589  32.501  53.844  1.00  0.00    -0.550 OA
ATOM      8  O   UNL     1      -8.246  31.541  55.817  1.00  0.00    -0.550 OA
ENDBRANCH   5   6
ENDBRANCH   4   5
ENDBRANCH   3   4
ENDBRANCH   2   3
ENDBRANCH   1   2
BRANCH   1   9
ATOM      9  C   UNL     1      -5.237  26.661  57.569  1.00  0.00     0.000 C 
BRANCH   9  10
ATOM     10  C   UNL     1      -6.643  26.648  58.198  1.00  0.00    -0.000 C 
BRANCH  10  11
ATOM     11  C   UNL     1      -6.841  25.502  59.202  1.00  0.00    -0.000 C 
BRANCH  11  12
ATOM     12  C   UNL     1      -7.673  25.967  60.406  1.00  0.00    -0.000 C 
BRANCH  12  13
ATOM     13  C   UNL     1      -6.803  26.333  61.618  1.00  0.00    -0.003 C 
ATOM     14  C   UNL     1      -7.445  25.939  62.948  1.00  0.00     0.004 C 
ENDBRANCH  12  13
ENDBRANCH  11  12
ENDBRANCH  10  11
ENDBRANCH   9  10
ENDBRANCH   1   9
TORSDOF 10
ENDMDL
MODEL 5
REMARK VINA RESULT:    -3.784      2.799      4.542
REMARK INTER + INTRA:          -7.109
REMARK INTER:                  -5.853
REMARK INTRA:                  -1.256
REMARK UNBOUND:                -1.112
REMARK SMILES CCCCCCCCCCCC(=O)[O-]
REMARK SMILES IDX 7 1 8 2 9 3 10 4 11 5 12 6 13 7 14 8 6 9 5 10 4 11 3 12 2 13
REMARK SMILES IDX 1 14
REMARK H PARENT
REMARK Flexibility Score: inf
ROOT
ATOM      1  C   UNL     1      -2.710  27.355  58.545  1.00  0.00     0.000 C 
ENDROOT
BRANCH   1   2
ATOM      2  C   UNL     1      -3.297  26.058  59.122  1.00  0.00     0.000 C 
BRANCH   2   3
ATOM      3  C   UNL     1      -4.816  25.998  58.906  1.00  0.00     0.000 C 
BRANCH   3   4
ATOM      4  C   UNL     1      -5.257  24.738  58.146  1.00  0.00     0.006 C 
BRANCH   4   5
ATOM      5  C   UNL     1      -6.096  25.059  56.903  1.00  0.00     0.053 C 
BRANCH   5   6
ATOM      6  C   UNL     1      -7.533  24.712  57.140  1.00  0.00     0.041 C 
ATOM      7  O   UNL     1      -8.062  23.750  56.523  1.00  0.00    -0.550 OA
ATOM      8  O   UNL     1      -8.300  25.481  58.004  1.00  0.00    -0.550 OA
ENDBRANCH   5   6
ENDBRANCH   4   5
ENDBRANCH   3   4
ENDBRANCH   2   3
ENDBRANCH   1   2
BRANCH   1   9
ATOM      9  C   UNL     1      -1.670  27.106  57.439  1.00  0.00     0.000 C 
BRANCH   9  10
ATOM     10  C   UNL     1      -2.257  26.737  56.063  1.00  0.00    -0.000 C 
BRANCH  10  11
ATOM     11  C   UNL     1      -1.616  25.480  55.455  1.00  0.00    -0.000 C 
BRANCH  11  12
ATOM     12  C   UNL     1      -2.161  24.210  56.123  1.00  0.00    -0.000 C 
BRANCH  12  13
ATOM     13  C   UNL     1      -3.154  23.452  55.227  1.00  0.00    -0.003 C 
ATOM     14  C   UNL     1      -3.510  22.071  55.776  1.00  0.00     0.004 C 
ENDBRANCH  12  13
ENDBRANCH  11  12
ENDBRANCH  10  11
ENDBRANCH   9  10
ENDBRANCH   1   9
TORSDOF 10
ENDMDL
MODEL 6
REMARK VINA RESULT:    -3.781      2.470      3.851
REMARK INTER + INTRA:          -7.103
REMARK INTER:                  -5.668
REMARK INTRA:                  -1.435
REMARK UNBOUND:                -1.112
REMARK SMILES CCCCCCCCCCCC(=O)[O-]
REMARK SMILES IDX 7 1 8 2 9 3 10 4 11 5 12 6 13 7 14 8 6 9 5 10 4 11 3 12 2 13
REMARK SMILES IDX 1 14
REMARK H PARENT
REMARK Flexibility Score: inf
ROOT
ATOM      1  C   UNL     1      -1.772  25.887  57.067  1.00  0.00     0.000 C 
ENDROOT
BRANCH   1   2
ATOM      2  C   UNL     1      -3.221  25.690  57.539  1.00  0.00     0.000 C 
BRANCH   2   3
ATOM      3  C   UNL     1      -3.317  25.783  59.069  1.00  0.00     0.000 C 
BRANCH   3   4
ATOM      4  C   UNL     1      -4.665  26.348  59.544  1.00  0.00     0.006 C 
BRANCH   4   5
ATOM      5  C   UNL     1      -5.756  26.258  58.470  1.00  0.00     0.053 C 
BRANCH   5   6
ATOM      6  C   UNL     1      -7.092  26.021  59.101  1.00  0.00     0.041 C 
ATOM      7  O   UNL     1      -7.205  25.996  60.355  1.00  0.00    -0.550 OA
ATOM      8  O   UNL     1      -8.205  25.780  58.306  1.00  0.00    -0.550 OA
ENDBRANCH   5   6
ENDBRANCH   4   5
ENDBRANCH   3   4
ENDBRANCH   2   3
ENDBRANCH   1   2
BRANCH   1   9
ATOM      9  C   UNL     1      -1.446  27.351  56.719  1.00  0.00     0.000 C 
BRANCH   9  10
ATOM     10  C   UNL     1      -2.542  28.093  55.932  1.00  0.00    -0.000 C 
BRANCH  10  11
ATOM     11  C   UNL     1      -2.820  29.503  56.473  1.00  0.00    -0.000 C 
BRANCH  11  12
ATOM     12  C   UNL     1      -3.489  29.437  57.854  1.00  0.00    -0.000 C 
BRANCH  12  13
ATOM     13  C   UNL     1      -2.653  30.121  58.947  1.00  0.00    -0.003 C 
ATOM     14  C   UNL     1      -2.198  29.151  60.037  1.00  0.00     0.004 C 
ENDBRANCH  12  13
ENDBRANCH  11  12
ENDBRANCH  10  11
ENDBRANCH   9  10
ENDBRANCH   1   9
TORSDOF 10
ENDMDL
MODEL 7
REMARK VINA RESULT:    -3.710      2.087      3.402
REMARK INTER + INTRA:          -6.991
REMARK INTER:                  -5.571
REMARK INTRA:                  -1.421
REMARK UNBOUND:                -1.112
REMARK SMILES CCCCCCCCCCCC(=O)[O-]
REMARK SMILES IDX 7 1 8 2 9 3 10 4 11 5 12 6 13 7 14 8 6 9 5 10 4 11 3 12 2 13
REMARK SMILES IDX 1 14
REMARK H PARENT
REMARK Flexibility Score: inf
ROOT
ATOM      1  C   UNL     1      -3.351  24.079  55.114  1.00  0.00     0.000 C 
ENDROOT
BRANCH   1   2
ATOM      2  C   UNL     1      -4.500  23.214  55.652  1.00  0.00     0.000 C 
BRANCH   2   3
ATOM      3  C   UNL     1      -5.108  23.833  56.919  1.00  0.00     0.000 C 
BRANCH   3   4
ATOM      4  C   UNL     1      -6.099  24.966  56.608  1.00  0.00     0.006 C 
BRANCH   4   5
ATOM      5  C   UNL     1      -7.414  24.832  57.386  1.00  0.00     0.053 C 
BRANCH   5   6
ATOM      6  C   UNL     1      -7.503  25.887  58.444  1.00  0.00     0.041 C 
ATOM      7  O   UNL     1      -7.856  25.582  59.615  1.00  0.00    -0.550 OA
ATOM      8  O   UNL     1      -7.243  27.213  58.128  1.00  0.00    -0.550 OA
ENDBRANCH   5   6
ENDBRANCH   4   5
ENDBRANCH   3   4
ENDBRANCH   2   3
ENDBRANCH   1   2
BRANCH   1   9
ATOM      9  C   UNL     1      -2.049  23.922  55.920  1.00  0.00     0.000 C 
BRANCH   9  10
ATOM     10  C   UNL     1      -1.571  25.198  56.639  1.00  0.00    -0.000 C 
BRANCH  10  11
ATOM     11  C   UNL     1      -2.324  26.459  56.190  1.00  0.00    -0.000 C 
BRANCH  11  12
ATOM     12  C   UNL     1      -3.086  27.089  57.365  1.00  0.00    -0.000 C 
BRANCH  12  13
ATOM     13  C   UNL     1      -2.850  26.344  58.688  1.00  0.00    -0.003 C 
ATOM     14  C   UNL     1      -4.108  26.259  59.552  1.00  0.00     0.004 C 
ENDBRANCH  12  13
ENDBRANCH  11  12
ENDBRANCH  10  11
ENDBRANCH   9  10
ENDBRANCH   1   9
TORSDOF 10
ENDMDL
MODEL 8
REMARK VINA RESULT:    -3.710      4.486      6.229
REMARK INTER + INTRA:          -6.991
REMARK INTER:                  -6.086
REMARK INTRA:                  -0.905
REMARK UNBOUND:                -1.112
REMARK SMILES CCCCCCCCCCCC(=O)[O-]
REMARK SMILES IDX 7 1 8 2 9 3 10 4 11 5 12 6 13 7 14 8 6 9 5 10 4 11 3 12 2 13
REMARK SMILES IDX 1 14
REMARK H PARENT
REMARK Flexibility Score: inf
ROOT
ATOM      1  C   UNL     1      -2.979  27.789  57.687  1.00  0.00     0.000 C 
ENDROOT
BRANCH   1   2
ATOM      2  C   UNL     1      -3.545  29.201  57.471  1.00  0.00     0.000 C 
BRANCH   2   3
ATOM      3  C   UNL     1      -4.728  29.175  56.493  1.00  0.00     0.000 C 
BRANCH   3   4
ATOM      4  C   UNL     1      -5.493  30.508  56.453  1.00  0.00     0.006 C 
BRANCH   4   5
ATOM      5  C   UNL     1      -5.872  30.930  55.028  1.00  0.00     0.053 C 
BRANCH   5   6
ATOM      6  C   UNL     1      -7.167  31.681  55.034  1.00  0.00     0.041 C 
ATOM      7  O   UNL     1      -7.918  31.643  56.045  1.00  0.00    -0.550 OA
ATOM      8  O   UNL     1      -7.568  32.384  53.906  1.00  0.00    -0.550 OA
ENDBRANCH   5   6
ENDBRANCH   4   5
ENDBRANCH   3   4
ENDBRANCH   2   3
ENDBRANCH   1   2
BRANCH   1   9
ATOM      9  C   UNL     1      -3.155  27.284  59.131  1.00  0.00     0.000 C 
BRANCH   9  10
ATOM     10  C   UNL     1      -4.060  26.047  59.283  1.00  0.00    -0.000 C 
BRANCH  10  11
ATOM     11  C   UNL     1      -4.431  25.406  57.937  1.00  0.00    -0.000 C 
BRANCH  11  12
ATOM     12  C   UNL     1      -5.956  25.341  57.765  1.00  0.00    -0.000 C 
BRANCH  12  13
ATOM     13  C   UNL     1      -6.668  26.573  58.344  1.00  0.00    -0.003 C 
ATOM     14  C   UNL     1      -7.843  26.205  59.249  1.00  0.00     0.004 C 
ENDBRANCH  12  13
ENDBRANCH  11  12
ENDBRANCH  10  11
ENDBRANCH   9  10
ENDBRANCH   1   9
TORSDOF 10
ENDMDL
MODEL 9
REMARK VINA RESULT:    -3.657      4.426      5.738
REMARK INTER + INTRA:          -6.908
REMARK INTER:                  -5.635
REMARK INTRA:                  -1.273
REMARK UNBOUND:                -1.112
REMARK SMILES CCCCCCCCCCCC(=O)[O-]
REMARK SMILES IDX 7 1 8 2 9 3 10 4 11 5 12 6 13 7 14 8 6 9 5 10 4 11 3 12 2 13
REMARK SMILES IDX 1 14
REMARK H PARENT
REMARK Flexibility Score: inf
ROOT
ATOM      1  C   UNL     1      -5.202  26.704  55.034  1.00  0.00     0.000 C 
ENDROOT
BRANCH   1   2
ATOM      2  C   UNL     1      -4.670  28.136  55.194  1.00  0.00     0.000 C 
BRANCH   2   3
ATOM      3  C   UNL     1      -5.233  28.793  56.462  1.00  0.00     0.000 C 
BRANCH   3   4
ATOM      4  C   UNL     1      -5.401  30.314  56.317  1.00  0.00     0.006 C 
BRANCH   4   5
ATOM      5  C   UNL     1      -5.859  30.728  54.913  1.00  0.00     0.053 C 
BRANCH   5   6
ATOM      6  C   UNL     1      -7.115  31.537  54.992  1.00  0.00     0.041 C 
ATOM      7  O   UNL     1      -7.485  32.230  54.007  1.00  0.00    -0.550 OA
ATOM      8  O   UNL     1      -7.852  31.565  56.168  1.00  0.00    -0.550 OA
ENDBRANCH   5   6
ENDBRANCH   4   5
ENDBRANCH   3   4
ENDBRANCH   2   3
ENDBRANCH   1   2
BRANCH   1   9
ATOM      9  C   UNL     1      -6.150  26.283  56.172  1.00  0.00     0.000 C 
BRANCH   9  10
ATOM     10  C   UNL     1      -5.775  24.966  56.877  1.00  0.00    -0.000 C 
BRANCH  10  11
ATOM     11  C   UNL     1      -4.383  25.006  57.524  1.00  0.00    -0.000 C 
BRANCH  11  12
ATOM     12  C   UNL     1      -4.398  25.852  58.805  1.00  0.00    -0.000 C 
BRANCH  12  13
ATOM     13  C   UNL     1      -3.129  26.704  58.965  1.00  0.00    -0.003 C 
ATOM     14  C   UNL     1      -2.225  26.656  57.734  1.00  0.00     0.004 C 
ENDBRANCH  12  13
ENDBRANCH  11  12
ENDBRANCH  10  11
ENDBRANCH   9  10
ENDBRANCH   1   9
TORSDOF 10
ENDMDL
