MODEL 1
REMARK VINA RESULT:    -5.066      0.000      0.000
REMARK INTER + INTRA:          -7.075
REMARK INTER:                  -6.843
REMARK INTRA:                  -0.232
REMARK UNBOUND:                -0.232
REMARK SMILES [NH3+]CCCC[C@H]([NH3+])C(=O)[O-]
REMARK SMILES IDX 4 1 3 2 2 3 1 4 5 8 6 9 7 10 8 14 9 15 10 16
REMARK H PARENT 1 5 1 6 1 7 7 11 7 12 7 13
REMARK Flexibility Score: inf
ROOT
ATOM      1  C   UNL     1     -21.076  69.556   0.834  1.00  0.00     0.012 C 
ENDROOT
BRANCH   1   2
ATOM      2  C   UNL     1     -22.408  68.792   0.756  1.00  0.00     0.061 C 
BRANCH   2   3
ATOM      3  C   UNL     1     -22.545  67.980  -0.544  1.00  0.00     0.258 C 
BRANCH   3   4
ATOM      4  N   UNL     1     -23.934  67.607  -0.821  1.00  0.00    -0.358 N 
ATOM      5  H   UNL     1     -24.415  67.306   0.057  1.00  0.00     0.344 HD
ATOM      6  H   UNL     1     -24.448  68.406  -1.255  1.00  0.00     0.344 HD
ATOM      7  H   UNL     1     -23.942  66.809  -1.497  1.00  0.00     0.344 HD
ENDBRANCH   3   4
ENDBRANCH   2   3
ENDBRANCH   1   2
BRANCH   1   8
ATOM      8  C   UNL     1     -20.310  69.560  -0.503  1.00  0.00     0.072 C 
BRANCH   8   9
ATOM      9  C   UNL     1     -18.891  68.949  -0.431  1.00  0.00     0.227 C 
BRANCH   9  10
ATOM     10  N   UNL     1     -18.090  69.388  -1.579  1.00  0.00    -0.350 N 
ATOM     11  H   UNL     1     -18.115  70.429  -1.672  1.00  0.00     0.345 HD
ATOM     12  H   UNL     1     -18.462  68.956  -2.457  1.00  0.00     0.345 HD
ATOM     13  H   UNL     1     -17.098  69.079  -1.459  1.00  0.00     0.345 HD
ENDBRANCH   9  10
BRANCH   9  14
ATOM     14  C   UNL     1     -18.947  67.444  -0.390  1.00  0.00     0.099 C 
ATOM     15  O   UNL     1     -18.680  66.829   0.675  1.00  0.00    -0.544 OA
ATOM     16  O   UNL     1     -19.300  66.726  -1.526  1.00  0.00    -0.544 OA
ENDBRANCH   9  14
ENDBRANCH   8   9
ENDBRANCH   1   8
TORSDOF 7
ENDMDL
MODEL 2
REMARK VINA RESULT:    -5.040      2.410      4.387
REMARK INTER + INTRA:          -7.040
REMARK INTER:                  -6.549
REMARK INTRA:                  -0.491
REMARK UNBOUND:                -0.232
REMARK SMILES [NH3+]CCCC[C@H]([NH3+])C(=O)[O-]
REMARK SMILES IDX 4 1 3 2 2 3 1 4 5 8 6 9 7 10 8 14 9 15 10 16
REMARK H PARENT 1 5 1 6 1 7 7 11 7 12 7 13
REMARK Flexibility Score: inf
ROOT
ATOM      1  C   UNL     1     -19.917  67.362  -1.181  1.00  0.00     0.012 C 
ENDROOT
BRANCH   1   2
ATOM      2  C   UNL     1     -19.072  67.270   0.101  1.00  0.00     0.061 C 
BRANCH   2   3
ATOM      3  C   UNL     1     -17.689  67.925  -0.058  1.00  0.00     0.258 C 
BRANCH   3   4
ATOM      4  N   UNL     1     -17.749  69.167  -0.834  1.00  0.00    -0.358 N 
ATOM      5  H   UNL     1     -16.789  69.468  -1.118  1.00  0.00     0.344 HD
ATOM      6  H   UNL     1     -18.350  69.040  -1.679  1.00  0.00     0.344 HD
ATOM      7  H   UNL     1     -18.173  69.916  -0.241  1.00  0.00     0.344 HD
ENDBRANCH   3   4
ENDBRANCH   2   3
ENDBRANCH   1   2
BRANCH   1   8
ATOM      8  C   UNL     1     -21.212  68.173  -0.984  1.00  0.00     0.072 C 
BRANCH   8   9
ATOM      9  C   UNL     1     -21.427  68.697   0.455  1.00  0.00     0.227 C 
BRANCH   9  10
ATOM     10  N   UNL     1     -22.811  68.457   0.881  1.00  0.00    -0.350 N 
ATOM     11  H   UNL     1     -23.485  68.929   0.236  1.00  0.00     0.345 HD
ATOM     12  H   UNL     1     -22.952  68.821   1.852  1.00  0.00     0.345 HD
ATOM     13  H   UNL     1     -23.007  67.429   0.887  1.00  0.00     0.345 HD
ENDBRANCH   9  10
BRANCH   9  14
ATOM     14  C   UNL     1     -21.109  70.166   0.553  1.00  0.00     0.099 C 
ATOM     15  O   UNL     1     -20.309  70.696  -0.261  1.00  0.00    -0.544 OA
ATOM     16  O   UNL     1     -21.700  70.947   1.540  1.00  0.00    -0.544 OA
ENDBRANCH   9  14
ENDBRANCH   8   9
ENDBRANCH   1   8
TORSDOF 7
ENDMDL
MODEL 3
REMARK VINA RESULT:    -5.031      1.332      1.608
REMARK INTER + INTRA:          -7.027
REMARK INTER:                  -6.521
REMARK INTRA:                  -0.506
REMARK UNBOUND:                -0.232
REMARK SMILES [NH3+]CCCC[C@H]([NH3+])C(=O)[O-]
REMARK SMILES IDX 4 1 3 2 2 3 1 4 5 8 6 9 7 10 8 14 9 15 10 16
REMARK H PARENT 1 5 1 6 1 7 7 11 7 12 7 13
REMARK Flexibility Score: inf
ROOT
ATOM      1  C   UNL     1     -20.865  69.848   0.215  1.00  0.00     0.012 C 
ENDROOT
BRANCH   1   2
ATOM      2  C   UNL     1     -21.266  68.765   1.231  1.00  0.00     0.061 C 
BRANCH   2   3
ATOM      3  C   UNL     1     -22.743  68.354   1.100  1.00  0.00     0.258 C 
BRANCH   3   4
ATOM      4  N   UNL     1     -23.093  67.972  -0.271  1.00  0.00    -0.358 N 
ATOM      5  H   UNL     1     -22.258  68.048  -0.896  1.00  0.00     0.344 HD
ATOM      6  H   UNL     1     -23.470  66.999  -0.294  1.00  0.00     0.344 HD
ATOM      7  H   UNL     1     -23.835  68.619  -0.623  1.00  0.00     0.344 HD
ENDBRANCH   3   4
ENDBRANCH   2   3
ENDBRANCH   1   2
BRANCH   1   8
ATOM      8  C   UNL     1     -19.788  69.366  -0.776  1.00  0.00     0.072 C 
BRANCH   8   9
ATOM      9  C   UNL     1     -19.214  67.964  -0.466  1.00  0.00     0.227 C 
BRANCH   9  10
ATOM     10  N   UNL     1     -17.748  67.997  -0.498  1.00  0.00    -0.350 N 
ATOM     11  H   UNL     1     -17.349  67.609   0.388  1.00  0.00     0.345 HD
ATOM     12  H   UNL     1     -17.417  68.982  -0.621  1.00  0.00     0.345 HD
ATOM     13  H   UNL     1     -17.398  67.433  -1.306  1.00  0.00     0.345 HD
ENDBRANCH   9  10
BRANCH   9  14
ATOM     14  C   UNL     1     -19.725  66.938  -1.445  1.00  0.00     0.099 C 
ATOM     15  O   UNL     1     -20.801  67.138  -2.066  1.00  0.00    -0.544 OA
ATOM     16  O   UNL     1     -19.009  65.769  -1.671  1.00  0.00    -0.544 OA
ENDBRANCH   9  14
ENDBRANCH   8   9
ENDBRANCH   1   8
TORSDOF 7
ENDMDL
MODEL 4
REMARK VINA RESULT:    -4.885      2.484      2.848
REMARK INTER + INTRA:          -6.831
REMARK INTER:                  -6.643
REMARK INTRA:                  -0.188
REMARK UNBOUND:                -0.232
REMARK SMILES [NH3+]CCCC[C@H]([NH3+])C(=O)[O-]
REMARK SMILES IDX 4 1 3 2 2 3 1 4 5 8 6 9 7 10 8 14 9 15 10 16
REMARK H PARENT 1 5 1 6 1 7 7 11 7 12 7 13
REMARK Flexibility Score: inf
ROOT
ATOM      1  C   UNL     1     -20.866  68.385   0.681  1.00  0.00     0.012 C 
ENDROOT
BRANCH   1   2
ATOM      2  C   UNL     1     -21.677  69.550   1.274  1.00  0.00     0.061 C 
BRANCH   2   3
ATOM      3  C   UNL     1     -21.197  70.920   0.766  1.00  0.00     0.258 C 
BRANCH   3   4
ATOM      4  N   UNL     1     -21.518  72.002   1.700  1.00  0.00    -0.358 N 
ATOM      5  H   UNL     1     -22.442  72.429   1.461  1.00  0.00     0.344 HD
ATOM      6  H   UNL     1     -21.531  71.645   2.681  1.00  0.00     0.344 HD
ATOM      7  H   UNL     1     -20.780  72.740   1.630  1.00  0.00     0.344 HD
ENDBRANCH   3   4
ENDBRANCH   2   3
ENDBRANCH   1   2
BRANCH   1   8
ATOM      8  C   UNL     1     -20.924  68.340  -0.858  1.00  0.00     0.072 C 
BRANCH   8   9
ATOM      9  C   UNL     1     -19.597  67.929  -1.537  1.00  0.00     0.227 C 
BRANCH   9  10
ATOM     10  N   UNL     1     -19.465  66.468  -1.552  1.00  0.00    -0.350 N 
ATOM     11  H   UNL     1     -18.639  66.176  -2.124  1.00  0.00     0.345 HD
ATOM     12  H   UNL     1     -20.330  66.037  -1.952  1.00  0.00     0.345 HD
ATOM     13  H   UNL     1     -19.347  66.113  -0.575  1.00  0.00     0.345 HD
ENDBRANCH   9  10
BRANCH   9  14
ATOM     14  C   UNL     1     -18.413  68.544  -0.836  1.00  0.00     0.099 C 
ATOM     15  O   UNL     1     -18.189  69.778  -0.937  1.00  0.00    -0.544 OA
ATOM     16  O   UNL     1     -17.565  67.753  -0.069  1.00  0.00    -0.544 OA
ENDBRANCH   9  14
ENDBRANCH   8   9
ENDBRANCH   1   8
TORSDOF 7
ENDMDL
MODEL 5
REMARK VINA RESULT:    -4.825      2.483      3.534
REMARK INTER + INTRA:          -6.749
REMARK INTER:                  -6.237
REMARK INTRA:                  -0.512
REMARK UNBOUND:                -0.232
REMARK SMILES [NH3+]CCCC[C@H]([NH3+])C(=O)[O-]
REMARK SMILES IDX 4 1 3 2 2 3 1 4 5 8 6 9 7 10 8 14 9 15 10 16
REMARK H PARENT 1 5 1 6 1 7 7 11 7 12 7 13
REMARK Flexibility Score: inf
ROOT
ATOM      1  C   UNL     1     -19.006  68.689  -1.484  1.00  0.00     0.012 C 
ENDROOT
BRANCH   1   2
ATOM      2  C   UNL     1     -18.524  67.336  -0.936  1.00  0.00     0.061 C 
BRANCH   2   3
ATOM      3  C   UNL     1     -19.346  66.154  -1.479  1.00  0.00     0.258 C 
BRANCH   3   4
ATOM      4  N   UNL     1     -20.546  66.595  -2.194  1.00  0.00    -0.358 N 
ATOM      5  H   UNL     1     -20.406  67.554  -2.588  1.00  0.00     0.344 HD
ATOM      6  H   UNL     1     -20.781  65.925  -2.960  1.00  0.00     0.344 HD
ATOM      7  H   UNL     1     -21.348  66.622  -1.525  1.00  0.00     0.344 HD
ENDBRANCH   3   4
ENDBRANCH   2   3
ENDBRANCH   1   2
BRANCH   1   8
ATOM      8  C   UNL     1     -19.369  69.689  -0.370  1.00  0.00     0.072 C 
BRANCH   8   9
ATOM      9  C   UNL     1     -20.889  69.903  -0.171  1.00  0.00     0.227 C 
BRANCH   9  10
ATOM     10  N   UNL     1     -21.134  71.152   0.557  1.00  0.00    -0.350 N 
ATOM     11  H   UNL     1     -21.661  71.832  -0.038  1.00  0.00     0.345 HD
ATOM     12  H   UNL     1     -20.224  71.582   0.844  1.00  0.00     0.345 HD
ATOM     13  H   UNL     1     -21.688  70.956   1.423  1.00  0.00     0.345 HD
ENDBRANCH   9  10
BRANCH   9  14
ATOM     14  C   UNL     1     -21.509  68.747   0.570  1.00  0.00     0.099 C 
ATOM     15  O   UNL     1     -22.305  67.971  -0.021  1.00  0.00    -0.544 OA
ATOM     16  O   UNL     1     -21.202  68.527   1.907  1.00  0.00    -0.544 OA
ENDBRANCH   9  14
ENDBRANCH   8   9
ENDBRANCH   1   8
TORSDOF 7
ENDMDL
MODEL 6
REMARK VINA RESULT:    -4.819      2.364      4.160
REMARK INTER + INTRA:          -6.741
REMARK INTER:                  -6.426
REMARK INTRA:                  -0.315
REMARK UNBOUND:                -0.232
REMARK SMILES [NH3+]CCCC[C@H]([NH3+])C(=O)[O-]
REMARK SMILES IDX 4 1 3 2 2 3 1 4 5 8 6 9 7 10 8 14 9 15 10 16
REMARK H PARENT 1 5 1 6 1 7 7 11 7 12 7 13
REMARK Flexibility Score: inf
ROOT
ATOM      1  C   UNL     1     -20.505  66.894  -1.991  1.00  0.00     0.012 C 
ENDROOT
BRANCH   1   2
ATOM      2  C   UNL     1     -19.081  66.443  -1.621  1.00  0.00     0.061 C 
BRANCH   2   3
ATOM      3  C   UNL     1     -18.406  67.395  -0.617  1.00  0.00     0.258 C 
BRANCH   3   4
ATOM      4  N   UNL     1     -18.527  66.921   0.764  1.00  0.00    -0.358 N 
ATOM      5  H   UNL     1     -17.869  67.441   1.388  1.00  0.00     0.344 HD
ATOM      6  H   UNL     1     -19.508  67.035   1.104  1.00  0.00     0.344 HD
ATOM      7  H   UNL     1     -18.286  65.904   0.795  1.00  0.00     0.344 HD
ENDBRANCH   3   4
ENDBRANCH   2   3
ENDBRANCH   1   2
BRANCH   1   8
ATOM      8  C   UNL     1     -20.900  68.228  -1.330  1.00  0.00     0.072 C 
BRANCH   8   9
ATOM      9  C   UNL     1     -21.860  68.087  -0.125  1.00  0.00     0.227 C 
BRANCH   9  10
ATOM     10  N   UNL     1     -23.233  68.408  -0.530  1.00  0.00    -0.350 N 
ATOM     11  H   UNL     1     -23.245  69.221  -1.188  1.00  0.00     0.345 HD
ATOM     12  H   UNL     1     -23.807  68.640   0.314  1.00  0.00     0.345 HD
ATOM     13  H   UNL     1     -23.667  67.581  -1.001  1.00  0.00     0.345 HD
ENDBRANCH   9  10
BRANCH   9  14
ATOM     14  C   UNL     1     -21.439  68.978   1.014  1.00  0.00     0.099 C 
ATOM     15  O   UNL     1     -20.917  68.483   2.046  1.00  0.00    -0.544 OA
ATOM     16  O   UNL     1     -21.620  70.354   0.930  1.00  0.00    -0.544 OA
ENDBRANCH   9  14
ENDBRANCH   8   9
ENDBRANCH   1   8
TORSDOF 7
ENDMDL
MODEL 7
REMARK VINA RESULT:    -4.791      2.946      4.331
REMARK INTER + INTRA:          -6.703
REMARK INTER:                  -6.606
REMARK INTRA:                  -0.097
REMARK UNBOUND:                -0.232
REMARK SMILES [NH3+]CCCC[C@H]([NH3+])C(=O)[O-]
REMARK SMILES IDX 4 1 3 2 2 3 1 4 5 8 6 9 7 10 8 14 9 15 10 16
REMARK H PARENT 1 5 1 6 1 7 7 11 7 12 7 13
REMARK Flexibility Score: inf
ROOT
ATOM      1  C   UNL     1     -19.304  67.746   0.302  1.00  0.00     0.012 C 
ENDROOT
BRANCH   1   2
ATOM      2  C   UNL     1     -18.557  67.059  -0.854  1.00  0.00     0.061 C 
BRANCH   2   3
ATOM      3  C   UNL     1     -19.511  66.370  -1.845  1.00  0.00     0.258 C 
BRANCH   3   4
ATOM      4  N   UNL     1     -19.201  64.949  -2.017  1.00  0.00    -0.358 N 
ATOM      5  H   UNL     1     -19.390  64.649  -3.001  1.00  0.00     0.344 HD
ATOM      6  H   UNL     1     -18.204  64.761  -1.771  1.00  0.00     0.344 HD
ATOM      7  H   UNL     1     -19.808  64.390  -1.374  1.00  0.00     0.344 HD
ENDBRANCH   3   4
ENDBRANCH   2   3
ENDBRANCH   1   2
BRANCH   1   8
ATOM      8  C   UNL     1     -20.726  68.193  -0.090  1.00  0.00     0.072 C 
BRANCH   8   9
ATOM      9  C   UNL     1     -21.467  68.999   1.004  1.00  0.00     0.227 C 
BRANCH   9  10
ATOM     10  N   UNL     1     -22.908  68.734   0.940  1.00  0.00    -0.350 N 
ATOM     11  H   UNL     1     -23.093  67.775   0.564  1.00  0.00     0.345 HD
ATOM     12  H   UNL     1     -23.373  69.440   0.324  1.00  0.00     0.345 HD
ATOM     13  H   UNL     1     -23.326  68.811   1.896  1.00  0.00     0.345 HD
ENDBRANCH   9  10
BRANCH   9  14
ATOM     14  C   UNL     1     -21.211  70.477   0.858  1.00  0.00     0.099 C 
ATOM     15  O   UNL     1     -20.570  70.914  -0.133  1.00  0.00    -0.544 OA
ATOM     16  O   UNL     1     -21.685  71.367   1.815  1.00  0.00    -0.544 OA
ENDBRANCH   9  14
ENDBRANCH   8   9
ENDBRANCH   1   8
TORSDOF 7
ENDMDL
MODEL 8
REMARK VINA RESULT:    -4.789      1.929      2.466
REMARK INTER + INTRA:          -6.701
REMARK INTER:                  -6.570
REMARK INTRA:                  -0.131
REMARK UNBOUND:                -0.232
REMARK SMILES [NH3+]CCCC[C@H]([NH3+])C(=O)[O-]
REMARK SMILES IDX 4 1 3 2 2 3 1 4 5 8 6 9 7 10 8 14 9 15 10 16
REMARK H PARENT 1 5 1 6 1 7 7 11 7 12 7 13
REMARK Flexibility Score: inf
ROOT
ATOM      1  C   UNL     1     -21.614  68.693   0.073  1.00  0.00     0.012 C 
ENDROOT
BRANCH   1   2
ATOM      2  C   UNL     1     -21.646  69.660   1.269  1.00  0.00     0.061 C 
BRANCH   2   3
ATOM      3  C   UNL     1     -21.287  71.102   0.868  1.00  0.00     0.258 C 
BRANCH   3   4
ATOM      4  N   UNL     1     -21.584  72.064   1.933  1.00  0.00    -0.358 N 
ATOM      5  H   UNL     1     -22.560  72.428   1.835  1.00  0.00     0.344 HD
ATOM      6  H   UNL     1     -21.459  71.620   2.870  1.00  0.00     0.344 HD
ATOM      7  H   UNL     1     -20.918  72.866   1.859  1.00  0.00     0.344 HD
ENDBRANCH   3   4
ENDBRANCH   2   3
ENDBRANCH   1   2
BRANCH   1   8
ATOM      8  C   UNL     1     -20.566  69.087  -0.986  1.00  0.00     0.072 C 
BRANCH   8   9
ATOM      9  C   UNL     1     -19.108  68.736  -0.607  1.00  0.00     0.227 C 
BRANCH   9  10
ATOM     10  N   UNL     1     -18.182  69.248  -1.622  1.00  0.00    -0.350 N 
ATOM     11  H   UNL     1     -18.635  69.259  -2.565  1.00  0.00     0.345 HD
ATOM     12  H   UNL     1     -17.326  68.647  -1.659  1.00  0.00     0.345 HD
ATOM     13  H   UNL     1     -17.885  70.220  -1.374  1.00  0.00     0.345 HD
ENDBRANCH   9  10
BRANCH   9  14
ATOM     14  C   UNL     1     -18.929  67.248  -0.454  1.00  0.00     0.099 C 
ATOM     15  O   UNL     1     -19.101  66.485  -1.440  1.00  0.00    -0.544 OA
ATOM     16  O   UNL     1     -18.568  66.709   0.775  1.00  0.00    -0.544 OA
ENDBRANCH   9  14
ENDBRANCH   8   9
ENDBRANCH   1   8
TORSDOF 7
ENDMDL
MODEL 9
REMARK VINA RESULT:    -4.678      2.093      2.427
REMARK INTER + INTRA:          -6.551
REMARK INTER:                  -6.040
REMARK INTRA:                  -0.510
REMARK UNBOUND:                -0.232
REMARK SMILES [NH3+]CCCC[C@H]([NH3+])C(=O)[O-]
REMARK SMILES IDX 4 1 3 2 2 3 1 4 5 8 6 9 7 10 8 14 9 15 10 16
REMARK H PARENT 1 5 1 6 1 7 7 11 7 12 7 13
REMARK Flexibility Score: inf
ROOT
ATOM      1  C   UNL     1     -21.782  67.912  -0.925  1.00  0.00     0.012 C 
ENDROOT
BRANCH   1   2
ATOM      2  C   UNL     1     -22.487  68.550   0.284  1.00  0.00     0.061 C 
BRANCH   2   3
ATOM      3  C   UNL     1     -21.535  69.408   1.134  1.00  0.00     0.258 C 
BRANCH   3   4
ATOM      4  N   UNL     1     -21.020  68.680   2.296  1.00  0.00    -0.358 N 
ATOM      5  H   UNL     1     -21.795  68.180   2.788  1.00  0.00     0.344 HD
ATOM      6  H   UNL     1     -20.283  68.000   2.004  1.00  0.00     0.344 HD
ATOM      7  H   UNL     1     -20.588  69.364   2.960  1.00  0.00     0.344 HD
ENDBRANCH   3   4
ENDBRANCH   2   3
ENDBRANCH   1   2
BRANCH   1   8
ATOM      8  C   UNL     1     -20.438  68.588  -1.258  1.00  0.00     0.072 C 
BRANCH   8   9
ATOM      9  C   UNL     1     -19.253  67.608  -1.425  1.00  0.00     0.227 C 
BRANCH   9  10
ATOM     10  N   UNL     1     -19.739  66.291  -1.851  1.00  0.00    -0.350 N 
ATOM     11  H   UNL     1     -19.399  65.543  -1.204  1.00  0.00     0.345 HD
ATOM     12  H   UNL     1     -19.402  66.085  -2.821  1.00  0.00     0.345 HD
ATOM     13  H   UNL     1     -20.784  66.285  -1.862  1.00  0.00     0.345 HD
ENDBRANCH   9  10
BRANCH   9  14
ATOM     14  C   UNL     1     -18.471  67.476  -0.144  1.00  0.00     0.099 C 
ATOM     15  O   UNL     1     -17.303  67.939  -0.064  1.00  0.00    -0.544 OA
ATOM     16  O   UNL     1     -19.035  66.846   0.959  1.00  0.00    -0.544 OA
ENDBRANCH   9  14
ENDBRANCH   8   9
ENDBRANCH   1   8
TORSDOF 7
ENDMDL
