MODEL 1
REMARK VINA RESULT:    -4.516      0.000      0.000
REMARK INTER + INTRA:          -5.629
REMARK INTER:                  -5.572
REMARK INTRA:                  -0.057
REMARK UNBOUND:                -0.057
REMARK SMILES CCCCCC(=O)[O-]
REMARK SMILES IDX 4 1 5 2 6 3 7 4 8 5 3 6 2 7 1 8
REMARK H PARENT
REMARK Flexibility Score: inf
ROOT
ATOM      1  C   UNL     1      52.410  20.623  49.517  1.00  0.00     0.006 C 
ENDROOT
BRANCH   1   2
ATOM      2  C   UNL     1      51.355  20.670  50.635  1.00  0.00     0.053 C 
BRANCH   2   3
ATOM      3  C   UNL     1      50.074  19.998  50.247  1.00  0.00     0.041 C 
ATOM      4  O   UNL     1      49.997  18.742  50.232  1.00  0.00    -0.550 OA
ATOM      5  O   UNL     1      48.954  20.758  49.935  1.00  0.00    -0.550 OA
ENDBRANCH   2   3
ENDBRANCH   1   2
BRANCH   1   6
ATOM      6  C   UNL     1      53.863  20.607  50.027  1.00  0.00     0.000 C 
BRANCH   6   7
ATOM      7  C   UNL     1      54.870  20.159  48.959  1.00  0.00    -0.003 C 
ATOM      8  C   UNL     1      55.237  21.312  48.030  1.00  0.00     0.004 C 
ENDBRANCH   6   7
ENDBRANCH   1   6
TORSDOF 4
ENDMDL
MODEL 2
REMARK VINA RESULT:    -4.477      0.238      1.149
REMARK INTER + INTRA:          -5.580
REMARK INTER:                  -5.528
REMARK INTRA:                  -0.053
REMARK UNBOUND:                -0.057
REMARK SMILES CCCCCC(=O)[O-]
REMARK SMILES IDX 4 1 5 2 6 3 7 4 8 5 3 6 2 7 1 8
REMARK H PARENT
REMARK Flexibility Score: inf
ROOT
ATOM      1  C   UNL     1      52.402  20.625  49.557  1.00  0.00     0.006 C 
ENDROOT
BRANCH   1   2
ATOM      2  C   UNL     1      51.454  20.689  50.766  1.00  0.00     0.053 C 
BRANCH   2   3
ATOM      3  C   UNL     1      50.101  20.121  50.467  1.00  0.00     0.041 C 
ATOM      4  O   UNL     1      49.089  20.870  50.451  1.00  0.00    -0.550 OA
ATOM      5  O   UNL     1      49.959  18.771  50.172  1.00  0.00    -0.550 OA
ENDBRANCH   2   3
ENDBRANCH   1   2
BRANCH   1   6
ATOM      6  C   UNL     1      53.896  20.620  49.932  1.00  0.00     0.000 C 
BRANCH   6   7
ATOM      7  C   UNL     1      54.804  20.171  48.779  1.00  0.00    -0.003 C 
ATOM      8  C   UNL     1      55.271  21.363  47.949  1.00  0.00     0.004 C 
ENDBRANCH   6   7
ENDBRANCH   1   6
TORSDOF 4
ENDMDL
MODEL 3
REMARK VINA RESULT:    -4.250      0.951      1.374
REMARK INTER + INTRA:          -5.301
REMARK INTER:                  -5.255
REMARK INTRA:                  -0.046
REMARK UNBOUND:                -0.057
REMARK SMILES CCCCCC(=O)[O-]
REMARK SMILES IDX 4 1 5 2 6 3 7 4 8 5 3 6 2 7 1 8
REMARK H PARENT
REMARK Flexibility Score: inf
ROOT
ATOM      1  C   UNL     1      51.996  20.548  49.819  1.00  0.00     0.006 C 
ENDROOT
BRANCH   1   2
ATOM      2  C   UNL     1      51.083  20.663  51.052  1.00  0.00     0.053 C 
BRANCH   2   3
ATOM      3  C   UNL     1      49.688  21.078  50.697  1.00  0.00     0.041 C 
ATOM      4  O   UNL     1      49.088  21.939  51.393  1.00  0.00    -0.550 OA
ATOM      5  O   UNL     1      49.062  20.541  49.580  1.00  0.00    -0.550 OA
ENDBRANCH   2   3
ENDBRANCH   1   2
BRANCH   1   6
ATOM      6  C   UNL     1      53.482  20.825  50.113  1.00  0.00     0.000 C 
BRANCH   6   7
ATOM      7  C   UNL     1      54.427  20.182  49.089  1.00  0.00    -0.003 C 
ATOM      8  C   UNL     1      55.062  21.237  48.188  1.00  0.00     0.004 C 
ENDBRANCH   6   7
ENDBRANCH   1   6
TORSDOF 4
ENDMDL
MODEL 4
REMARK VINA RESULT:    -4.209      1.808      1.928
REMARK INTER + INTRA:          -5.250
REMARK INTER:                  -5.136
REMARK INTRA:                  -0.114
REMARK UNBOUND:                -0.057
REMARK SMILES CCCCCC(=O)[O-]
REMARK SMILES IDX 4 1 5 2 6 3 7 4 8 5 3 6 2 7 1 8
REMARK H PARENT
REMARK Flexibility Score: inf
ROOT
ATOM      1  C   UNL     1      52.243  20.670  49.550  1.00  0.00     0.006 C 
ENDROOT
BRANCH   1   2
ATOM      2  C   UNL     1      51.200  20.293  50.615  1.00  0.00     0.053 C 
BRANCH   2   3
ATOM      3  C   UNL     1      51.248  21.194  51.811  1.00  0.00     0.041 C 
ATOM      4  O   UNL     1      51.502  20.721  52.950  1.00  0.00    -0.550 OA
ATOM      5  O   UNL     1      51.047  22.561  51.665  1.00  0.00    -0.550 OA
ENDBRANCH   2   3
ENDBRANCH   1   2
BRANCH   1   6
ATOM      6  C   UNL     1      53.698  20.608  50.050  1.00  0.00     0.000 C 
BRANCH   6   7
ATOM      7  C   UNL     1      54.683  20.120  48.978  1.00  0.00    -0.003 C 
ATOM      8  C   UNL     1      55.192  21.281  48.129  1.00  0.00     0.004 C 
ENDBRANCH   6   7
ENDBRANCH   1   6
TORSDOF 4
ENDMDL
MODEL 5
REMARK VINA RESULT:    -4.145      1.728      2.114
REMARK INTER + INTRA:          -5.172
REMARK INTER:                  -5.106
REMARK INTRA:                  -0.065
REMARK UNBOUND:                -0.057
REMARK SMILES CCCCCC(=O)[O-]
REMARK SMILES IDX 4 1 5 2 6 3 7 4 8 5 3 6 2 7 1 8
REMARK H PARENT
REMARK Flexibility Score: inf
ROOT
ATOM      1  C   UNL     1      53.067  20.923  50.072  1.00  0.00     0.006 C 
ENDROOT
BRANCH   1   2
ATOM      2  C   UNL     1      51.565  20.685  50.304  1.00  0.00     0.053 C 
BRANCH   2   3
ATOM      3  C   UNL     1      51.092  21.234  51.614  1.00  0.00     0.041 C 
ATOM      4  O   UNL     1      50.309  22.220  51.641  1.00  0.00    -0.550 OA
ATOM      5  O   UNL     1      51.485  20.637  52.805  1.00  0.00    -0.550 OA
ENDBRANCH   2   3
ENDBRANCH   1   2
BRANCH   1   6
ATOM      6  C   UNL     1      53.721  19.910  49.114  1.00  0.00     0.000 C 
BRANCH   6   7
ATOM      7  C   UNL     1      55.194  20.225  48.819  1.00  0.00    -0.003 C 
ATOM      8  C   UNL     1      55.325  21.453  47.923  1.00  0.00     0.004 C 
ENDBRANCH   6   7
ENDBRANCH   1   6
TORSDOF 4
ENDMDL
MODEL 6
REMARK VINA RESULT:    -3.953      3.095      4.691
REMARK INTER + INTRA:          -4.934
REMARK INTER:                  -4.851
REMARK INTRA:                  -0.083
REMARK UNBOUND:                -0.057
REMARK SMILES CCCCCC(=O)[O-]
REMARK SMILES IDX 4 1 5 2 6 3 7 4 8 5 3 6 2 7 1 8
REMARK H PARENT
REMARK Flexibility Score: inf
ROOT
ATOM      1  C   UNL     1      52.427  20.584  49.534  1.00  0.00     0.006 C 
ENDROOT
BRANCH   1   2
ATOM      2  C   UNL     1      53.881  20.640  50.032  1.00  0.00     0.053 C 
BRANCH   2   3
ATOM      3  C   UNL     1      54.875  20.474  48.924  1.00  0.00     0.041 C 
ATOM      4  O   UNL     1      55.720  19.541  48.966  1.00  0.00    -0.550 OA
ATOM      5  O   UNL     1      54.848  21.325  47.827  1.00  0.00    -0.550 OA
ENDBRANCH   2   3
ENDBRANCH   1   2
BRANCH   1   6
ATOM      6  C   UNL     1      51.391  21.046  50.576  1.00  0.00     0.000 C 
BRANCH   6   7
ATOM      7  C   UNL     1      49.981  20.505  50.302  1.00  0.00    -0.003 C 
ATOM      8  C   UNL     1      49.996  18.988  50.139  1.00  0.00     0.004 C 
ENDBRANCH   6   7
ENDBRANCH   1   6
TORSDOF 4
ENDMDL
MODEL 7
REMARK VINA RESULT:    -3.661      3.191      4.758
REMARK INTER + INTRA:          -4.573
REMARK INTER:                  -4.464
REMARK INTRA:                  -0.109
REMARK UNBOUND:                -0.057
REMARK SMILES CCCCCC(=O)[O-]
REMARK SMILES IDX 4 1 5 2 6 3 7 4 8 5 3 6 2 7 1 8
REMARK H PARENT
REMARK Flexibility Score: inf
ROOT
ATOM      1  C   UNL     1      52.476  20.354  49.630  1.00  0.00     0.006 C 
ENDROOT
BRANCH   1   2
ATOM      2  C   UNL     1      53.856  20.985  49.887  1.00  0.00     0.053 C 
BRANCH   2   3
ATOM      3  C   UNL     1      54.848  20.655  48.814  1.00  0.00     0.041 C 
ATOM      4  O   UNL     1      54.921  21.368  47.779  1.00  0.00    -0.550 OA
ATOM      5  O   UNL     1      55.716  19.582  48.971  1.00  0.00    -0.550 OA
ENDBRANCH   2   3
ENDBRANCH   1   2
BRANCH   1   6
ATOM      6  C   UNL     1      51.375  20.849  50.586  1.00  0.00     0.000 C 
BRANCH   6   7
ATOM      7  C   UNL     1      51.928  21.620  51.793  1.00  0.00    -0.003 C 
ATOM      8  C   UNL     1      51.706  20.845  53.088  1.00  0.00     0.004 C 
ENDBRANCH   6   7
ENDBRANCH   1   6
TORSDOF 4
ENDMDL
MODEL 8
REMARK VINA RESULT:    -3.484      1.505      2.259
REMARK INTER + INTRA:          -4.355
REMARK INTER:                  -4.218
REMARK INTRA:                  -0.138
REMARK UNBOUND:                -0.057
REMARK SMILES CCCCCC(=O)[O-]
REMARK SMILES IDX 4 1 5 2 6 3 7 4 8 5 3 6 2 7 1 8
REMARK H PARENT
REMARK Flexibility Score: inf
ROOT
ATOM      1  C   UNL     1      52.216  20.334  49.826  1.00  0.00     0.006 C 
ENDROOT
BRANCH   1   2
ATOM      2  C   UNL     1      50.838  20.996  49.999  1.00  0.00     0.053 C 
BRANCH   2   3
ATOM      3  C   UNL     1      49.730  19.996  50.120  1.00  0.00     0.041 C 
ATOM      4  O   UNL     1      49.994  18.770  50.233  1.00  0.00    -0.550 OA
ATOM      5  O   UNL     1      48.407  20.417  50.142  1.00  0.00    -0.550 OA
ENDBRANCH   2   3
ENDBRANCH   1   2
BRANCH   1   6
ATOM      6  C   UNL     1      53.354  21.054  50.572  1.00  0.00     0.000 C 
BRANCH   6   7
ATOM      7  C   UNL     1      52.946  21.534  51.972  1.00  0.00    -0.003 C 
ATOM      8  C   UNL     1      53.291  23.007  52.170  1.00  0.00     0.004 C 
ENDBRANCH   6   7
ENDBRANCH   1   6
TORSDOF 4
ENDMDL
MODEL 9
REMARK VINA RESULT:    -3.432      2.890      4.076
REMARK INTER + INTRA:          -4.291
REMARK INTER:                  -4.086
REMARK INTRA:                  -0.205
REMARK UNBOUND:                -0.057
REMARK SMILES CCCCCC(=O)[O-]
REMARK SMILES IDX 4 1 5 2 6 3 7 4 8 5 3 6 2 7 1 8
REMARK H PARENT
REMARK Flexibility Score: inf
ROOT
ATOM      1  C   UNL     1      53.357  21.151  50.742  1.00  0.00     0.006 C 
ENDROOT
BRANCH   1   2
ATOM      2  C   UNL     1      52.617  21.971  51.813  1.00  0.00     0.053 C 
BRANCH   2   3
ATOM      3  C   UNL     1      52.608  21.296  53.151  1.00  0.00     0.041 C 
ATOM      4  O   UNL     1      51.638  20.567  53.485  1.00  0.00    -0.550 OA
ATOM      5  O   UNL     1      53.686  21.443  54.014  1.00  0.00    -0.550 OA
ENDBRANCH   2   3
ENDBRANCH   1   2
BRANCH   1   6
ATOM      6  C   UNL     1      52.426  20.472  49.720  1.00  0.00     0.000 C 
BRANCH   6   7
ATOM      7  C   UNL     1      50.942  20.783  49.959  1.00  0.00    -0.003 C 
ATOM      8  C   UNL     1      50.143  19.505  50.194  1.00  0.00     0.004 C 
ENDBRANCH   6   7
ENDBRANCH   1   6
TORSDOF 4
ENDMDL
