MODEL 1
REMARK VINA RESULT:    -9.852      0.000      0.000
REMARK INTER + INTRA:         -16.304
REMARK INTER:                 -15.612
REMARK INTRA:                  -0.692
REMARK UNBOUND:                -0.692
REMARK SMILES C[C@@H]1O[C@@H](O[C@@H]2CC[C@@]3(C)[C@H](CC[C@@]4(C)[C@@H]3C=C[C@@]35OC[C@]6(CCC(C)(C)C[C@H]63)[C@@H](O)C[C@@]45C)[C@@]2(C)CO)[C@@H](O)[C@@H](O[C@@H]2O[C@@H](CO)[C@H](O)[C@@H](O)[C@@H]2O)[C@@H]1O
REMARK SMILES IDX 1 1 2 2 54 3 41 4 39 5 4 6 3 7 55 8 42 10 43 11 52 12 44 13
REMARK SMILES IDX 50 14 45 15 48 16 53 17 51 19 46 21 47 22 49 24 5 26 6 27
REMARK SMILES IDX 7 28 35 29 8 30 11 31 36 32 9 33 12 34 10 35 16 36 13 37
REMARK SMILES IDX 14 38 17 39 15 40 33 41 18 42 19 43 32 44 34 45 29 46 20 47
REMARK SMILES IDX 30 48 22 49 28 50 21 51 23 52 25 53 24 54 26 55 27 56 37 57
REMARK SMILES IDX 38 58 31 60 40 62
REMARK H PARENT 55 9 53 18 51 20 47 23 49 25 38 59 31 61 40 63
REMARK Flexibility Score: inf
ROOT
ATOM      1  C   UNL     1      34.981  55.062  -1.755  1.00  0.00     0.041 C 
ATOM      2  C   UNL     1      35.378  56.118  -0.742  1.00  0.00     0.150 C 
ATOM      3  C   UNL     1      34.492  55.760   0.490  1.00  0.00     0.175 C 
ATOM      4  C   UNL     1      33.972  57.204   0.971  1.00  0.00     0.186 C 
ATOM      5  C   UNL     1      35.442  57.819   1.449  1.00  0.00     0.202 C 
ATOM      6  C   UNL     1      36.782  56.953   0.914  1.00  0.00     0.282 C 
ATOM      7  O   UNL     1      36.781  56.363  -0.408  1.00  0.00    -0.344 OA
ENDROOT
BRANCH   3   8
ATOM      8  O   UNL     1      35.175  54.694   1.010  1.00  0.00    -0.388 OA
ATOM      9  H   UNL     1      34.871  54.620   1.958  1.00  0.00     0.211 HD
ENDBRANCH   3   8
BRANCH   4  10
ATOM     10  O   UNL     1      33.351  58.044  -0.114  1.00  0.00    -0.341 OA
BRANCH  10  11
ATOM     11  C   UNL     1      32.319  58.924   0.295  1.00  0.00     0.282 C 
ATOM     12  C   UNL     1      31.669  59.832  -0.878  1.00  0.00     0.202 C 
ATOM     13  O   UNL     1      31.366  58.240   1.013  1.00  0.00    -0.341 OA
ATOM     14  C   UNL     1      30.461  59.222  -1.733  1.00  0.00     0.179 C 
ATOM     15  C   UNL     1      30.135  57.840   0.320  1.00  0.00     0.178 C 
ATOM     16  C   UNL     1      29.371  58.491  -0.901  1.00  0.00     0.177 C 
BRANCH  12  17
ATOM     17  O   UNL     1      32.648  60.266  -1.758  1.00  0.00    -0.385 OA
ATOM     18  H   UNL     1      33.379  60.783  -1.340  1.00  0.00     0.211 HD
ENDBRANCH  12  17
BRANCH  14  19
ATOM     19  O   UNL     1      29.971  60.294  -2.525  1.00  0.00    -0.387 OA
ATOM     20  H   UNL     1      29.105  59.971  -2.932  1.00  0.00     0.211 HD
ENDBRANCH  14  19
BRANCH  15  21
ATOM     21  C   UNL     1      29.340  58.801   1.403  1.00  0.00     0.191 C 
BRANCH  21  22
ATOM     22  O   UNL     1      27.888  58.796   1.464  1.00  0.00    -0.394 OA
ATOM     23  H   UNL     1      27.614  59.746   1.308  1.00  0.00     0.210 HD
ENDBRANCH  21  22
ENDBRANCH  15  21
BRANCH  16  24
ATOM     24  O   UNL     1      28.890  57.403  -1.703  1.00  0.00    -0.387 OA
ATOM     25  H   UNL     1      29.703  56.893  -2.047  1.00  0.00     0.211 HD
ENDBRANCH  16  24
ENDBRANCH  10  11
ENDBRANCH   4  10
BRANCH   6  26
ATOM     26  O   UNL     1      38.100  57.400   1.161  1.00  0.00    -0.346 OA
BRANCH  26  27
ATOM     27  C   UNL     1      39.103  56.318   1.073  1.00  0.00     0.130 C 
ATOM     28  C   UNL     1      38.330  55.251   1.863  1.00  0.00     0.033 C 
ATOM     29  C   UNL     1      40.607  56.530   1.763  1.00  0.00     0.020 C 
ATOM     30  C   UNL     1      38.089  55.582   3.346  1.00  0.00     0.010 C 
ATOM     31  C   UNL     1      40.318  56.648   3.314  1.00  0.00     0.006 C 
ATOM     32  C   UNL     1      41.571  57.722   1.478  1.00  0.00     0.017 C 
ATOM     33  C   UNL     1      39.409  55.705   4.218  1.00  0.00    -0.022 C 
ATOM     34  C   UNL     1      39.654  58.206   3.613  1.00  0.00     0.005 C 
ATOM     35  C   UNL     1      39.854  54.235   4.392  1.00  0.00     0.012 C 
ATOM     36  C   UNL     1      39.584  56.368   5.727  1.00  0.00     0.024 C 
ATOM     37  C   UNL     1      38.546  58.535   4.671  1.00  0.00     0.008 C 
ATOM     38  C   UNL     1      38.805  57.790   6.039  1.00  0.00    -0.017 C 
ATOM     39  C   UNL     1      41.065  56.536   6.032  1.00  0.00    -0.024 C 
ATOM     40  C   UNL     1      37.489  57.310   6.587  1.00  0.00     0.013 C 
ATOM     41  C   UNL     1      39.634  58.734   7.127  1.00  0.00     0.009 C 
ATOM     42  C   UNL     1      41.771  57.670   6.118  1.00  0.00     0.005 C 
ATOM     43  C   UNL     1      41.132  58.939   6.644  1.00  0.00     0.096 C 
ATOM     44  C   UNL     1      39.062  60.205   7.405  1.00  0.00     0.043 C 
ATOM     45  C   UNL     1      39.704  57.998   8.495  1.00  0.00     0.015 C 
ATOM     46  C   UNL     1      41.241  60.205   5.713  1.00  0.00     0.037 C 
ATOM     47  O   UNL     1      42.051  59.266   7.752  1.00  0.00    -0.369 OA
ATOM     48  C   UNL     1      40.061  61.262   7.782  1.00  0.00     0.124 C 
ATOM     49  C   UNL     1      41.422  61.330   6.789  1.00  0.00     0.026 C 
ATOM     50  C   UNL     1      42.137  60.356   4.468  1.00  0.00     0.014 C 
ATOM     51  C   UNL     1      42.456  60.554   7.603  1.00  0.00     0.171 C 
ATOM     52  C   UNL     1      41.946  62.718   6.125  1.00  0.00     0.013 C 
ATOM     53  C   UNL     1      41.934  61.681   3.619  1.00  0.00    -0.035 C 
ATOM     54  C   UNL     1      41.400  62.847   4.645  1.00  0.00     0.007 C 
ATOM     55  C   UNL     1      40.879  61.731   2.373  1.00  0.00     0.011 C 
ATOM     56  C   UNL     1      43.343  61.939   2.955  1.00  0.00     0.011 C 
BRANCH  29  57
ATOM     57  C   UNL     1      41.553  55.316   1.472  1.00  0.00     0.165 C 
BRANCH  57  58
ATOM     58  O   UNL     1      42.587  55.567   0.555  1.00  0.00    -0.396 OA
ATOM     59  H   UNL     1      42.967  56.450   0.828  1.00  0.00     0.210 HD
ENDBRANCH  57  58
ENDBRANCH  29  57
BRANCH  48  60
ATOM     60  O   UNL     1      39.538  62.544   7.960  1.00  0.00    -0.392 OA
ATOM     61  H   UNL     1      39.773  62.801   8.917  1.00  0.00     0.210 HD
ENDBRANCH  48  60
ENDBRANCH  26  27
ENDBRANCH   6  26
BRANCH   5  62
ATOM     62  O   UNL     1      35.577  59.155   1.264  1.00  0.00    -0.385 OA
ATOM     63  H   UNL     1      35.939  59.518   2.147  1.00  0.00     0.211 HD
ENDBRANCH   5  62
TORSDOF 14
ENDMDL
MODEL 2
REMARK VINA RESULT:    -8.425      1.477      2.260
REMARK INTER + INTRA:         -14.042
REMARK INTER:                 -13.847
REMARK INTRA:                  -0.195
REMARK UNBOUND:                -0.692
REMARK SMILES C[C@@H]1O[C@@H](O[C@@H]2CC[C@@]3(C)[C@H](CC[C@@]4(C)[C@@H]3C=C[C@@]35OC[C@]6(CCC(C)(C)C[C@H]63)[C@@H](O)C[C@@]45C)[C@@]2(C)CO)[C@@H](O)[C@@H](O[C@@H]2O[C@@H](CO)[C@H](O)[C@@H](O)[C@@H]2O)[C@@H]1O
REMARK SMILES IDX 1 1 2 2 54 3 41 4 39 5 4 6 3 7 55 8 42 10 43 11 52 12 44 13
REMARK SMILES IDX 50 14 45 15 48 16 53 17 51 19 46 21 47 22 49 24 5 26 6 27
REMARK SMILES IDX 7 28 35 29 8 30 11 31 36 32 9 33 12 34 10 35 16 36 13 37
REMARK SMILES IDX 14 38 17 39 15 40 33 41 18 42 19 43 32 44 34 45 29 46 20 47
REMARK SMILES IDX 30 48 22 49 28 50 21 51 23 52 25 53 24 54 26 55 27 56 37 57
REMARK SMILES IDX 38 58 31 60 40 62
REMARK H PARENT 55 9 53 18 51 20 47 23 49 25 38 59 31 61 40 63
REMARK Flexibility Score: inf
ROOT
ATOM      1  C   UNL     1      34.561  55.012  -2.118  1.00  0.00     0.041 C 
ATOM      2  C   UNL     1      34.870  55.997  -1.008  1.00  0.00     0.150 C 
ATOM      3  C   UNL     1      33.984  55.480   0.166  1.00  0.00     0.175 C 
ATOM      4  C   UNL     1      33.366  56.841   0.756  1.00  0.00     0.186 C 
ATOM      5  C   UNL     1      34.784  57.500   1.322  1.00  0.00     0.202 C 
ATOM      6  C   UNL     1      36.186  56.767   0.749  1.00  0.00     0.282 C 
ATOM      7  O   UNL     1      36.248  56.297  -0.618  1.00  0.00    -0.344 OA
ENDROOT
BRANCH   3   8
ATOM      8  O   UNL     1      34.722  54.415   0.609  1.00  0.00    -0.388 OA
ATOM      9  H   UNL     1      34.169  53.607   0.411  1.00  0.00     0.211 HD
ENDBRANCH   3   8
BRANCH   4  10
ATOM     10  O   UNL     1      32.715  57.734  -0.268  1.00  0.00    -0.341 OA
BRANCH  10  11
ATOM     11  C   UNL     1      31.642  58.533   0.197  1.00  0.00     0.282 C 
ATOM     12  C   UNL     1      31.156  59.705  -0.810  1.00  0.00     0.202 C 
ATOM     13  O   UNL     1      30.600  57.737   0.611  1.00  0.00    -0.341 OA
ATOM     14  C   UNL     1      30.068  59.345  -1.929  1.00  0.00     0.179 C 
ATOM     15  C   UNL     1      29.469  57.547  -0.306  1.00  0.00     0.178 C 
ATOM     16  C   UNL     1      28.875  58.483  -1.433  1.00  0.00     0.177 C 
BRANCH  12  17
ATOM     17  O   UNL     1      32.243  60.293  -1.436  1.00  0.00    -0.385 OA
ATOM     18  H   UNL     1      32.880  59.655  -1.843  1.00  0.00     0.211 HD
ENDBRANCH  12  17
BRANCH  14  19
ATOM     19  O   UNL     1      29.692  60.585  -2.511  1.00  0.00    -0.387 OA
ATOM     20  H   UNL     1      30.443  61.230  -2.311  1.00  0.00     0.211 HD
ENDBRANCH  14  19
BRANCH  15  21
ATOM     21  C   UNL     1      28.542  58.264   0.858  1.00  0.00     0.191 C 
BRANCH  21  22
ATOM     22  O   UNL     1      28.883  58.119   2.263  1.00  0.00    -0.394 OA
ATOM     23  H   UNL     1      28.165  58.607   2.761  1.00  0.00     0.210 HD
ENDBRANCH  21  22
ENDBRANCH  15  21
BRANCH  16  24
ATOM     24  O   UNL     1      28.500  57.621  -2.517  1.00  0.00    -0.387 OA
ATOM     25  H   UNL     1      27.938  56.865  -2.127  1.00  0.00     0.211 HD
ENDBRANCH  16  24
ENDBRANCH  10  11
ENDBRANCH   4  10
BRANCH   6  26
ATOM     26  O   UNL     1      37.468  57.270   1.067  1.00  0.00    -0.346 OA
BRANCH  26  27
ATOM     27  C   UNL     1      38.470  57.008   0.012  1.00  0.00     0.130 C 
ATOM     28  C   UNL     1      38.467  55.473   0.099  1.00  0.00     0.033 C 
ATOM     29  C   UNL     1      40.031  57.565   0.201  1.00  0.00     0.020 C 
ATOM     30  C   UNL     1      38.983  54.892   1.425  1.00  0.00     0.010 C 
ATOM     31  C   UNL     1      40.587  56.771   1.451  1.00  0.00     0.006 C 
ATOM     32  C   UNL     1      40.432  59.043   0.497  1.00  0.00     0.017 C 
ATOM     33  C   UNL     1      40.506  55.207   1.737  1.00  0.00    -0.022 C 
ATOM     34  C   UNL     1      39.879  57.447   2.866  1.00  0.00     0.005 C 
ATOM     35  C   UNL     1      41.266  54.265   0.776  1.00  0.00     0.012 C 
ATOM     36  C   UNL     1      41.311  55.059   3.178  1.00  0.00     0.024 C 
ATOM     37  C   UNL     1      39.456  56.644   4.144  1.00  0.00     0.008 C 
ATOM     38  C   UNL     1      40.543  55.573   4.547  1.00  0.00    -0.017 C 
ATOM     39  C   UNL     1      42.659  55.756   3.075  1.00  0.00    -0.024 C 
ATOM     40  C   UNL     1      39.844  54.320   5.000  1.00  0.00     0.013 C 
ATOM     41  C   UNL     1      41.607  56.149   5.686  1.00  0.00     0.009 C 
ATOM     42  C   UNL     1      43.055  56.889   3.668  1.00  0.00     0.005 C 
ATOM     43  C   UNL     1      42.546  57.257   5.047  1.00  0.00     0.096 C 
ATOM     44  C   UNL     1      40.982  56.815   7.002  1.00  0.00     0.043 C 
ATOM     45  C   UNL     1      42.537  54.991   6.149  1.00  0.00     0.015 C 
ATOM     46  C   UNL     1      41.887  58.681   5.183  1.00  0.00     0.037 C 
ATOM     47  O   UNL     1      43.821  57.415   5.773  1.00  0.00    -0.369 OA
ATOM     48  C   UNL     1      41.789  57.895   7.665  1.00  0.00     0.124 C 
ATOM     49  C   UNL     1      42.374  59.080   6.619  1.00  0.00     0.026 C 
ATOM     50  C   UNL     1      41.939  59.821   4.146  1.00  0.00     0.014 C 
ATOM     51  C   UNL     1      43.814  58.626   6.388  1.00  0.00     0.171 C 
ATOM     52  C   UNL     1      42.172  60.668   6.901  1.00  0.00     0.013 C 
ATOM     53  C   UNL     1      41.053  61.098   4.470  1.00  0.00    -0.035 C 
ATOM     54  C   UNL     1      40.915  61.202   6.103  1.00  0.00     0.007 C 
ATOM     55  C   UNL     1      39.515  61.215   3.931  1.00  0.00     0.011 C 
ATOM     56  C   UNL     1      41.812  62.288   3.763  1.00  0.00     0.011 C 
BRANCH  29  57
ATOM     57  C   UNL     1      40.906  57.275  -1.066  1.00  0.00     0.165 C 
BRANCH  57  58
ATOM     58  O   UNL     1      42.010  58.124  -1.240  1.00  0.00    -0.396 OA
ATOM     59  H   UNL     1      42.702  57.785  -0.603  1.00  0.00     0.210 HD
ENDBRANCH  57  58
ENDBRANCH  29  57
BRANCH  48  60
ATOM     60  O   UNL     1      41.189  58.494   8.775  1.00  0.00    -0.392 OA
ATOM     61  H   UNL     1      41.581  59.433   8.820  1.00  0.00     0.210 HD
ENDBRANCH  48  60
ENDBRANCH  26  27
ENDBRANCH   6  26
BRANCH   5  62
ATOM     62  O   UNL     1      34.839  58.853   1.257  1.00  0.00    -0.385 OA
ATOM     63  H   UNL     1      35.400  59.064   0.431  1.00  0.00     0.211 HD
ENDBRANCH   5  62
TORSDOF 14
ENDMDL
MODEL 3
REMARK VINA RESULT:    -8.354      1.997      3.525
REMARK INTER + INTRA:         -13.930
REMARK INTER:                 -12.287
REMARK INTRA:                  -1.644
REMARK UNBOUND:                -0.692
REMARK SMILES C[C@@H]1O[C@@H](O[C@@H]2CC[C@@]3(C)[C@H](CC[C@@]4(C)[C@@H]3C=C[C@@]35OC[C@]6(CCC(C)(C)C[C@H]63)[C@@H](O)C[C@@]45C)[C@@]2(C)CO)[C@@H](O)[C@@H](O[C@@H]2O[C@@H](CO)[C@H](O)[C@@H](O)[C@@H]2O)[C@@H]1O
REMARK SMILES IDX 1 1 2 2 54 3 41 4 39 5 4 6 3 7 55 8 42 10 43 11 52 12 44 13
REMARK SMILES IDX 50 14 45 15 48 16 53 17 51 19 46 21 47 22 49 24 5 26 6 27
REMARK SMILES IDX 7 28 35 29 8 30 11 31 36 32 9 33 12 34 10 35 16 36 13 37
REMARK SMILES IDX 14 38 17 39 15 40 33 41 18 42 19 43 32 44 34 45 29 46 20 47
REMARK SMILES IDX 30 48 22 49 28 50 21 51 23 52 25 53 24 54 26 55 27 56 37 57
REMARK SMILES IDX 38 58 31 60 40 62
REMARK H PARENT 55 9 53 18 51 20 47 23 49 25 38 59 31 61 40 63
REMARK Flexibility Score: inf
ROOT
ATOM      1  C   UNL     1      37.778  58.357  -1.908  1.00  0.00     0.041 C 
ATOM      2  C   UNL     1      37.199  58.113  -0.528  1.00  0.00     0.150 C 
ATOM      3  C   UNL     1      36.634  56.665  -0.645  1.00  0.00     0.175 C 
ATOM      4  C   UNL     1      35.209  56.792   0.088  1.00  0.00     0.186 C 
ATOM      5  C   UNL     1      35.776  57.091   1.623  1.00  0.00     0.202 C 
ATOM      6  C   UNL     1      37.404  57.510   1.709  1.00  0.00     0.282 C 
ATOM      7  O   UNL     1      37.991  58.341   0.681  1.00  0.00    -0.344 OA
ENDROOT
BRANCH   3   8
ATOM      8  O   UNL     1      37.779  55.922  -0.534  1.00  0.00    -0.388 OA
ATOM      9  H   UNL     1      38.451  56.381  -1.112  1.00  0.00     0.211 HD
ENDBRANCH   3   8
BRANCH   4  10
ATOM     10  O   UNL     1      34.343  57.919  -0.408  1.00  0.00    -0.341 OA
BRANCH  10  11
ATOM     11  C   UNL     1      33.032  57.566  -0.811  1.00  0.00     0.282 C 
ATOM     12  C   UNL     1      31.851  57.967   0.221  1.00  0.00     0.202 C 
ATOM     13  O   UNL     1      32.787  58.021  -2.086  1.00  0.00    -0.341 OA
ATOM     14  C   UNL     1      31.213  59.433   0.117  1.00  0.00     0.179 C 
ATOM     15  C   UNL     1      32.015  59.261  -2.240  1.00  0.00     0.178 C 
ATOM     16  C   UNL     1      30.901  59.912  -1.327  1.00  0.00     0.177 C 
BRANCH  12  17
ATOM     17  O   UNL     1      32.256  57.763   1.530  1.00  0.00    -0.385 OA
ATOM     18  H   UNL     1      32.103  58.531   2.134  1.00  0.00     0.211 HD
ENDBRANCH  12  17
BRANCH  14  19
ATOM     19  O   UNL     1      30.089  59.425   0.986  1.00  0.00    -0.387 OA
ATOM     20  H   UNL     1      30.209  60.211   1.608  1.00  0.00     0.211 HD
ENDBRANCH  14  19
BRANCH  15  21
ATOM     21  C   UNL     1      30.901  58.342  -3.042  1.00  0.00     0.191 C 
BRANCH  21  22
ATOM     22  O   UNL     1      29.569  58.153  -2.491  1.00  0.00    -0.394 OA
ATOM     23  H   UNL     1      29.612  57.289  -1.987  1.00  0.00     0.210 HD
ENDBRANCH  21  22
ENDBRANCH  15  21
BRANCH  16  24
ATOM     24  O   UNL     1      31.131  61.328  -1.359  1.00  0.00    -0.387 OA
ATOM     25  H   UNL     1      31.362  61.580  -2.319  1.00  0.00     0.211 HD
ENDBRANCH  16  24
ENDBRANCH  10  11
ENDBRANCH   4  10
BRANCH   6  26
ATOM     26  O   UNL     1      38.009  57.881   2.931  1.00  0.00    -0.346 OA
BRANCH  26  27
ATOM     27  C   UNL     1      38.353  56.722   3.781  1.00  0.00     0.130 C 
ATOM     28  C   UNL     1      37.558  57.135   5.030  1.00  0.00     0.033 C 
ATOM     29  C   UNL     1      39.944  56.455   4.207  1.00  0.00     0.020 C 
ATOM     30  C   UNL     1      38.048  58.417   5.722  1.00  0.00     0.010 C 
ATOM     31  C   UNL     1      40.329  57.703   5.100  1.00  0.00     0.006 C 
ATOM     32  C   UNL     1      41.137  56.336   3.209  1.00  0.00     0.017 C 
ATOM     33  C   UNL     1      39.516  58.328   6.317  1.00  0.00    -0.022 C 
ATOM     34  C   UNL     1      40.544  59.055   4.060  1.00  0.00     0.005 C 
ATOM     35  C   UNL     1      39.333  57.455   7.579  1.00  0.00     0.012 C 
ATOM     36  C   UNL     1      40.499  59.566   6.814  1.00  0.00     0.024 C 
ATOM     37  C   UNL     1      40.157  60.535   4.399  1.00  0.00     0.008 C 
ATOM     38  C   UNL     1      40.566  60.923   5.874  1.00  0.00    -0.017 C 
ATOM     39  C   UNL     1      41.909  59.036   7.021  1.00  0.00    -0.024 C 
ATOM     40  C   UNL     1      39.477  61.770   6.473  1.00  0.00     0.013 C 
ATOM     41  C   UNL     1      42.052  61.663   5.944  1.00  0.00     0.009 C 
ATOM     42  C   UNL     1      43.003  59.276   6.285  1.00  0.00     0.005 C 
ATOM     43  C   UNL     1      43.200  60.618   5.612  1.00  0.00     0.096 C 
ATOM     44  C   UNL     1      42.299  62.905   4.965  1.00  0.00     0.043 C 
ATOM     45  C   UNL     1      42.309  62.159   7.396  1.00  0.00     0.015 C 
ATOM     46  C   UNL     1      43.476  60.580   4.062  1.00  0.00     0.037 C 
ATOM     47  O   UNL     1      44.509  61.010   6.169  1.00  0.00    -0.369 OA
ATOM     48  C   UNL     1      43.709  63.137   4.503  1.00  0.00     0.124 C 
ATOM     49  C   UNL     1      44.497  61.762   3.929  1.00  0.00     0.026 C 
ATOM     50  C   UNL     1      43.820  59.336   3.220  1.00  0.00     0.014 C 
ATOM     51  C   UNL     1      45.330  61.338   5.138  1.00  0.00     0.171 C 
ATOM     52  C   UNL     1      45.267  61.733   2.499  1.00  0.00     0.013 C 
ATOM     53  C   UNL     1      43.894  59.555   1.649  1.00  0.00    -0.035 C 
ATOM     54  C   UNL     1      44.320  61.119   1.389  1.00  0.00     0.007 C 
ATOM     55  C   UNL     1      42.578  59.338   0.706  1.00  0.00     0.011 C 
ATOM     56  C   UNL     1      44.923  58.467   1.151  1.00  0.00     0.011 C 
BRANCH  29  57
ATOM     57  C   UNL     1      40.111  55.126   5.018  1.00  0.00     0.165 C 
BRANCH  57  58
ATOM     58  O   UNL     1      39.051  54.214   4.902  1.00  0.00    -0.396 OA
ATOM     59  H   UNL     1      38.532  54.519   4.105  1.00  0.00     0.210 HD
ENDBRANCH  57  58
ENDBRANCH  29  57
BRANCH  48  60
ATOM     60  O   UNL     1      43.880  64.193   3.605  1.00  0.00    -0.392 OA
ATOM     61  H   UNL     1      44.559  63.861   2.923  1.00  0.00     0.210 HD
ENDBRANCH  48  60
ENDBRANCH  26  27
ENDBRANCH   6  26
BRANCH   5  62
ATOM     62  O   UNL     1      34.987  57.909   2.363  1.00  0.00    -0.385 OA
ATOM     63  H   UNL     1      34.370  57.290   2.889  1.00  0.00     0.211 HD
ENDBRANCH   5  62
TORSDOF 14
ENDMDL
MODEL 4
REMARK VINA RESULT:    -8.316      2.063      4.543
REMARK INTER + INTRA:         -13.870
REMARK INTER:                 -13.328
REMARK INTRA:                  -0.542
REMARK UNBOUND:                -0.692
REMARK SMILES C[C@@H]1O[C@@H](O[C@@H]2CC[C@@]3(C)[C@H](CC[C@@]4(C)[C@@H]3C=C[C@@]35OC[C@]6(CCC(C)(C)C[C@H]63)[C@@H](O)C[C@@]45C)[C@@]2(C)CO)[C@@H](O)[C@@H](O[C@@H]2O[C@@H](CO)[C@H](O)[C@@H](O)[C@@H]2O)[C@@H]1O
REMARK SMILES IDX 1 1 2 2 54 3 41 4 39 5 4 6 3 7 55 8 42 10 43 11 52 12 44 13
REMARK SMILES IDX 50 14 45 15 48 16 53 17 51 19 46 21 47 22 49 24 5 26 6 27
REMARK SMILES IDX 7 28 35 29 8 30 11 31 36 32 9 33 12 34 10 35 16 36 13 37
REMARK SMILES IDX 14 38 17 39 15 40 33 41 18 42 19 43 32 44 34 45 29 46 20 47
REMARK SMILES IDX 30 48 22 49 28 50 21 51 23 52 25 53 24 54 26 55 27 56 37 57
REMARK SMILES IDX 38 58 31 60 40 62
REMARK H PARENT 55 9 53 18 51 20 47 23 49 25 38 59 31 61 40 63
REMARK Flexibility Score: inf
ROOT
ATOM      1  C   UNL     1      36.464  54.995  -1.646  1.00  0.00     0.041 C 
ATOM      2  C   UNL     1      36.282  55.931  -0.468  1.00  0.00     0.150 C 
ATOM      3  C   UNL     1      35.145  55.243   0.345  1.00  0.00     0.175 C 
ATOM      4  C   UNL     1      34.207  56.485   0.744  1.00  0.00     0.186 C 
ATOM      5  C   UNL     1      35.280  57.257   1.753  1.00  0.00     0.202 C 
ATOM      6  C   UNL     1      36.872  56.723   1.638  1.00  0.00     0.282 C 
ATOM      7  O   UNL     1      37.419  56.354   0.351  1.00  0.00    -0.344 OA
ENDROOT
BRANCH   3   8
ATOM      8  O   UNL     1      35.834  54.239   0.971  1.00  0.00    -0.388 OA
ATOM      9  H   UNL     1      35.684  53.424   0.413  1.00  0.00     0.211 HD
ENDBRANCH   3   8
BRANCH   4  10
ATOM     10  O   UNL     1      33.803  57.367  -0.408  1.00  0.00    -0.341 OA
BRANCH  10  11
ATOM     11  C   UNL     1      32.975  58.470  -0.087  1.00  0.00     0.282 C 
ATOM     12  C   UNL     1      32.621  59.461  -1.318  1.00  0.00     0.202 C 
ATOM     13  O   UNL     1      31.849  58.042   0.577  1.00  0.00    -0.341 OA
ATOM     14  C   UNL     1      31.362  59.109  -2.242  1.00  0.00     0.179 C 
ATOM     15  C   UNL     1      30.604  57.907  -0.190  1.00  0.00     0.178 C 
ATOM     16  C   UNL     1      30.085  58.671  -1.472  1.00  0.00     0.177 C 
BRANCH  12  17
ATOM     17  O   UNL     1      33.725  59.633  -2.138  1.00  0.00    -0.385 OA
ATOM     18  H   UNL     1      34.067  60.560  -2.180  1.00  0.00     0.211 HD
ENDBRANCH  12  17
BRANCH  14  19
ATOM     19  O   UNL     1      31.178  60.237  -3.086  1.00  0.00    -0.387 OA
ATOM     20  H   UNL     1      31.371  59.920  -4.025  1.00  0.00     0.211 HD
ENDBRANCH  14  19
BRANCH  15  21
ATOM     21  C   UNL     1      29.982  59.058   0.818  1.00  0.00     0.191 C 
BRANCH  21  22
ATOM     22  O   UNL     1      28.554  59.108   1.086  1.00  0.00    -0.394 OA
ATOM     23  H   UNL     1      28.405  58.465   1.839  1.00  0.00     0.210 HD
ENDBRANCH  21  22
ENDBRANCH  15  21
BRANCH  16  24
ATOM     24  O   UNL     1      29.420  57.692  -2.284  1.00  0.00    -0.387 OA
ATOM     25  H   UNL     1      28.429  57.720  -2.047  1.00  0.00     0.211 HD
ENDBRANCH  16  24
ENDBRANCH  10  11
ENDBRANCH   4  10
BRANCH   6  26
ATOM     26  O   UNL     1      37.915  57.342   2.364  1.00  0.00    -0.346 OA
BRANCH  26  27
ATOM     27  C   UNL     1      37.722  57.269   3.828  1.00  0.00     0.130 C 
ATOM     28  C   UNL     1      37.193  58.696   4.040  1.00  0.00     0.033 C 
ATOM     29  C   UNL     1      39.038  57.018   4.821  1.00  0.00     0.020 C 
ATOM     30  C   UNL     1      38.198  59.818   3.730  1.00  0.00     0.010 C 
ATOM     31  C   UNL     1      39.934  58.307   4.625  1.00  0.00     0.006 C 
ATOM     32  C   UNL     1      40.055  55.842   4.693  1.00  0.00     0.017 C 
ATOM     33  C   UNL     1      39.482  59.833   4.661  1.00  0.00    -0.022 C 
ATOM     34  C   UNL     1      40.714  58.184   3.097  1.00  0.00     0.005 C 
ATOM     35  C   UNL     1      38.942  60.387   5.999  1.00  0.00     0.012 C 
ATOM     36  C   UNL     1      40.910  60.641   4.429  1.00  0.00     0.024 C 
ATOM     37  C   UNL     1      41.014  59.380   2.129  1.00  0.00     0.008 C 
ATOM     38  C   UNL     1      41.559  60.640   2.909  1.00  0.00    -0.017 C 
ATOM     39  C   UNL     1      41.948  60.121   5.412  1.00  0.00    -0.024 C 
ATOM     40  C   UNL     1      40.953  61.880   2.311  1.00  0.00     0.013 C 
ATOM     41  C   UNL     1      43.219  60.698   2.935  1.00  0.00     0.009 C 
ATOM     42  C   UNL     1      43.032  59.377   5.157  1.00  0.00     0.005 C 
ATOM     43  C   UNL     1      43.793  59.542   3.858  1.00  0.00     0.096 C 
ATOM     44  C   UNL     1      43.979  60.554   1.533  1.00  0.00     0.043 C 
ATOM     45  C   UNL     1      43.674  62.042   3.572  1.00  0.00     0.015 C 
ATOM     46  C   UNL     1      44.017  58.228   3.018  1.00  0.00     0.037 C 
ATOM     47  O   UNL     1      45.145  59.837   4.372  1.00  0.00    -0.369 OA
ATOM     48  C   UNL     1      45.347  59.933   1.563  1.00  0.00     0.124 C 
ATOM     49  C   UNL     1      45.452  58.502   2.447  1.00  0.00     0.026 C 
ATOM     50  C   UNL     1      43.779  56.782   3.492  1.00  0.00     0.014 C 
ATOM     51  C   UNL     1      46.022  58.986   3.780  1.00  0.00     0.171 C 
ATOM     52  C   UNL     1      46.124  57.152   1.842  1.00  0.00     0.013 C 
ATOM     53  C   UNL     1      43.933  55.652   2.387  1.00  0.00    -0.035 C 
ATOM     54  C   UNL     1      44.999  56.200   1.265  1.00  0.00     0.007 C 
ATOM     55  C   UNL     1      42.650  55.152   1.508  1.00  0.00     0.011 C 
ATOM     56  C   UNL     1      44.380  54.373   3.198  1.00  0.00     0.011 C 
BRANCH  29  57
ATOM     57  C   UNL     1      38.612  56.869   6.321  1.00  0.00     0.165 C 
BRANCH  57  58
ATOM     58  O   UNL     1      39.571  57.278   7.262  1.00  0.00    -0.396 OA
ATOM     59  H   UNL     1      40.453  57.099   6.827  1.00  0.00     0.210 HD
ENDBRANCH  57  58
ENDBRANCH  29  57
BRANCH  48  60
ATOM     60  O   UNL     1      45.958  59.769   0.317  1.00  0.00    -0.392 OA
ATOM     61  H   UNL     1      46.425  58.866   0.362  1.00  0.00     0.210 HD
ENDBRANCH  48  60
ENDBRANCH  26  27
ENDBRANCH   6  26
BRANCH   5  62
ATOM     62  O   UNL     1      35.182  58.610   1.747  1.00  0.00    -0.385 OA
ATOM     63  H   UNL     1      35.207  58.881   0.764  1.00  0.00     0.211 HD
ENDBRANCH   5  62
TORSDOF 14
ENDMDL
MODEL 5
REMARK VINA RESULT:    -7.855      2.110      4.914
REMARK INTER + INTRA:         -13.139
REMARK INTER:                 -12.363
REMARK INTRA:                  -0.776
REMARK UNBOUND:                -0.692
REMARK SMILES C[C@@H]1O[C@@H](O[C@@H]2CC[C@@]3(C)[C@H](CC[C@@]4(C)[C@@H]3C=C[C@@]35OC[C@]6(CCC(C)(C)C[C@H]63)[C@@H](O)C[C@@]45C)[C@@]2(C)CO)[C@@H](O)[C@@H](O[C@@H]2O[C@@H](CO)[C@H](O)[C@@H](O)[C@@H]2O)[C@@H]1O
REMARK SMILES IDX 1 1 2 2 54 3 41 4 39 5 4 6 3 7 55 8 42 10 43 11 52 12 44 13
REMARK SMILES IDX 50 14 45 15 48 16 53 17 51 19 46 21 47 22 49 24 5 26 6 27
REMARK SMILES IDX 7 28 35 29 8 30 11 31 36 32 9 33 12 34 10 35 16 36 13 37
REMARK SMILES IDX 14 38 17 39 15 40 33 41 18 42 19 43 32 44 34 45 29 46 20 47
REMARK SMILES IDX 30 48 22 49 28 50 21 51 23 52 25 53 24 54 26 55 27 56 37 57
REMARK SMILES IDX 38 58 31 60 40 62
REMARK H PARENT 55 9 53 18 51 20 47 23 49 25 38 59 31 61 40 63
REMARK Flexibility Score: inf
ROOT
ATOM      1  C   UNL     1      38.502  55.283   0.075  1.00  0.00     0.041 C 
ATOM      2  C   UNL     1      37.719  56.372   0.780  1.00  0.00     0.150 C 
ATOM      3  C   UNL     1      36.446  55.617   1.268  1.00  0.00     0.175 C 
ATOM      4  C   UNL     1      35.272  56.657   0.916  1.00  0.00     0.186 C 
ATOM      5  C   UNL     1      35.707  57.852   1.988  1.00  0.00     0.202 C 
ATOM      6  C   UNL     1      37.253  57.697   2.634  1.00  0.00     0.282 C 
ATOM      7  O   UNL     1      38.336  57.211   1.808  1.00  0.00    -0.344 OA
ENDROOT
BRANCH   3   8
ATOM      8  O   UNL     1      36.931  54.955   2.364  1.00  0.00    -0.388 OA
ATOM      9  H   UNL     1      36.127  54.700   2.899  1.00  0.00     0.211 HD
ENDBRANCH   3   8
BRANCH   4  10
ATOM     10  O   UNL     1      35.281  57.162  -0.503  1.00  0.00    -0.341 OA
BRANCH  10  11
ATOM     11  C   UNL     1      34.018  57.265  -1.135  1.00  0.00     0.282 C 
ATOM     12  C   UNL     1      32.752  56.783  -0.250  1.00  0.00     0.202 C 
ATOM     13  O   UNL     1      33.844  58.530  -1.648  1.00  0.00    -0.341 OA
ATOM     14  C   UNL     1      32.062  57.842   0.733  1.00  0.00     0.179 C 
ATOM     15  C   UNL     1      33.034  59.482  -0.878  1.00  0.00     0.178 C 
ATOM     16  C   UNL     1      31.832  59.252   0.123  1.00  0.00     0.177 C 
BRANCH  12  17
ATOM     17  O   UNL     1      33.073  55.653   0.486  1.00  0.00    -0.385 OA
ATOM     18  H   UNL     1      33.654  55.822   1.268  1.00  0.00     0.211 HD
ENDBRANCH  12  17
BRANCH  14  19
ATOM     19  O   UNL     1      30.881  57.211   1.209  1.00  0.00    -0.387 OA
ATOM     20  H   UNL     1      31.160  56.652   2.002  1.00  0.00     0.211 HD
ENDBRANCH  14  19
BRANCH  15  21
ATOM     21  C   UNL     1      32.019  59.508  -2.180  1.00  0.00     0.191 C 
BRANCH  21  22
ATOM     22  O   UNL     1      31.187  60.671  -2.442  1.00  0.00    -0.394 OA
ATOM     23  H   UNL     1      30.432  60.608  -1.789  1.00  0.00     0.210 HD
ENDBRANCH  21  22
ENDBRANCH  15  21
BRANCH  16  24
ATOM     24  O   UNL     1      32.003  60.202   1.184  1.00  0.00    -0.387 OA
ATOM     25  H   UNL     1      32.652  60.916   0.854  1.00  0.00     0.211 HD
ENDBRANCH  16  24
ENDBRANCH  10  11
ENDBRANCH   4  10
BRANCH   6  26
ATOM     26  O   UNL     1      37.800  58.681   3.489  1.00  0.00    -0.346 OA
BRANCH  26  27
ATOM     27  C   UNL     1      37.872  58.245   4.900  1.00  0.00     0.130 C 
ATOM     28  C   UNL     1      37.490  59.583   5.552  1.00  0.00     0.033 C 
ATOM     29  C   UNL     1      39.326  57.724   5.528  1.00  0.00     0.020 C 
ATOM     30  C   UNL     1      38.496  60.726   5.336  1.00  0.00     0.010 C 
ATOM     31  C   UNL     1      40.258  59.001   5.483  1.00  0.00     0.006 C 
ATOM     32  C   UNL     1      40.219  56.597   4.923  1.00  0.00     0.017 C 
ATOM     33  C   UNL     1      39.926  60.478   5.976  1.00  0.00    -0.022 C 
ATOM     34  C   UNL     1      40.736  59.252   3.850  1.00  0.00     0.005 C 
ATOM     35  C   UNL     1      39.678  60.687   7.487  1.00  0.00     0.012 C 
ATOM     36  C   UNL     1      41.340  61.288   5.677  1.00  0.00     0.024 C 
ATOM     37  C   UNL     1      40.937  60.646   3.164  1.00  0.00     0.008 C 
ATOM     38  C   UNL     1      41.700  61.657   4.107  1.00  0.00    -0.017 C 
ATOM     39  C   UNL     1      42.501  60.515   6.284  1.00  0.00    -0.024 C 
ATOM     40  C   UNL     1      41.082  63.020   3.958  1.00  0.00     0.013 C 
ATOM     41  C   UNL     1      43.337  61.672   3.826  1.00  0.00     0.009 C 
ATOM     42  C   UNL     1      43.467  59.837   5.651  1.00  0.00     0.005 C 
ATOM     43  C   UNL     1      43.989  60.308   4.309  1.00  0.00     0.096 C 
ATOM     44  C   UNL     1      43.818  61.870   2.311  1.00  0.00     0.043 C 
ATOM     45  C   UNL     1      43.992  62.802   4.671  1.00  0.00     0.015 C 
ATOM     46  C   UNL     1      43.966  59.245   3.147  1.00  0.00     0.037 C 
ATOM     47  O   UNL     1      45.429  60.436   4.609  1.00  0.00    -0.369 OA
ATOM     48  C   UNL     1      45.123  61.234   1.923  1.00  0.00     0.124 C 
ATOM     49  C   UNL     1      45.288  59.624   2.394  1.00  0.00     0.026 C 
ATOM     50  C   UNL     1      43.718  57.731   3.291  1.00  0.00     0.014 C 
ATOM     51  C   UNL     1      46.122  59.743   3.669  1.00  0.00     0.171 C 
ATOM     52  C   UNL     1      45.745  58.456   1.360  1.00  0.00     0.013 C 
ATOM     53  C   UNL     1      43.591  56.914   1.936  1.00  0.00    -0.035 C 
ATOM     54  C   UNL     1      44.471  57.705   0.797  1.00  0.00     0.007 C 
ATOM     55  C   UNL     1      42.138  56.679   1.227  1.00  0.00     0.011 C 
ATOM     56  C   UNL     1      44.089  55.463   2.308  1.00  0.00     0.011 C 
BRANCH  29  57
ATOM     57  C   UNL     1      39.170  57.210   7.000  1.00  0.00     0.165 C 
BRANCH  57  58
ATOM     58  O   UNL     1      40.315  57.331   7.803  1.00  0.00    -0.396 OA
ATOM     59  H   UNL     1      41.026  57.679   7.192  1.00  0.00     0.210 HD
ENDBRANCH  57  58
ENDBRANCH  29  57
BRANCH  48  60
ATOM     60  O   UNL     1      45.484  61.376   0.581  1.00  0.00    -0.392 OA
ATOM     61  H   UNL     1      45.706  62.362   0.465  1.00  0.00     0.210 HD
ENDBRANCH  48  60
ENDBRANCH  26  27
ENDBRANCH   6  26
BRANCH   5  62
ATOM     62  O   UNL     1      35.444  59.111   1.561  1.00  0.00    -0.385 OA
ATOM     63  H   UNL     1      34.427  59.169   1.491  1.00  0.00     0.211 HD
ENDBRANCH   5  62
TORSDOF 14
ENDMDL
MODEL 6
REMARK VINA RESULT:    -7.815      1.643      2.313
REMARK INTER + INTRA:         -13.075
REMARK INTER:                 -12.471
REMARK INTRA:                  -0.605
REMARK UNBOUND:                -0.692
REMARK SMILES C[C@@H]1O[C@@H](O[C@@H]2CC[C@@]3(C)[C@H](CC[C@@]4(C)[C@@H]3C=C[C@@]35OC[C@]6(CCC(C)(C)C[C@H]63)[C@@H](O)C[C@@]45C)[C@@]2(C)CO)[C@@H](O)[C@@H](O[C@@H]2O[C@@H](CO)[C@H](O)[C@@H](O)[C@@H]2O)[C@@H]1O
REMARK SMILES IDX 1 1 2 2 54 3 41 4 39 5 4 6 3 7 55 8 42 10 43 11 52 12 44 13
REMARK SMILES IDX 50 14 45 15 48 16 53 17 51 19 46 21 47 22 49 24 5 26 6 27
REMARK SMILES IDX 7 28 35 29 8 30 11 31 36 32 9 33 12 34 10 35 16 36 13 37
REMARK SMILES IDX 14 38 17 39 15 40 33 41 18 42 19 43 32 44 34 45 29 46 20 47
REMARK SMILES IDX 30 48 22 49 28 50 21 51 23 52 25 53 24 54 26 55 27 56 37 57
REMARK SMILES IDX 38 58 31 60 40 62
REMARK H PARENT 55 9 53 18 51 20 47 23 49 25 38 59 31 61 40 63
REMARK Flexibility Score: inf
ROOT
ATOM      1  C   UNL     1      38.579  55.370  -2.845  1.00  0.00     0.041 C 
ATOM      2  C   UNL     1      38.513  55.969  -1.454  1.00  0.00     0.150 C 
ATOM      3  C   UNL     1      37.833  54.837  -0.626  1.00  0.00     0.175 C 
ATOM      4  C   UNL     1      36.777  55.653   0.270  1.00  0.00     0.186 C 
ATOM      5  C   UNL     1      37.874  56.494   1.194  1.00  0.00     0.202 C 
ATOM      6  C   UNL     1      39.453  56.478   0.611  1.00  0.00     0.282 C 
ATOM      7  O   UNL     1      39.698  56.538  -0.813  1.00  0.00    -0.344 OA
ENDROOT
BRANCH   3   8
ATOM      8  O   UNL     1      38.881  53.976  -0.441  1.00  0.00    -0.388 OA
ATOM      9  H   UNL     1      39.637  54.542  -0.114  1.00  0.00     0.211 HD
ENDBRANCH   3   8
BRANCH   4  10
ATOM     10  O   UNL     1      35.880  56.584  -0.503  1.00  0.00    -0.341 OA
BRANCH  10  11
ATOM     11  C   UNL     1      35.112  57.490   0.268  1.00  0.00     0.282 C 
ATOM     12  C   UNL     1      34.646  58.839  -0.497  1.00  0.00     0.202 C 
ATOM     13  O   UNL     1      34.056  56.836   0.859  1.00  0.00    -0.341 OA
ATOM     14  C   UNL     1      33.288  58.805  -1.345  1.00  0.00     0.179 C 
ATOM     15  C   UNL     1      32.733  56.950   0.231  1.00  0.00     0.178 C 
ATOM     16  C   UNL     1      32.094  58.101  -0.643  1.00  0.00     0.177 C 
BRANCH  12  17
ATOM     17  O   UNL     1      35.659  59.308  -1.320  1.00  0.00    -0.385 OA
ATOM     18  H   UNL     1      36.508  58.805  -1.257  1.00  0.00     0.211 HD
ENDBRANCH  12  17
BRANCH  14  19
ATOM     19  O   UNL     1      33.035  60.151  -1.720  1.00  0.00    -0.387 OA
ATOM     20  H   UNL     1      33.644  60.721  -1.150  1.00  0.00     0.211 HD
ENDBRANCH  14  19
BRANCH  15  21
ATOM     21  C   UNL     1      32.246  57.667   1.636  1.00  0.00     0.191 C 
BRANCH  21  22
ATOM     22  O   UNL     1      31.649  58.993   1.618  1.00  0.00    -0.394 OA
ATOM     23  H   UNL     1      32.327  59.593   2.045  1.00  0.00     0.210 HD
ENDBRANCH  21  22
ENDBRANCH  15  21
BRANCH  16  24
ATOM     24  O   UNL     1      31.328  57.452  -1.667  1.00  0.00    -0.387 OA
ATOM     25  H   UNL     1      30.377  57.817  -1.616  1.00  0.00     0.211 HD
ENDBRANCH  16  24
ENDBRANCH  10  11
ENDBRANCH   4  10
BRANCH   6  26
ATOM     26  O   UNL     1      40.481  57.221   1.236  1.00  0.00    -0.346 OA
BRANCH  26  27
ATOM     27  C   UNL     1      41.705  56.427   1.473  1.00  0.00     0.130 C 
ATOM     28  C   UNL     1      41.039  55.206   2.125  1.00  0.00     0.033 C 
ATOM     29  C   UNL     1      42.886  57.018   2.492  1.00  0.00     0.020 C 
ATOM     30  C   UNL     1      40.357  55.477   3.476  1.00  0.00     0.010 C 
ATOM     31  C   UNL     1      42.192  57.072   3.913  1.00  0.00     0.006 C 
ATOM     32  C   UNL     1      43.571  58.414   2.366  1.00  0.00     0.017 C 
ATOM     33  C   UNL     1      41.340  55.937   4.633  1.00  0.00    -0.022 C 
ATOM     34  C   UNL     1      41.116  58.413   3.929  1.00  0.00     0.005 C 
ATOM     35  C   UNL     1      42.070  54.629   5.016  1.00  0.00     0.012 C 
ATOM     36  C   UNL     1      40.960  56.634   6.087  1.00  0.00     0.024 C 
ATOM     37  C   UNL     1      39.730  58.460   4.658  1.00  0.00     0.008 C 
ATOM     38  C   UNL     1      39.806  57.816   6.097  1.00  0.00    -0.017 C 
ATOM     39  C   UNL     1      42.228  57.174   6.732  1.00  0.00    -0.024 C 
ATOM     40  C   UNL     1      38.551  57.022   6.340  1.00  0.00     0.013 C 
ATOM     41  C   UNL     1      40.075  58.947   7.283  1.00  0.00     0.009 C 
ATOM     42  C   UNL     1      42.591  58.451   6.907  1.00  0.00     0.005 C 
ATOM     43  C   UNL     1      41.551  59.521   7.168  1.00  0.00     0.096 C 
ATOM     44  C   UNL     1      39.113  60.227   7.307  1.00  0.00     0.043 C 
ATOM     45  C   UNL     1      39.972  58.264   8.676  1.00  0.00     0.015 C 
ATOM     46  C   UNL     1      41.583  60.766   6.203  1.00  0.00     0.037 C 
ATOM     47  O   UNL     1      42.050  60.079   8.440  1.00  0.00    -0.369 OA
ATOM     48  C   UNL     1      39.695  61.506   7.840  1.00  0.00     0.124 C 
ATOM     49  C   UNL     1      41.205  61.909   7.207  1.00  0.00     0.026 C 
ATOM     50  C   UNL     1      42.702  61.129   5.207  1.00  0.00     0.014 C 
ATOM     51  C   UNL     1      42.154  61.426   8.303  1.00  0.00     0.171 C 
ATOM     52  C   UNL     1      41.528  63.378   6.593  1.00  0.00     0.013 C 
ATOM     53  C   UNL     1      42.405  62.353   4.241  1.00  0.00    -0.035 C 
ATOM     54  C   UNL     1      41.361  63.354   5.019  1.00  0.00     0.007 C 
ATOM     55  C   UNL     1      41.722  62.124   2.775  1.00  0.00     0.011 C 
ATOM     56  C   UNL     1      43.830  62.953   3.925  1.00  0.00     0.011 C 
BRANCH  29  57
ATOM     57  C   UNL     1      44.141  56.082   2.529  1.00  0.00     0.165 C 
BRANCH  57  58
ATOM     58  O   UNL     1      44.740  55.830   1.284  1.00  0.00    -0.396 OA
ATOM     59  H   UNL     1      44.011  55.964   0.614  1.00  0.00     0.210 HD
ENDBRANCH  57  58
ENDBRANCH  29  57
BRANCH  48  60
ATOM     60  O   UNL     1      38.848  62.616   7.793  1.00  0.00    -0.392 OA
ATOM     61  H   UNL     1      38.643  62.841   8.764  1.00  0.00     0.210 HD
ENDBRANCH  48  60
ENDBRANCH  26  27
ENDBRANCH   6  26
BRANCH   5  62
ATOM     62  O   UNL     1      37.466  57.735   1.559  1.00  0.00    -0.385 OA
ATOM     63  H   UNL     1      37.995  57.959   2.402  1.00  0.00     0.211 HD
ENDBRANCH   5  62
TORSDOF 14
ENDMDL
MODEL 7
REMARK VINA RESULT:    -7.665      4.750     10.690
REMARK INTER + INTRA:         -12.838
REMARK INTER:                 -11.654
REMARK INTRA:                  -1.184
REMARK UNBOUND:                -0.692
REMARK SMILES C[C@@H]1O[C@@H](O[C@@H]2CC[C@@]3(C)[C@H](CC[C@@]4(C)[C@@H]3C=C[C@@]35OC[C@]6(CCC(C)(C)C[C@H]63)[C@@H](O)C[C@@]45C)[C@@]2(C)CO)[C@@H](O)[C@@H](O[C@@H]2O[C@@H](CO)[C@H](O)[C@@H](O)[C@@H]2O)[C@@H]1O
REMARK SMILES IDX 1 1 2 2 54 3 41 4 39 5 4 6 3 7 55 8 42 10 43 11 52 12 44 13
REMARK SMILES IDX 50 14 45 15 48 16 53 17 51 19 46 21 47 22 49 24 5 26 6 27
REMARK SMILES IDX 7 28 35 29 8 30 11 31 36 32 9 33 12 34 10 35 16 36 13 37
REMARK SMILES IDX 14 38 17 39 15 40 33 41 18 42 19 43 32 44 34 45 29 46 20 47
REMARK SMILES IDX 30 48 22 49 28 50 21 51 23 52 25 53 24 54 26 55 27 56 37 57
REMARK SMILES IDX 38 58 31 60 40 62
REMARK H PARENT 55 9 53 18 51 20 47 23 49 25 38 59 31 61 40 63
REMARK Flexibility Score: inf
ROOT
ATOM      1  C   UNL     1      38.651  65.934   6.154  1.00  0.00     0.041 C 
ATOM      2  C   UNL     1      39.743  64.883   6.167  1.00  0.00     0.150 C 
ATOM      3  C   UNL     1      40.502  65.194   7.492  1.00  0.00     0.175 C 
ATOM      4  C   UNL     1      42.041  65.071   7.045  1.00  0.00     0.186 C 
ATOM      5  C   UNL     1      42.047  63.440   6.720  1.00  0.00     0.202 C 
ATOM      6  C   UNL     1      40.524  62.735   6.598  1.00  0.00     0.282 C 
ATOM      7  O   UNL     1      39.437  63.465   5.981  1.00  0.00    -0.344 OA
ENDROOT
BRANCH   3   8
ATOM      8  O   UNL     1      39.659  64.641   8.418  1.00  0.00    -0.388 OA
ATOM      9  H   UNL     1      40.093  63.785   8.696  1.00  0.00     0.211 HD
ENDBRANCH   3   8
BRANCH   4  10
ATOM     10  O   UNL     1      42.410  65.876   5.826  1.00  0.00    -0.341 OA
BRANCH  10  11
ATOM     11  C   UNL     1      43.661  66.538   5.873  1.00  0.00     0.282 C 
ATOM     12  C   UNL     1      44.822  65.907   4.938  1.00  0.00     0.202 C 
ATOM     13  O   UNL     1      43.494  67.887   5.658  1.00  0.00    -0.341 OA
ATOM     14  C   UNL     1      44.915  66.384   3.412  1.00  0.00     0.179 C 
ATOM     15  C   UNL     1      43.775  68.412   4.316  1.00  0.00     0.178 C 
ATOM     16  C   UNL     1      44.769  67.915   3.193  1.00  0.00     0.177 C 
BRANCH  12  17
ATOM     17  O   UNL     1      44.765  64.523   4.957  1.00  0.00    -0.385 OA
ATOM     18  H   UNL     1      44.146  64.144   5.629  1.00  0.00     0.211 HD
ENDBRANCH  12  17
BRANCH  14  19
ATOM     19  O   UNL     1      46.125  65.834   2.911  1.00  0.00    -0.387 OA
ATOM     20  H   UNL     1      45.936  65.560   1.958  1.00  0.00     0.211 HD
ENDBRANCH  14  19
BRANCH  15  21
ATOM     21  C   UNL     1      44.950  69.323   5.034  1.00  0.00     0.191 C 
BRANCH  21  22
ATOM     22  O   UNL     1      45.486  70.495   4.363  1.00  0.00    -0.394 OA
ATOM     23  H   UNL     1      45.604  71.181   5.083  1.00  0.00     0.210 HD
ENDBRANCH  21  22
ENDBRANCH  15  21
BRANCH  16  24
ATOM     24  O   UNL     1      44.089  68.097   1.943  1.00  0.00    -0.387 OA
ATOM     25  H   UNL     1      44.453  68.949   1.517  1.00  0.00     0.211 HD
ENDBRANCH  16  24
ENDBRANCH  10  11
ENDBRANCH   4  10
BRANCH   6  26
ATOM     26  O   UNL     1      40.362  61.378   6.237  1.00  0.00    -0.346 OA
BRANCH  26  27
ATOM     27  C   UNL     1      40.039  60.509   7.388  1.00  0.00     0.130 C 
ATOM     28  C   UNL     1      41.470  60.324   7.918  1.00  0.00     0.033 C 
ATOM     29  C   UNL     1      39.355  59.011   7.123  1.00  0.00     0.020 C 
ATOM     30  C   UNL     1      42.423  59.566   6.979  1.00  0.00     0.010 C 
ATOM     31  C   UNL     1      40.466  58.200   6.341  1.00  0.00     0.006 C 
ATOM     32  C   UNL     1      38.058  58.744   6.298  1.00  0.00     0.017 C 
ATOM     33  C   UNL     1      42.012  58.061   6.694  1.00  0.00    -0.022 C 
ATOM     34  C   UNL     1      40.504  58.777   4.721  1.00  0.00     0.005 C 
ATOM     35  C   UNL     1      42.382  57.339   8.010  1.00  0.00     0.012 C 
ATOM     36  C   UNL     1      42.568  57.052   5.503  1.00  0.00     0.024 C 
ATOM     37  C   UNL     1      41.789  58.925   3.837  1.00  0.00     0.008 C 
ATOM     38  C   UNL     1      42.745  57.677   3.984  1.00  0.00    -0.017 C 
ATOM     39  C   UNL     1      41.679  55.820   5.432  1.00  0.00    -0.024 C 
ATOM     40  C   UNL     1      44.170  58.159   4.010  1.00  0.00     0.013 C 
ATOM     41  C   UNL     1      42.486  56.539   2.802  1.00  0.00     0.009 C 
ATOM     42  C   UNL     1      40.810  55.478   4.472  1.00  0.00     0.005 C 
ATOM     43  C   UNL     1      41.083  55.830   3.024  1.00  0.00     0.096 C 
ATOM     44  C   UNL     1      42.481  57.047   1.284  1.00  0.00     0.043 C 
ATOM     45  C   UNL     1      43.568  55.427   2.915  1.00  0.00     0.015 C 
ATOM     46  C   UNL     1      39.943  56.622   2.279  1.00  0.00     0.037 C 
ATOM     47  O   UNL     1      41.012  54.493   2.402  1.00  0.00    -0.369 OA
ATOM     48  C   UNL     1      41.621  56.285   0.315  1.00  0.00     0.124 C 
ATOM     49  C   UNL     1      40.050  55.990   0.848  1.00  0.00     0.026 C 
ATOM     50  C   UNL     1      38.502  56.845   2.778  1.00  0.00     0.014 C 
ATOM     51  C   UNL     1      40.146  54.553   1.359  1.00  0.00     0.171 C 
ATOM     52  C   UNL     1      38.744  56.331  -0.057  1.00  0.00     0.013 C 
ATOM     53  C   UNL     1      37.604  57.818   1.902  1.00  0.00    -0.035 C 
ATOM     54  C   UNL     1      38.153  57.739   0.356  1.00  0.00     0.007 C 
ATOM     55  C   UNL     1      37.537  59.419   2.221  1.00  0.00     0.011 C 
ATOM     56  C   UNL     1      36.130  57.305   2.137  1.00  0.00     0.011 C 
BRANCH  29  57
ATOM     57  C   UNL     1      38.996  58.292   8.468  1.00  0.00     0.165 C 
BRANCH  57  58
ATOM     58  O   UNL     1      37.757  57.633   8.484  1.00  0.00    -0.396 OA
ATOM     59  H   UNL     1      37.082  58.353   8.645  1.00  0.00     0.210 HD
ENDBRANCH  57  58
ENDBRANCH  29  57
BRANCH  48  60
ATOM     60  O   UNL     1      41.595  56.789  -0.988  1.00  0.00    -0.392 OA
ATOM     61  H   UNL     1      42.022  57.711  -0.929  1.00  0.00     0.210 HD
ENDBRANCH  48  60
ENDBRANCH  26  27
ENDBRANCH   6  26
BRANCH   5  62
ATOM     62  O   UNL     1      42.874  63.072   5.711  1.00  0.00    -0.385 OA
ATOM     63  H   UNL     1      42.261  62.782   4.948  1.00  0.00     0.211 HD
ENDBRANCH   5  62
TORSDOF 14
ENDMDL
MODEL 8
REMARK VINA RESULT:    -7.547      1.807      3.027
REMARK INTER + INTRA:         -12.651
REMARK INTER:                 -11.904
REMARK INTRA:                  -0.747
REMARK UNBOUND:                -0.692
REMARK SMILES C[C@@H]1O[C@@H](O[C@@H]2CC[C@@]3(C)[C@H](CC[C@@]4(C)[C@@H]3C=C[C@@]35OC[C@]6(CCC(C)(C)C[C@H]63)[C@@H](O)C[C@@]45C)[C@@]2(C)CO)[C@@H](O)[C@@H](O[C@@H]2O[C@@H](CO)[C@H](O)[C@@H](O)[C@@H]2O)[C@@H]1O
REMARK SMILES IDX 1 1 2 2 54 3 41 4 39 5 4 6 3 7 55 8 42 10 43 11 52 12 44 13
REMARK SMILES IDX 50 14 45 15 48 16 53 17 51 19 46 21 47 22 49 24 5 26 6 27
REMARK SMILES IDX 7 28 35 29 8 30 11 31 36 32 9 33 12 34 10 35 16 36 13 37
REMARK SMILES IDX 14 38 17 39 15 40 33 41 18 42 19 43 32 44 34 45 29 46 20 47
REMARK SMILES IDX 30 48 22 49 28 50 21 51 23 52 25 53 24 54 26 55 27 56 37 57
REMARK SMILES IDX 38 58 31 60 40 62
REMARK H PARENT 55 9 53 18 51 20 47 23 49 25 38 59 31 61 40 63
REMARK Flexibility Score: inf
ROOT
ATOM      1  C   UNL     1      33.917  58.886  -1.743  1.00  0.00     0.041 C 
ATOM      2  C   UNL     1      34.652  58.340  -0.536  1.00  0.00     0.150 C 
ATOM      3  C   UNL     1      34.442  56.802  -0.673  1.00  0.00     0.175 C 
ATOM      4  C   UNL     1      34.095  56.366   0.834  1.00  0.00     0.186 C 
ATOM      5  C   UNL     1      35.576  56.709   1.509  1.00  0.00     0.202 C 
ATOM      6  C   UNL     1      36.589  57.655   0.555  1.00  0.00     0.282 C 
ATOM      7  O   UNL     1      36.035  58.723  -0.249  1.00  0.00    -0.344 OA
ENDROOT
BRANCH   3   8
ATOM      8  O   UNL     1      35.358  56.493  -1.643  1.00  0.00    -0.388 OA
ATOM      9  H   UNL     1      34.969  55.719  -2.139  1.00  0.00     0.211 HD
ENDBRANCH   3   8
BRANCH   4  10
ATOM     10  O   UNL     1      32.996  57.163   1.485  1.00  0.00    -0.341 OA
BRANCH  10  11
ATOM     11  C   UNL     1      31.920  57.541   0.646  1.00  0.00     0.282 C 
ATOM     12  C   UNL     1      30.590  56.624   0.758  1.00  0.00     0.202 C 
ATOM     13  O   UNL     1      31.644  58.880   0.797  1.00  0.00    -0.341 OA
ATOM     14  C   UNL     1      29.507  56.987   1.880  1.00  0.00     0.179 C 
ATOM     15  C   UNL     1      30.515  59.259   1.657  1.00  0.00     0.178 C 
ATOM     16  C   UNL     1      29.174  58.499   2.007  1.00  0.00     0.177 C 
BRANCH  12  17
ATOM     17  O   UNL     1      30.929  55.287   0.899  1.00  0.00    -0.385 OA
ATOM     18  H   UNL     1      31.882  55.123   1.107  1.00  0.00     0.211 HD
ENDBRANCH  12  17
BRANCH  14  19
ATOM     19  O   UNL     1      28.383  56.161   1.609  1.00  0.00    -0.387 OA
ATOM     20  H   UNL     1      28.706  55.208   1.696  1.00  0.00     0.211 HD
ENDBRANCH  14  19
BRANCH  15  21
ATOM     21  C   UNL     1      29.848  59.930   0.303  1.00  0.00     0.191 C 
BRANCH  21  22
ATOM     22  O   UNL     1      30.691  60.578  -0.689  1.00  0.00    -0.394 OA
ATOM     23  H   UNL     1      30.057  61.016  -1.328  1.00  0.00     0.210 HD
ENDBRANCH  21  22
ENDBRANCH  15  21
BRANCH  16  24
ATOM     24  O   UNL     1      28.915  58.757   3.394  1.00  0.00    -0.387 OA
ATOM     25  H   UNL     1      28.453  59.663   3.456  1.00  0.00     0.211 HD
ENDBRANCH  16  24
ENDBRANCH  10  11
ENDBRANCH   4  10
BRANCH   6  26
ATOM     26  O   UNL     1      37.843  58.106   1.027  1.00  0.00    -0.346 OA
BRANCH  26  27
ATOM     27  C   UNL     1      38.927  57.938   0.036  1.00  0.00     0.130 C 
ATOM     28  C   UNL     1      38.855  56.408  -0.094  1.00  0.00     0.033 C 
ATOM     29  C   UNL     1      40.485  58.381   0.436  1.00  0.00     0.020 C 
ATOM     30  C   UNL     1      39.222  55.626   1.178  1.00  0.00     0.010 C 
ATOM     31  C   UNL     1      40.889  57.397   1.606  1.00  0.00     0.006 C 
ATOM     32  C   UNL     1      40.915  59.782   0.970  1.00  0.00     0.017 C 
ATOM     33  C   UNL     1      40.721  55.815   1.662  1.00  0.00    -0.022 C 
ATOM     34  C   UNL     1      40.081  57.910   3.035  1.00  0.00     0.005 C 
ATOM     35  C   UNL     1      41.528  54.974   0.648  1.00  0.00     0.012 C 
ATOM     36  C   UNL     1      41.381  55.431   3.132  1.00  0.00     0.024 C 
ATOM     37  C   UNL     1      39.509  56.965   4.146  1.00  0.00     0.008 C 
ATOM     38  C   UNL     1      40.510  55.793   4.488  1.00  0.00    -0.017 C 
ATOM     39  C   UNL     1      42.760  56.064   3.245  1.00  0.00    -0.024 C 
ATOM     40  C   UNL     1      39.723  54.528   4.699  1.00  0.00     0.013 C 
ATOM     41  C   UNL     1      41.485  56.152   5.784  1.00  0.00     0.009 C 
ATOM     42  C   UNL     1      43.144  57.083   4.024  1.00  0.00     0.005 C 
ATOM     43  C   UNL     1      42.523  57.286   5.390  1.00  0.00     0.096 C 
ATOM     44  C   UNL     1      40.768  56.665   7.121  1.00  0.00     0.043 C 
ATOM     45  C   UNL     1      42.321  54.895   6.160  1.00  0.00     0.015 C 
ATOM     46  C   UNL     1      41.912  58.711   5.667  1.00  0.00     0.037 C 
ATOM     47  O   UNL     1      43.731  57.277   6.240  1.00  0.00    -0.369 OA
ATOM     48  C   UNL     1      41.552  57.601   7.997  1.00  0.00     0.124 C 
ATOM     49  C   UNL     1      42.278  58.885   7.182  1.00  0.00     0.026 C 
ATOM     50  C   UNL     1      42.105  59.977   4.809  1.00  0.00     0.014 C 
ATOM     51  C   UNL     1      43.715  58.392   7.015  1.00  0.00     0.171 C 
ATOM     52  C   UNL     1      42.114  60.428   7.665  1.00  0.00     0.013 C 
ATOM     53  C   UNL     1      41.244  61.242   5.230  1.00  0.00    -0.035 C 
ATOM     54  C   UNL     1      40.959  61.131   6.844  1.00  0.00     0.007 C 
ATOM     55  C   UNL     1      39.769  61.512   4.582  1.00  0.00     0.011 C 
ATOM     56  C   UNL     1      42.113  62.476   4.766  1.00  0.00     0.011 C 
BRANCH  29  57
ATOM     57  C   UNL     1      41.462  58.221  -0.778  1.00  0.00     0.165 C 
BRANCH  57  58
ATOM     58  O   UNL     1      42.828  58.243  -0.457  1.00  0.00    -0.396 OA
ATOM     59  H   UNL     1      43.242  57.542  -1.037  1.00  0.00     0.210 HD
ENDBRANCH  57  58
ENDBRANCH  29  57
BRANCH  48  60
ATOM     60  O   UNL     1      40.876  58.074   9.124  1.00  0.00    -0.392 OA
ATOM     61  H   UNL     1      40.912  57.314   9.800  1.00  0.00     0.210 HD
ENDBRANCH  48  60
ENDBRANCH  26  27
ENDBRANCH   6  26
BRANCH   5  62
ATOM     62  O   UNL     1      35.521  57.138   2.795  1.00  0.00    -0.385 OA
ATOM     63  H   UNL     1      36.466  57.451   3.019  1.00  0.00     0.211 HD
ENDBRANCH   5  62
TORSDOF 14
ENDMDL
MODEL 9
REMARK VINA RESULT:    -7.527      1.626      2.317
REMARK INTER + INTRA:         -12.620
REMARK INTER:                 -11.604
REMARK INTRA:                  -1.016
REMARK UNBOUND:                -0.692
REMARK SMILES C[C@@H]1O[C@@H](O[C@@H]2CC[C@@]3(C)[C@H](CC[C@@]4(C)[C@@H]3C=C[C@@]35OC[C@]6(CCC(C)(C)C[C@H]63)[C@@H](O)C[C@@]45C)[C@@]2(C)CO)[C@@H](O)[C@@H](O[C@@H]2O[C@@H](CO)[C@H](O)[C@@H](O)[C@@H]2O)[C@@H]1O
REMARK SMILES IDX 1 1 2 2 54 3 41 4 39 5 4 6 3 7 55 8 42 10 43 11 52 12 44 13
REMARK SMILES IDX 50 14 45 15 48 16 53 17 51 19 46 21 47 22 49 24 5 26 6 27
REMARK SMILES IDX 7 28 35 29 8 30 11 31 36 32 9 33 12 34 10 35 16 36 13 37
REMARK SMILES IDX 14 38 17 39 15 40 33 41 18 42 19 43 32 44 34 45 29 46 20 47
REMARK SMILES IDX 30 48 22 49 28 50 21 51 23 52 25 53 24 54 26 55 27 56 37 57
REMARK SMILES IDX 38 58 31 60 40 62
REMARK H PARENT 55 9 53 18 51 20 47 23 49 25 38 59 31 61 40 63
REMARK Flexibility Score: inf
ROOT
ATOM      1  C   UNL     1      34.629  54.765  -1.803  1.00  0.00     0.041 C 
ATOM      2  C   UNL     1      35.211  55.501  -0.612  1.00  0.00     0.150 C 
ATOM      3  C   UNL     1      34.108  55.320   0.474  1.00  0.00     0.175 C 
ATOM      4  C   UNL     1      34.021  56.788   1.125  1.00  0.00     0.186 C 
ATOM      5  C   UNL     1      35.537  56.815   1.810  1.00  0.00     0.202 C 
ATOM      6  C   UNL     1      36.585  55.619   1.261  1.00  0.00     0.282 C 
ATOM      7  O   UNL     1      36.564  55.222  -0.130  1.00  0.00    -0.344 OA
ENDROOT
BRANCH   3   8
ATOM      8  O   UNL     1      34.341  54.034   0.880  1.00  0.00    -0.388 OA
ATOM      9  H   UNL     1      35.005  53.666   0.231  1.00  0.00     0.211 HD
ENDBRANCH   3   8
BRANCH   4  10
ATOM     10  O   UNL     1      33.846  57.908   0.133  1.00  0.00    -0.341 OA
BRANCH  10  11
ATOM     11  C   UNL     1      32.858  58.872   0.452  1.00  0.00     0.282 C 
ATOM     12  C   UNL     1      32.178  59.621  -0.811  1.00  0.00     0.202 C 
ATOM     13  O   UNL     1      31.923  58.332   1.304  1.00  0.00    -0.341 OA
ATOM     14  C   UNL     1      30.914  58.934  -1.515  1.00  0.00     0.179 C 
ATOM     15  C   UNL     1      30.649  57.878   0.731  1.00  0.00     0.178 C 
ATOM     16  C   UNL     1      29.846  58.369  -0.538  1.00  0.00     0.177 C 
BRANCH  12  17
ATOM     17  O   UNL     1      33.125  59.889  -1.788  1.00  0.00    -0.385 OA
ATOM     18  H   UNL     1      34.046  59.612  -1.556  1.00  0.00     0.211 HD
ENDBRANCH  12  17
BRANCH  14  19
ATOM     19  O   UNL     1      30.417  59.895  -2.434  1.00  0.00    -0.387 OA
ATOM     20  H   UNL     1      31.020  60.701  -2.354  1.00  0.00     0.211 HD
ENDBRANCH  14  19
BRANCH  15  21
ATOM     21  C   UNL     1      29.933  59.012   1.694  1.00  0.00     0.191 C 
BRANCH  21  22
ATOM     22  O   UNL     1      29.029  58.609   2.759  1.00  0.00    -0.394 OA
ATOM     23  H   UNL     1      28.433  57.917   2.350  1.00  0.00     0.210 HD
ENDBRANCH  21  22
ENDBRANCH  15  21
BRANCH  16  24
ATOM     24  O   UNL     1      29.298  57.193  -1.150  1.00  0.00    -0.387 OA
ATOM     25  H   UNL     1      28.973  57.454  -2.080  1.00  0.00     0.211 HD
ENDBRANCH  16  24
ENDBRANCH  10  11
ENDBRANCH   4  10
BRANCH   6  26
ATOM     26  O   UNL     1      37.934  55.567   1.680  1.00  0.00    -0.346 OA
BRANCH  26  27
ATOM     27  C   UNL     1      38.873  55.285   0.574  1.00  0.00     0.130 C 
ATOM     28  C   UNL     1      39.390  53.929   1.078  1.00  0.00     0.033 C 
ATOM     29  C   UNL     1      40.168  56.304   0.312  1.00  0.00     0.020 C 
ATOM     30  C   UNL     1      40.181  53.981   2.396  1.00  0.00     0.010 C 
ATOM     31  C   UNL     1      41.060  56.151   1.609  1.00  0.00     0.006 C 
ATOM     32  C   UNL     1      40.075  57.848   0.111  1.00  0.00     0.017 C 
ATOM     33  C   UNL     1      41.532  54.810   2.325  1.00  0.00    -0.022 C 
ATOM     34  C   UNL     1      40.290  57.006   2.888  1.00  0.00     0.005 C 
ATOM     35  C   UNL     1      42.479  53.875   1.538  1.00  0.00     0.012 C 
ATOM     36  C   UNL     1      42.459  55.372   3.578  1.00  0.00     0.024 C 
ATOM     37  C   UNL     1      40.269  56.568   4.392  1.00  0.00     0.008 C 
ATOM     38  C   UNL     1      41.682  56.049   4.869  1.00  0.00    -0.017 C 
ATOM     39  C   UNL     1      43.483  56.361   3.041  1.00  0.00    -0.024 C 
ATOM     40  C   UNL     1      41.483  54.860   5.770  1.00  0.00     0.013 C 
ATOM     41  C   UNL     1      42.584  57.242   5.590  1.00  0.00     0.009 C 
ATOM     42  C   UNL     1      43.526  57.688   3.217  1.00  0.00     0.005 C 
ATOM     43  C   UNL     1      43.041  58.311   4.510  1.00  0.00     0.096 C 
ATOM     44  C   UNL     1      41.887  58.081   6.763  1.00  0.00     0.043 C 
ATOM     45  C   UNL     1      43.883  56.619   6.176  1.00  0.00     0.015 C 
ATOM     46  C   UNL     1      41.958  59.446   4.366  1.00  0.00     0.037 C 
ATOM     47  O   UNL     1      44.247  59.059   4.918  1.00  0.00    -0.369 OA
ATOM     48  C   UNL     1      42.339  59.502   6.943  1.00  0.00     0.124 C 
ATOM     49  C   UNL     1      42.403  60.407   5.523  1.00  0.00     0.026 C 
ATOM     50  C   UNL     1      41.538  60.157   3.065  1.00  0.00     0.014 C 
ATOM     51  C   UNL     1      43.888  60.345   5.166  1.00  0.00     0.171 C 
ATOM     52  C   UNL     1      41.707  61.869   5.389  1.00  0.00     0.013 C 
ATOM     53  C   UNL     1      40.307  61.152   3.181  1.00  0.00    -0.035 C 
ATOM     54  C   UNL     1      40.281  61.728   4.718  1.00  0.00     0.007 C 
ATOM     55  C   UNL     1      38.779  60.636   2.921  1.00  0.00     0.011 C 
ATOM     56  C   UNL     1      40.562  62.220   2.047  1.00  0.00     0.011 C 
BRANCH  29  57
ATOM     57  C   UNL     1      40.979  55.894  -0.963  1.00  0.00     0.165 C 
BRANCH  57  58
ATOM     58  O   UNL     1      40.828  54.558  -1.368  1.00  0.00    -0.396 OA
ATOM     59  H   UNL     1      40.781  54.033  -0.518  1.00  0.00     0.210 HD
ENDBRANCH  57  58
ENDBRANCH  29  57
BRANCH  48  60
ATOM     60  O   UNL     1      41.670  60.223   7.936  1.00  0.00    -0.392 OA
ATOM     61  H   UNL     1      42.183  60.040   8.795  1.00  0.00     0.210 HD
ENDBRANCH  48  60
ENDBRANCH  26  27
ENDBRANCH   6  26
BRANCH   5  62
ATOM     62  O   UNL     1      36.116  58.041   1.842  1.00  0.00    -0.385 OA
ATOM     63  H   UNL     1      35.996  58.373   2.800  1.00  0.00     0.211 HD
ENDBRANCH   5  62
TORSDOF 14
ENDMDL
