MODEL 1
REMARK VINA RESULT:    -5.482      0.000      0.000
REMARK INTER + INTRA:          -5.643
REMARK INTER:                  -5.643
REMARK INTRA:                   0.000
REMARK UNBOUND:                 0.000
REMARK SMILES O=c1ccc2ccc(O)cc2o1
REMARK SMILES IDX 6 1 7 2 8 3 10 4 11 5 5 6 4 7 3 8 2 9 1 10 12 11 9 12
REMARK H PARENT 9 13
REMARK Flexibility Score: inf
ROOT
ATOM      1  C   UNL     1      -9.235  15.283   5.368  1.00  0.00     0.016 A 
ATOM      2  C   UNL     1      -9.893  16.306   6.059  1.00  0.00     0.047 A 
ATOM      3  C   UNL     1      -9.252  16.976   7.108  1.00  0.00     0.119 A 
ATOM      4  C   UNL     1      -7.944  16.621   7.469  1.00  0.00     0.094 A 
ATOM      5  C   UNL     1      -7.279  15.599   6.785  1.00  0.00     0.142 A 
ATOM      6  C   UNL     1      -7.929  14.925   5.727  1.00  0.00     0.018 A 
ATOM      7  C   UNL     1      -7.239  13.907   5.060  1.00  0.00     0.019 A 
ATOM      8  C   UNL     1      -5.940  13.589   5.457  1.00  0.00     0.094 A 
ATOM      9  C   UNL     1      -5.359  14.299   6.513  1.00  0.00     0.336 A 
ATOM     10  O   UNL     1      -4.188  14.027   6.884  1.00  0.00    -0.246 OA
ATOM     11  O   UNL     1      -6.038  15.263   7.130  1.00  0.00    -0.423 OA
ENDROOT
BRANCH   3  12
ATOM     12  O   UNL     1      -9.923  17.993   7.784  1.00  0.00    -0.508 OA
ATOM     13  H   UNL     1     -10.303  17.851   8.712  1.00  0.00     0.293 HD
ENDBRANCH   3  12
TORSDOF 1
ENDMDL
MODEL 2
REMARK VINA RESULT:    -5.464      2.462      4.257
REMARK INTER + INTRA:          -5.624
REMARK INTER:                  -5.624
REMARK INTRA:                   0.000
REMARK UNBOUND:                 0.000
REMARK SMILES O=c1ccc2ccc(O)cc2o1
REMARK SMILES IDX 6 1 7 2 8 3 10 4 11 5 5 6 4 7 3 8 2 9 1 10 12 11 9 12
REMARK H PARENT 9 13
REMARK Flexibility Score: inf
ROOT
ATOM      1  C   UNL     1      -3.883  14.011   7.423  1.00  0.00     0.016 A 
ATOM      2  C   UNL     1      -3.735  14.403   8.759  1.00  0.00     0.047 A 
ATOM      3  C   UNL     1      -4.849  14.794   9.510  1.00  0.00     0.119 A 
ATOM      4  C   UNL     1      -6.123  14.793   8.923  1.00  0.00     0.094 A 
ATOM      5  C   UNL     1      -6.282  14.404   7.589  1.00  0.00     0.142 A 
ATOM      6  C   UNL     1      -5.155  14.010   6.834  1.00  0.00     0.018 A 
ATOM      7  C   UNL     1      -5.345  13.626   5.502  1.00  0.00     0.019 A 
ATOM      8  C   UNL     1      -6.631  13.643   4.963  1.00  0.00     0.094 A 
ATOM      9  C   UNL     1      -7.701  14.044   5.770  1.00  0.00     0.336 A 
ATOM     10  O   UNL     1      -8.868  14.066   5.301  1.00  0.00    -0.246 OA
ATOM     11  O   UNL     1      -7.492  14.405   7.034  1.00  0.00    -0.423 OA
ENDROOT
BRANCH   3  12
ATOM     12  O   UNL     1      -4.681  15.179  10.838  1.00  0.00    -0.508 OA
ATOM     13  H   UNL     1      -3.816  15.000  11.335  1.00  0.00     0.293 HD
ENDBRANCH   3  12
TORSDOF 1
ENDMDL
MODEL 3
REMARK VINA RESULT:    -5.426      1.031      4.264
REMARK INTER + INTRA:          -5.584
REMARK INTER:                  -5.584
REMARK INTRA:                   0.000
REMARK UNBOUND:                 0.000
REMARK SMILES O=c1ccc2ccc(O)cc2o1
REMARK SMILES IDX 6 1 7 2 8 3 10 4 11 5 5 6 4 7 3 8 2 9 1 10 12 11 9 12
REMARK H PARENT 9 13
REMARK Flexibility Score: inf
ROOT
ATOM      1  C   UNL     1      -6.569  14.009   5.018  1.00  0.00     0.016 A 
ATOM      2  C   UNL     1      -5.382  13.631   5.655  1.00  0.00     0.047 A 
ATOM      3  C   UNL     1      -5.151  13.986   6.990  1.00  0.00     0.119 A 
ATOM      4  C   UNL     1      -6.115  14.723   7.694  1.00  0.00     0.094 A 
ATOM      5  C   UNL     1      -7.304  15.106   7.065  1.00  0.00     0.142 A 
ATOM      6  C   UNL     1      -7.533  14.747   5.719  1.00  0.00     0.018 A 
ATOM      7  C   UNL     1      -8.731  15.144   5.116  1.00  0.00     0.019 A 
ATOM      8  C   UNL     1      -9.658  15.877   5.857  1.00  0.00     0.094 A 
ATOM      9  C   UNL     1      -9.365  16.197   7.187  1.00  0.00     0.336 A 
ATOM     10  O   UNL     1     -10.189  16.857   7.871  1.00  0.00    -0.246 OA
ATOM     11  O   UNL     1      -8.216  15.807   7.735  1.00  0.00    -0.423 OA
ENDROOT
BRANCH   3  12
ATOM     12  O   UNL     1      -3.964  13.600   7.607  1.00  0.00    -0.508 OA
ATOM     13  H   UNL     1      -3.559  12.684   7.449  1.00  0.00     0.293 HD
ENDBRANCH   3  12
TORSDOF 1
ENDMDL
MODEL 4
REMARK VINA RESULT:    -5.359      2.207      3.468
REMARK INTER + INTRA:          -5.515
REMARK INTER:                  -5.515
REMARK INTRA:                   0.000
REMARK UNBOUND:                 0.000
REMARK SMILES O=c1ccc2ccc(O)cc2o1
REMARK SMILES IDX 6 1 7 2 8 3 10 4 11 5 5 6 4 7 3 8 2 9 1 10 12 11 9 12
REMARK H PARENT 9 13
REMARK Flexibility Score: inf
ROOT
ATOM      1  C   UNL     1      -5.406  13.612   5.486  1.00  0.00     0.016 A 
ATOM      2  C   UNL     1      -6.715  13.709   5.000  1.00  0.00     0.047 A 
ATOM      3  C   UNL     1      -7.730  14.242   5.804  1.00  0.00     0.119 A 
ATOM      4  C   UNL     1      -7.436  14.682   7.103  1.00  0.00     0.094 A 
ATOM      5  C   UNL     1      -6.130  14.589   7.598  1.00  0.00     0.142 A 
ATOM      6  C   UNL     1      -5.109  14.051   6.784  1.00  0.00     0.018 A 
ATOM      7  C   UNL     1      -3.813  13.970   7.305  1.00  0.00     0.019 A 
ATOM      8  C   UNL     1      -3.570  14.419   8.603  1.00  0.00     0.094 A 
ATOM      9  C   UNL     1      -4.631  14.941   9.351  1.00  0.00     0.336 A 
ATOM     10  O   UNL     1      -4.430  15.352  10.524  1.00  0.00    -0.246 OA
ATOM     11  O   UNL     1      -5.854  15.006   8.831  1.00  0.00    -0.423 OA
ENDROOT
BRANCH   3  12
ATOM     12  O   UNL     1      -9.026  14.331   5.302  1.00  0.00    -0.508 OA
ATOM     13  H   UNL     1      -9.758  14.815   5.809  1.00  0.00     0.293 HD
ENDBRANCH   3  12
TORSDOF 1
ENDMDL
MODEL 5
REMARK VINA RESULT:    -5.302      1.688      2.366
REMARK INTER + INTRA:          -5.457
REMARK INTER:                  -5.457
REMARK INTRA:                   0.000
REMARK UNBOUND:                 0.000
REMARK SMILES O=c1ccc2ccc(O)cc2o1
REMARK SMILES IDX 6 1 7 2 8 3 10 4 11 5 5 6 4 7 3 8 2 9 1 10 12 11 9 12
REMARK H PARENT 9 13
REMARK Flexibility Score: inf
ROOT
ATOM      1  C   UNL     1      -7.249  13.408   5.161  1.00  0.00     0.016 A 
ATOM      2  C   UNL     1      -8.624  13.666   5.193  1.00  0.00     0.047 A 
ATOM      3  C   UNL     1      -9.114  14.815   5.826  1.00  0.00     0.119 A 
ATOM      4  C   UNL     1      -8.223  15.714   6.431  1.00  0.00     0.094 A 
ATOM      5  C   UNL     1      -6.847  15.464   6.405  1.00  0.00     0.142 A 
ATOM      6  C   UNL     1      -6.357  14.304   5.766  1.00  0.00     0.018 A 
ATOM      7  C   UNL     1      -4.976  14.080   5.756  1.00  0.00     0.019 A 
ATOM      8  C   UNL     1      -4.130  15.002   6.373  1.00  0.00     0.094 A 
ATOM      9  C   UNL     1      -4.686  16.130   6.986  1.00  0.00     0.336 A 
ATOM     10  O   UNL     1      -3.939  16.973   7.547  1.00  0.00    -0.246 OA
ATOM     11  O   UNL     1      -6.004  16.318   6.982  1.00  0.00    -0.423 OA
ENDROOT
BRANCH   3  12
ATOM     12  O   UNL     1     -10.486  15.055   5.846  1.00  0.00    -0.508 OA
ATOM     13  H   UNL     1     -11.018  15.011   6.707  1.00  0.00     0.293 HD
ENDBRANCH   3  12
TORSDOF 1
ENDMDL
MODEL 6
REMARK VINA RESULT:    -5.210      1.705      4.803
REMARK INTER + INTRA:          -5.362
REMARK INTER:                  -5.362
REMARK INTRA:                   0.000
REMARK UNBOUND:                 0.000
REMARK SMILES O=c1ccc2ccc(O)cc2o1
REMARK SMILES IDX 6 1 7 2 8 3 10 4 11 5 5 6 4 7 3 8 2 9 1 10 12 11 9 12
REMARK H PARENT 9 13
REMARK Flexibility Score: inf
ROOT
ATOM      1  C   UNL     1      -6.317  15.630   6.820  1.00  0.00     0.016 A 
ATOM      2  C   UNL     1      -5.642  14.617   6.130  1.00  0.00     0.047 A 
ATOM      3  C   UNL     1      -6.323  13.816   5.205  1.00  0.00     0.119 A 
ATOM      4  C   UNL     1      -7.688  14.029   4.967  1.00  0.00     0.094 A 
ATOM      5  C   UNL     1      -8.372  15.039   5.652  1.00  0.00     0.142 A 
ATOM      6  C   UNL     1      -7.682  15.845   6.585  1.00  0.00     0.018 A 
ATOM      7  C   UNL     1      -8.391  16.847   7.255  1.00  0.00     0.019 A 
ATOM      8  C   UNL     1      -9.749  17.019   6.985  1.00  0.00     0.094 A 
ATOM      9  C   UNL     1     -10.367  16.184   6.049  1.00  0.00     0.336 A 
ATOM     10  O   UNL     1     -11.591  16.325   5.792  1.00  0.00    -0.246 OA
ATOM     11  O   UNL     1      -9.669  15.238   5.426  1.00  0.00    -0.423 OA
ENDROOT
BRANCH   3  12
ATOM     12  O   UNL     1      -5.633  12.813   4.527  1.00  0.00    -0.508 OA
ATOM     13  H   UNL     1      -4.715  12.977   4.132  1.00  0.00     0.293 HD
ENDBRANCH   3  12
TORSDOF 1
ENDMDL
MODEL 7
REMARK VINA RESULT:    -5.201      1.685      2.536
REMARK INTER + INTRA:          -5.353
REMARK INTER:                  -5.353
REMARK INTRA:                   0.000
REMARK UNBOUND:                 0.000
REMARK SMILES O=c1ccc2ccc(O)cc2o1
REMARK SMILES IDX 6 1 7 2 8 3 10 4 11 5 5 6 4 7 3 8 2 9 1 10 12 11 9 12
REMARK H PARENT 9 13
REMARK Flexibility Score: inf
ROOT
ATOM      1  C   UNL     1      -9.156  17.433   7.540  1.00  0.00     0.016 A 
ATOM      2  C   UNL     1     -10.515  17.468   7.210  1.00  0.00     0.047 A 
ATOM      3  C   UNL     1     -11.040  16.572   6.271  1.00  0.00     0.119 A 
ATOM      4  C   UNL     1     -10.200  15.632   5.657  1.00  0.00     0.094 A 
ATOM      5  C   UNL     1      -8.839  15.588   5.979  1.00  0.00     0.142 A 
ATOM      6  C   UNL     1      -8.314  16.495   6.926  1.00  0.00     0.018 A 
ATOM      7  C   UNL     1      -6.950  16.428   7.229  1.00  0.00     0.019 A 
ATOM      8  C   UNL     1      -6.155  15.476   6.591  1.00  0.00     0.094 A 
ATOM      9  C   UNL     1      -6.743  14.611   5.663  1.00  0.00     0.336 A 
ATOM     10  O   UNL     1      -6.042  13.745   5.078  1.00  0.00    -0.246 OA
ATOM     11  O   UNL     1      -8.044  14.696   5.394  1.00  0.00    -0.423 OA
ENDROOT
BRANCH   3  12
ATOM     12  O   UNL     1     -12.396  16.623   5.957  1.00  0.00    -0.508 OA
ATOM     13  H   UNL     1     -12.722  17.020   5.084  1.00  0.00     0.293 HD
ENDBRANCH   3  12
TORSDOF 1
ENDMDL
MODEL 8
REMARK VINA RESULT:    -5.172      2.520      3.961
REMARK INTER + INTRA:          -5.323
REMARK INTER:                  -5.323
REMARK INTRA:                   0.000
REMARK UNBOUND:                 0.000
REMARK SMILES O=c1ccc2ccc(O)cc2o1
REMARK SMILES IDX 6 1 7 2 8 3 10 4 11 5 5 6 4 7 3 8 2 9 1 10 12 11 9 12
REMARK H PARENT 9 13
REMARK Flexibility Score: inf
ROOT
ATOM      1  C   UNL     1      -6.701  15.903   6.902  1.00  0.00     0.016 A 
ATOM      2  C   UNL     1      -7.247  15.097   5.897  1.00  0.00     0.047 A 
ATOM      3  C   UNL     1      -6.543  13.984   5.422  1.00  0.00     0.119 A 
ATOM      4  C   UNL     1      -5.284  13.673   5.955  1.00  0.00     0.094 A 
ATOM      5  C   UNL     1      -4.729  14.472   6.961  1.00  0.00     0.142 A 
ATOM      6  C   UNL     1      -5.442  15.595   7.437  1.00  0.00     0.018 A 
ATOM      7  C   UNL     1      -4.863  16.376   8.442  1.00  0.00     0.019 A 
ATOM      8  C   UNL     1      -3.608  16.027   8.940  1.00  0.00     0.094 A 
ATOM      9  C   UNL     1      -2.960  14.901   8.421  1.00  0.00     0.336 A 
ATOM     10  O   UNL     1      -1.827  14.571   8.859  1.00  0.00    -0.246 OA
ATOM     11  O   UNL     1      -3.534  14.176   7.464  1.00  0.00    -0.423 OA
ENDROOT
BRANCH   3  12
ATOM     12  O   UNL     1      -7.104  13.194   4.421  1.00  0.00    -0.508 OA
ATOM     13  H   UNL     1      -7.523  13.604   3.595  1.00  0.00     0.293 HD
ENDBRANCH   3  12
TORSDOF 1
ENDMDL
MODEL 9
REMARK VINA RESULT:    -5.070      2.948      4.676
REMARK INTER + INTRA:          -5.219
REMARK INTER:                  -5.219
REMARK INTRA:                   0.000
REMARK UNBOUND:                 0.000
REMARK SMILES O=c1ccc2ccc(O)cc2o1
REMARK SMILES IDX 6 1 7 2 8 3 10 4 11 5 5 6 4 7 3 8 2 9 1 10 12 11 9 12
REMARK H PARENT 9 13
REMARK Flexibility Score: inf
ROOT
ATOM      1  C   UNL     1      -4.108  14.473   6.884  1.00  0.00     0.016 A 
ATOM      2  C   UNL     1      -4.772  14.036   5.732  1.00  0.00     0.047 A 
ATOM      3  C   UNL     1      -6.136  13.724   5.777  1.00  0.00     0.119 A 
ATOM      4  C   UNL     1      -6.843  13.849   6.981  1.00  0.00     0.094 A 
ATOM      5  C   UNL     1      -6.189  14.284   8.139  1.00  0.00     0.142 A 
ATOM      6  C   UNL     1      -4.813  14.598   8.090  1.00  0.00     0.018 A 
ATOM      7  C   UNL     1      -4.184  15.030   9.263  1.00  0.00     0.019 A 
ATOM      8  C   UNL     1      -4.930  15.138  10.437  1.00  0.00     0.094 A 
ATOM      9  C   UNL     1      -6.290  14.811  10.411  1.00  0.00     0.336 A 
ATOM     10  O   UNL     1      -6.978  14.902  11.460  1.00  0.00    -0.246 OA
ATOM     11  O   UNL     1      -6.862  14.401   9.281  1.00  0.00    -0.423 OA
ENDROOT
BRANCH   3  12
ATOM     12  O   UNL     1      -6.779  13.292   4.619  1.00  0.00    -0.508 OA
ATOM     13  H   UNL     1      -7.784  13.362   4.514  1.00  0.00     0.293 HD
ENDBRANCH   3  12
TORSDOF 1
ENDMDL
