MODEL 1
REMARK VINA RESULT:    -5.606      0.000      0.000
REMARK INTER + INTRA:          -6.944
REMARK INTER:                  -6.754
REMARK INTRA:                  -0.190
REMARK UNBOUND:                -0.190
REMARK SMILES C=CCc1ccc(O)c(OC)c1
REMARK SMILES IDX 9 1 7 2 6 3 5 4 4 5 12 6 10 7 11 8 8 9 3 11 2 12 1 13
REMARK H PARENT 8 10
REMARK Flexibility Score: inf
ROOT
ATOM      1  C   UNL     1      -8.428 -66.110 -31.828  1.00  0.00     0.160 A 
ATOM      2  C   UNL     1      -7.872 -65.084 -32.617  1.00  0.00     0.157 A 
ATOM      3  C   UNL     1      -8.597 -64.553 -33.687  1.00  0.00     0.050 A 
ATOM      4  C   UNL     1      -9.875 -65.030 -33.982  1.00  0.00     0.008 A 
ATOM      5  C   UNL     1     -10.449 -66.044 -33.201  1.00  0.00    -0.040 A 
ATOM      6  C   UNL     1      -9.719 -66.586 -32.132  1.00  0.00     0.054 A 
ENDROOT
BRANCH   1   7
ATOM      7  O   UNL     1      -7.675 -66.628 -30.762  1.00  0.00    -0.493 OA
ATOM      8  C   UNL     1      -8.232 -67.233 -29.600  1.00  0.00     0.278 C 
ENDBRANCH   1   7
BRANCH   2   9
ATOM      9  O   UNL     1      -6.599 -64.582 -32.351  1.00  0.00    -0.504 OA
ATOM     10  H   UNL     1      -6.158 -64.679 -31.444  1.00  0.00     0.293 HD
ENDBRANCH   2   9
BRANCH   5  11
ATOM     11  C   UNL     1     -11.815 -66.581 -33.535  1.00  0.00     0.062 C 
BRANCH  11  12
ATOM     12  C   UNL     1     -11.799 -67.297 -34.856  1.00  0.00    -0.030 C 
ATOM     13  C   UNL     1     -12.930 -67.642 -35.481  1.00  0.00     0.004 C 
ENDBRANCH  11  12
ENDBRANCH   5  11
TORSDOF 4
ENDMDL
MODEL 2
REMARK VINA RESULT:    -5.569      1.377      2.993
REMARK INTER + INTRA:          -6.898
REMARK INTER:                  -6.717
REMARK INTRA:                  -0.182
REMARK UNBOUND:                -0.190
REMARK SMILES C=CCc1ccc(O)c(OC)c1
REMARK SMILES IDX 9 1 7 2 6 3 5 4 4 5 12 6 10 7 11 8 8 9 3 11 2 12 1 13
REMARK H PARENT 8 10
REMARK Flexibility Score: inf
ROOT
ATOM      1  C   UNL     1      -8.567 -65.277 -32.783  1.00  0.00     0.160 A 
ATOM      2  C   UNL     1      -8.114 -66.149 -31.775  1.00  0.00     0.157 A 
ATOM      3  C   UNL     1      -8.974 -67.117 -31.248  1.00  0.00     0.050 A 
ATOM      4  C   UNL     1     -10.283 -67.231 -31.717  1.00  0.00     0.008 A 
ATOM      5  C   UNL     1     -10.748 -66.378 -32.729  1.00  0.00    -0.040 A 
ATOM      6  C   UNL     1      -9.890 -65.398 -33.252  1.00  0.00     0.054 A 
ENDROOT
BRANCH   1   7
ATOM      7  O   UNL     1      -7.683 -64.310 -33.290  1.00  0.00    -0.493 OA
ATOM      8  C   UNL     1      -7.686 -63.841 -34.635  1.00  0.00     0.278 C 
ENDBRANCH   1   7
BRANCH   2   9
ATOM      9  O   UNL     1      -6.812 -66.065 -31.282  1.00  0.00    -0.504 OA
ATOM     10  H   UNL     1      -6.065 -65.617 -31.801  1.00  0.00     0.293 HD
ENDBRANCH   2   9
BRANCH   5  11
ATOM     11  C   UNL     1     -12.169 -66.479 -33.216  1.00  0.00     0.062 C 
BRANCH  11  12
ATOM     12  C   UNL     1     -13.120 -65.888 -32.214  1.00  0.00    -0.030 C 
ATOM     13  C   UNL     1     -14.425 -65.760 -32.475  1.00  0.00     0.004 C 
ENDBRANCH  11  12
ENDBRANCH   5  11
TORSDOF 4
ENDMDL
MODEL 3
REMARK VINA RESULT:    -5.520      1.072      2.883
REMARK INTER + INTRA:          -6.840
REMARK INTER:                  -6.667
REMARK INTRA:                  -0.173
REMARK UNBOUND:                -0.190
REMARK SMILES C=CCc1ccc(O)c(OC)c1
REMARK SMILES IDX 9 1 7 2 6 3 5 4 4 5 12 6 10 7 11 8 8 9 3 11 2 12 1 13
REMARK H PARENT 8 10
REMARK Flexibility Score: inf
ROOT
ATOM      1  C   UNL     1      -8.459 -64.536 -33.585  1.00  0.00     0.160 A 
ATOM      2  C   UNL     1      -7.720 -65.114 -32.535  1.00  0.00     0.157 A 
ATOM      3  C   UNL     1      -8.269 -66.155 -31.782  1.00  0.00     0.050 A 
ATOM      4  C   UNL     1      -9.549 -66.634 -32.065  1.00  0.00     0.008 A 
ATOM      5  C   UNL     1     -10.296 -66.077 -33.114  1.00  0.00    -0.040 A 
ATOM      6  C   UNL     1      -9.750 -65.024 -33.865  1.00  0.00     0.054 A 
ENDROOT
BRANCH   1   7
ATOM      7  O   UNL     1      -7.884 -63.487 -34.321  1.00  0.00    -0.493 OA
ATOM      8  C   UNL     1      -8.189 -63.194 -35.681  1.00  0.00     0.278 C 
ENDBRANCH   1   7
BRANCH   2   9
ATOM      9  O   UNL     1      -6.437 -64.662 -32.224  1.00  0.00    -0.504 OA
ATOM     10  H   UNL     1      -6.101 -63.749 -32.509  1.00  0.00     0.293 HD
ENDBRANCH   2   9
BRANCH   5  11
ATOM     11  C   UNL     1     -11.688 -66.572 -33.403  1.00  0.00     0.062 C 
BRANCH  11  12
ATOM     12  C   UNL     1     -11.747 -67.249 -34.743  1.00  0.00    -0.030 C 
ATOM     13  C   UNL     1     -12.907 -67.633 -35.285  1.00  0.00     0.004 C 
ENDBRANCH  11  12
ENDBRANCH   5  11
TORSDOF 4
ENDMDL
MODEL 4
REMARK VINA RESULT:    -5.454      1.926      3.431
REMARK INTER + INTRA:          -6.761
REMARK INTER:                  -6.538
REMARK INTRA:                  -0.223
REMARK UNBOUND:                -0.190
REMARK SMILES C=CCc1ccc(O)c(OC)c1
REMARK SMILES IDX 9 1 7 2 6 3 5 4 4 5 12 6 10 7 11 8 8 9 3 11 2 12 1 13
REMARK H PARENT 8 10
REMARK Flexibility Score: inf
ROOT
ATOM      1  C   UNL     1      -8.776 -66.853 -31.217  1.00  0.00     0.160 A 
ATOM      2  C   UNL     1     -10.115 -67.206 -31.469  1.00  0.00     0.157 A 
ATOM      3  C   UNL     1     -10.817 -66.592 -32.511  1.00  0.00     0.050 A 
ATOM      4  C   UNL     1     -10.198 -65.630 -33.311  1.00  0.00     0.008 A 
ATOM      5  C   UNL     1      -8.861 -65.274 -33.080  1.00  0.00    -0.040 A 
ATOM      6  C   UNL     1      -8.157 -65.882 -32.029  1.00  0.00     0.054 A 
ENDROOT
BRANCH   1   7
ATOM      7  O   UNL     1      -8.097 -67.482 -30.161  1.00  0.00    -0.493 OA
ATOM      8  C   UNL     1      -7.994 -66.958 -28.842  1.00  0.00     0.278 C 
ENDBRANCH   1   7
BRANCH   2   9
ATOM      9  O   UNL     1     -10.766 -68.164 -30.692  1.00  0.00    -0.504 OA
ATOM     10  H   UNL     1     -11.767 -68.315 -30.747  1.00  0.00     0.293 HD
ENDBRANCH   2   9
BRANCH   5  11
ATOM     11  C   UNL     1      -8.199 -64.216 -33.923  1.00  0.00     0.062 C 
BRANCH  11  12
ATOM     12  C   UNL     1      -9.044 -63.883 -35.120  1.00  0.00    -0.030 C 
ATOM     13  C   UNL     1      -8.523 -63.300 -36.206  1.00  0.00     0.004 C 
ENDBRANCH  11  12
ENDBRANCH   5  11
TORSDOF 4
ENDMDL
MODEL 5
REMARK VINA RESULT:    -5.432      2.330      4.153
REMARK INTER + INTRA:          -6.734
REMARK INTER:                  -6.524
REMARK INTRA:                  -0.210
REMARK UNBOUND:                -0.190
REMARK SMILES C=CCc1ccc(O)c(OC)c1
REMARK SMILES IDX 9 1 7 2 6 3 5 4 4 5 12 6 10 7 11 8 8 9 3 11 2 12 1 13
REMARK H PARENT 8 10
REMARK Flexibility Score: inf
ROOT
ATOM      1  C   UNL     1     -10.598 -66.268 -32.687  1.00  0.00     0.160 A 
ATOM      2  C   UNL     1      -9.838 -66.905 -31.688  1.00  0.00     0.157 A 
ATOM      3  C   UNL     1      -8.495 -66.562 -31.503  1.00  0.00     0.050 A 
ATOM      4  C   UNL     1      -7.898 -65.586 -32.302  1.00  0.00     0.008 A 
ATOM      5  C   UNL     1      -8.643 -64.933 -33.295  1.00  0.00    -0.040 A 
ATOM      6  C   UNL     1      -9.989 -65.283 -33.489  1.00  0.00     0.054 A 
ENDROOT
BRANCH   1   7
ATOM      7  O   UNL     1     -11.943 -66.636 -32.853  1.00  0.00    -0.493 OA
ATOM      8  C   UNL     1     -13.049 -65.913 -32.323  1.00  0.00     0.278 C 
ENDBRANCH   1   7
BRANCH   2   9
ATOM      9  O   UNL     1     -10.401 -67.885 -30.870  1.00  0.00    -0.504 OA
ATOM     10  H   UNL     1     -11.102 -67.668 -30.171  1.00  0.00     0.293 HD
ENDBRANCH   2   9
BRANCH   5  11
ATOM     11  C   UNL     1      -7.994 -63.900 -34.178  1.00  0.00     0.062 C 
BRANCH  11  12
ATOM     12  C   UNL     1      -8.840 -63.626 -35.389  1.00  0.00    -0.030 C 
ATOM     13  C   UNL     1      -8.303 -63.204 -36.539  1.00  0.00     0.004 C 
ENDBRANCH  11  12
ENDBRANCH   5  11
TORSDOF 4
ENDMDL
MODEL 6
REMARK VINA RESULT:    -5.425      4.860      7.487
REMARK INTER + INTRA:          -6.726
REMARK INTER:                  -6.525
REMARK INTRA:                  -0.201
REMARK UNBOUND:                -0.190
REMARK SMILES C=CCc1ccc(O)c(OC)c1
REMARK SMILES IDX 9 1 7 2 6 3 5 4 4 5 12 6 10 7 11 8 8 9 3 11 2 12 1 13
REMARK H PARENT 8 10
REMARK Flexibility Score: inf
ROOT
ATOM      1  C   UNL     1     -14.165 -67.317 -37.665  1.00  0.00     0.160 A 
ATOM      2  C   UNL     1     -15.377 -67.172 -36.963  1.00  0.00     0.157 A 
ATOM      3  C   UNL     1     -15.378 -67.146 -35.566  1.00  0.00     0.050 A 
ATOM      4  C   UNL     1     -14.182 -67.258 -34.855  1.00  0.00     0.008 A 
ATOM      5  C   UNL     1     -12.965 -67.392 -35.538  1.00  0.00    -0.040 A 
ATOM      6  C   UNL     1     -12.962 -67.429 -36.941  1.00  0.00     0.054 A 
ENDROOT
BRANCH   1   7
ATOM      7  O   UNL     1     -14.195 -67.345 -39.069  1.00  0.00    -0.493 OA
ATOM      8  C   UNL     1     -13.265 -68.054 -39.881  1.00  0.00     0.278 C 
ENDBRANCH   1   7
BRANCH   2   9
ATOM      9  O   UNL     1     -16.592 -67.056 -37.639  1.00  0.00    -0.504 OA
ATOM     10  H   UNL     1     -16.725 -66.400 -38.401  1.00  0.00     0.293 HD
ENDBRANCH   2   9
BRANCH   5  11
ATOM     11  C   UNL     1     -11.676 -67.543 -34.773  1.00  0.00     0.062 C 
BRANCH  11  12
ATOM     12  C   UNL     1     -11.666 -66.652 -33.564  1.00  0.00    -0.030 C 
ATOM     13  C   UNL     1     -10.700 -66.730 -32.642  1.00  0.00     0.004 C 
ENDBRANCH  11  12
ENDBRANCH   5  11
TORSDOF 4
ENDMDL
MODEL 7
REMARK VINA RESULT:    -5.371      8.177     10.174
REMARK INTER + INTRA:          -6.660
REMARK INTER:                  -6.439
REMARK INTRA:                  -0.221
REMARK UNBOUND:                -0.190
REMARK SMILES C=CCc1ccc(O)c(OC)c1
REMARK SMILES IDX 9 1 7 2 6 3 5 4 4 5 12 6 10 7 11 8 8 9 3 11 2 12 1 13
REMARK H PARENT 8 10
REMARK Flexibility Score: inf
ROOT
ATOM      1  C   UNL     1     -13.742 -65.812 -24.061  1.00  0.00     0.160 A 
ATOM      2  C   UNL     1     -13.702 -65.788 -22.654  1.00  0.00     0.157 A 
ATOM      3  C   UNL     1     -12.518 -66.104 -21.982  1.00  0.00     0.050 A 
ATOM      4  C   UNL     1     -11.368 -66.443 -22.695  1.00  0.00     0.008 A 
ATOM      5  C   UNL     1     -11.386 -66.463 -24.097  1.00  0.00    -0.040 A 
ATOM      6  C   UNL     1     -12.577 -66.155 -24.775  1.00  0.00     0.054 A 
ENDROOT
BRANCH   1   7
ATOM      7  O   UNL     1     -14.946 -65.494 -24.710  1.00  0.00    -0.493 OA
ATOM      8  C   UNL     1     -15.239 -65.811 -26.067  1.00  0.00     0.278 C 
ENDBRANCH   1   7
BRANCH   2   9
ATOM      9  O   UNL     1     -14.831 -65.452 -21.907  1.00  0.00    -0.504 OA
ATOM     10  H   UNL     1     -14.774 -65.180 -20.933  1.00  0.00     0.293 HD
ENDBRANCH   2   9
BRANCH   5  11
ATOM     11  C   UNL     1     -10.155 -66.856 -24.869  1.00  0.00     0.062 C 
BRANCH  11  12
ATOM     12  C   UNL     1     -10.518 -67.703 -26.057  1.00  0.00    -0.030 C 
ATOM     13  C   UNL     1     -10.466 -69.038 -26.009  1.00  0.00     0.004 C 
ENDBRANCH  11  12
ENDBRANCH   5  11
TORSDOF 4
ENDMDL
MODEL 8
REMARK VINA RESULT:    -5.341      3.960      6.230
REMARK INTER + INTRA:          -6.624
REMARK INTER:                  -6.434
REMARK INTRA:                  -0.190
REMARK UNBOUND:                -0.190
REMARK SMILES C=CCc1ccc(O)c(OC)c1
REMARK SMILES IDX 9 1 7 2 6 3 5 4 4 5 12 6 10 7 11 8 8 9 3 11 2 12 1 13
REMARK H PARENT 8 10
REMARK Flexibility Score: inf
ROOT
ATOM      1  C   UNL     1     -14.020 -66.955 -34.553  1.00  0.00     0.160 A 
ATOM      2  C   UNL     1     -14.912 -66.417 -33.606  1.00  0.00     0.157 A 
ATOM      3  C   UNL     1     -14.423 -65.853 -32.424  1.00  0.00     0.050 A 
ATOM      4  C   UNL     1     -13.051 -65.815 -32.173  1.00  0.00     0.008 A 
ATOM      5  C   UNL     1     -12.146 -66.337 -33.110  1.00  0.00    -0.040 A 
ATOM      6  C   UNL     1     -12.636 -66.913 -34.293  1.00  0.00     0.054 A 
ENDROOT
BRANCH   1   7
ATOM      7  O   UNL     1     -14.539 -67.519 -35.729  1.00  0.00    -0.493 OA
ATOM      8  C   UNL     1     -13.910 -67.449 -37.004  1.00  0.00     0.278 C 
ENDBRANCH   1   7
BRANCH   2   9
ATOM      9  O   UNL     1     -16.290 -66.436 -33.823  1.00  0.00    -0.504 OA
ATOM     10  H   UNL     1     -16.917 -67.003 -33.264  1.00  0.00     0.293 HD
ENDBRANCH   2   9
BRANCH   5  11
ATOM     11  C   UNL     1     -10.667 -66.324 -32.829  1.00  0.00     0.062 C 
BRANCH  11  12
ATOM     12  C   UNL     1     -10.327 -67.280 -31.721  1.00  0.00    -0.030 C 
ATOM     13  C   UNL     1      -9.128 -67.267 -31.127  1.00  0.00     0.004 C 
ENDBRANCH  11  12
ENDBRANCH   5  11
TORSDOF 4
ENDMDL
MODEL 9
REMARK VINA RESULT:    -5.328      4.073      6.176
REMARK INTER + INTRA:          -6.608
REMARK INTER:                  -6.469
REMARK INTRA:                  -0.139
REMARK UNBOUND:                -0.190
REMARK SMILES C=CCc1ccc(O)c(OC)c1
REMARK SMILES IDX 9 1 7 2 6 3 5 4 4 5 12 6 10 7 11 8 8 9 3 11 2 12 1 13
REMARK H PARENT 8 10
REMARK Flexibility Score: inf
ROOT
ATOM      1  C   UNL     1     -14.453 -66.764 -34.169  1.00  0.00     0.160 A 
ATOM      2  C   UNL     1     -14.140 -67.409 -35.381  1.00  0.00     0.157 A 
ATOM      3  C   UNL     1     -12.808 -67.668 -35.712  1.00  0.00     0.050 A 
ATOM      4  C   UNL     1     -11.778 -67.296 -34.847  1.00  0.00     0.008 A 
ATOM      5  C   UNL     1     -12.071 -66.662 -33.631  1.00  0.00    -0.040 A 
ATOM      6  C   UNL     1     -13.408 -66.390 -33.301  1.00  0.00     0.054 A 
ENDROOT
BRANCH   1   7
ATOM      7  O   UNL     1     -15.800 -66.511 -33.864  1.00  0.00    -0.493 OA
ATOM      8  C   UNL     1     -16.697 -67.470 -33.313  1.00  0.00     0.278 C 
ENDBRANCH   1   7
BRANCH   2   9
ATOM      9  O   UNL     1     -15.143 -67.796 -36.270  1.00  0.00    -0.504 OA
ATOM     10  H   UNL     1     -15.762 -68.576 -36.079  1.00  0.00     0.293 HD
ENDBRANCH   2   9
BRANCH   5  11
ATOM     11  C   UNL     1     -10.961 -66.232 -32.710  1.00  0.00     0.062 C 
BRANCH  11  12
ATOM     12  C   UNL     1     -10.633 -67.321 -31.726  1.00  0.00    -0.030 C 
ATOM     13  C   UNL     1      -9.457 -67.362 -31.091  1.00  0.00     0.004 C 
ENDBRANCH  11  12
ENDBRANCH   5  11
TORSDOF 4
ENDMDL
