MODEL 1
REMARK VINA RESULT:    -3.492      0.000      0.000
REMARK INTER + INTRA:          -4.147
REMARK INTER:                  -4.105
REMARK INTRA:                  -0.043
REMARK UNBOUND:                -0.043
REMARK SMILES CCCCC(=O)[O-]
REMARK SMILES IDX 4 1 5 2 6 3 7 4 3 5 2 6 1 7
REMARK H PARENT
REMARK Flexibility Score: inf
ROOT
ATOM      1  C   UNL     1      -7.680  26.152   3.021  1.00  0.00     0.053 C 
ENDROOT
BRANCH   1   2
ATOM      2  C   UNL     1      -7.770  24.937   2.153  1.00  0.00     0.041 C 
ATOM      3  O   UNL     1      -7.005  23.957   2.354  1.00  0.00    -0.550 OA
ATOM      4  O   UNL     1      -8.732  24.866   1.154  1.00  0.00    -0.550 OA
ENDBRANCH   1   2
BRANCH   1   5
ATOM      5  C   UNL     1      -8.009  25.800   4.474  1.00  0.00     0.006 C 
BRANCH   5   6
ATOM      6  C   UNL     1      -6.877  26.228   5.414  1.00  0.00    -0.003 C 
ATOM      7  C   UNL     1      -7.264  26.017   6.875  1.00  0.00     0.004 C 
ENDBRANCH   5   6
ENDBRANCH   1   5
TORSDOF 3
ENDMDL
MODEL 2
REMARK VINA RESULT:    -3.459      0.758      1.389
REMARK INTER + INTRA:          -4.109
REMARK INTER:                  -4.061
REMARK INTRA:                  -0.048
REMARK UNBOUND:                -0.043
REMARK SMILES CCCCC(=O)[O-]
REMARK SMILES IDX 4 1 5 2 6 3 7 4 3 5 2 6 1 7
REMARK H PARENT
REMARK Flexibility Score: inf
ROOT
ATOM      1  C   UNL     1      -8.208  26.097   3.441  1.00  0.00     0.053 C 
ENDROOT
BRANCH   1   2
ATOM      2  C   UNL     1      -7.783  25.205   2.317  1.00  0.00     0.041 C 
ATOM      3  O   UNL     1      -8.014  25.535   1.124  1.00  0.00    -0.550 OA
ATOM      4  O   UNL     1      -7.086  24.034   2.585  1.00  0.00    -0.550 OA
ENDBRANCH   1   2
BRANCH   1   5
ATOM      5  C   UNL     1      -7.195  26.035   4.587  1.00  0.00     0.006 C 
BRANCH   5   6
ATOM      6  C   UNL     1      -7.848  25.504   5.869  1.00  0.00    -0.003 C 
ATOM      7  C   UNL     1      -7.277  26.194   7.104  1.00  0.00     0.004 C 
ENDBRANCH   5   6
ENDBRANCH   1   5
TORSDOF 3
ENDMDL
MODEL 3
REMARK VINA RESULT:    -3.336      1.194      1.194
REMARK INTER + INTRA:          -3.964
REMARK INTER:                  -3.946
REMARK INTRA:                  -0.017
REMARK UNBOUND:                -0.043
REMARK SMILES CCCCC(=O)[O-]
REMARK SMILES IDX 4 1 5 2 6 3 7 4 3 5 2 6 1 7
REMARK H PARENT
REMARK Flexibility Score: inf
ROOT
ATOM      1  C   UNL     1      -8.258  25.591   2.909  1.00  0.00     0.053 C 
ENDROOT
BRANCH   1   2
ATOM      2  C   UNL     1      -7.537  25.156   1.672  1.00  0.00     0.041 C 
ATOM      3  O   UNL     1      -7.574  23.953   1.306  1.00  0.00    -0.550 OA
ATOM      4  O   UNL     1      -6.864  26.091   0.895  1.00  0.00    -0.550 OA
ENDBRANCH   1   2
BRANCH   1   5
ATOM      5  C   UNL     1      -7.275  26.179   3.925  1.00  0.00     0.006 C 
BRANCH   5   6
ATOM      6  C   UNL     1      -7.624  25.734   5.349  1.00  0.00    -0.003 C 
ATOM      7  C   UNL     1      -6.690  26.375   6.371  1.00  0.00     0.004 C 
ENDBRANCH   5   6
ENDBRANCH   1   5
TORSDOF 3
ENDMDL
MODEL 4
REMARK VINA RESULT:    -2.986      2.211      2.957
REMARK INTER + INTRA:          -3.553
REMARK INTER:                  -3.493
REMARK INTRA:                  -0.060
REMARK UNBOUND:                -0.043
REMARK SMILES CCCCC(=O)[O-]
REMARK SMILES IDX 4 1 5 2 6 3 7 4 3 5 2 6 1 7
REMARK H PARENT
REMARK Flexibility Score: inf
ROOT
ATOM      1  C   UNL     1      -7.218  26.129   2.275  1.00  0.00     0.053 C 
ENDROOT
BRANCH   1   2
ATOM      2  C   UNL     1      -7.723  24.843   1.701  1.00  0.00     0.041 C 
ATOM      3  O   UNL     1      -8.826  24.809   1.097  1.00  0.00    -0.550 OA
ATOM      4  O   UNL     1      -6.950  23.692   1.789  1.00  0.00    -0.550 OA
ENDBRANCH   1   2
BRANCH   1   5
ATOM      5  C   UNL     1      -5.727  26.303   1.975  1.00  0.00     0.006 C 
BRANCH   5   6
ATOM      6  C   UNL     1      -4.896  26.248   3.262  1.00  0.00    -0.003 C 
ATOM      7  C   UNL     1      -3.495  25.708   2.991  1.00  0.00     0.004 C 
ENDBRANCH   5   6
ENDBRANCH   1   5
TORSDOF 3
ENDMDL
MODEL 5
REMARK VINA RESULT:    -2.972      1.298      2.138
REMARK INTER + INTRA:          -3.536
REMARK INTER:                  -3.454
REMARK INTRA:                  -0.082
REMARK UNBOUND:                -0.043
REMARK SMILES CCCCC(=O)[O-]
REMARK SMILES IDX 4 1 5 2 6 3 7 4 3 5 2 6 1 7
REMARK H PARENT
REMARK Flexibility Score: inf
ROOT
ATOM      1  C   UNL     1      -6.532  25.734   1.328  1.00  0.00     0.053 C 
ENDROOT
BRANCH   1   2
ATOM      2  C   UNL     1      -6.923  24.291   1.382  1.00  0.00     0.041 C 
ATOM      3  O   UNL     1      -8.004  23.908   0.863  1.00  0.00    -0.550 OA
ATOM      4  O   UNL     1      -6.069  23.361   1.961  1.00  0.00    -0.550 OA
ENDBRANCH   1   2
BRANCH   1   5
ATOM      5  C   UNL     1      -7.232  26.522   2.439  1.00  0.00     0.006 C 
BRANCH   5   6
ATOM      6  C   UNL     1      -6.658  26.160   3.814  1.00  0.00    -0.003 C 
ATOM      7  C   UNL     1      -7.756  25.688   4.763  1.00  0.00     0.004 C 
ENDBRANCH   5   6
ENDBRANCH   1   5
TORSDOF 3
ENDMDL
MODEL 6
REMARK VINA RESULT:    -2.960      8.387      9.449
REMARK INTER + INTRA:          -3.522
REMARK INTER:                  -3.470
REMARK INTRA:                  -0.052
REMARK UNBOUND:                -0.043
REMARK SMILES CCCCC(=O)[O-]
REMARK SMILES IDX 4 1 5 2 6 3 7 4 3 5 2 6 1 7
REMARK H PARENT
REMARK Flexibility Score: inf
ROOT
ATOM      1  C   UNL     1      -7.115  32.044  -1.654  1.00  0.00     0.053 C 
ENDROOT
BRANCH   1   2
ATOM      2  C   UNL     1      -7.048  31.726  -0.193  1.00  0.00     0.041 C 
ATOM      3  O   UNL     1      -8.106  31.579   0.472  1.00  0.00    -0.550 OA
ATOM      4  O   UNL     1      -5.816  31.542   0.422  1.00  0.00    -0.550 OA
ENDBRANCH   1   2
BRANCH   1   5
ATOM      5  C   UNL     1      -7.178  33.558  -1.871  1.00  0.00     0.006 C 
BRANCH   5   6
ATOM      6  C   UNL     1      -5.786  34.130  -2.161  1.00  0.00    -0.003 C 
ATOM      7  C   UNL     1      -5.814  35.655  -2.200  1.00  0.00     0.004 C 
ENDBRANCH   5   6
ENDBRANCH   1   5
TORSDOF 3
ENDMDL
MODEL 7
REMARK VINA RESULT:    -2.957      3.075      3.639
REMARK INTER + INTRA:          -3.518
REMARK INTER:                  -3.438
REMARK INTRA:                  -0.080
REMARK UNBOUND:                -0.043
REMARK SMILES CCCCC(=O)[O-]
REMARK SMILES IDX 4 1 5 2 6 3 7 4 3 5 2 6 1 7
REMARK H PARENT
REMARK Flexibility Score: inf
ROOT
ATOM      1  C   UNL     1      -6.196  24.335   2.113  1.00  0.00     0.053 C 
ENDROOT
BRANCH   1   2
ATOM      2  C   UNL     1      -7.186  24.711   1.056  1.00  0.00     0.041 C 
ATOM      3  O   UNL     1      -7.092  25.818   0.465  1.00  0.00    -0.550 OA
ATOM      4  O   UNL     1      -8.185  23.817   0.690  1.00  0.00    -0.550 OA
ENDBRANCH   1   2
BRANCH   1   5
ATOM      5  C   UNL     1      -4.878  23.884   1.477  1.00  0.00     0.006 C 
BRANCH   5   6
ATOM      6  C   UNL     1      -3.823  24.993   1.552  1.00  0.00    -0.003 C 
ATOM      7  C   UNL     1      -3.757  25.597   2.951  1.00  0.00     0.004 C 
ENDBRANCH   5   6
ENDBRANCH   1   5
TORSDOF 3
ENDMDL
MODEL 8
REMARK VINA RESULT:    -2.934      2.634      4.018
REMARK INTER + INTRA:          -3.492
REMARK INTER:                  -3.432
REMARK INTRA:                  -0.059
REMARK UNBOUND:                -0.043
REMARK SMILES CCCCC(=O)[O-]
REMARK SMILES IDX 4 1 5 2 6 3 7 4 3 5 2 6 1 7
REMARK H PARENT
REMARK Flexibility Score: inf
ROOT
ATOM      1  C   UNL     1      -6.817  26.116   4.211  1.00  0.00     0.053 C 
ENDROOT
BRANCH   1   2
ATOM      2  C   UNL     1      -7.057  26.189   5.686  1.00  0.00     0.041 C 
ATOM      3  O   UNL     1      -7.967  25.498   6.215  1.00  0.00    -0.550 OA
ATOM      4  O   UNL     1      -6.243  26.983   6.484  1.00  0.00    -0.550 OA
ENDBRANCH   1   2
BRANCH   1   5
ATOM      5  C   UNL     1      -8.144  26.018   3.455  1.00  0.00     0.006 C 
BRANCH   5   6
ATOM      6  C   UNL     1      -7.983  25.208   2.163  1.00  0.00    -0.003 C 
ATOM      7  C   UNL     1      -6.674  24.423   2.165  1.00  0.00     0.004 C 
ENDBRANCH   5   6
ENDBRANCH   1   5
TORSDOF 3
ENDMDL
MODEL 9
REMARK VINA RESULT:    -2.817      2.576      3.503
REMARK INTER + INTRA:          -3.354
REMARK INTER:                  -3.239
REMARK INTRA:                  -0.115
REMARK UNBOUND:                -0.043
REMARK SMILES CCCCC(=O)[O-]
REMARK SMILES IDX 4 1 5 2 6 3 7 4 3 5 2 6 1 7
REMARK H PARENT
REMARK Flexibility Score: inf
ROOT
ATOM      1  C   UNL     1      -7.574  24.759   1.701  1.00  0.00     0.053 C 
ENDROOT
BRANCH   1   2
ATOM      2  C   UNL     1      -7.864  25.938   2.576  1.00  0.00     0.041 C 
ATOM      3  O   UNL     1      -8.638  25.821   3.561  1.00  0.00    -0.550 OA
ATOM      4  O   UNL     1      -7.238  27.154   2.332  1.00  0.00    -0.550 OA
ENDBRANCH   1   2
BRANCH   1   5
ATOM      5  C   UNL     1      -6.370  23.978   2.234  1.00  0.00     0.006 C 
BRANCH   5   6
ATOM      6  C   UNL     1      -5.096  24.336   1.460  1.00  0.00    -0.003 C 
ATOM      7  C   UNL     1      -4.163  25.199   2.305  1.00  0.00     0.004 C 
ENDBRANCH   5   6
ENDBRANCH   1   5
TORSDOF 3
ENDMDL
