MODEL 1
REMARK VINA RESULT:    15.203      0.000      0.000
REMARK INTER + INTRA:          19.041
REMARK INTER:                  19.203
REMARK INTRA:                  -0.162
REMARK UNBOUND:                -0.162
REMARK SMILES O=C(C=Cc1ccc(O)cc1)c1ccc(O)cc1O
REMARK SMILES IDX 4 1 3 2 5 3 6 4 7 5 8 6 11 7 10 8 9 9 2 11 1 12 12 13 18 14
REMARK SMILES IDX 13 15 17 16 14 17 15 18 19 19 16 21
REMARK H PARENT 9 10 19 20 16 22
REMARK Flexibility Score: inf
ROOT
ATOM      1  C   UNL     1      -8.313  -5.712  21.622  1.00  0.00     0.012 C 
ATOM      2  C   UNL     1      -7.444  -5.752  20.602  1.00  0.00     0.053 C 
ENDROOT
BRANCH   1   3
ATOM      3  C   UNL     1      -8.532  -6.839  22.562  1.00  0.00    -0.025 A 
ATOM      4  C   UNL     1      -8.752  -8.122  22.034  1.00  0.00     0.012 A 
ATOM      5  C   UNL     1      -8.952  -9.216  22.881  1.00  0.00     0.047 A 
ATOM      6  C   UNL     1      -8.924  -9.043  24.271  1.00  0.00     0.115 A 
ATOM      7  C   UNL     1      -8.489  -6.678  23.962  1.00  0.00     0.012 A 
ATOM      8  C   UNL     1      -8.690  -7.774  24.806  1.00  0.00     0.047 A 
BRANCH   6   9
ATOM      9  O   UNL     1      -9.124 -10.125  25.125  1.00  0.00    -0.508 OA
ATOM     10  H   UNL     1     -10.026 -10.579  25.203  1.00  0.00     0.293 HD
ENDBRANCH   6   9
ENDBRANCH   1   3
BRANCH   2  11
ATOM     11  C   UNL     1      -7.241  -4.603  19.694  1.00  0.00     0.189 C 
ATOM     12  O   UNL     1      -7.281  -4.767  18.443  1.00  0.00    -0.289 OA
BRANCH  11  13
ATOM     13  C   UNL     1      -6.956  -3.258  20.242  1.00  0.00     0.064 A 
ATOM     14  C   UNL     1      -6.047  -2.370  19.613  1.00  0.00     0.130 A 
ATOM     15  C   UNL     1      -7.575  -2.863  21.442  1.00  0.00     0.020 A 
ATOM     16  C   UNL     1      -5.756  -1.138  20.210  1.00  0.00     0.093 A 
ATOM     17  C   UNL     1      -7.286  -1.624  22.018  1.00  0.00     0.047 A 
ATOM     18  C   UNL     1      -6.374  -0.761  21.408  1.00  0.00     0.119 A 
BRANCH  14  19
ATOM     19  O   UNL     1      -5.442  -2.665  18.390  1.00  0.00    -0.507 OA
ATOM     20  H   UNL     1      -5.790  -3.371  17.755  1.00  0.00     0.293 HD
ENDBRANCH  14  19
BRANCH  18  21
ATOM     21  O   UNL     1      -6.089   0.468  21.999  1.00  0.00    -0.508 OA
ATOM     22  H   UNL     1      -5.689   0.528  22.929  1.00  0.00     0.293 HD
ENDBRANCH  18  21
ENDBRANCH  11  13
ENDBRANCH   2  11
TORSDOF 6
ENDMDL
MODEL 2
REMARK VINA RESULT:    17.784      1.504      7.171
REMARK INTER + INTRA:          22.301
REMARK INTER:                  21.987
REMARK INTRA:                   0.314
REMARK UNBOUND:                -0.162
REMARK SMILES O=C(C=Cc1ccc(O)cc1)c1ccc(O)cc1O
REMARK SMILES IDX 4 1 3 2 5 3 6 4 7 5 8 6 11 7 10 8 9 9 2 11 1 12 12 13 18 14
REMARK SMILES IDX 13 15 17 16 14 17 15 18 19 19 16 21
REMARK H PARENT 9 10 19 20 16 22
REMARK Flexibility Score: inf
ROOT
ATOM      1  C   UNL     1      -7.050  -4.856  20.854  1.00  0.00     0.012 C 
ATOM      2  C   UNL     1      -8.252  -5.392  20.596  1.00  0.00     0.053 C 
ENDROOT
BRANCH   1   3
ATOM      3  C   UNL     1      -6.809  -3.398  20.986  1.00  0.00    -0.025 A 
ATOM      4  C   UNL     1      -6.925  -2.809  22.256  1.00  0.00     0.012 A 
ATOM      5  C   UNL     1      -6.697  -1.441  22.430  1.00  0.00     0.047 A 
ATOM      6  C   UNL     1      -6.339  -0.643  21.335  1.00  0.00     0.115 A 
ATOM      7  C   UNL     1      -6.433  -2.590  19.893  1.00  0.00     0.012 A 
ATOM      8  C   UNL     1      -6.206  -1.222  20.070  1.00  0.00     0.047 A 
BRANCH   6   9
ATOM      9  O   UNL     1      -6.110   0.721  21.495  1.00  0.00    -0.508 OA
ATOM     10  H   UNL     1      -6.166   1.165  22.404  1.00  0.00     0.293 HD
ENDBRANCH   6   9
ENDBRANCH   1   3
BRANCH   2  11
ATOM     11  C   UNL     1      -8.457  -6.852  20.487  1.00  0.00     0.189 C 
ATOM     12  O   UNL     1      -8.537  -7.398  19.353  1.00  0.00    -0.289 OA
BRANCH  11  13
ATOM     13  C   UNL     1      -8.605  -7.680  21.705  1.00  0.00     0.064 A 
ATOM     14  C   UNL     1      -8.878  -7.106  22.972  1.00  0.00     0.130 A 
ATOM     15  C   UNL     1      -8.433  -9.072  21.610  1.00  0.00     0.020 A 
ATOM     16  C   UNL     1      -8.936  -7.925  24.106  1.00  0.00     0.093 A 
ATOM     17  C   UNL     1      -8.509  -9.879  22.747  1.00  0.00     0.047 A 
ATOM     18  C   UNL     1      -8.755  -9.308  23.997  1.00  0.00     0.119 A 
BRANCH  14  19
ATOM     19  O   UNL     1      -9.122  -5.741  23.136  1.00  0.00    -0.507 OA
ATOM     20  H   UNL     1      -8.460  -5.107  23.563  1.00  0.00     0.293 HD
ENDBRANCH  14  19
BRANCH  18  21
ATOM     21  O   UNL     1      -8.820 -10.125  25.125  1.00  0.00    -0.508 OA
ATOM     22  H   UNL     1      -9.695 -10.533  25.433  1.00  0.00     0.293 HD
ENDBRANCH  18  21
ENDBRANCH  11  13
ENDBRANCH   2  11
TORSDOF 6
ENDMDL
MODEL 3
REMARK VINA RESULT:    17.908      1.497      7.214
REMARK INTER + INTRA:          22.457
REMARK INTER:                  23.103
REMARK INTRA:                  -0.646
REMARK UNBOUND:                -0.162
REMARK SMILES O=C(C=Cc1ccc(O)cc1)c1ccc(O)cc1O
REMARK SMILES IDX 4 1 3 2 5 3 6 4 7 5 8 6 11 7 10 8 9 9 2 11 1 12 12 13 18 14
REMARK SMILES IDX 13 15 17 16 14 17 15 18 19 19 16 21
REMARK H PARENT 9 10 19 20 16 22
REMARK Flexibility Score: inf
ROOT
ATOM      1  C   UNL     1      -7.227  -4.560  20.714  1.00  0.00     0.012 C 
ATOM      2  C   UNL     1      -8.459  -5.062  20.886  1.00  0.00     0.053 C 
ENDROOT
BRANCH   1   3
ATOM      3  C   UNL     1      -6.883  -3.132  20.922  1.00  0.00    -0.025 A 
ATOM      4  C   UNL     1      -6.964  -2.603  22.221  1.00  0.00     0.012 A 
ATOM      5  C   UNL     1      -6.639  -1.265  22.467  1.00  0.00     0.047 A 
ATOM      6  C   UNL     1      -6.218  -0.440  21.416  1.00  0.00     0.115 A 
ATOM      7  C   UNL     1      -6.443  -2.298  19.874  1.00  0.00     0.012 A 
ATOM      8  C   UNL     1      -6.120  -0.960  20.123  1.00  0.00     0.047 A 
BRANCH   6   9
ATOM      9  O   UNL     1      -5.893   0.894  21.648  1.00  0.00    -0.508 OA
ATOM     10  H   UNL     1      -6.570   1.636  21.512  1.00  0.00     0.293 HD
ENDBRANCH   6   9
ENDBRANCH   1   3
BRANCH   2  11
ATOM     11  C   UNL     1      -8.761  -6.495  20.684  1.00  0.00     0.189 C 
ATOM     12  O   UNL     1      -9.123  -6.913  19.550  1.00  0.00    -0.289 OA
BRANCH  11  13
ATOM     13  C   UNL     1      -8.676  -7.444  21.817  1.00  0.00     0.064 A 
ATOM     14  C   UNL     1      -8.610  -8.845  21.616  1.00  0.00     0.130 A 
ATOM     15  C   UNL     1      -8.699  -6.944  23.131  1.00  0.00     0.020 A 
ATOM     16  C   UNL     1      -8.605  -9.705  22.721  1.00  0.00     0.093 A 
ATOM     17  C   UNL     1      -8.677  -7.812  24.225  1.00  0.00     0.047 A 
ATOM     18  C   UNL     1      -8.635  -9.193  24.023  1.00  0.00     0.119 A 
BRANCH  14  19
ATOM     19  O   UNL     1      -8.522  -9.413  20.344  1.00  0.00    -0.507 OA
ATOM     20  H   UNL     1      -9.329  -9.723  19.817  1.00  0.00     0.293 HD
ENDBRANCH  14  19
BRANCH  18  21
ATOM     21  O   UNL     1      -8.622 -10.048  25.124  1.00  0.00    -0.508 OA
ATOM     22  H   UNL     1      -9.223  -9.888  25.924  1.00  0.00     0.293 HD
ENDBRANCH  18  21
ENDBRANCH  11  13
ENDBRANCH   2  11
TORSDOF 6
ENDMDL
