MODEL 1
REMARK VINA RESULT:    -2.865      0.000      0.000
REMARK INTER + INTRA:          -4.360
REMARK INTER:                  -3.870
REMARK INTRA:                  -0.490
REMARK UNBOUND:                -0.490
REMARK SMILES CCCCCCCC(=O)[O-]
REMARK SMILES IDX 5 1 6 2 7 3 8 4 9 5 10 6 4 7 3 8 2 9 1 10
REMARK H PARENT
REMARK Flexibility Score: inf
ROOT
ATOM      1  C   UNL     1      20.344 -12.463  -0.660  1.00  0.00     0.000 C 
ENDROOT
BRANCH   1   2
ATOM      2  C   UNL     1      19.533 -13.686  -1.119  1.00  0.00     0.006 C 
BRANCH   2   3
ATOM      3  C   UNL     1      19.174 -13.635  -2.609  1.00  0.00     0.053 C 
BRANCH   3   4
ATOM      4  C   UNL     1      17.707 -13.855  -2.799  1.00  0.00     0.041 C 
ATOM      5  O   UNL     1      17.231 -15.020  -2.772  1.00  0.00    -0.550 OA
ATOM      6  O   UNL     1      16.856 -12.767  -2.955  1.00  0.00    -0.550 OA
ENDBRANCH   3   4
ENDBRANCH   2   3
ENDBRANCH   1   2
BRANCH   1   7
ATOM      7  C   UNL     1      21.195 -11.801  -1.760  1.00  0.00     0.000 C 
BRANCH   7   8
ATOM      8  C   UNL     1      20.823 -10.327  -2.032  1.00  0.00    -0.000 C 
BRANCH   8   9
ATOM      9  C   UNL     1      19.372 -10.011  -1.639  1.00  0.00    -0.003 C 
ATOM     10  C   UNL     1      18.561  -9.553  -2.847  1.00  0.00     0.004 C 
ENDBRANCH   8   9
ENDBRANCH   7   8
ENDBRANCH   1   7
TORSDOF 6
ENDMDL
MODEL 2
REMARK VINA RESULT:    -2.862     14.388     15.630
REMARK INTER + INTRA:          -4.356
REMARK INTER:                  -3.928
REMARK INTRA:                  -0.428
REMARK UNBOUND:                -0.490
REMARK SMILES CCCCCCCC(=O)[O-]
REMARK SMILES IDX 5 1 6 2 7 3 8 4 9 5 10 6 4 7 3 8 2 9 1 10
REMARK H PARENT
REMARK Flexibility Score: inf
ROOT
ATOM      1  C   UNL     1      17.152 -16.991  13.050  1.00  0.00     0.000 C 
ENDROOT
BRANCH   1   2
ATOM      2  C   UNL     1      18.021 -16.226  14.062  1.00  0.00     0.006 C 
BRANCH   2   3
ATOM      3  C   UNL     1      19.016 -15.272  13.389  1.00  0.00     0.053 C 
BRANCH   3   4
ATOM      4  C   UNL     1      20.415 -15.600  13.805  1.00  0.00     0.041 C 
ATOM      5  O   UNL     1      20.953 -14.982  14.761  1.00  0.00    -0.550 OA
ATOM      6  O   UNL     1      21.107 -16.624  13.171  1.00  0.00    -0.550 OA
ENDBRANCH   3   4
ENDBRANCH   2   3
ENDBRANCH   1   2
BRANCH   1   7
ATOM      7  C   UNL     1      17.930 -17.929  12.107  1.00  0.00     0.000 C 
BRANCH   7   8
ATOM      8  C   UNL     1      17.829 -17.538  10.617  1.00  0.00    -0.000 C 
BRANCH   8   9
ATOM      9  C   UNL     1      18.999 -16.650  10.168  1.00  0.00    -0.003 C 
ATOM     10  C   UNL     1      18.532 -15.577   9.189  1.00  0.00     0.004 C 
ENDBRANCH   8   9
ENDBRANCH   7   8
ENDBRANCH   1   7
TORSDOF 6
ENDMDL
MODEL 3
REMARK VINA RESULT:    -2.858      1.390      1.749
REMARK INTER + INTRA:          -4.350
REMARK INTER:                  -4.115
REMARK INTRA:                  -0.236
REMARK UNBOUND:                -0.490
REMARK SMILES CCCCCCCC(=O)[O-]
REMARK SMILES IDX 5 1 6 2 7 3 8 4 9 5 10 6 4 7 3 8 2 9 1 10
REMARK H PARENT
REMARK Flexibility Score: inf
ROOT
ATOM      1  C   UNL     1      19.605 -13.974  -1.860  1.00  0.00     0.000 C 
ENDROOT
BRANCH   1   2
ATOM      2  C   UNL     1      18.484 -14.932  -1.425  1.00  0.00     0.006 C 
BRANCH   2   3
ATOM      3  C   UNL     1      17.580 -15.354  -2.590  1.00  0.00     0.053 C 
BRANCH   3   4
ATOM      4  C   UNL     1      16.201 -14.805  -2.404  1.00  0.00     0.041 C 
ATOM      5  O   UNL     1      15.325 -15.480  -1.803  1.00  0.00    -0.550 OA
ATOM      6  O   UNL     1      15.897 -13.526  -2.852  1.00  0.00    -0.550 OA
ENDBRANCH   3   4
ENDBRANCH   2   3
ENDBRANCH   1   2
BRANCH   1   7
ATOM      7  C   UNL     1      19.276 -12.477  -1.702  1.00  0.00     0.000 C 
BRANCH   7   8
ATOM      8  C   UNL     1      20.440 -11.641  -1.129  1.00  0.00    -0.000 C 
BRANCH   8   9
ATOM      9  C   UNL     1      20.248 -10.136  -1.365  1.00  0.00    -0.003 C 
ATOM     10  C   UNL     1      18.945  -9.856  -2.106  1.00  0.00     0.004 C 
ENDBRANCH   8   9
ENDBRANCH   7   8
ENDBRANCH   1   7
TORSDOF 6
ENDMDL
MODEL 4
REMARK VINA RESULT:    -2.827     14.030     15.261
REMARK INTER + INTRA:          -4.309
REMARK INTER:                  -3.854
REMARK INTRA:                  -0.454
REMARK UNBOUND:                -0.490
REMARK SMILES CCCCCCCC(=O)[O-]
REMARK SMILES IDX 5 1 6 2 7 3 8 4 9 5 10 6 4 7 3 8 2 9 1 10
REMARK H PARENT
REMARK Flexibility Score: inf
ROOT
ATOM      1  C   UNL     1      17.127 -17.041  13.230  1.00  0.00     0.000 C 
ENDROOT
BRANCH   1   2
ATOM      2  C   UNL     1      17.969 -17.961  12.330  1.00  0.00     0.006 C 
BRANCH   2   3
ATOM      3  C   UNL     1      17.750 -17.690  10.836  1.00  0.00     0.053 C 
BRANCH   3   4
ATOM      4  C   UNL     1      18.883 -16.885  10.282  1.00  0.00     0.041 C 
ATOM      5  O   UNL     1      18.659 -15.783   9.716  1.00  0.00    -0.550 OA
ATOM      6  O   UNL     1      20.190 -17.328  10.435  1.00  0.00    -0.550 OA
ENDBRANCH   3   4
ENDBRANCH   2   3
ENDBRANCH   1   2
BRANCH   1   7
ATOM      7  C   UNL     1      17.942 -16.109  14.146  1.00  0.00     0.000 C 
BRANCH   7   8
ATOM      8  C   UNL     1      19.018 -15.290  13.401  1.00  0.00    -0.000 C 
BRANCH   8   9
ATOM      9  C   UNL     1      20.362 -15.280  14.145  1.00  0.00    -0.003 C 
ATOM     10  C   UNL     1      21.273 -16.400  13.652  1.00  0.00     0.004 C 
ENDBRANCH   8   9
ENDBRANCH   7   8
ENDBRANCH   1   7
TORSDOF 6
ENDMDL
MODEL 5
REMARK VINA RESULT:    -2.825      1.596      2.882
REMARK INTER + INTRA:          -4.306
REMARK INTER:                  -3.875
REMARK INTRA:                  -0.431
REMARK UNBOUND:                -0.490
REMARK SMILES CCCCCCCC(=O)[O-]
REMARK SMILES IDX 5 1 6 2 7 3 8 4 9 5 10 6 4 7 3 8 2 9 1 10
REMARK H PARENT
REMARK Flexibility Score: inf
ROOT
ATOM      1  C   UNL     1      19.098 -11.074  -1.896  1.00  0.00     0.000 C 
ENDROOT
BRANCH   1   2
ATOM      2  C   UNL     1      19.367 -12.530  -2.313  1.00  0.00     0.006 C 
BRANCH   2   3
ATOM      3  C   UNL     1      19.600 -13.458  -1.114  1.00  0.00     0.053 C 
BRANCH   3   4
ATOM      4  C   UNL     1      19.128 -14.842  -1.427  1.00  0.00     0.041 C 
ATOM      5  O   UNL     1      17.902 -15.068  -1.605  1.00  0.00    -0.550 OA
ATOM      6  O   UNL     1      20.047 -15.873  -1.572  1.00  0.00    -0.550 OA
ENDBRANCH   3   4
ENDBRANCH   2   3
ENDBRANCH   1   2
BRANCH   1   7
ATOM      7  C   UNL     1      20.356 -10.263  -1.531  1.00  0.00     0.000 C 
BRANCH   7   8
ATOM      8  C   UNL     1      21.541 -10.486  -2.495  1.00  0.00    -0.000 C 
BRANCH   8   9
ATOM      9  C   UNL     1      22.881 -10.601  -1.754  1.00  0.00    -0.003 C 
ATOM     10  C   UNL     1      22.874 -11.776  -0.782  1.00  0.00     0.004 C 
ENDBRANCH   8   9
ENDBRANCH   7   8
ENDBRANCH   1   7
TORSDOF 6
ENDMDL
MODEL 6
REMARK VINA RESULT:    -2.770      2.542      4.310
REMARK INTER + INTRA:          -4.231
REMARK INTER:                  -3.782
REMARK INTRA:                  -0.449
REMARK UNBOUND:                -0.490
REMARK SMILES CCCCCCCC(=O)[O-]
REMARK SMILES IDX 5 1 6 2 7 3 8 4 9 5 10 6 4 7 3 8 2 9 1 10
REMARK H PARENT
REMARK Flexibility Score: inf
ROOT
ATOM      1  C   UNL     1      19.496 -13.653  -1.179  1.00  0.00     0.000 C 
ENDROOT
BRANCH   1   2
ATOM      2  C   UNL     1      19.505 -12.649  -2.344  1.00  0.00     0.006 C 
BRANCH   2   3
ATOM      3  C   UNL     1      18.412 -11.580  -2.215  1.00  0.00     0.053 C 
BRANCH   3   4
ATOM      4  C   UNL     1      19.025 -10.233  -1.999  1.00  0.00     0.041 C 
ATOM      5  O   UNL     1      20.024 -10.104  -1.245  1.00  0.00    -0.550 OA
ATOM      6  O   UNL     1      18.523  -9.126  -2.672  1.00  0.00    -0.550 OA
ENDBRANCH   3   4
ENDBRANCH   2   3
ENDBRANCH   1   2
BRANCH   1   7
ATOM      7  C   UNL     1      19.080 -15.086  -1.562  1.00  0.00     0.000 C 
BRANCH   7   8
ATOM      8  C   UNL     1      18.039 -15.147  -2.700  1.00  0.00    -0.000 C 
BRANCH   8   9
ATOM      9  C   UNL     1      16.597 -15.157  -2.171  1.00  0.00    -0.003 C 
ATOM     10  C   UNL     1      15.742 -14.113  -2.882  1.00  0.00     0.004 C 
ENDBRANCH   8   9
ENDBRANCH   7   8
ENDBRANCH   1   7
TORSDOF 6
ENDMDL
MODEL 7
REMARK VINA RESULT:    -2.763      1.640      3.798
REMARK INTER + INTRA:          -4.222
REMARK INTER:                  -3.751
REMARK INTRA:                  -0.470
REMARK UNBOUND:                -0.490
REMARK SMILES CCCCCCCC(=O)[O-]
REMARK SMILES IDX 5 1 6 2 7 3 8 4 9 5 10 6 4 7 3 8 2 9 1 10
REMARK H PARENT
REMARK Flexibility Score: inf
ROOT
ATOM      1  C   UNL     1      20.608 -11.973  -0.890  1.00  0.00     0.000 C 
ENDROOT
BRANCH   1   2
ATOM      2  C   UNL     1      20.462 -10.486  -1.257  1.00  0.00     0.006 C 
BRANCH   2   3
ATOM      3  C   UNL     1      20.166 -10.269  -2.745  1.00  0.00     0.053 C 
BRANCH   3   4
ATOM      4  C   UNL     1      18.690 -10.183  -2.975  1.00  0.00     0.041 C 
ATOM      5  O   UNL     1      18.129  -9.060  -3.081  1.00  0.00    -0.550 OA
ATOM      6  O   UNL     1      17.942 -11.343  -3.125  1.00  0.00    -0.550 OA
ENDBRANCH   3   4
ENDBRANCH   2   3
ENDBRANCH   1   2
BRANCH   1   7
ATOM      7  C   UNL     1      21.221 -12.855  -1.995  1.00  0.00     0.000 C 
BRANCH   7   8
ATOM      8  C   UNL     1      20.353 -14.075  -2.370  1.00  0.00    -0.000 C 
BRANCH   8   9
ATOM      9  C   UNL     1      19.333 -14.422  -1.276  1.00  0.00    -0.003 C 
ATOM     10  C   UNL     1      18.067 -15.028  -1.873  1.00  0.00     0.004 C 
ENDBRANCH   8   9
ENDBRANCH   7   8
ENDBRANCH   1   7
TORSDOF 6
ENDMDL
MODEL 8
REMARK VINA RESULT:    -2.735      2.816      4.406
REMARK INTER + INTRA:          -4.185
REMARK INTER:                  -3.551
REMARK INTRA:                  -0.634
REMARK UNBOUND:                -0.490
REMARK SMILES CCCCCCCC(=O)[O-]
REMARK SMILES IDX 5 1 6 2 7 3 8 4 9 5 10 6 4 7 3 8 2 9 1 10
REMARK H PARENT
REMARK Flexibility Score: inf
ROOT
ATOM      1  C   UNL     1      19.049 -10.096  -1.856  1.00  0.00     0.000 C 
ENDROOT
BRANCH   1   2
ATOM      2  C   UNL     1      20.497 -10.159  -1.341  1.00  0.00     0.006 C 
BRANCH   2   3
ATOM      3  C   UNL     1      21.479 -10.686  -2.394  1.00  0.00     0.053 C 
BRANCH   3   4
ATOM      4  C   UNL     1      22.256 -11.842  -1.848  1.00  0.00     0.041 C 
ATOM      5  O   UNL     1      22.641 -11.837  -0.649  1.00  0.00    -0.550 OA
ATOM      6  O   UNL     1      22.512 -12.947  -2.649  1.00  0.00    -0.550 OA
ENDBRANCH   3   4
ENDBRANCH   2   3
ENDBRANCH   1   2
BRANCH   1   7
ATOM      7  C   UNL     1      18.764 -10.969  -3.093  1.00  0.00     0.000 C 
BRANCH   7   8
ATOM      8  C   UNL     1      18.015 -12.280  -2.771  1.00  0.00    -0.000 C 
BRANCH   8   9
ATOM      9  C   UNL     1      18.947 -13.500  -2.779  1.00  0.00    -0.003 C 
ATOM     10  C   UNL     1      19.298 -13.935  -1.360  1.00  0.00     0.004 C 
ENDBRANCH   8   9
ENDBRANCH   7   8
ENDBRANCH   1   7
TORSDOF 6
ENDMDL
MODEL 9
REMARK VINA RESULT:    -2.732     15.603     16.747
REMARK INTER + INTRA:          -4.180
REMARK INTER:                  -3.730
REMARK INTRA:                  -0.450
REMARK UNBOUND:                -0.490
REMARK SMILES CCCCCCCC(=O)[O-]
REMARK SMILES IDX 5 1 6 2 7 3 8 4 9 5 10 6 4 7 3 8 2 9 1 10
REMARK H PARENT
REMARK Flexibility Score: inf
ROOT
ATOM      1  C   UNL     1      18.646 -15.522  13.259  1.00  0.00     0.000 C 
ENDROOT
BRANCH   1   2
ATOM      2  C   UNL     1      17.507 -16.408  13.792  1.00  0.00     0.006 C 
BRANCH   2   3
ATOM      3  C   UNL     1      17.824 -17.022  15.161  1.00  0.00     0.053 C 
BRANCH   3   4
ATOM      4  C   UNL     1      18.018 -15.946  16.182  1.00  0.00     0.041 C 
ATOM      5  O   UNL     1      17.036 -15.265  16.579  1.00  0.00    -0.550 OA
ATOM      6  O   UNL     1      19.274 -15.729  16.733  1.00  0.00    -0.550 OA
ENDBRANCH   3   4
ENDBRANCH   2   3
ENDBRANCH   1   2
BRANCH   1   7
ATOM      7  C   UNL     1      19.899 -16.289  12.795  1.00  0.00     0.000 C 
BRANCH   7   8
ATOM      8  C   UNL     1      19.611 -17.362  11.724  1.00  0.00    -0.000 C 
BRANCH   8   9
ATOM      9  C   UNL     1      19.024 -16.760  10.438  1.00  0.00    -0.003 C 
ATOM     10  C   UNL     1      17.803 -17.544   9.970  1.00  0.00     0.004 C 
ENDBRANCH   8   9
ENDBRANCH   7   8
ENDBRANCH   1   7
TORSDOF 6
ENDMDL
