MODEL 1
REMARK VINA RESULT:    -5.207      0.000      0.000
REMARK INTER + INTRA:          -6.572
REMARK INTER:                  -5.968
REMARK INTRA:                  -0.605
REMARK UNBOUND:                -0.605
REMARK SMILES C=C(C)[C@H]1CC[C@@]2(C(=O)[O-])CC[C@]3(C)[C@@H](CC[C@@H]4[C@]5(C)CC[C@@H](O)C(C)(C)[C@@H]5CC[C@@]43C)[C@@H]12
REMARK SMILES IDX 7 1 6 2 33 3 11 4 5 5 15 6 4 7 12 8 16 9 13 10 17 11 31 12
REMARK SMILES IDX 14 13 18 14 30 15 32 16 19 17 29 18 21 19 20 20 28 21 22 22
REMARK SMILES IDX 25 23 23 24 26 25 27 26 8 27 9 28 10 29 2 30 3 31 1 32 24 33
REMARK H PARENT 24 34
REMARK Flexibility Score: inf
ROOT
ATOM      1  C   UNL     1     -15.817 -22.875 -39.583  1.00  0.00     0.014 C 
ATOM      2  C   UNL     1     -16.180 -23.160 -38.102  1.00  0.00     0.014 C 
ATOM      3  C   UNL     1     -16.024 -24.231 -40.289  1.00  0.00     0.012 C 
ATOM      4  C   UNL     1     -14.338 -22.456 -39.700  1.00  0.00     0.014 C 
ATOM      5  C   UNL     1     -15.973 -24.648 -37.837  1.00  0.00     0.009 C 
ATOM      6  C   UNL     1     -15.432 -24.300 -41.759  1.00  0.00     0.000 C 
ATOM      7  C   UNL     1     -15.902 -25.362 -39.200  1.00  0.00     0.018 C 
ATOM      8  C   UNL     1     -13.833 -22.290 -41.152  1.00  0.00     0.008 C 
ATOM      9  C   UNL     1     -15.613 -25.630 -42.504  1.00  0.00     0.005 C 
ATOM     10  C   UNL     1     -14.154 -23.441 -42.204  1.00  0.00    -0.024 C 
ATOM     11  C   UNL     1     -14.332 -26.427 -42.664  1.00  0.00     0.005 C 
ATOM     12  C   UNL     1     -12.822 -24.324 -42.553  1.00  0.00    -0.024 C 
ATOM     13  C   UNL     1     -14.588 -22.705 -43.535  1.00  0.00     0.012 C 
ATOM     14  C   UNL     1     -13.177 -25.648 -43.360  1.00  0.00     0.002 C 
ATOM     15  C   UNL     1     -12.008 -24.688 -41.268  1.00  0.00     0.008 C 
ATOM     16  C   UNL     1     -11.855 -23.441 -43.424  1.00  0.00     0.012 C 
ATOM     17  C   UNL     1     -11.894 -26.564 -43.739  1.00  0.00    -0.026 C 
ATOM     18  C   UNL     1     -11.383 -26.088 -41.228  1.00  0.00     0.005 C 
ATOM     19  C   UNL     1     -12.326 -28.028 -44.044  1.00  0.00     0.010 C 
ATOM     20  C   UNL     1     -11.285 -26.012 -45.086  1.00  0.00     0.012 C 
ATOM     21  C   UNL     1     -10.794 -26.561 -42.581  1.00  0.00     0.003 C 
ATOM     22  C   UNL     1     -11.179 -28.992 -44.422  1.00  0.00     0.033 C 
ATOM     23  C   UNL     1      -9.936 -27.902 -42.413  1.00  0.00    -0.006 C 
ATOM     24  C   UNL     1      -9.803 -28.656 -43.771  1.00  0.00     0.120 C 
ATOM     25  C   UNL     1     -10.518 -28.899 -41.357  1.00  0.00     0.014 C 
ATOM     26  C   UNL     1      -8.509 -27.542 -41.921  1.00  0.00     0.014 C 
ENDROOT
BRANCH   1  27
ATOM     27  C   UNL     1     -16.734 -21.769 -40.139  1.00  0.00     0.048 C 
ATOM     28  O   UNL     1     -17.124 -20.831 -39.399  1.00  0.00    -0.550 OA
ATOM     29  O   UNL     1     -17.125 -21.750 -41.476  1.00  0.00    -0.550 OA
ENDBRANCH   1  27
BRANCH   7  30
ATOM     30  C   UNL     1     -14.804 -26.423 -39.247  1.00  0.00    -0.077 C 
ATOM     31  C   UNL     1     -15.187 -27.832 -39.650  1.00  0.00     0.039 C 
ATOM     32  C   UNL     1     -13.615 -26.262 -38.632  1.00  0.00     0.008 C 
ENDBRANCH   7  30
BRANCH  24  33
ATOM     33  O   UNL     1      -8.989 -27.927 -44.652  1.00  0.00    -0.393 OA
ATOM     34  H   UNL     1      -9.321 -28.096 -45.577  1.00  0.00     0.210 HD
ENDBRANCH  24  33
TORSDOF 3
ENDMDL
MODEL 2
REMARK VINA RESULT:    -4.841      3.758      6.434
REMARK INTER + INTRA:          -6.153
REMARK INTER:                  -5.296
REMARK INTRA:                  -0.857
REMARK UNBOUND:                -0.605
REMARK SMILES C=C(C)[C@H]1CC[C@@]2(C(=O)[O-])CC[C@]3(C)[C@@H](CC[C@@H]4[C@]5(C)CC[C@@H](O)C(C)(C)[C@@H]5CC[C@@]43C)[C@@H]12
REMARK SMILES IDX 7 1 6 2 33 3 11 4 5 5 15 6 4 7 12 8 16 9 13 10 17 11 31 12
REMARK SMILES IDX 14 13 18 14 30 15 32 16 19 17 29 18 21 19 20 20 28 21 22 22
REMARK SMILES IDX 25 23 23 24 26 25 27 26 8 27 9 28 10 29 2 30 3 31 1 32 24 33
REMARK H PARENT 24 34
REMARK Flexibility Score: inf
ROOT
ATOM      1  C   UNL     1     -15.286 -26.658 -48.156  1.00  0.00     0.014 C 
ATOM      2  C   UNL     1     -16.486 -25.679 -48.222  1.00  0.00     0.014 C 
ATOM      3  C   UNL     1     -15.442 -27.357 -46.789  1.00  0.00     0.012 C 
ATOM      4  C   UNL     1     -13.956 -25.877 -48.183  1.00  0.00     0.014 C 
ATOM      5  C   UNL     1     -16.913 -25.350 -46.794  1.00  0.00     0.009 C 
ATOM      6  C   UNL     1     -14.175 -28.194 -46.333  1.00  0.00     0.000 C 
ATOM      7  C   UNL     1     -16.296 -26.411 -45.864  1.00  0.00     0.018 C 
ATOM      8  C   UNL     1     -12.696 -26.750 -47.974  1.00  0.00     0.008 C 
ATOM      9  C   UNL     1     -14.283 -28.907 -44.977  1.00  0.00     0.005 C 
ATOM     10  C   UNL     1     -12.687 -27.793 -46.773  1.00  0.00    -0.024 C 
ATOM     11  C   UNL     1     -13.439 -28.284 -43.882  1.00  0.00     0.005 C 
ATOM     12  C   UNL     1     -11.722 -27.293 -45.550  1.00  0.00    -0.024 C 
ATOM     13  C   UNL     1     -12.052 -29.121 -47.354  1.00  0.00     0.012 C 
ATOM     14  C   UNL     1     -11.927 -28.159 -44.232  1.00  0.00     0.002 C 
ATOM     15  C   UNL     1     -11.928 -25.777 -45.225  1.00  0.00     0.008 C 
ATOM     16  C   UNL     1     -10.225 -27.421 -46.015  1.00  0.00     0.012 C 
ATOM     17  C   UNL     1     -10.992 -27.713 -42.986  1.00  0.00    -0.026 C 
ATOM     18  C   UNL     1     -11.879 -25.382 -43.744  1.00  0.00     0.005 C 
ATOM     19  C   UNL     1     -11.582 -28.220 -41.637  1.00  0.00     0.010 C 
ATOM     20  C   UNL     1      -9.599 -28.437 -43.139  1.00  0.00     0.012 C 
ATOM     21  C   UNL     1     -10.798 -26.128 -42.922  1.00  0.00     0.003 C 
ATOM     22  C   UNL     1     -10.767 -27.852 -40.377  1.00  0.00     0.033 C 
ATOM     23  C   UNL     1     -10.627 -25.492 -41.463  1.00  0.00    -0.006 C 
ATOM     24  C   UNL     1      -9.977 -26.513 -40.480  1.00  0.00     0.120 C 
ATOM     25  C   UNL     1     -11.964 -24.988 -40.828  1.00  0.00     0.014 C 
ATOM     26  C   UNL     1      -9.699 -24.250 -41.549  1.00  0.00     0.014 C 
ENDROOT
BRANCH   1  27
ATOM     27  C   UNL     1     -15.353 -27.643 -49.338  1.00  0.00     0.048 C 
ATOM     28  O   UNL     1     -15.806 -28.804 -49.177  1.00  0.00    -0.550 OA
ATOM     29  O   UNL     1     -14.954 -27.272 -50.621  1.00  0.00    -0.550 OA
ENDBRANCH   1  27
BRANCH   7  30
ATOM     30  C   UNL     1     -15.735 -25.805 -44.578  1.00  0.00    -0.077 C 
ATOM     31  C   UNL     1     -16.188 -26.387 -43.256  1.00  0.00     0.039 C 
ATOM     32  C   UNL     1     -15.147 -24.593 -44.547  1.00  0.00     0.008 C 
ENDBRANCH   7  30
BRANCH  24  33
ATOM     33  O   UNL     1      -8.637 -26.740 -40.833  1.00  0.00    -0.393 OA
ATOM     34  H   UNL     1      -8.076 -26.104 -40.308  1.00  0.00     0.210 HD
ENDBRANCH  24  33
TORSDOF 3
ENDMDL
MODEL 3
REMARK VINA RESULT:    -4.795      1.366      7.236
REMARK INTER + INTRA:          -6.100
REMARK INTER:                  -5.504
REMARK INTRA:                  -0.596
REMARK UNBOUND:                -0.605
REMARK SMILES C=C(C)[C@H]1CC[C@@]2(C(=O)[O-])CC[C@]3(C)[C@@H](CC[C@@H]4[C@]5(C)CC[C@@H](O)C(C)(C)[C@@H]5CC[C@@]43C)[C@@H]12
REMARK SMILES IDX 7 1 6 2 33 3 11 4 5 5 15 6 4 7 12 8 16 9 13 10 17 11 31 12
REMARK SMILES IDX 14 13 18 14 30 15 32 16 19 17 29 18 21 19 20 20 28 21 22 22
REMARK SMILES IDX 25 23 23 24 26 25 27 26 8 27 9 28 10 29 2 30 3 31 1 32 24 33
REMARK H PARENT 24 34
REMARK Flexibility Score: inf
ROOT
ATOM      1  C   UNL     1      -9.022 -28.161 -43.671  1.00  0.00     0.014 C 
ATOM      2  C   UNL     1      -8.242 -29.125 -42.740  1.00  0.00     0.014 C 
ATOM      3  C   UNL     1      -9.056 -26.829 -42.892  1.00  0.00     0.012 C 
ATOM      4  C   UNL     1     -10.462 -28.669 -43.881  1.00  0.00     0.014 C 
ATOM      5  C   UNL     1      -8.386 -28.625 -41.306  1.00  0.00     0.009 C 
ATOM      6  C   UNL     1     -10.057 -25.751 -43.483  1.00  0.00     0.000 C 
ATOM      7  C   UNL     1      -8.869 -27.164 -41.365  1.00  0.00     0.018 C 
ATOM      8  C   UNL     1     -11.372 -27.703 -44.677  1.00  0.00     0.008 C 
ATOM      9  C   UNL     1     -10.126 -24.408 -42.741  1.00  0.00     0.005 C 
ATOM     10  C   UNL     1     -11.395 -26.167 -44.261  1.00  0.00    -0.024 C 
ATOM     11  C   UNL     1     -11.410 -24.200 -41.961  1.00  0.00     0.005 C 
ATOM     12  C   UNL     1     -12.785 -25.773 -43.493  1.00  0.00    -0.024 C 
ATOM     13  C   UNL     1     -11.362 -25.349 -45.615  1.00  0.00     0.012 C 
ATOM     14  C   UNL     1     -12.706 -24.338 -42.813  1.00  0.00     0.002 C 
ATOM     15  C   UNL     1     -13.188 -26.843 -42.428  1.00  0.00     0.008 C 
ATOM     16  C   UNL     1     -13.952 -25.772 -44.548  1.00  0.00     0.012 C 
ATOM     17  C   UNL     1     -14.058 -23.889 -42.039  1.00  0.00    -0.026 C 
ATOM     18  C   UNL     1     -13.797 -26.315 -41.123  1.00  0.00     0.005 C 
ATOM     19  C   UNL     1     -13.760 -22.770 -40.999  1.00  0.00     0.010 C 
ATOM     20  C   UNL     1     -15.030 -23.237 -43.098  1.00  0.00     0.012 C 
ATOM     21  C   UNL     1     -14.767 -25.122 -41.310  1.00  0.00     0.003 C 
ATOM     22  C   UNL     1     -14.983 -22.264 -40.202  1.00  0.00     0.033 C 
ATOM     23  C   UNL     1     -15.558 -24.789 -39.959  1.00  0.00    -0.006 C 
ATOM     24  C   UNL     1     -16.099 -23.327 -39.973  1.00  0.00     0.120 C 
ATOM     25  C   UNL     1     -14.706 -24.982 -38.661  1.00  0.00     0.014 C 
ATOM     26  C   UNL     1     -16.770 -25.749 -39.822  1.00  0.00     0.014 C 
ENDROOT
BRANCH   1  27
ATOM     27  C   UNL     1      -8.293 -28.041 -45.023  1.00  0.00     0.048 C 
ATOM     28  O   UNL     1      -7.091 -27.677 -45.069  1.00  0.00    -0.550 OA
ATOM     29  O   UNL     1      -8.923 -28.365 -46.223  1.00  0.00    -0.550 OA
ENDBRANCH   1  27
BRANCH   7  30
ATOM     30  C   UNL     1      -9.948 -26.863 -40.326  1.00  0.00    -0.077 C 
ATOM     31  C   UNL     1      -9.711 -25.724 -39.357  1.00  0.00     0.039 C 
ATOM     32  C   UNL     1     -10.914 -27.749 -40.010  1.00  0.00     0.008 C 
ENDBRANCH   7  30
BRANCH  24  33
ATOM     33  O   UNL     1     -17.125 -23.198 -40.922  1.00  0.00    -0.393 OA
ATOM     34  H   UNL     1     -16.721 -23.339 -41.822  1.00  0.00     0.210 HD
ENDBRANCH  24  33
TORSDOF 3
ENDMDL
MODEL 4
REMARK VINA RESULT:    -4.710      3.144      5.845
REMARK INTER + INTRA:          -6.003
REMARK INTER:                  -5.153
REMARK INTRA:                  -0.850
REMARK UNBOUND:                -0.605
REMARK SMILES C=C(C)[C@H]1CC[C@@]2(C(=O)[O-])CC[C@]3(C)[C@@H](CC[C@@H]4[C@]5(C)CC[C@@H](O)C(C)(C)[C@@H]5CC[C@@]43C)[C@@H]12
REMARK SMILES IDX 7 1 6 2 33 3 11 4 5 5 15 6 4 7 12 8 16 9 13 10 17 11 31 12
REMARK SMILES IDX 14 13 18 14 30 15 32 16 19 17 29 18 21 19 20 20 28 21 22 22
REMARK SMILES IDX 25 23 23 24 26 25 27 26 8 27 9 28 10 29 2 30 3 31 1 32 24 33
REMARK H PARENT 24 34
REMARK Flexibility Score: inf
ROOT
ATOM      1  C   UNL     1     -11.275 -26.528 -40.031  1.00  0.00     0.014 C 
ATOM      2  C   UNL     1     -12.367 -26.140 -39.002  1.00  0.00     0.014 C 
ATOM      3  C   UNL     1     -11.421 -25.478 -41.152  1.00  0.00     0.012 C 
ATOM      4  C   UNL     1     -11.554 -27.932 -40.604  1.00  0.00     0.014 C 
ATOM      5  C   UNL     1     -13.464 -25.373 -39.736  1.00  0.00     0.009 C 
ATOM      6  C   UNL     1     -10.623 -25.821 -42.479  1.00  0.00     0.000 C 
ATOM      7  C   UNL     1     -12.889 -24.912 -41.088  1.00  0.00     0.018 C 
ATOM      8  C   UNL     1     -10.605 -28.358 -41.750  1.00  0.00     0.008 C 
ATOM      9  C   UNL     1     -10.739 -24.805 -43.625  1.00  0.00     0.005 C 
ATOM     10  C   UNL     1     -10.341 -27.332 -42.937  1.00  0.00    -0.024 C 
ATOM     11  C   UNL     1     -11.577 -25.286 -44.794  1.00  0.00     0.005 C 
ATOM     12  C   UNL     1     -11.109 -27.788 -44.307  1.00  0.00    -0.024 C 
ATOM     13  C   UNL     1      -8.788 -27.395 -43.230  1.00  0.00     0.012 C 
ATOM     14  C   UNL     1     -11.105 -26.638 -45.406  1.00  0.00     0.002 C 
ATOM     15  C   UNL     1     -12.577 -28.250 -44.029  1.00  0.00     0.008 C 
ATOM     16  C   UNL     1     -10.376 -29.051 -44.890  1.00  0.00     0.012 C 
ATOM     17  C   UNL     1     -11.849 -27.034 -46.791  1.00  0.00    -0.026 C 
ATOM     18  C   UNL     1     -13.629 -27.852 -45.072  1.00  0.00     0.005 C 
ATOM     19  C   UNL     1     -12.258 -25.761 -47.587  1.00  0.00     0.010 C 
ATOM     20  C   UNL     1     -10.807 -27.789 -47.704  1.00  0.00     0.012 C 
ATOM     21  C   UNL     1     -13.138 -27.944 -46.538  1.00  0.00     0.003 C 
ATOM     22  C   UNL     1     -12.976 -26.022 -48.931  1.00  0.00     0.033 C 
ATOM     23  C   UNL     1     -14.345 -27.769 -47.575  1.00  0.00    -0.006 C 
ATOM     24  C   UNL     1     -13.821 -27.330 -48.976  1.00  0.00     0.120 C 
ATOM     25  C   UNL     1     -15.432 -26.740 -47.116  1.00  0.00     0.014 C 
ATOM     26  C   UNL     1     -15.083 -29.125 -47.740  1.00  0.00     0.014 C 
ENDROOT
BRANCH   1  27
ATOM     27  C   UNL     1      -9.889 -26.490 -39.359  1.00  0.00     0.048 C 
ATOM     28  O   UNL     1      -9.101 -25.535 -39.574  1.00  0.00    -0.550 OA
ATOM     29  O   UNL     1      -9.483 -27.482 -38.468  1.00  0.00    -0.550 OA
ENDBRANCH   1  27
BRANCH   7  30
ATOM     30  C   UNL     1     -13.882 -25.089 -42.236  1.00  0.00    -0.077 C 
ATOM     31  C   UNL     1     -14.203 -23.885 -43.096  1.00  0.00     0.039 C 
ATOM     32  C   UNL     1     -14.726 -26.138 -42.306  1.00  0.00     0.008 C 
ENDBRANCH   7  30
BRANCH  24  33
ATOM     33  O   UNL     1     -13.104 -28.377 -49.575  1.00  0.00    -0.393 OA
ATOM     34  H   UNL     1     -13.468 -28.504 -50.494  1.00  0.00     0.210 HD
ENDBRANCH  24  33
TORSDOF 3
ENDMDL
MODEL 5
REMARK VINA RESULT:    -4.564      3.623      6.537
REMARK INTER + INTRA:          -5.836
REMARK INTER:                  -5.064
REMARK INTRA:                  -0.772
REMARK UNBOUND:                -0.605
REMARK SMILES C=C(C)[C@H]1CC[C@@]2(C(=O)[O-])CC[C@]3(C)[C@@H](CC[C@@H]4[C@]5(C)CC[C@@H](O)C(C)(C)[C@@H]5CC[C@@]43C)[C@@H]12
REMARK SMILES IDX 7 1 6 2 33 3 11 4 5 5 15 6 4 7 12 8 16 9 13 10 17 11 31 12
REMARK SMILES IDX 14 13 18 14 30 15 32 16 19 17 29 18 21 19 20 20 28 21 22 22
REMARK SMILES IDX 25 23 23 24 26 25 27 26 8 27 9 28 10 29 2 30 3 31 1 32 24 33
REMARK H PARENT 24 34
REMARK Flexibility Score: inf
ROOT
ATOM      1  C   UNL     1      -9.658 -26.946 -36.570  1.00  0.00     0.014 C 
ATOM      2  C   UNL     1      -8.438 -26.047 -36.242  1.00  0.00     0.014 C 
ATOM      3  C   UNL     1      -9.357 -27.491 -37.982  1.00  0.00     0.012 C 
ATOM      4  C   UNL     1     -10.949 -26.104 -36.610  1.00  0.00     0.014 C 
ATOM      5  C   UNL     1      -7.822 -25.580 -37.558  1.00  0.00     0.009 C 
ATOM      6  C   UNL     1     -10.588 -28.201 -38.686  1.00  0.00     0.000 C 
ATOM      7  C   UNL     1      -8.357 -26.493 -38.676  1.00  0.00     0.018 C 
ATOM      8  C   UNL     1     -12.205 -26.878 -37.073  1.00  0.00     0.008 C 
ATOM      9  C   UNL     1     -10.337 -28.760 -40.094  1.00  0.00     0.005 C 
ATOM     10  C   UNL     1     -12.103 -27.775 -38.384  1.00  0.00    -0.024 C 
ATOM     11  C   UNL     1     -11.011 -27.971 -41.200  1.00  0.00     0.005 C 
ATOM     12  C   UNL     1     -12.885 -27.087 -39.645  1.00  0.00    -0.024 C 
ATOM     13  C   UNL     1     -12.857 -29.124 -38.048  1.00  0.00     0.012 C 
ATOM     14  C   UNL     1     -12.549 -27.806 -41.023  1.00  0.00     0.002 C 
ATOM     15  C   UNL     1     -12.581 -25.557 -39.758  1.00  0.00     0.008 C 
ATOM     16  C   UNL     1     -14.433 -27.187 -39.384  1.00  0.00     0.012 C 
ATOM     17  C   UNL     1     -13.301 -27.171 -42.310  1.00  0.00    -0.026 C 
ATOM     18  C   UNL     1     -12.427 -24.993 -41.176  1.00  0.00     0.005 C 
ATOM     19  C   UNL     1     -12.566 -27.551 -43.629  1.00  0.00     0.010 C 
ATOM     20  C   UNL     1     -14.730 -27.832 -42.415  1.00  0.00     0.012 C 
ATOM     21  C   UNL     1     -13.423 -25.581 -42.206  1.00  0.00     0.003 C 
ATOM     22  C   UNL     1     -13.200 -26.998 -44.925  1.00  0.00     0.033 C 
ATOM     23  C   UNL     1     -13.384 -24.773 -43.588  1.00  0.00    -0.006 C 
ATOM     24  C   UNL     1     -13.944 -25.639 -44.758  1.00  0.00     0.120 C 
ATOM     25  C   UNL     1     -11.959 -24.272 -43.991  1.00  0.00     0.014 C 
ATOM     26  C   UNL     1     -14.267 -23.502 -43.466  1.00  0.00     0.014 C 
ENDROOT
BRANCH   1  27
ATOM     27  C   UNL     1      -9.779 -28.063 -35.515  1.00  0.00     0.048 C 
ATOM     28  O   UNL     1      -9.106 -29.118 -35.623  1.00  0.00    -0.550 OA
ATOM     29  O   UNL     1     -10.600 -27.924 -34.398  1.00  0.00    -0.550 OA
ENDBRANCH   1  27
BRANCH   7  30
ATOM     30  C   UNL     1      -8.727 -25.715 -39.938  1.00  0.00    -0.077 C 
ATOM     31  C   UNL     1      -7.997 -26.045 -41.223  1.00  0.00     0.039 C 
ATOM     32  C   UNL     1      -9.400 -24.547 -39.896  1.00  0.00     0.008 C 
ENDBRANCH   7  30
BRANCH  24  33
ATOM     33  O   UNL     1     -15.326 -25.833 -44.600  1.00  0.00    -0.393 OA
ATOM     34  H   UNL     1     -15.791 -25.173 -45.184  1.00  0.00     0.210 HD
ENDBRANCH  24  33
TORSDOF 3
ENDMDL
MODEL 6
REMARK VINA RESULT:    -4.540      2.073      7.020
REMARK INTER + INTRA:          -5.808
REMARK INTER:                  -4.996
REMARK INTRA:                  -0.812
REMARK UNBOUND:                -0.605
REMARK SMILES C=C(C)[C@H]1CC[C@@]2(C(=O)[O-])CC[C@]3(C)[C@@H](CC[C@@H]4[C@]5(C)CC[C@@H](O)C(C)(C)[C@@H]5CC[C@@]43C)[C@@H]12
REMARK SMILES IDX 7 1 6 2 33 3 11 4 5 5 15 6 4 7 12 8 16 9 13 10 17 11 31 12
REMARK SMILES IDX 14 13 18 14 30 15 32 16 19 17 29 18 21 19 20 20 28 21 22 22
REMARK SMILES IDX 25 23 23 24 26 25 27 26 8 27 9 28 10 29 2 30 3 31 1 32 24 33
REMARK H PARENT 24 34
REMARK Flexibility Score: inf
ROOT
ATOM      1  C   UNL     1     -10.531 -27.416 -45.143  1.00  0.00     0.014 C 
ATOM      2  C   UNL     1      -9.055 -27.830 -44.906  1.00  0.00     0.014 C 
ATOM      3  C   UNL     1     -10.708 -26.142 -44.291  1.00  0.00     0.012 C 
ATOM      4  C   UNL     1     -11.484 -28.514 -44.629  1.00  0.00     0.014 C 
ATOM      5  C   UNL     1      -8.612 -27.266 -43.559  1.00  0.00     0.009 C 
ATOM      6  C   UNL     1     -12.214 -25.679 -44.111  1.00  0.00     0.000 C 
ATOM      7  C   UNL     1      -9.618 -26.172 -43.154  1.00  0.00     0.018 C 
ATOM      8  C   UNL     1     -12.983 -28.137 -44.685  1.00  0.00     0.008 C 
ATOM      9  C   UNL     1     -12.441 -24.415 -43.269  1.00  0.00     0.005 C 
ATOM     10  C   UNL     1     -13.432 -26.721 -44.114  1.00  0.00    -0.024 C 
ATOM     11  C   UNL     1     -13.057 -24.682 -41.909  1.00  0.00     0.005 C 
ATOM     12  C   UNL     1     -14.211 -26.869 -42.684  1.00  0.00    -0.024 C 
ATOM     13  C   UNL     1     -14.473 -26.142 -45.155  1.00  0.00     0.012 C 
ATOM     14  C   UNL     1     -14.402 -25.466 -41.958  1.00  0.00     0.002 C 
ATOM     15  C   UNL     1     -13.487 -27.868 -41.724  1.00  0.00     0.008 C 
ATOM     16  C   UNL     1     -15.627 -27.498 -42.953  1.00  0.00     0.012 C 
ATOM     17  C   UNL     1     -15.174 -25.549 -40.536  1.00  0.00    -0.026 C 
ATOM     18  C   UNL     1     -13.465 -27.494 -40.236  1.00  0.00     0.005 C 
ATOM     19  C   UNL     1     -14.878 -24.291 -39.668  1.00  0.00     0.010 C 
ATOM     20  C   UNL     1     -16.725 -25.511 -40.822  1.00  0.00     0.012 C 
ATOM     21  C   UNL     1     -14.783 -26.866 -39.719  1.00  0.00     0.003 C 
ATOM     22  C   UNL     1     -15.567 -24.262 -38.285  1.00  0.00     0.033 C 
ATOM     23  C   UNL     1     -14.788 -26.739 -38.123  1.00  0.00    -0.006 C 
ATOM     24  C   UNL     1     -15.813 -25.664 -37.650  1.00  0.00     0.120 C 
ATOM     25  C   UNL     1     -13.393 -26.386 -37.510  1.00  0.00     0.014 C 
ATOM     26  C   UNL     1     -15.198 -28.101 -37.500  1.00  0.00     0.014 C 
ENDROOT
BRANCH   1  27
ATOM     27  C   UNL     1     -10.764 -27.163 -46.645  1.00  0.00     0.048 C 
ATOM     28  O   UNL     1     -10.636 -28.097 -47.477  1.00  0.00    -0.550 OA
ATOM     29  O   UNL     1     -11.160 -25.915 -47.122  1.00  0.00    -0.550 OA
ENDBRANCH   1  27
BRANCH   7  30
ATOM     30  C   UNL     1      -9.987 -26.237 -41.673  1.00  0.00    -0.077 C 
ATOM     31  C   UNL     1      -9.823 -24.984 -40.839  1.00  0.00     0.039 C 
ATOM     32  C   UNL     1     -10.115 -27.404 -41.010  1.00  0.00     0.008 C 
ENDBRANCH   7  30
BRANCH  24  33
ATOM     33  O   UNL     1     -17.124 -26.106 -37.887  1.00  0.00    -0.393 OA
ATOM     34  H   UNL     1     -17.078 -27.075 -38.116  1.00  0.00     0.210 HD
ENDBRANCH  24  33
TORSDOF 3
ENDMDL
MODEL 7
REMARK VINA RESULT:    -4.537      4.452      7.159
REMARK INTER + INTRA:          -5.805
REMARK INTER:                  -4.943
REMARK INTRA:                  -0.862
REMARK UNBOUND:                -0.605
REMARK SMILES C=C(C)[C@H]1CC[C@@]2(C(=O)[O-])CC[C@]3(C)[C@@H](CC[C@@H]4[C@]5(C)CC[C@@H](O)C(C)(C)[C@@H]5CC[C@@]43C)[C@@H]12
REMARK SMILES IDX 7 1 6 2 33 3 11 4 5 5 15 6 4 7 12 8 16 9 13 10 17 11 31 12
REMARK SMILES IDX 14 13 18 14 30 15 32 16 19 17 29 18 21 19 20 20 28 21 22 22
REMARK SMILES IDX 25 23 23 24 26 25 27 26 8 27 9 28 10 29 2 30 3 31 1 32 24 33
REMARK H PARENT 24 34
REMARK Flexibility Score: inf
ROOT
ATOM      1  C   UNL     1     -12.091 -26.097 -41.701  1.00  0.00     0.014 C 
ATOM      2  C   UNL     1     -13.627 -25.984 -41.875  1.00  0.00     0.014 C 
ATOM      3  C   UNL     1     -11.895 -27.414 -40.921  1.00  0.00     0.012 C 
ATOM      4  C   UNL     1     -11.560 -24.919 -40.859  1.00  0.00     0.014 C 
ATOM      5  C   UNL     1     -14.295 -26.779 -40.757  1.00  0.00     0.009 C 
ATOM      6  C   UNL     1     -10.433 -27.621 -40.343  1.00  0.00     0.000 C 
ATOM      7  C   UNL     1     -13.234 -27.718 -40.152  1.00  0.00     0.018 C 
ATOM      8  C   UNL     1     -10.058 -25.013 -40.501  1.00  0.00     0.008 C 
ATOM      9  C   UNL     1     -10.189 -28.918 -39.558  1.00  0.00     0.005 C 
ATOM     10  C   UNL     1      -9.501 -26.386 -39.921  1.00  0.00    -0.024 C 
ATOM     11  C   UNL     1     -10.034 -28.715 -38.063  1.00  0.00     0.005 C 
ATOM     12  C   UNL     1      -9.188 -26.280 -38.319  1.00  0.00    -0.024 C 
ATOM     13  C   UNL     1      -8.120 -26.638 -40.651  1.00  0.00     0.012 C 
ATOM     14  C   UNL     1      -8.918 -27.704 -37.666  1.00  0.00     0.002 C 
ATOM     15  C   UNL     1     -10.335 -25.551 -37.546  1.00  0.00     0.008 C 
ATOM     16  C   UNL     1      -7.913 -25.380 -38.121  1.00  0.00     0.012 C 
ATOM     17  C   UNL     1      -8.596 -27.662 -36.078  1.00  0.00    -0.026 C 
ATOM     18  C   UNL     1     -10.684 -26.103 -36.158  1.00  0.00     0.005 C 
ATOM     19  C   UNL     1      -8.852 -29.050 -35.420  1.00  0.00     0.010 C 
ATOM     20  C   UNL     1      -7.053 -27.387 -35.902  1.00  0.00     0.012 C 
ATOM     21  C   UNL     1      -9.456 -26.546 -35.323  1.00  0.00     0.003 C 
ATOM     22  C   UNL     1      -8.575 -29.125 -33.902  1.00  0.00     0.033 C 
ATOM     23  C   UNL     1      -9.860 -26.865 -33.808  1.00  0.00    -0.006 C 
ATOM     24  C   UNL     1      -8.805 -27.791 -33.130  1.00  0.00     0.120 C 
ATOM     25  C   UNL     1     -11.266 -27.533 -33.652  1.00  0.00     0.014 C 
ATOM     26  C   UNL     1      -9.925 -25.540 -33.002  1.00  0.00     0.014 C 
ENDROOT
BRANCH   1  27
ATOM     27  C   UNL     1     -11.410 -26.117 -43.083  1.00  0.00     0.048 C 
ATOM     28  O   UNL     1     -11.088 -27.207 -43.619  1.00  0.00    -0.550 OA
ATOM     29  O   UNL     1     -11.168 -24.943 -43.794  1.00  0.00    -0.550 OA
ENDBRANCH   1  27
BRANCH   7  30
ATOM     30  C   UNL     1     -13.304 -27.771 -38.626  1.00  0.00    -0.077 C 
ATOM     31  C   UNL     1     -13.452 -29.125 -37.964  1.00  0.00     0.039 C 
ATOM     32  C   UNL     1     -13.583 -26.686 -37.877  1.00  0.00     0.008 C 
ENDBRANCH   7  30
BRANCH  24  33
ATOM     33  O   UNL     1      -7.598 -27.097 -32.945  1.00  0.00    -0.393 OA
ATOM     34  H   UNL     1      -7.808 -26.255 -32.455  1.00  0.00     0.210 HD
ENDBRANCH  24  33
TORSDOF 3
ENDMDL
MODEL 8
REMARK VINA RESULT:    -4.480      1.909      7.671
REMARK INTER + INTRA:          -5.740
REMARK INTER:                  -5.208
REMARK INTRA:                  -0.532
REMARK UNBOUND:                -0.605
REMARK SMILES C=C(C)[C@H]1CC[C@@]2(C(=O)[O-])CC[C@]3(C)[C@@H](CC[C@@H]4[C@]5(C)CC[C@@H](O)C(C)(C)[C@@H]5CC[C@@]43C)[C@@H]12
REMARK SMILES IDX 7 1 6 2 33 3 11 4 5 5 15 6 4 7 12 8 16 9 13 10 17 11 31 12
REMARK SMILES IDX 14 13 18 14 30 15 32 16 19 17 29 18 21 19 20 20 28 21 22 22
REMARK SMILES IDX 25 23 23 24 26 25 27 26 8 27 9 28 10 29 2 30 3 31 1 32 24 33
REMARK H PARENT 24 34
REMARK Flexibility Score: inf
ROOT
ATOM      1  C   UNL     1      -8.301 -28.063 -44.033  1.00  0.00     0.014 C 
ATOM      2  C   UNL     1      -7.946 -28.371 -45.511  1.00  0.00     0.014 C 
ATOM      3  C   UNL     1      -9.713 -28.659 -43.852  1.00  0.00     0.012 C 
ATOM      4  C   UNL     1      -8.355 -26.539 -43.802  1.00  0.00     0.014 C 
ATOM      5  C   UNL     1      -9.247 -28.527 -46.293  1.00  0.00     0.009 C 
ATOM      6  C   UNL     1     -10.443 -28.219 -42.515  1.00  0.00     0.000 C 
ATOM      7  C   UNL     1     -10.383 -28.743 -45.275  1.00  0.00     0.018 C 
ATOM      8  C   UNL     1      -8.845 -26.122 -42.396  1.00  0.00     0.008 C 
ATOM      9  C   UNL     1     -11.852 -28.787 -42.290  1.00  0.00     0.005 C 
ATOM     10  C   UNL     1     -10.162 -26.803 -41.818  1.00  0.00    -0.024 C 
ATOM     11  C   UNL     1     -12.961 -27.765 -42.448  1.00  0.00     0.005 C 
ATOM     12  C   UNL     1     -11.429 -25.769 -41.831  1.00  0.00    -0.024 C 
ATOM     13  C   UNL     1      -9.850 -27.139 -40.303  1.00  0.00     0.012 C 
ATOM     14  C   UNL     1     -12.808 -26.508 -41.543  1.00  0.00     0.002 C 
ATOM     15  C   UNL     1     -11.524 -24.977 -43.176  1.00  0.00     0.008 C 
ATOM     16  C   UNL     1     -11.194 -24.680 -40.721  1.00  0.00     0.012 C 
ATOM     17  C   UNL     1     -14.102 -25.532 -41.538  1.00  0.00    -0.026 C 
ATOM     18  C   UNL     1     -12.934 -24.724 -43.724  1.00  0.00     0.005 C 
ATOM     19  C   UNL     1     -15.412 -26.341 -41.767  1.00  0.00     0.010 C 
ATOM     20  C   UNL     1     -14.236 -24.908 -40.095  1.00  0.00     0.012 C 
ATOM     21  C   UNL     1     -13.986 -24.380 -42.640  1.00  0.00     0.003 C 
ATOM     22  C   UNL     1     -16.712 -25.508 -41.780  1.00  0.00     0.033 C 
ATOM     23  C   UNL     1     -15.360 -23.880 -43.292  1.00  0.00    -0.006 C 
ATOM     24  C   UNL     1     -16.546 -24.046 -42.294  1.00  0.00     0.120 C 
ATOM     25  C   UNL     1     -15.735 -24.611 -44.622  1.00  0.00     0.014 C 
ATOM     26  C   UNL     1     -15.241 -22.373 -43.650  1.00  0.00     0.014 C 
ENDROOT
BRANCH   1  27
ATOM     27  C   UNL     1      -7.259 -28.710 -43.102  1.00  0.00     0.048 C 
ATOM     28  O   UNL     1      -7.591 -29.125 -41.963  1.00  0.00    -0.550 OA
ATOM     29  O   UNL     1      -5.936 -28.890 -43.502  1.00  0.00    -0.550 OA
ENDBRANCH   1  27
BRANCH   7  30
ATOM     30  C   UNL     1     -11.643 -27.957 -45.630  1.00  0.00    -0.077 C 
ATOM     31  C   UNL     1     -12.948 -28.715 -45.758  1.00  0.00     0.039 C 
ATOM     32  C   UNL     1     -11.597 -26.718 -46.162  1.00  0.00     0.008 C 
ENDBRANCH   7  30
BRANCH  24  33
ATOM     33  O   UNL     1     -16.412 -23.145 -41.226  1.00  0.00    -0.393 OA
ATOM     34  H   UNL     1     -15.782 -22.428 -41.515  1.00  0.00     0.210 HD
ENDBRANCH  24  33
TORSDOF 3
ENDMDL
MODEL 9
REMARK VINA RESULT:    -4.313      3.167      6.256
REMARK INTER + INTRA:          -5.548
REMARK INTER:                  -5.034
REMARK INTRA:                  -0.514
REMARK UNBOUND:                -0.605
REMARK SMILES C=C(C)[C@H]1CC[C@@]2(C(=O)[O-])CC[C@]3(C)[C@@H](CC[C@@H]4[C@]5(C)CC[C@@H](O)C(C)(C)[C@@H]5CC[C@@]43C)[C@@H]12
REMARK SMILES IDX 7 1 6 2 33 3 11 4 5 5 15 6 4 7 12 8 16 9 13 10 17 11 31 12
REMARK SMILES IDX 14 13 18 14 30 15 32 16 19 17 29 18 21 19 20 20 28 21 22 22
REMARK SMILES IDX 25 23 23 24 26 25 27 26 8 27 9 28 10 29 2 30 3 31 1 32 24 33
REMARK H PARENT 24 34
REMARK Flexibility Score: inf
ROOT
ATOM      1  C   UNL     1      -9.385 -25.878 -40.564  1.00  0.00     0.014 C 
ATOM      2  C   UNL     1      -7.914 -25.816 -41.048  1.00  0.00     0.014 C 
ATOM      3  C   UNL     1      -9.908 -27.221 -41.115  1.00  0.00     0.012 C 
ATOM      4  C   UNL     1     -10.199 -24.720 -41.177  1.00  0.00     0.014 C 
ATOM      5  C   UNL     1      -7.784 -26.686 -42.295  1.00  0.00     0.009 C 
ATOM      6  C   UNL     1     -11.481 -27.398 -41.023  1.00  0.00     0.000 C 
ATOM      7  C   UNL     1      -9.014 -27.611 -42.351  1.00  0.00     0.018 C 
ATOM      8  C   UNL     1     -11.715 -24.773 -40.876  1.00  0.00     0.008 C 
ATOM      9  C   UNL     1     -12.049 -28.720 -41.560  1.00  0.00     0.005 C 
ATOM     10  C   UNL     1     -12.484 -26.150 -41.092  1.00  0.00    -0.024 C 
ATOM     11  C   UNL     1     -12.808 -28.580 -42.866  1.00  0.00     0.005 C 
ATOM     12  C   UNL     1     -13.433 -26.105 -42.424  1.00  0.00    -0.024 C 
ATOM     13  C   UNL     1     -13.441 -26.315 -39.843  1.00  0.00     0.012 C 
ATOM     14  C   UNL     1     -13.972 -27.547 -42.824  1.00  0.00     0.002 C 
ATOM     15  C   UNL     1     -12.699 -25.457 -43.643  1.00  0.00     0.008 C 
ATOM     16  C   UNL     1     -14.661 -25.167 -42.128  1.00  0.00     0.012 C 
ATOM     17  C   UNL     1     -14.924 -27.565 -44.135  1.00  0.00    -0.026 C 
ATOM     18  C   UNL     1     -12.968 -26.085 -45.017  1.00  0.00     0.005 C 
ATOM     19  C   UNL     1     -14.986 -28.991 -44.759  1.00  0.00     0.010 C 
ATOM     20  C   UNL     1     -16.397 -27.240 -43.672  1.00  0.00     0.012 C 
ATOM     21  C   UNL     1     -14.438 -26.519 -45.241  1.00  0.00     0.003 C 
ATOM     22  C   UNL     1     -15.870 -29.125 -46.018  1.00  0.00     0.033 C 
ATOM     23  C   UNL     1     -14.705 -26.923 -46.767  1.00  0.00    -0.006 C 
ATOM     24  C   UNL     1     -15.961 -27.838 -46.892  1.00  0.00     0.120 C 
ATOM     25  C   UNL     1     -13.502 -27.651 -47.452  1.00  0.00     0.014 C 
ATOM     26  C   UNL     1     -14.960 -25.639 -47.602  1.00  0.00     0.014 C 
ENDROOT
BRANCH   1  27
ATOM     27  C   UNL     1      -9.430 -25.808 -39.026  1.00  0.00     0.048 C 
ATOM     28  O   UNL     1     -10.296 -26.454 -38.383  1.00  0.00    -0.550 OA
ATOM     29  O   UNL     1      -8.498 -25.068 -38.302  1.00  0.00    -0.550 OA
ENDBRANCH   1  27
BRANCH   7  30
ATOM     30  C   UNL     1      -9.585 -27.737 -43.763  1.00  0.00    -0.077 C 
ATOM     31  C   UNL     1      -9.610 -29.108 -44.405  1.00  0.00     0.039 C 
ATOM     32  C   UNL     1      -9.742 -26.674 -44.577  1.00  0.00     0.008 C 
ENDBRANCH   7  30
BRANCH  24  33
ATOM     33  O   UNL     1     -17.124 -27.108 -46.601  1.00  0.00    -0.393 OA
ATOM     34  H   UNL     1     -17.812 -27.754 -46.278  1.00  0.00     0.210 HD
ENDBRANCH  24  33
TORSDOF 3
ENDMDL
