MODEL 1
REMARK VINA RESULT:    -5.432      0.000      0.000
REMARK INTER + INTRA:          -9.470
REMARK INTER:                  -7.337
REMARK INTRA:                  -2.133
REMARK UNBOUND:                -2.133
REMARK SMILES CC[C@H](CC[C@H](C)[C@H]1CC[C@@H]2[C@H]3CC(=O)C4=CC(=O)CC[C@]4(C)[C@H]3CC[C@@]21C)C(C)C
REMARK SMILES IDX 4 1 3 2 2 3 1 4 29 5 30 6 31 7 5 8 6 9 7 10 8 11 9 12 27 13
REMARK SMILES IDX 10 14 11 15 26 16 28 17 12 18 25 19 24 20 13 21 22 22 14 23
REMARK SMILES IDX 16 24 21 25 23 26 15 27 17 28 20 29 18 30 19 31
REMARK H PARENT
REMARK Flexibility Score: inf
ROOT
ATOM      1  C   UNL     1      97.687 139.634 134.561  1.00  0.00     0.004 C 
ENDROOT
BRANCH   1   2
ATOM      2  C   UNL     1      97.976 140.999 135.268  1.00  0.00    -0.009 C 
BRANCH   2   3
ATOM      3  C   UNL     1      99.508 141.263 135.309  1.00  0.00     0.000 C 
ATOM      4  C   UNL     1     100.158 140.759 136.601  1.00  0.00     0.004 C 
ENDBRANCH   2   3
BRANCH   2   5
ATOM      5  C   UNL     1      97.183 142.169 134.582  1.00  0.00    -0.014 C 
ATOM      6  C   UNL     1      97.686 142.480 133.160  1.00  0.00     0.007 C 
ATOM      7  C   UNL     1      97.258 143.464 135.417  1.00  0.00     0.007 C 
ENDBRANCH   2   5
ENDBRANCH   1   2
BRANCH   1   8
ATOM      8  C   UNL     1      96.726 138.751 135.384  1.00  0.00     0.004 C 
BRANCH   8   9
ATOM      9  C   UNL     1      96.770 139.051 136.911  1.00  0.00    -0.011 C 
ATOM     10  C   UNL     1      97.597 138.008 137.680  1.00  0.00     0.008 C 
BRANCH   9  11
ATOM     11  C   UNL     1      95.386 139.336 137.610  1.00  0.00    -0.002 C 
ATOM     12  C   UNL     1      95.230 138.667 138.973  1.00  0.00     0.005 C 
ATOM     13  C   UNL     1      94.844 140.788 137.823  1.00  0.00    -0.026 C 
ATOM     14  C   UNL     1      93.927 139.209 139.526  1.00  0.00     0.005 C 
ATOM     15  C   UNL     1      93.696 140.597 138.882  1.00  0.00    -0.001 C 
ATOM     16  C   UNL     1      94.302 141.407 136.501  1.00  0.00     0.007 C 
ATOM     17  C   UNL     1      95.925 141.728 138.419  1.00  0.00     0.012 C 
ATOM     18  C   UNL     1      92.248 140.717 138.302  1.00  0.00     0.004 C 
ATOM     19  C   UNL     1      93.311 142.537 136.775  1.00  0.00     0.005 C 
ATOM     20  C   UNL     1      92.014 142.016 137.441  1.00  0.00     0.003 C 
ATOM     21  C   UNL     1      91.181 140.492 139.412  1.00  0.00     0.085 C 
ATOM     22  C   UNL     1      91.158 143.151 138.126  1.00  0.00    -0.000 C 
ATOM     23  C   UNL     1      89.868 141.143 139.110  1.00  0.00     0.159 C 
ATOM     24  C   UNL     1      89.844 142.530 138.600  1.00  0.00     0.005 C 
ATOM     25  C   UNL     1      90.859 144.269 137.076  1.00  0.00     0.020 C 
ATOM     26  C   UNL     1      91.883 143.775 139.346  1.00  0.00     0.017 C 
ATOM     27  O   UNL     1      88.798 140.519 139.347  1.00  0.00    -0.295 OA
ATOM     28  C   UNL     1      88.693 143.229 138.615  1.00  0.00     0.055 C 
ATOM     29  C   UNL     1      89.830 145.295 137.566  1.00  0.00     0.081 C 
ATOM     30  C   UNL     1      88.616 144.609 138.109  1.00  0.00     0.156 C 
ATOM     31  O   UNL     1      87.521 145.231 138.162  1.00  0.00    -0.295 OA
ENDBRANCH   9  11
ENDBRANCH   8   9
ENDBRANCH   1   8
TORSDOF 6
ENDMDL
MODEL 2
REMARK VINA RESULT:    -5.358      1.952      3.647
REMARK INTER + INTRA:          -9.370
REMARK INTER:                  -6.767
REMARK INTRA:                  -2.603
REMARK UNBOUND:                -2.133
REMARK SMILES CC[C@H](CC[C@H](C)[C@H]1CC[C@@H]2[C@H]3CC(=O)C4=CC(=O)CC[C@]4(C)[C@H]3CC[C@@]21C)C(C)C
REMARK SMILES IDX 4 1 3 2 2 3 1 4 29 5 30 6 31 7 5 8 6 9 7 10 8 11 9 12 27 13
REMARK SMILES IDX 10 14 11 15 26 16 28 17 12 18 25 19 24 20 13 21 22 22 14 23
REMARK SMILES IDX 16 24 21 25 23 26 15 27 17 28 20 29 18 30 19 31
REMARK H PARENT
REMARK Flexibility Score: inf
ROOT
ATOM      1  C   UNL     1      96.149 138.582 135.749  1.00  0.00     0.004 C 
ENDROOT
BRANCH   1   2
ATOM      2  C   UNL     1      96.557 137.846 137.067  1.00  0.00    -0.009 C 
BRANCH   2   3
ATOM      3  C   UNL     1      98.084 138.008 137.316  1.00  0.00     0.000 C 
ATOM      4  C   UNL     1      98.760 136.691 137.712  1.00  0.00     0.004 C 
ENDBRANCH   2   3
BRANCH   2   5
ATOM      5  C   UNL     1      95.695 138.343 138.282  1.00  0.00    -0.014 C 
ATOM      6  C   UNL     1      94.390 139.037 137.845  1.00  0.00     0.007 C 
ATOM      7  C   UNL     1      96.489 139.321 139.173  1.00  0.00     0.007 C 
ENDBRANCH   2   5
ENDBRANCH   1   2
BRANCH   1   8
ATOM      8  C   UNL     1      97.374 139.137 134.994  1.00  0.00     0.004 C 
BRANCH   8   9
ATOM      9  C   UNL     1      97.426 140.693 134.962  1.00  0.00    -0.011 C 
ATOM     10  C   UNL     1      98.828 141.217 134.614  1.00  0.00     0.008 C 
BRANCH   9  11
ATOM     11  C   UNL     1      96.810 141.441 136.205  1.00  0.00    -0.002 C 
ATOM     12  C   UNL     1      97.849 142.091 137.114  1.00  0.00     0.005 C 
ATOM     13  C   UNL     1      95.690 142.522 136.057  1.00  0.00    -0.026 C 
ATOM     14  C   UNL     1      97.042 142.884 138.124  1.00  0.00     0.005 C 
ATOM     15  C   UNL     1      95.698 143.251 137.451  1.00  0.00    -0.001 C 
ATOM     16  C   UNL     1      94.301 141.885 135.755  1.00  0.00     0.007 C 
ATOM     17  C   UNL     1      96.026 143.556 134.949  1.00  0.00     0.012 C 
ATOM     18  C   UNL     1      94.487 142.897 138.378  1.00  0.00     0.004 C 
ATOM     19  C   UNL     1      93.157 142.820 136.142  1.00  0.00     0.005 C 
ATOM     20  C   UNL     1      93.086 143.038 137.673  1.00  0.00     0.003 C 
ATOM     21  C   UNL     1      94.590 143.642 139.740  1.00  0.00     0.085 C 
ATOM     22  C   UNL     1      92.229 144.296 138.091  1.00  0.00    -0.000 C 
ATOM     23  C   UNL     1      93.266 143.834 140.409  1.00  0.00     0.159 C 
ATOM     24  C   UNL     1      92.110 144.301 139.615  1.00  0.00     0.005 C 
ATOM     25  C   UNL     1      90.805 144.178 137.456  1.00  0.00     0.020 C 
ATOM     26  C   UNL     1      92.882 145.627 137.637  1.00  0.00     0.017 C 
ATOM     27  O   UNL     1      93.167 143.649 141.653  1.00  0.00    -0.295 OA
ATOM     28  C   UNL     1      91.013 144.769 140.240  1.00  0.00     0.055 C 
ATOM     29  C   UNL     1      89.818 145.218 137.998  1.00  0.00     0.081 C 
ATOM     30  C   UNL     1      89.834 145.235 139.494  1.00  0.00     0.156 C 
ATOM     31  O   UNL     1      88.837 145.684 140.121  1.00  0.00    -0.295 OA
ENDBRANCH   9  11
ENDBRANCH   8   9
ENDBRANCH   1   8
TORSDOF 6
ENDMDL
MODEL 3
REMARK VINA RESULT:    -5.253      4.224      6.449
REMARK INTER + INTRA:          -9.229
REMARK INTER:                  -6.709
REMARK INTRA:                  -2.519
REMARK UNBOUND:                -2.133
REMARK SMILES CC[C@H](CC[C@H](C)[C@H]1CC[C@@H]2[C@H]3CC(=O)C4=CC(=O)CC[C@]4(C)[C@H]3CC[C@@]21C)C(C)C
REMARK SMILES IDX 4 1 3 2 2 3 1 4 29 5 30 6 31 7 5 8 6 9 7 10 8 11 9 12 27 13
REMARK SMILES IDX 10 14 11 15 26 16 28 17 12 18 25 19 24 20 13 21 22 22 14 23
REMARK SMILES IDX 16 24 21 25 23 26 15 27 17 28 20 29 18 30 19 31
REMARK H PARENT
REMARK Flexibility Score: inf
ROOT
ATOM      1  C   UNL     1     100.125 137.914 140.469  1.00  0.00     0.004 C 
ENDROOT
BRANCH   1   2
ATOM      2  C   UNL     1     101.297 137.146 139.773  1.00  0.00    -0.009 C 
BRANCH   2   3
ATOM      3  C   UNL     1     100.973 135.626 139.707  1.00  0.00     0.000 C 
ATOM      4  C   UNL     1     100.756 135.132 138.273  1.00  0.00     0.004 C 
ENDBRANCH   2   3
BRANCH   2   5
ATOM      5  C   UNL     1     101.611 137.756 138.361  1.00  0.00    -0.014 C 
ATOM      6  C   UNL     1     103.081 138.191 138.210  1.00  0.00     0.007 C 
ATOM      7  C   UNL     1     100.712 138.973 138.061  1.00  0.00     0.007 C 
ENDBRANCH   2   5
ENDBRANCH   1   2
BRANCH   1   8
ATOM      8  C   UNL     1      99.127 136.951 141.146  1.00  0.00     0.004 C 
BRANCH   8   9
ATOM      9  C   UNL     1      97.750 136.883 140.422  1.00  0.00    -0.011 C 
ATOM     10  C   UNL     1      97.172 135.459 140.415  1.00  0.00     0.008 C 
BRANCH   9  11
ATOM     11  C   UNL     1      97.671 137.558 139.000  1.00  0.00    -0.002 C 
ATOM     12  C   UNL     1      97.426 136.573 137.860  1.00  0.00     0.005 C 
ATOM     13  C   UNL     1      96.710 138.753 138.696  1.00  0.00    -0.026 C 
ATOM     14  C   UNL     1      97.216 137.440 136.634  1.00  0.00     0.005 C 
ATOM     15  C   UNL     1      96.676 138.805 137.124  1.00  0.00    -0.001 C 
ATOM     16  C   UNL     1      97.235 140.090 139.299  1.00  0.00     0.007 C 
ATOM     17  C   UNL     1      95.274 138.490 139.221  1.00  0.00     0.012 C 
ATOM     18  C   UNL     1      97.480 139.990 136.494  1.00  0.00     0.004 C 
ATOM     19  C   UNL     1      96.643 141.301 138.581  1.00  0.00     0.005 C 
ATOM     20  C   UNL     1      97.131 141.396 137.115  1.00  0.00     0.003 C 
ATOM     21  C   UNL     1      97.411 139.949 134.940  1.00  0.00     0.085 C 
ATOM     22  C   UNL     1      96.247 142.344 136.216  1.00  0.00    -0.000 C 
ATOM     23  C   UNL     1      97.620 141.286 134.304  1.00  0.00     0.159 C 
ATOM     24  C   UNL     1      96.925 142.470 134.852  1.00  0.00     0.005 C 
ATOM     25  C   UNL     1      96.161 143.753 136.889  1.00  0.00     0.020 C 
ATOM     26  C   UNL     1      94.813 141.788 136.011  1.00  0.00     0.017 C 
ATOM     27  O   UNL     1      98.343 141.377 133.274  1.00  0.00    -0.295 OA
ATOM     28  C   UNL     1      96.853 143.601 134.125  1.00  0.00     0.055 C 
ATOM     29  C   UNL     1      95.535 144.816 135.980  1.00  0.00     0.081 C 
ATOM     30  C   UNL     1      96.181 144.808 134.631  1.00  0.00     0.156 C 
ATOM     31  O   UNL     1      96.122 145.838 133.906  1.00  0.00    -0.295 OA
ENDBRANCH   9  11
ENDBRANCH   8   9
ENDBRANCH   1   8
TORSDOF 6
ENDMDL
MODEL 4
REMARK VINA RESULT:    -5.173      3.989      5.667
REMARK INTER + INTRA:          -9.120
REMARK INTER:                  -6.853
REMARK INTRA:                  -2.267
REMARK UNBOUND:                -2.133
REMARK SMILES CC[C@H](CC[C@H](C)[C@H]1CC[C@@H]2[C@H]3CC(=O)C4=CC(=O)CC[C@]4(C)[C@H]3CC[C@@]21C)C(C)C
REMARK SMILES IDX 4 1 3 2 2 3 1 4 29 5 30 6 31 7 5 8 6 9 7 10 8 11 9 12 27 13
REMARK SMILES IDX 10 14 11 15 26 16 28 17 12 18 25 19 24 20 13 21 22 22 14 23
REMARK SMILES IDX 16 24 21 25 23 26 15 27 17 28 20 29 18 30 19 31
REMARK H PARENT
REMARK Flexibility Score: inf
ROOT
ATOM      1  C   UNL     1     100.355 139.527 137.255  1.00  0.00     0.004 C 
ENDROOT
BRANCH   1   2
ATOM      2  C   UNL     1     100.986 140.762 137.979  1.00  0.00    -0.009 C 
BRANCH   2   3
ATOM      3  C   UNL     1     102.326 140.356 138.654  1.00  0.00     0.000 C 
ATOM      4  C   UNL     1     103.148 139.387 137.796  1.00  0.00     0.004 C 
ENDBRANCH   2   3
BRANCH   2   5
ATOM      5  C   UNL     1     101.152 141.971 136.991  1.00  0.00    -0.014 C 
ATOM      6  C   UNL     1     100.126 143.093 137.240  1.00  0.00     0.007 C 
ATOM      7  C   UNL     1     101.028 141.518 135.521  1.00  0.00     0.007 C 
ENDBRANCH   2   5
ENDBRANCH   1   2
BRANCH   1   8
ATOM      8  C   UNL     1      99.170 138.938 138.047  1.00  0.00     0.004 C 
BRANCH   8   9
ATOM      9  C   UNL     1      97.801 139.105 137.324  1.00  0.00    -0.011 C 
ATOM     10  C   UNL     1      97.410 137.848 136.531  1.00  0.00     0.008 C 
BRANCH   9  11
ATOM     11  C   UNL     1      97.613 140.420 136.475  1.00  0.00    -0.002 C 
ATOM     12  C   UNL     1      97.638 140.191 134.966  1.00  0.00     0.005 C 
ATOM     13  C   UNL     1      96.411 141.394 136.702  1.00  0.00    -0.026 C 
ATOM     14  C   UNL     1      97.271 141.533 134.363  1.00  0.00     0.005 C 
ATOM     15  C   UNL     1      96.415 142.288 135.408  1.00  0.00    -0.001 C 
ATOM     16  C   UNL     1      96.594 142.254 137.988  1.00  0.00     0.007 C 
ATOM     17  C   UNL     1      95.059 140.637 136.785  1.00  0.00     0.012 C 
ATOM     18  C   UNL     1      96.942 143.745 135.624  1.00  0.00     0.004 C 
ATOM     19  C   UNL     1      95.760 143.533 137.932  1.00  0.00     0.005 C 
ATOM     20  C   UNL     1      96.258 144.496 136.828  1.00  0.00     0.003 C 
ATOM     21  C   UNL     1      96.933 144.546 134.290  1.00  0.00     0.085 C 
ATOM     22  C   UNL     1      95.207 145.606 136.439  1.00  0.00    -0.000 C 
ATOM     23  C   UNL     1      96.847 146.026 134.491  1.00  0.00     0.159 C 
ATOM     24  C   UNL     1      95.880 146.574 135.465  1.00  0.00     0.005 C 
ATOM     25  C   UNL     1      94.777 146.378 137.729  1.00  0.00     0.020 C 
ATOM     26  C   UNL     1      93.948 145.008 135.758  1.00  0.00     0.017 C 
ATOM     27  O   UNL     1      97.561 146.790 133.785  1.00  0.00    -0.295 OA
ATOM     28  C   UNL     1      95.571 147.884 135.439  1.00  0.00     0.055 C 
ATOM     29  C   UNL     1      93.950 147.634 137.431  1.00  0.00     0.081 C 
ATOM     30  C   UNL     1      94.622 148.477 136.394  1.00  0.00     0.156 C 
ATOM     31  O   UNL     1      94.349 149.706 136.319  1.00  0.00    -0.295 OA
ENDBRANCH   9  11
ENDBRANCH   8   9
ENDBRANCH   1   8
TORSDOF 6
ENDMDL
MODEL 5
REMARK VINA RESULT:    -5.091      5.781     10.575
REMARK INTER + INTRA:          -9.010
REMARK INTER:                  -6.953
REMARK INTRA:                  -2.057
REMARK UNBOUND:                -2.133
REMARK SMILES CC[C@H](CC[C@H](C)[C@H]1CC[C@@H]2[C@H]3CC(=O)C4=CC(=O)CC[C@]4(C)[C@H]3CC[C@@]21C)C(C)C
REMARK SMILES IDX 4 1 3 2 2 3 1 4 29 5 30 6 31 7 5 8 6 9 7 10 8 11 9 12 27 13
REMARK SMILES IDX 10 14 11 15 26 16 28 17 12 18 25 19 24 20 13 21 22 22 14 23
REMARK SMILES IDX 16 24 21 25 23 26 15 27 17 28 20 29 18 30 19 31
REMARK H PARENT
REMARK Flexibility Score: inf
ROOT
ATOM      1  C   UNL     1      96.284 138.551 135.731  1.00  0.00     0.004 C 
ENDROOT
BRANCH   1   2
ATOM      2  C   UNL     1      96.632 140.001 135.258  1.00  0.00    -0.009 C 
BRANCH   2   3
ATOM      3  C   UNL     1      96.252 141.027 136.364  1.00  0.00     0.000 C 
ATOM      4  C   UNL     1      95.344 142.146 135.841  1.00  0.00     0.004 C 
ENDBRANCH   2   3
BRANCH   2   5
ATOM      5  C   UNL     1      98.139 140.109 134.831  1.00  0.00    -0.014 C 
ATOM      6  C   UNL     1      99.081 140.379 136.021  1.00  0.00     0.007 C 
ATOM      7  C   UNL     1      98.349 141.224 133.785  1.00  0.00     0.007 C 
ENDBRANCH   2   5
ENDBRANCH   1   2
BRANCH   1   8
ATOM      8  C   UNL     1      95.150 138.542 136.777  1.00  0.00     0.004 C 
BRANCH   8   9
ATOM      9  C   UNL     1      95.638 138.185 138.212  1.00  0.00    -0.011 C 
ATOM     10  C   UNL     1      94.926 139.020 139.288  1.00  0.00     0.008 C 
BRANCH   9  11
ATOM     11  C   UNL     1      97.199 138.147 138.433  1.00  0.00    -0.002 C 
ATOM     12  C   UNL     1      97.714 139.214 139.395  1.00  0.00     0.005 C 
ATOM     13  C   UNL     1      97.949 136.843 138.858  1.00  0.00    -0.026 C 
ATOM     14  C   UNL     1      99.182 138.887 139.590  1.00  0.00     0.005 C 
ATOM     15  C   UNL     1      99.350 137.368 139.343  1.00  0.00    -0.001 C 
ATOM     16  C   UNL     1      98.094 135.843 137.673  1.00  0.00     0.007 C 
ATOM     17  C   UNL     1      97.244 136.129 140.042  1.00  0.00     0.012 C 
ATOM     18  C   UNL     1     100.530 137.084 138.354  1.00  0.00     0.004 C 
ATOM     19  C   UNL     1      99.247 134.866 137.900  1.00  0.00     0.005 C 
ATOM     20  C   UNL     1     100.619 135.582 137.887  1.00  0.00     0.003 C 
ATOM     21  C   UNL     1     101.868 137.658 138.902  1.00  0.00     0.085 C 
ATOM     22  C   UNL     1     101.781 134.730 138.529  1.00  0.00    -0.000 C 
ATOM     23  C   UNL     1     103.075 136.957 138.364  1.00  0.00     0.159 C 
ATOM     24  C   UNL     1     103.095 135.480 138.308  1.00  0.00     0.005 C 
ATOM     25  C   UNL     1     101.848 133.339 137.817  1.00  0.00     0.020 C 
ATOM     26  C   UNL     1     101.579 134.516 140.051  1.00  0.00     0.017 C 
ATOM     27  O   UNL     1     104.082 137.633 138.018  1.00  0.00    -0.295 OA
ATOM     28  C   UNL     1     104.261 134.832 138.123  1.00  0.00     0.055 C 
ATOM     29  C   UNL     1     103.095 132.531 138.193  1.00  0.00     0.081 C 
ATOM     30  C   UNL     1     104.330 133.364 138.050  1.00  0.00     0.156 C 
ATOM     31  O   UNL     1     105.446 132.800 137.896  1.00  0.00    -0.295 OA
ENDBRANCH   9  11
ENDBRANCH   8   9
ENDBRANCH   1   8
TORSDOF 6
ENDMDL
MODEL 6
REMARK VINA RESULT:    -5.090      3.237      5.559
REMARK INTER + INTRA:          -9.008
REMARK INTER:                  -6.801
REMARK INTRA:                  -2.207
REMARK UNBOUND:                -2.133
REMARK SMILES CC[C@H](CC[C@H](C)[C@H]1CC[C@@H]2[C@H]3CC(=O)C4=CC(=O)CC[C@]4(C)[C@H]3CC[C@@]21C)C(C)C
REMARK SMILES IDX 4 1 3 2 2 3 1 4 29 5 30 6 31 7 5 8 6 9 7 10 8 11 9 12 27 13
REMARK SMILES IDX 10 14 11 15 26 16 28 17 12 18 25 19 24 20 13 21 22 22 14 23
REMARK SMILES IDX 16 24 21 25 23 26 15 27 17 28 20 29 18 30 19 31
REMARK H PARENT
REMARK Flexibility Score: inf
ROOT
ATOM      1  C   UNL     1      99.178 140.308 136.964  1.00  0.00     0.004 C 
ENDROOT
BRANCH   1   2
ATOM      2  C   UNL     1      97.706 139.847 137.224  1.00  0.00    -0.009 C 
BRANCH   2   3
ATOM      3  C   UNL     1      97.477 138.432 136.620  1.00  0.00     0.000 C 
ATOM      4  C   UNL     1      96.279 138.386 135.665  1.00  0.00     0.004 C 
ENDBRANCH   2   3
BRANCH   2   5
ATOM      5  C   UNL     1      97.356 139.911 138.754  1.00  0.00    -0.014 C 
ATOM      6  C   UNL     1      97.940 138.728 139.551  1.00  0.00     0.007 C 
ATOM      7  C   UNL     1      95.831 139.942 138.982  1.00  0.00     0.007 C 
ENDBRANCH   2   5
ENDBRANCH   1   2
BRANCH   1   8
ATOM      8  C   UNL     1      99.249 141.450 135.930  1.00  0.00     0.004 C 
BRANCH   8   9
ATOM      9  C   UNL     1      97.960 141.581 135.066  1.00  0.00    -0.011 C 
ATOM     10  C   UNL     1      98.196 141.150 133.610  1.00  0.00     0.008 C 
BRANCH   9  11
ATOM     11  C   UNL     1      97.192 142.954 135.157  1.00  0.00    -0.002 C 
ATOM     12  C   UNL     1      96.746 143.505 133.805  1.00  0.00     0.005 C 
ATOM     13  C   UNL     1      95.952 143.156 136.089  1.00  0.00    -0.026 C 
ATOM     14  C   UNL     1      95.894 144.714 134.139  1.00  0.00     0.005 C 
ATOM     15  C   UNL     1      95.302 144.483 135.550  1.00  0.00    -0.001 C 
ATOM     16  C   UNL     1      96.364 143.290 137.584  1.00  0.00     0.007 C 
ATOM     17  C   UNL     1      94.926 142.000 135.946  1.00  0.00     0.012 C 
ATOM     18  C   UNL     1      95.519 145.734 136.465  1.00  0.00     0.004 C 
ATOM     19  C   UNL     1      95.291 144.009 138.401  1.00  0.00     0.005 C 
ATOM     20  C   UNL     1      95.140 145.489 137.975  1.00  0.00     0.003 C 
ATOM     21  C   UNL     1      94.864 147.001 135.844  1.00  0.00     0.085 C 
ATOM     22  C   UNL     1      93.792 146.150 138.461  1.00  0.00    -0.000 C 
ATOM     23  C   UNL     1      94.513 148.042 136.860  1.00  0.00     0.159 C 
ATOM     24  C   UNL     1      93.844 147.638 138.114  1.00  0.00     0.005 C 
ATOM     25  C   UNL     1      93.669 145.979 140.010  1.00  0.00     0.020 C 
ATOM     26  C   UNL     1      92.551 145.521 137.777  1.00  0.00     0.017 C 
ATOM     27  O   UNL     1      94.742 149.256 136.608  1.00  0.00    -0.295 OA
ATOM     28  C   UNL     1      93.251 148.568 138.887  1.00  0.00     0.055 C 
ATOM     29  C   UNL     1      92.523 146.797 140.616  1.00  0.00     0.081 C 
ATOM     30  C   UNL     1      92.581 148.217 140.149  1.00  0.00     0.156 C 
ATOM     31  O   UNL     1      92.022 149.119 140.829  1.00  0.00    -0.295 OA
ENDBRANCH   9  11
ENDBRANCH   8   9
ENDBRANCH   1   8
TORSDOF 6
ENDMDL
MODEL 7
REMARK VINA RESULT:    -5.089      4.072      8.234
REMARK INTER + INTRA:          -9.007
REMARK INTER:                  -6.829
REMARK INTRA:                  -2.178
REMARK UNBOUND:                -2.133
REMARK SMILES CC[C@H](CC[C@H](C)[C@H]1CC[C@@H]2[C@H]3CC(=O)C4=CC(=O)CC[C@]4(C)[C@H]3CC[C@@]21C)C(C)C
REMARK SMILES IDX 4 1 3 2 2 3 1 4 29 5 30 6 31 7 5 8 6 9 7 10 8 11 9 12 27 13
REMARK SMILES IDX 10 14 11 15 26 16 28 17 12 18 25 19 24 20 13 21 22 22 14 23
REMARK SMILES IDX 16 24 21 25 23 26 15 27 17 28 20 29 18 30 19 31
REMARK H PARENT
REMARK Flexibility Score: inf
ROOT
ATOM      1  C   UNL     1      95.095 143.430 135.729  1.00  0.00     0.004 C 
ENDROOT
BRANCH   1   2
ATOM      2  C   UNL     1      96.017 143.003 134.540  1.00  0.00    -0.009 C 
BRANCH   2   3
ATOM      3  C   UNL     1      96.646 144.261 133.876  1.00  0.00     0.000 C 
ATOM      4  C   UNL     1      96.112 145.569 134.468  1.00  0.00     0.004 C 
ENDBRANCH   2   3
BRANCH   2   5
ATOM      5  C   UNL     1      97.100 141.966 135.009  1.00  0.00    -0.014 C 
ATOM      6  C   UNL     1      98.000 142.510 136.135  1.00  0.00     0.007 C 
ATOM      7  C   UNL     1      98.002 141.525 133.837  1.00  0.00     0.007 C 
ENDBRANCH   2   5
ENDBRANCH   1   2
BRANCH   1   8
ATOM      8  C   UNL     1      93.762 142.652 135.732  1.00  0.00     0.004 C 
BRANCH   8   9
ATOM      9  C   UNL     1      93.578 141.752 136.989  1.00  0.00    -0.011 C 
ATOM     10  C   UNL     1      92.563 142.346 137.980  1.00  0.00     0.008 C 
BRANCH   9  11
ATOM     11  C   UNL     1      94.896 141.276 137.711  1.00  0.00    -0.002 C 
ATOM     12  C   UNL     1      95.121 141.919 139.076  1.00  0.00     0.005 C 
ATOM     13  C   UNL     1      95.225 139.763 137.932  1.00  0.00    -0.026 C 
ATOM     14  C   UNL     1      96.326 141.200 139.651  1.00  0.00     0.005 C 
ATOM     15  C   UNL     1      96.370 139.793 139.010  1.00  0.00    -0.001 C 
ATOM     16  C   UNL     1      95.697 139.073 136.618  1.00  0.00     0.007 C 
ATOM     17  C   UNL     1      94.013 138.985 138.508  1.00  0.00     0.012 C 
ATOM     18  C   UNL     1      97.797 139.470 138.453  1.00  0.00     0.004 C 
ATOM     19  C   UNL     1      96.515 137.815 136.907  1.00  0.00     0.005 C 
ATOM     20  C   UNL     1      97.860 138.150 137.595  1.00  0.00     0.003 C 
ATOM     21  C   UNL     1      98.866 139.544 139.581  1.00  0.00     0.085 C 
ATOM     22  C   UNL     1      98.538 136.908 138.293  1.00  0.00    -0.000 C 
ATOM     23  C   UNL     1     100.080 138.716 139.300  1.00  0.00     0.159 C 
ATOM     24  C   UNL     1      99.918 137.339 138.789  1.00  0.00     0.005 C 
ATOM     25  C   UNL     1      98.694 135.756 137.247  1.00  0.00     0.020 C 
ATOM     26  C   UNL     1      97.713 136.392 139.500  1.00  0.00     0.017 C 
ATOM     27  O   UNL     1     101.223 139.183 139.556  1.00  0.00    -0.295 OA
ATOM     28  C   UNL     1     100.959 136.484 138.823  1.00  0.00     0.055 C 
ATOM     29  C   UNL     1      99.561 134.598 137.753  1.00  0.00     0.081 C 
ATOM     30  C   UNL     1     100.850 135.107 138.317  1.00  0.00     0.156 C 
ATOM     31  O   UNL     1     101.846 134.338 138.387  1.00  0.00    -0.295 OA
ENDBRANCH   9  11
ENDBRANCH   8   9
ENDBRANCH   1   8
TORSDOF 6
ENDMDL
MODEL 8
REMARK VINA RESULT:    -5.087      3.799      7.742
REMARK INTER + INTRA:          -9.005
REMARK INTER:                  -7.625
REMARK INTRA:                  -1.379
REMARK UNBOUND:                -2.133
REMARK SMILES CC[C@H](CC[C@H](C)[C@H]1CC[C@@H]2[C@H]3CC(=O)C4=CC(=O)CC[C@]4(C)[C@H]3CC[C@@]21C)C(C)C
REMARK SMILES IDX 4 1 3 2 2 3 1 4 29 5 30 6 31 7 5 8 6 9 7 10 8 11 9 12 27 13
REMARK SMILES IDX 10 14 11 15 26 16 28 17 12 18 25 19 24 20 13 21 22 22 14 23
REMARK SMILES IDX 16 24 21 25 23 26 15 27 17 28 20 29 18 30 19 31
REMARK H PARENT
REMARK Flexibility Score: inf
ROOT
ATOM      1  C   UNL     1      98.219 147.506 135.589  1.00  0.00     0.004 C 
ENDROOT
BRANCH   1   2
ATOM      2  C   UNL     1      97.523 148.889 135.366  1.00  0.00    -0.009 C 
BRANCH   2   3
ATOM      3  C   UNL     1      97.448 149.207 133.846  1.00  0.00     0.000 C 
ATOM      4  C   UNL     1      98.551 148.510 133.043  1.00  0.00     0.004 C 
ENDBRANCH   2   3
BRANCH   2   5
ATOM      5  C   UNL     1      96.114 148.930 136.059  1.00  0.00    -0.014 C 
ATOM      6  C   UNL     1      94.974 149.257 135.076  1.00  0.00     0.007 C 
ATOM      7  C   UNL     1      96.079 149.965 137.202  1.00  0.00     0.007 C 
ENDBRANCH   2   5
ENDBRANCH   1   2
BRANCH   1   8
ATOM      8  C   UNL     1      97.243 146.454 136.155  1.00  0.00     0.004 C 
BRANCH   8   9
ATOM      9  C   UNL     1      96.970 145.276 135.174  1.00  0.00    -0.011 C 
ATOM     10  C   UNL     1      96.202 145.734 133.924  1.00  0.00     0.008 C 
BRANCH   9  11
ATOM     11  C   UNL     1      96.348 143.970 135.802  1.00  0.00    -0.002 C 
ATOM     12  C   UNL     1      94.875 143.762 135.464  1.00  0.00     0.005 C 
ATOM     13  C   UNL     1      96.997 142.561 135.606  1.00  0.00    -0.026 C 
ATOM     14  C   UNL     1      94.540 142.389 136.012  1.00  0.00     0.005 C 
ATOM     15  C   UNL     1      95.853 141.570 136.032  1.00  0.00    -0.001 C 
ATOM     16  C   UNL     1      98.268 142.378 136.488  1.00  0.00     0.007 C 
ATOM     17  C   UNL     1      97.366 142.294 134.122  1.00  0.00     0.012 C 
ATOM     18  C   UNL     1      96.070 140.883 137.422  1.00  0.00     0.004 C 
ATOM     19  C   UNL     1      98.578 140.901 136.726  1.00  0.00     0.005 C 
ATOM     20  C   UNL     1      97.488 140.217 137.587  1.00  0.00     0.003 C 
ATOM     21  C   UNL     1      94.882 139.941 137.771  1.00  0.00     0.085 C 
ATOM     22  C   UNL     1      97.521 138.641 137.508  1.00  0.00    -0.000 C 
ATOM     23  C   UNL     1      95.254 138.851 138.725  1.00  0.00     0.159 C 
ATOM     24  C   UNL     1      96.508 138.097 138.516  1.00  0.00     0.005 C 
ATOM     25  C   UNL     1      98.953 138.140 137.884  1.00  0.00     0.020 C 
ATOM     26  C   UNL     1      97.150 138.117 136.097  1.00  0.00     0.017 C 
ATOM     27  O   UNL     1      94.466 138.552 139.664  1.00  0.00    -0.295 OA
ATOM     28  C   UNL     1      96.707 136.933 139.164  1.00  0.00     0.055 C 
ATOM     29  C   UNL     1      99.027 136.622 138.079  1.00  0.00     0.081 C 
ATOM     30  C   UNL     1      97.942 136.152 138.996  1.00  0.00     0.156 C 
ATOM     31  O   UNL     1      98.075 135.058 139.608  1.00  0.00    -0.295 OA
ENDBRANCH   9  11
ENDBRANCH   8   9
ENDBRANCH   1   8
TORSDOF 6
ENDMDL
MODEL 9
REMARK VINA RESULT:    -4.948      5.826     10.015
REMARK INTER + INTRA:          -8.817
REMARK INTER:                  -7.004
REMARK INTRA:                  -1.813
REMARK UNBOUND:                -2.133
REMARK SMILES CC[C@H](CC[C@H](C)[C@H]1CC[C@@H]2[C@H]3CC(=O)C4=CC(=O)CC[C@]4(C)[C@H]3CC[C@@]21C)C(C)C
REMARK SMILES IDX 4 1 3 2 2 3 1 4 29 5 30 6 31 7 5 8 6 9 7 10 8 11 9 12 27 13
REMARK SMILES IDX 10 14 11 15 26 16 28 17 12 18 25 19 24 20 13 21 22 22 14 23
REMARK SMILES IDX 16 24 21 25 23 26 15 27 17 28 20 29 18 30 19 31
REMARK H PARENT
REMARK Flexibility Score: inf
ROOT
ATOM      1  C   UNL     1      97.756 140.786 134.509  1.00  0.00     0.004 C 
ENDROOT
BRANCH   1   2
ATOM      2  C   UNL     1      96.830 141.226 135.690  1.00  0.00    -0.009 C 
BRANCH   2   3
ATOM      3  C   UNL     1      96.087 142.542 135.322  1.00  0.00     0.000 C 
ATOM      4  C   UNL     1      96.777 143.311 134.190  1.00  0.00     0.004 C 
ENDBRANCH   2   3
BRANCH   2   5
ATOM      5  C   UNL     1      95.843 140.073 136.094  1.00  0.00    -0.014 C 
ATOM      6  C   UNL     1      95.696 139.918 137.620  1.00  0.00     0.007 C 
ATOM      7  C   UNL     1      96.294 138.717 135.511  1.00  0.00     0.007 C 
ENDBRANCH   2   5
ENDBRANCH   1   2
BRANCH   1   8
ATOM      8  C   UNL     1      99.248 140.832 134.899  1.00  0.00     0.004 C 
BRANCH   8   9
ATOM      9  C   UNL     1      99.481 140.889 136.438  1.00  0.00    -0.011 C 
ATOM     10  C   UNL     1     100.044 142.247 136.886  1.00  0.00     0.008 C 
BRANCH   9  11
ATOM     11  C   UNL     1     100.276 139.684 137.071  1.00  0.00    -0.002 C 
ATOM     12  C   UNL     1     101.648 140.067 137.618  1.00  0.00     0.005 C 
ATOM     13  C   UNL     1      99.657 138.766 138.176  1.00  0.00    -0.026 C 
ATOM     14  C   UNL     1     102.149 138.820 138.321  1.00  0.00     0.005 C 
ATOM     15  C   UNL     1     100.906 138.014 138.767  1.00  0.00    -0.001 C 
ATOM     16  C   UNL     1      98.617 137.768 137.587  1.00  0.00     0.007 C 
ATOM     17  C   UNL     1      98.986 139.591 139.306  1.00  0.00     0.012 C 
ATOM     18  C   UNL     1     101.023 136.513 138.342  1.00  0.00     0.004 C 
ATOM     19  C   UNL     1      98.426 136.555 138.496  1.00  0.00     0.005 C 
ATOM     20  C   UNL     1      99.703 135.683 138.567  1.00  0.00     0.003 C 
ATOM     21  C   UNL     1     102.296 135.857 138.952  1.00  0.00     0.085 C 
ATOM     22  C   UNL     1      99.717 134.686 139.790  1.00  0.00    -0.000 C 
ATOM     23  C   UNL     1     102.184 134.373 139.096  1.00  0.00     0.159 C 
ATOM     24  C   UNL     1     100.946 133.786 139.651  1.00  0.00     0.005 C 
ATOM     25  C   UNL     1      98.422 133.811 139.751  1.00  0.00     0.020 C 
ATOM     26  C   UNL     1      99.793 135.427 141.150  1.00  0.00     0.017 C 
ATOM     27  O   UNL     1     103.169 133.644 138.795  1.00  0.00    -0.295 OA
ATOM     28  C   UNL     1     100.940 132.507 140.071  1.00  0.00     0.055 C 
ATOM     29  C   UNL     1      98.453 132.646 140.747  1.00  0.00     0.081 C 
ATOM     30  C   UNL     1      99.730 131.876 140.621  1.00  0.00     0.156 C 
ATOM     31  O   UNL     1      99.777 130.681 141.021  1.00  0.00    -0.295 OA
ENDBRANCH   9  11
ENDBRANCH   8   9
ENDBRANCH   1   8
TORSDOF 6
ENDMDL
