MODEL 1
REMARK VINA RESULT:    -4.315      0.000      0.000
REMARK INTER + INTRA:          -5.308
REMARK INTER:                  -5.198
REMARK INTRA:                  -0.110
REMARK UNBOUND:                -0.110
REMARK SMILES NC(=O)C[C@@H]([NH3+])C(=O)[O-]
REMARK SMILES IDX 4 1 5 2 6 3 7 7 8 8 9 9 2 10 3 11 1 12
REMARK H PARENT 6 4 6 5 6 6 1 13 1 14
REMARK Flexibility Score: inf
ROOT
ATOM      1  C   UNL     1     -20.523   9.575  18.114  1.00  0.00     0.171 C 
ENDROOT
BRANCH   1   2
ATOM      2  C   UNL     1     -21.670  10.034  19.038  1.00  0.00     0.237 C 
BRANCH   2   3
ATOM      3  N   UNL     1     -22.889   9.265  18.763  1.00  0.00    -0.350 N 
ATOM      4  H   UNL     1     -23.559   9.826  18.188  1.00  0.00     0.345 HD
ATOM      5  H   UNL     1     -22.645   8.386  18.250  1.00  0.00     0.345 HD
ATOM      6  H   UNL     1     -23.350   9.000  19.663  1.00  0.00     0.345 HD
ENDBRANCH   2   3
BRANCH   2   7
ATOM      7  C   UNL     1     -21.283   9.890  20.487  1.00  0.00     0.100 C 
ATOM      8  O   UNL     1     -20.068   9.887  20.821  1.00  0.00    -0.544 OA
ATOM      9  O   UNL     1     -22.261   9.747  21.464  1.00  0.00    -0.544 OA
ENDBRANCH   2   7
ENDBRANCH   1   2
BRANCH   1  10
ATOM     10  C   UNL     1     -20.185  10.618  17.090  1.00  0.00     0.223 C 
ATOM     11  O   UNL     1     -19.970  11.806  17.454  1.00  0.00    -0.275 OA
ATOM     12  N   UNL     1     -20.068  10.269  15.710  1.00  0.00    -0.369 N 
ATOM     13  H   UNL     1     -20.224   9.288  15.393  1.00  0.00     0.159 HD
ATOM     14  H   UNL     1     -19.818  10.996  15.002  1.00  0.00     0.159 HD
ENDBRANCH   1  10
TORSDOF 4
ENDMDL
MODEL 2
REMARK VINA RESULT:    -4.276      2.393      4.278
REMARK INTER + INTRA:          -5.260
REMARK INTER:                  -4.842
REMARK INTRA:                  -0.419
REMARK UNBOUND:                -0.110
REMARK SMILES NC(=O)C[C@@H]([NH3+])C(=O)[O-]
REMARK SMILES IDX 4 1 5 2 6 3 7 7 8 8 9 9 2 10 3 11 1 12
REMARK H PARENT 6 4 6 5 6 6 1 13 1 14
REMARK Flexibility Score: inf
ROOT
ATOM      1  C   UNL     1     -19.493  10.376  17.859  1.00  0.00     0.171 C 
ENDROOT
BRANCH   1   2
ATOM      2  C   UNL     1     -19.012  11.073  16.570  1.00  0.00     0.237 C 
BRANCH   2   3
ATOM      3  N   UNL     1     -19.689  10.507  15.398  1.00  0.00    -0.350 N 
ATOM      4  H   UNL     1     -20.231   9.651  15.660  1.00  0.00     0.345 HD
ATOM      5  H   UNL     1     -20.341  11.216  14.988  1.00  0.00     0.345 HD
ATOM      6  H   UNL     1     -18.983  10.254  14.669  1.00  0.00     0.345 HD
ENDBRANCH   2   3
BRANCH   2   7
ATOM      7  C   UNL     1     -19.256  12.559  16.640  1.00  0.00     0.100 C 
ATOM      8  O   UNL     1     -19.325  13.137  17.757  1.00  0.00    -0.544 OA
ATOM      9  O   UNL     1     -19.417  13.299  15.475  1.00  0.00    -0.544 OA
ENDBRANCH   2   7
ENDBRANCH   1   2
BRANCH   1  10
ATOM     10  C   UNL     1     -20.980  10.172  17.856  1.00  0.00     0.223 C 
ATOM     11  O   UNL     1     -21.474   9.179  17.258  1.00  0.00    -0.275 OA
ATOM     12  N   UNL     1     -21.837  11.073  18.559  1.00  0.00    -0.369 N 
ATOM     13  H   UNL     1     -21.444  11.889  19.076  1.00  0.00     0.159 HD
ATOM     14  H   UNL     1     -22.870  10.918  18.567  1.00  0.00     0.159 HD
ENDBRANCH   1  10
TORSDOF 4
ENDMDL
MODEL 3
REMARK VINA RESULT:    -4.274      1.720      2.240
REMARK INTER + INTRA:          -5.258
REMARK INTER:                  -5.136
REMARK INTRA:                  -0.122
REMARK UNBOUND:                -0.110
REMARK SMILES NC(=O)C[C@@H]([NH3+])C(=O)[O-]
REMARK SMILES IDX 4 1 5 2 6 3 7 7 8 8 9 9 2 10 3 11 1 12
REMARK H PARENT 6 4 6 5 6 6 1 13 1 14
REMARK Flexibility Score: inf
ROOT
ATOM      1  C   UNL     1     -18.895  10.853  17.088  1.00  0.00     0.171 C 
ENDROOT
BRANCH   1   2
ATOM      2  C   UNL     1     -20.206  10.322  17.704  1.00  0.00     0.237 C 
BRANCH   2   3
ATOM      3  N   UNL     1     -20.126   8.871  17.908  1.00  0.00    -0.350 N 
ATOM      4  H   UNL     1     -21.020   8.408  17.626  1.00  0.00     0.345 HD
ATOM      5  H   UNL     1     -19.339   8.476  17.341  1.00  0.00     0.345 HD
ATOM      6  H   UNL     1     -19.937   8.665  18.915  1.00  0.00     0.345 HD
ENDBRANCH   2   3
BRANCH   2   7
ATOM      7  C   UNL     1     -20.503  11.012  19.011  1.00  0.00     0.100 C 
ATOM      8  O   UNL     1     -20.374  12.261  19.111  1.00  0.00    -0.544 OA
ATOM      9  O   UNL     1     -20.910  10.275  20.117  1.00  0.00    -0.544 OA
ENDBRANCH   2   7
ENDBRANCH   1   2
BRANCH   1  10
ATOM     10  C   UNL     1     -19.122  11.438  15.724  1.00  0.00     0.223 C 
ATOM     11  O   UNL     1     -19.170  12.689  15.580  1.00  0.00    -0.275 OA
ATOM     12  N   UNL     1     -19.243  10.589  14.582  1.00  0.00    -0.369 N 
ATOM     13  H   UNL     1     -19.186   9.552  14.679  1.00  0.00     0.159 HD
ATOM     14  H   UNL     1     -19.386  11.001  13.633  1.00  0.00     0.159 HD
ENDBRANCH   1  10
TORSDOF 4
ENDMDL
MODEL 4
REMARK VINA RESULT:    -4.210     18.031     19.026
REMARK INTER + INTRA:          -5.181
REMARK INTER:                  -4.665
REMARK INTRA:                  -0.516
REMARK UNBOUND:                -0.110
REMARK SMILES NC(=O)C[C@@H]([NH3+])C(=O)[O-]
REMARK SMILES IDX 4 1 5 2 6 3 7 7 8 8 9 9 2 10 3 11 1 12
REMARK H PARENT 6 4 6 5 6 6 1 13 1 14
REMARK Flexibility Score: inf
ROOT
ATOM      1  C   UNL     1     -37.665   2.183  14.065  1.00  0.00     0.171 C 
ENDROOT
BRANCH   1   2
ATOM      2  C   UNL     1     -36.611   1.233  13.462  1.00  0.00     0.237 C 
BRANCH   2   3
ATOM      3  N   UNL     1     -35.284   1.518  14.021  1.00  0.00    -0.350 N 
ATOM      4  H   UNL     1     -34.588   1.683  13.258  1.00  0.00     0.345 HD
ATOM      5  H   UNL     1     -35.332   2.365  14.634  1.00  0.00     0.345 HD
ATOM      6  H   UNL     1     -34.966   0.711  14.606  1.00  0.00     0.345 HD
ENDBRANCH   2   3
BRANCH   2   7
ATOM      7  C   UNL     1     -36.979  -0.207  13.714  1.00  0.00     0.100 C 
ATOM      8  O   UNL     1     -37.409  -0.925  12.772  1.00  0.00    -0.544 OA
ATOM      9  O   UNL     1     -36.859  -0.749  14.988  1.00  0.00    -0.544 OA
ENDBRANCH   2   7
ENDBRANCH   1   2
BRANCH   1  10
ATOM     10  C   UNL     1     -37.266   2.657  15.432  1.00  0.00     0.223 C 
ATOM     11  O   UNL     1     -36.649   3.748  15.561  1.00  0.00    -0.275 OA
ATOM     12  N   UNL     1     -37.615   1.901  16.592  1.00  0.00    -0.369 N 
ATOM     13  H   UNL     1     -38.143   1.005  16.506  1.00  0.00     0.159 HD
ATOM     14  H   UNL     1     -37.349   2.242  17.543  1.00  0.00     0.159 HD
ENDBRANCH   1  10
TORSDOF 4
ENDMDL
MODEL 5
REMARK VINA RESULT:    -4.162      1.917      2.083
REMARK INTER + INTRA:          -5.123
REMARK INTER:                  -4.605
REMARK INTRA:                  -0.518
REMARK UNBOUND:                -0.110
REMARK SMILES NC(=O)C[C@@H]([NH3+])C(=O)[O-]
REMARK SMILES IDX 4 1 5 2 6 3 7 7 8 8 9 9 2 10 3 11 1 12
REMARK H PARENT 6 4 6 5 6 6 1 13 1 14
REMARK Flexibility Score: inf
ROOT
ATOM      1  C   UNL     1     -20.506  10.865  18.705  1.00  0.00     0.171 C 
ENDROOT
BRANCH   1   2
ATOM      2  C   UNL     1     -21.274  10.879  20.042  1.00  0.00     0.237 C 
BRANCH   2   3
ATOM      3  N   UNL     1     -22.364   9.897  20.018  1.00  0.00    -0.350 N 
ATOM      4  H   UNL     1     -23.195  10.253  20.545  1.00  0.00     0.345 HD
ATOM      5  H   UNL     1     -22.642   9.700  19.028  1.00  0.00     0.345 HD
ATOM      6  H   UNL     1     -22.043   9.001  20.451  1.00  0.00     0.345 HD
ENDBRANCH   2   3
BRANCH   2   7
ATOM      7  C   UNL     1     -20.347  10.594  21.196  1.00  0.00     0.100 C 
ATOM      8  O   UNL     1     -19.997  11.524  21.971  1.00  0.00    -0.544 OA
ATOM      9  O   UNL     1     -19.864   9.308  21.407  1.00  0.00    -0.544 OA
ENDBRANCH   2   7
ENDBRANCH   1   2
BRANCH   1  10
ATOM     10  C   UNL     1     -20.578   9.521  18.039  1.00  0.00     0.223 C 
ATOM     11  O   UNL     1     -21.484   9.289  17.195  1.00  0.00    -0.275 OA
ATOM     12  N   UNL     1     -19.604   8.517  18.327  1.00  0.00    -0.369 N 
ATOM     13  H   UNL     1     -18.835   8.699  19.008  1.00  0.00     0.159 HD
ATOM     14  H   UNL     1     -19.649   7.588  17.850  1.00  0.00     0.159 HD
ENDBRANCH   1  10
TORSDOF 4
ENDMDL
MODEL 6
REMARK VINA RESULT:    -4.158     17.544     18.457
REMARK INTER + INTRA:          -5.118
REMARK INTER:                  -4.808
REMARK INTRA:                  -0.311
REMARK UNBOUND:                -0.110
REMARK SMILES NC(=O)C[C@@H]([NH3+])C(=O)[O-]
REMARK SMILES IDX 4 1 5 2 6 3 7 7 8 8 9 9 2 10 3 11 1 12
REMARK H PARENT 6 4 6 5 6 6 1 13 1 14
REMARK Flexibility Score: inf
ROOT
ATOM      1  C   UNL     1     -37.082   2.709  13.541  1.00  0.00     0.171 C 
ENDROOT
BRANCH   1   2
ATOM      2  C   UNL     1     -36.292   1.390  13.427  1.00  0.00     0.237 C 
BRANCH   2   3
ATOM      3  N   UNL     1     -35.032   1.481  14.174  1.00  0.00    -0.350 N 
ATOM      4  H   UNL     1     -35.066   0.884  15.033  1.00  0.00     0.345 HD
ATOM      5  H   UNL     1     -34.237   1.169  13.569  1.00  0.00     0.345 HD
ATOM      6  H   UNL     1     -34.858   2.473  14.455  1.00  0.00     0.345 HD
ENDBRANCH   2   3
BRANCH   2   7
ATOM      7  C   UNL     1     -37.109   0.228  13.932  1.00  0.00     0.100 C 
ATOM      8  O   UNL     1     -37.321  -0.767  13.189  1.00  0.00    -0.544 OA
ATOM      9  O   UNL     1     -37.644   0.252  15.214  1.00  0.00    -0.544 OA
ENDBRANCH   2   7
ENDBRANCH   1   2
BRANCH   1  10
ATOM     10  C   UNL     1     -36.502   3.614  14.588  1.00  0.00     0.223 C 
ATOM     11  O   UNL     1     -36.659   3.340  15.809  1.00  0.00    -0.275 OA
ATOM     12  N   UNL     1     -35.739   4.761  14.214  1.00  0.00    -0.369 N 
ATOM     13  H   UNL     1     -35.582   4.993  13.208  1.00  0.00     0.159 HD
ATOM     14  H   UNL     1     -35.324   5.380  14.946  1.00  0.00     0.159 HD
ENDBRANCH   1  10
TORSDOF 4
ENDMDL
MODEL 7
REMARK VINA RESULT:    -4.150     13.878     14.464
REMARK INTER + INTRA:          -5.109
REMARK INTER:                  -4.783
REMARK INTRA:                  -0.327
REMARK UNBOUND:                -0.110
REMARK SMILES NC(=O)C[C@@H]([NH3+])C(=O)[O-]
REMARK SMILES IDX 4 1 5 2 6 3 7 7 8 8 9 9 2 10 3 11 1 12
REMARK H PARENT 6 4 6 5 6 6 1 13 1 14
REMARK Flexibility Score: inf
ROOT
ATOM      1  C   UNL     1     -34.141   9.173  12.384  1.00  0.00     0.171 C 
ENDROOT
BRANCH   1   2
ATOM      2  C   UNL     1     -33.816   8.421  13.690  1.00  0.00     0.237 C 
BRANCH   2   3
ATOM      3  N   UNL     1     -34.613   7.192  13.786  1.00  0.00    -0.350 N 
ATOM      4  H   UNL     1     -34.450   6.579  12.954  1.00  0.00     0.345 HD
ATOM      5  H   UNL     1     -34.356   6.670  14.656  1.00  0.00     0.345 HD
ATOM      6  H   UNL     1     -35.629   7.433  13.838  1.00  0.00     0.345 HD
ENDBRANCH   2   3
BRANCH   2   7
ATOM      7  C   UNL     1     -32.347   8.091  13.769  1.00  0.00     0.100 C 
ATOM      8  O   UNL     1     -31.585   8.361  12.804  1.00  0.00    -0.544 OA
ATOM      9  O   UNL     1     -31.826   7.478  14.903  1.00  0.00    -0.544 OA
ENDBRANCH   2   7
ENDBRANCH   1   2
BRANCH   1  10
ATOM     10  C   UNL     1     -35.011   8.355  11.475  1.00  0.00     0.223 C 
ATOM     11  O   UNL     1     -36.255   8.308  11.676  1.00  0.00    -0.275 OA
ATOM     12  N   UNL     1     -34.448   7.662  10.362  1.00  0.00    -0.369 N 
ATOM     13  H   UNL     1     -33.423   7.705  10.168  1.00  0.00     0.159 HD
ATOM     14  H   UNL     1     -35.060   7.106   9.723  1.00  0.00     0.159 HD
ENDBRANCH   1  10
TORSDOF 4
ENDMDL
MODEL 8
REMARK VINA RESULT:    -4.061     17.882     18.826
REMARK INTER + INTRA:          -5.002
REMARK INTER:                  -4.914
REMARK INTRA:                  -0.088
REMARK UNBOUND:                -0.110
REMARK SMILES NC(=O)C[C@@H]([NH3+])C(=O)[O-]
REMARK SMILES IDX 4 1 5 2 6 3 7 7 8 8 9 9 2 10 3 11 1 12
REMARK H PARENT 6 4 6 5 6 6 1 13 1 14
REMARK Flexibility Score: inf
ROOT
ATOM      1  C   UNL     1     -37.488   2.054  15.167  1.00  0.00     0.171 C 
ENDROOT
BRANCH   1   2
ATOM      2  C   UNL     1     -36.276   1.968  14.217  1.00  0.00     0.237 C 
BRANCH   2   3
ATOM      3  N   UNL     1     -35.075   2.505  14.868  1.00  0.00    -0.350 N 
ATOM      4  H   UNL     1     -35.335   3.112  15.680  1.00  0.00     0.345 HD
ATOM      5  H   UNL     1     -34.473   1.718  15.205  1.00  0.00     0.345 HD
ATOM      6  H   UNL     1     -34.523   3.068  14.183  1.00  0.00     0.345 HD
ENDBRANCH   2   3
BRANCH   2   7
ATOM      7  C   UNL     1     -36.035   0.545  13.781  1.00  0.00     0.100 C 
ATOM      8  O   UNL     1     -36.721  -0.392  14.270  1.00  0.00    -0.544 OA
ATOM      9  O   UNL     1     -35.048   0.255  12.846  1.00  0.00    -0.544 OA
ENDBRANCH   2   7
ENDBRANCH   1   2
BRANCH   1  10
ATOM     10  C   UNL     1     -38.398   3.190  14.801  1.00  0.00     0.223 C 
ATOM     11  O   UNL     1     -39.125   3.105  13.775  1.00  0.00    -0.275 OA
ATOM     12  N   UNL     1     -38.476   4.352  15.628  1.00  0.00    -0.369 N 
ATOM     13  H   UNL     1     -37.896   4.432  16.491  1.00  0.00     0.159 HD
ATOM     14  H   UNL     1     -39.121   5.134  15.377  1.00  0.00     0.159 HD
ENDBRANCH   1  10
TORSDOF 4
ENDMDL
MODEL 9
REMARK VINA RESULT:    -4.045      1.514      3.746
REMARK INTER + INTRA:          -4.982
REMARK INTER:                  -4.489
REMARK INTRA:                  -0.493
REMARK UNBOUND:                -0.110
REMARK SMILES NC(=O)C[C@@H]([NH3+])C(=O)[O-]
REMARK SMILES IDX 4 1 5 2 6 3 7 7 8 8 9 9 2 10 3 11 1 12
REMARK H PARENT 6 4 6 5 6 6 1 13 1 14
REMARK Flexibility Score: inf
ROOT
ATOM      1  C   UNL     1     -20.408   9.798  19.752  1.00  0.00     0.171 C 
ENDROOT
BRANCH   1   2
ATOM      2  C   UNL     1     -20.520   9.606  18.226  1.00  0.00     0.237 C 
BRANCH   2   3
ATOM      3  N   UNL     1     -21.898   9.270  17.851  1.00  0.00    -0.350 N 
ATOM      4  H   UNL     1     -22.341  10.058  17.324  1.00  0.00     0.345 HD
ATOM      5  H   UNL     1     -21.904   8.410  17.254  1.00  0.00     0.345 HD
ATOM      6  H   UNL     1     -22.461   9.074  18.710  1.00  0.00     0.345 HD
ENDBRANCH   2   3
BRANCH   2   7
ATOM      7  C   UNL     1     -20.072  10.845  17.494  1.00  0.00     0.100 C 
ATOM      8  O   UNL     1     -19.788  10.789  16.268  1.00  0.00    -0.544 OA
ATOM      9  O   UNL     1     -19.959  12.056  18.168  1.00  0.00    -0.544 OA
ENDBRANCH   2   7
ENDBRANCH   1   2
BRANCH   1  10
ATOM     10  C   UNL     1     -21.715  10.228  20.353  1.00  0.00     0.223 C 
ATOM     11  O   UNL     1     -22.522   9.359  20.779  1.00  0.00    -0.275 OA
ATOM     12  N   UNL     1     -22.034  11.613  20.481  1.00  0.00    -0.369 N 
ATOM     13  H   UNL     1     -21.369  12.347  20.151  1.00  0.00     0.159 HD
ATOM     14  H   UNL     1     -22.938  11.908  20.913  1.00  0.00     0.159 HD
ENDBRANCH   1  10
TORSDOF 4
ENDMDL
