MODEL 1
REMARK VINA RESULT:    -4.009      0.000      0.000
REMARK INTER + INTRA:          -7.537
REMARK INTER:                  -6.353
REMARK INTRA:                  -1.185
REMARK UNBOUND:                -1.185
REMARK SMILES CCCCCCCCCCCC(=O)[O-]
REMARK SMILES IDX 7 1 8 2 9 3 10 4 11 5 12 6 13 7 14 8 6 9 5 10 4 11 3 12 2 13
REMARK SMILES IDX 1 14
REMARK H PARENT
REMARK Flexibility Score: inf
ROOT
ATOM      1  C   UNL     1       2.913   3.095  -4.436  1.00  0.00     0.000 C 
ENDROOT
BRANCH   1   2
ATOM      2  C   UNL     1       2.218   1.734  -4.262  1.00  0.00     0.000 C 
BRANCH   2   3
ATOM      3  C   UNL     1       2.301   0.859  -5.522  1.00  0.00     0.000 C 
BRANCH   3   4
ATOM      4  C   UNL     1       0.904   0.419  -5.977  1.00  0.00     0.006 C 
BRANCH   4   5
ATOM      5  C   UNL     1       0.834  -1.102  -6.146  1.00  0.00     0.053 C 
BRANCH   5   6
ATOM      6  C   UNL     1       0.870  -1.778  -4.812  1.00  0.00     0.041 C 
ATOM      7  O   UNL     1       1.540  -2.833  -4.654  1.00  0.00    -0.550 OA
ATOM      8  O   UNL     1       0.204  -1.217  -3.730  1.00  0.00    -0.550 OA
ENDBRANCH   5   6
ENDBRANCH   4   5
ENDBRANCH   3   4
ENDBRANCH   2   3
ENDBRANCH   1   2
BRANCH   1   9
ATOM      9  C   UNL     1       4.201   3.211  -3.603  1.00  0.00     0.000 C 
BRANCH   9  10
ATOM     10  C   UNL     1       5.471   3.018  -4.449  1.00  0.00    -0.000 C 
BRANCH  10  11
ATOM     11  C   UNL     1       6.402   1.934  -3.879  1.00  0.00    -0.000 C 
BRANCH  11  12
ATOM     12  C   UNL     1       5.632   0.814  -3.160  1.00  0.00    -0.000 C 
BRANCH  12  13
ATOM     13  C   UNL     1       5.534  -0.470  -3.998  1.00  0.00    -0.003 C 
ATOM     14  C   UNL     1       4.443  -1.393  -3.463  1.00  0.00     0.004 C 
ENDBRANCH  12  13
ENDBRANCH  11  12
ENDBRANCH  10  11
ENDBRANCH   9  10
ENDBRANCH   1   9
TORSDOF 10
ENDMDL
MODEL 2
REMARK VINA RESULT:    -3.846      1.229      3.321
REMARK INTER + INTRA:          -7.278
REMARK INTER:                  -6.349
REMARK INTRA:                  -0.930
REMARK UNBOUND:                -1.185
REMARK SMILES CCCCCCCCCCCC(=O)[O-]
REMARK SMILES IDX 7 1 8 2 9 3 10 4 11 5 12 6 13 7 14 8 6 9 5 10 4 11 3 12 2 13
REMARK SMILES IDX 1 14
REMARK H PARENT
REMARK Flexibility Score: inf
ROOT
ATOM      1  C   UNL     1       5.696  -0.140  -3.753  1.00  0.00     0.000 C 
ENDROOT
BRANCH   1   2
ATOM      2  C   UNL     1       4.253  -0.656  -3.884  1.00  0.00     0.000 C 
BRANCH   2   3
ATOM      3  C   UNL     1       3.531  -0.094  -5.117  1.00  0.00     0.000 C 
BRANCH   3   4
ATOM      4  C   UNL     1       2.293   0.714  -4.707  1.00  0.00     0.006 C 
BRANCH   4   5
ATOM      5  C   UNL     1       1.027   0.151  -5.362  1.00  0.00     0.053 C 
BRANCH   5   6
ATOM      6  C   UNL     1       0.821  -1.275  -4.961  1.00  0.00     0.041 C 
ATOM      7  O   UNL     1       0.981  -2.200  -5.800  1.00  0.00    -0.550 OA
ATOM      8  O   UNL     1       0.499  -1.588  -3.646  1.00  0.00    -0.550 OA
ENDBRANCH   5   6
ENDBRANCH   4   5
ENDBRANCH   3   4
ENDBRANCH   2   3
ENDBRANCH   1   2
BRANCH   1   9
ATOM      9  C   UNL     1       5.772   1.233  -3.065  1.00  0.00     0.000 C 
BRANCH   9  10
ATOM     10  C   UNL     1       6.274   2.339  -4.009  1.00  0.00    -0.000 C 
BRANCH  10  11
ATOM     11  C   UNL     1       5.124   3.142  -4.642  1.00  0.00    -0.000 C 
BRANCH  11  12
ATOM     12  C   UNL     1       4.153   3.709  -3.593  1.00  0.00    -0.000 C 
BRANCH  12  13
ATOM     13  C   UNL     1       3.522   5.041  -4.027  1.00  0.00    -0.003 C 
ATOM     14  C   UNL     1       4.093   6.206  -3.224  1.00  0.00     0.004 C 
ENDBRANCH  12  13
ENDBRANCH  11  12
ENDBRANCH  10  11
ENDBRANCH   9  10
ENDBRANCH   1   9
TORSDOF 10
ENDMDL
MODEL 3
REMARK VINA RESULT:    -3.808      1.883      3.655
REMARK INTER + INTRA:          -7.219
REMARK INTER:                  -6.670
REMARK INTRA:                  -0.549
REMARK UNBOUND:                -1.185
REMARK SMILES CCCCCCCCCCCC(=O)[O-]
REMARK SMILES IDX 7 1 8 2 9 3 10 4 11 5 12 6 13 7 14 8 6 9 5 10 4 11 3 12 2 13
REMARK SMILES IDX 1 14
REMARK H PARENT
REMARK Flexibility Score: inf
ROOT
ATOM      1  C   UNL     1       2.196   2.406  -5.492  1.00  0.00     0.000 C 
ENDROOT
BRANCH   1   2
ATOM      2  C   UNL     1       1.184   1.525  -6.242  1.00  0.00     0.000 C 
BRANCH   2   3
ATOM      3  C   UNL     1      -0.134   1.347  -5.472  1.00  0.00     0.000 C 
BRANCH   3   4
ATOM      4  C   UNL     1       0.098   0.596  -4.155  1.00  0.00     0.006 C 
BRANCH   4   5
ATOM      5  C   UNL     1      -0.179  -0.902  -4.319  1.00  0.00     0.053 C 
BRANCH   5   6
ATOM      6  C   UNL     1       1.012  -1.593  -4.904  1.00  0.00     0.041 C 
ATOM      7  O   UNL     1       0.987  -2.000  -6.095  1.00  0.00    -0.550 OA
ATOM      8  O   UNL     1       2.169  -1.743  -4.150  1.00  0.00    -0.550 OA
ENDBRANCH   5   6
ENDBRANCH   4   5
ENDBRANCH   3   4
ENDBRANCH   2   3
ENDBRANCH   1   2
BRANCH   1   9
ATOM      9  C   UNL     1       3.387   1.602  -4.943  1.00  0.00     0.000 C 
BRANCH   9  10
ATOM     10  C   UNL     1       4.274   2.431  -3.998  1.00  0.00    -0.000 C 
BRANCH  10  11
ATOM     11  C   UNL     1       3.610   3.752  -3.572  1.00  0.00    -0.000 C 
BRANCH  11  12
ATOM     12  C   UNL     1       4.402   4.986  -4.034  1.00  0.00    -0.000 C 
BRANCH  12  13
ATOM     13  C   UNL     1       4.040   6.253  -3.244  1.00  0.00    -0.003 C 
ATOM     14  C   UNL     1       2.797   6.924  -3.821  1.00  0.00     0.004 C 
ENDBRANCH  12  13
ENDBRANCH  11  12
ENDBRANCH  10  11
ENDBRANCH   9  10
ENDBRANCH   1   9
TORSDOF 10
ENDMDL
MODEL 4
REMARK VINA RESULT:    -3.745      1.863      4.501
REMARK INTER + INTRA:          -7.120
REMARK INTER:                  -6.158
REMARK INTRA:                  -0.962
REMARK UNBOUND:                -1.185
REMARK SMILES CCCCCCCCCCCC(=O)[O-]
REMARK SMILES IDX 7 1 8 2 9 3 10 4 11 5 12 6 13 7 14 8 6 9 5 10 4 11 3 12 2 13
REMARK SMILES IDX 1 14
REMARK H PARENT
REMARK Flexibility Score: inf
ROOT
ATOM      1  C   UNL     1       3.396   3.411  -3.829  1.00  0.00     0.000 C 
ENDROOT
BRANCH   1   2
ATOM      2  C   UNL     1       4.904   3.125  -3.920  1.00  0.00     0.000 C 
BRANCH   2   3
ATOM      3  C   UNL     1       5.252   2.117  -5.025  1.00  0.00     0.000 C 
BRANCH   3   4
ATOM      4  C   UNL     1       6.032   0.926  -4.455  1.00  0.00     0.006 C 
BRANCH   4   5
ATOM      5  C   UNL     1       5.341   0.361  -3.211  1.00  0.00     0.053 C 
BRANCH   5   6
ATOM      6  C   UNL     1       4.885  -1.042  -3.457  1.00  0.00     0.041 C 
ATOM      7  O   UNL     1       4.108  -1.609  -2.643  1.00  0.00    -0.550 OA
ATOM      8  O   UNL     1       5.278  -1.709  -4.611  1.00  0.00    -0.550 OA
ENDBRANCH   5   6
ENDBRANCH   4   5
ENDBRANCH   3   4
ENDBRANCH   2   3
ENDBRANCH   1   2
BRANCH   1   9
ATOM      9  C   UNL     1       2.582   2.624  -4.869  1.00  0.00     0.000 C 
BRANCH   9  10
ATOM     10  C   UNL     1       1.591   1.641  -4.223  1.00  0.00    -0.000 C 
BRANCH  10  11
ATOM     11  C   UNL     1       1.714   0.217  -4.793  1.00  0.00    -0.000 C 
BRANCH  11  12
ATOM     12  C   UNL     1       0.346  -0.452  -5.008  1.00  0.00    -0.000 C 
BRANCH  12  13
ATOM     13  C   UNL     1      -0.655  -0.129  -3.889  1.00  0.00    -0.003 C 
ATOM     14  C   UNL     1      -0.724  -1.262  -2.870  1.00  0.00     0.004 C 
ENDBRANCH  12  13
ENDBRANCH  11  12
ENDBRANCH  10  11
ENDBRANCH   9  10
ENDBRANCH   1   9
TORSDOF 10
ENDMDL
MODEL 5
REMARK VINA RESULT:    -3.499      1.717      3.420
REMARK INTER + INTRA:          -6.728
REMARK INTER:                  -5.973
REMARK INTRA:                  -0.755
REMARK UNBOUND:                -1.185
REMARK SMILES CCCCCCCCCCCC(=O)[O-]
REMARK SMILES IDX 7 1 8 2 9 3 10 4 11 5 12 6 13 7 14 8 6 9 5 10 4 11 3 12 2 13
REMARK SMILES IDX 1 14
REMARK H PARENT
REMARK Flexibility Score: inf
ROOT
ATOM      1  C   UNL     1       3.488   1.431  -4.221  1.00  0.00     0.000 C 
ENDROOT
BRANCH   1   2
ATOM      2  C   UNL     1       1.986   1.759  -4.248  1.00  0.00     0.000 C 
BRANCH   2   3
ATOM      3  C   UNL     1       1.251   1.088  -5.418  1.00  0.00     0.000 C 
BRANCH   3   4
ATOM      4  C   UNL     1       0.241   0.053  -4.909  1.00  0.00     0.006 C 
BRANCH   4   5
ATOM      5  C   UNL     1       0.687  -1.370  -5.260  1.00  0.00     0.053 C 
BRANCH   5   6
ATOM      6  C   UNL     1       1.406  -1.992  -4.106  1.00  0.00     0.041 C 
ATOM      7  O   UNL     1       0.758  -2.563  -3.189  1.00  0.00    -0.550 OA
ATOM      8  O   UNL     1       2.795  -1.987  -4.067  1.00  0.00    -0.550 OA
ENDBRANCH   5   6
ENDBRANCH   4   5
ENDBRANCH   3   4
ENDBRANCH   2   3
ENDBRANCH   1   2
BRANCH   1   9
ATOM      9  C   UNL     1       4.359   2.670  -3.948  1.00  0.00     0.000 C 
BRANCH   9  10
ATOM     10  C   UNL     1       3.528   3.892  -3.520  1.00  0.00    -0.000 C 
BRANCH  10  11
ATOM     11  C   UNL     1       4.238   5.224  -3.820  1.00  0.00    -0.000 C 
BRANCH  11  12
ATOM     12  C   UNL     1       4.146   5.620  -5.303  1.00  0.00    -0.000 C 
BRANCH  12  13
ATOM     13  C   UNL     1       5.517   5.650  -5.995  1.00  0.00    -0.003 C 
ATOM     14  C   UNL     1       6.641   5.376  -5.000  1.00  0.00     0.004 C 
ENDBRANCH  12  13
ENDBRANCH  11  12
ENDBRANCH  10  11
ENDBRANCH   9  10
ENDBRANCH   1   9
TORSDOF 10
ENDMDL
MODEL 6
REMARK VINA RESULT:    -3.494      1.920      4.879
REMARK INTER + INTRA:          -6.721
REMARK INTER:                  -5.866
REMARK INTRA:                  -0.855
REMARK UNBOUND:                -1.185
REMARK SMILES CCCCCCCCCCCC(=O)[O-]
REMARK SMILES IDX 7 1 8 2 9 3 10 4 11 5 12 6 13 7 14 8 6 9 5 10 4 11 3 12 2 13
REMARK SMILES IDX 1 14
REMARK H PARENT
REMARK Flexibility Score: inf
ROOT
ATOM      1  C   UNL     1       3.805   0.750  -6.868  1.00  0.00     0.000 C 
ENDROOT
BRANCH   1   2
ATOM      2  C   UNL     1       4.564   1.847  -6.102  1.00  0.00     0.000 C 
BRANCH   2   3
ATOM      3  C   UNL     1       4.371   1.753  -4.582  1.00  0.00     0.000 C 
BRANCH   3   4
ATOM      4  C   UNL     1       5.684   1.371  -3.885  1.00  0.00     0.006 C 
BRANCH   4   5
ATOM      5  C   UNL     1       5.464   0.232  -2.885  1.00  0.00     0.053 C 
BRANCH   5   6
ATOM      6  C   UNL     1       4.977  -0.995  -3.588  1.00  0.00     0.041 C 
ATOM      7  O   UNL     1       5.608  -1.452  -4.576  1.00  0.00    -0.550 OA
ATOM      8  O   UNL     1       3.852  -1.664  -3.121  1.00  0.00    -0.550 OA
ENDBRANCH   5   6
ENDBRANCH   4   5
ENDBRANCH   3   4
ENDBRANCH   2   3
ENDBRANCH   1   2
BRANCH   1   9
ATOM      9  C   UNL     1       2.576   0.236  -6.099  1.00  0.00     0.000 C 
BRANCH   9  10
ATOM     10  C   UNL     1       1.418  -0.157  -7.033  1.00  0.00    -0.000 C 
BRANCH  10  11
ATOM     11  C   UNL     1       0.493  -1.218  -6.412  1.00  0.00    -0.000 C 
BRANCH  11  12
ATOM     12  C   UNL     1       0.882  -1.566  -4.966  1.00  0.00    -0.000 C 
BRANCH  12  13
ATOM     13  C   UNL     1      -0.156  -1.087  -3.940  1.00  0.00    -0.003 C 
ATOM     14  C   UNL     1      -0.344   0.426  -4.015  1.00  0.00     0.004 C 
ENDBRANCH  12  13
ENDBRANCH  11  12
ENDBRANCH  10  11
ENDBRANCH   9  10
ENDBRANCH   1   9
TORSDOF 10
ENDMDL
MODEL 7
REMARK VINA RESULT:    -3.444      2.343      4.057
REMARK INTER + INTRA:          -6.642
REMARK INTER:                  -5.454
REMARK INTRA:                  -1.187
REMARK UNBOUND:                -1.185
REMARK SMILES CCCCCCCCCCCC(=O)[O-]
REMARK SMILES IDX 7 1 8 2 9 3 10 4 11 5 12 6 13 7 14 8 6 9 5 10 4 11 3 12 2 13
REMARK SMILES IDX 1 14
REMARK H PARENT
REMARK Flexibility Score: inf
ROOT
ATOM      1  C   UNL     1       3.847   3.876  -3.405  1.00  0.00     0.000 C 
ENDROOT
BRANCH   1   2
ATOM      2  C   UNL     1       3.175   3.062  -4.524  1.00  0.00     0.000 C 
BRANCH   2   3
ATOM      3  C   UNL     1       3.579   1.580  -4.505  1.00  0.00     0.000 C 
BRANCH   3   4
ATOM      4  C   UNL     1       5.002   1.406  -3.958  1.00  0.00     0.006 C 
BRANCH   4   5
ATOM      5  C   UNL     1       5.107   0.148  -3.091  1.00  0.00     0.053 C 
BRANCH   5   6
ATOM      6  C   UNL     1       4.781  -1.070  -3.895  1.00  0.00     0.041 C 
ATOM      7  O   UNL     1       3.672  -1.649  -3.749  1.00  0.00    -0.550 OA
ATOM      8  O   UNL     1       5.682  -1.539  -4.843  1.00  0.00    -0.550 OA
ENDBRANCH   5   6
ENDBRANCH   4   5
ENDBRANCH   3   4
ENDBRANCH   2   3
ENDBRANCH   1   2
BRANCH   1   9
ATOM      9  C   UNL     1       4.225   5.298  -3.854  1.00  0.00     0.000 C 
BRANCH   9  10
ATOM     10  C   UNL     1       4.254   5.444  -5.385  1.00  0.00    -0.000 C 
BRANCH  10  11
ATOM     11  C   UNL     1       5.684   5.566  -5.941  1.00  0.00    -0.000 C 
BRANCH  11  12
ATOM     12  C   UNL     1       6.754   5.211  -4.896  1.00  0.00    -0.000 C 
BRANCH  12  13
ATOM     13  C   UNL     1       7.536   3.939  -5.255  1.00  0.00    -0.003 C 
ATOM     14  C   UNL     1       6.940   3.257  -6.484  1.00  0.00     0.004 C 
ENDBRANCH  12  13
ENDBRANCH  11  12
ENDBRANCH  10  11
ENDBRANCH   9  10
ENDBRANCH   1   9
TORSDOF 10
ENDMDL
MODEL 8
REMARK VINA RESULT:    -3.427      3.291      5.790
REMARK INTER + INTRA:          -6.616
REMARK INTER:                  -5.451
REMARK INTRA:                  -1.164
REMARK UNBOUND:                -1.185
REMARK SMILES CCCCCCCCCCCC(=O)[O-]
REMARK SMILES IDX 7 1 8 2 9 3 10 4 11 5 12 6 13 7 14 8 6 9 5 10 4 11 3 12 2 13
REMARK SMILES IDX 1 14
REMARK H PARENT
REMARK Flexibility Score: inf
ROOT
ATOM      1  C   UNL     1       1.985   1.894  -4.514  1.00  0.00     0.000 C 
ENDROOT
BRANCH   1   2
ATOM      2  C   UNL     1       3.319   1.132  -4.438  1.00  0.00     0.000 C 
BRANCH   2   3
ATOM      3  C   UNL     1       4.533   2.031  -4.716  1.00  0.00     0.000 C 
BRANCH   3   4
ATOM      4  C   UNL     1       4.653   3.134  -3.656  1.00  0.00     0.006 C 
BRANCH   4   5
ATOM      5  C   UNL     1       4.805   4.511  -4.310  1.00  0.00     0.053 C 
BRANCH   5   6
ATOM      6  C   UNL     1       3.858   5.490  -3.693  1.00  0.00     0.041 C 
ATOM      7  O   UNL     1       2.619   5.391  -3.899  1.00  0.00    -0.550 OA
ATOM      8  O   UNL     1       4.338   6.484  -2.849  1.00  0.00    -0.550 OA
ENDBRANCH   5   6
ENDBRANCH   4   5
ENDBRANCH   3   4
ENDBRANCH   2   3
ENDBRANCH   1   2
BRANCH   1   9
ATOM      9  C   UNL     1       1.628   2.318  -5.948  1.00  0.00     0.000 C 
BRANCH   9  10
ATOM     10  C   UNL     1       1.587   1.129  -6.923  1.00  0.00    -0.000 C 
BRANCH  10  11
ATOM     11  C   UNL     1       0.361   0.225  -6.701  1.00  0.00    -0.000 C 
BRANCH  11  12
ATOM     12  C   UNL     1       0.747  -1.243  -6.463  1.00  0.00    -0.000 C 
BRANCH  12  13
ATOM     13  C   UNL     1       0.825  -1.601  -4.971  1.00  0.00    -0.003 C 
ATOM     14  C   UNL     1      -0.272  -0.895  -4.179  1.00  0.00     0.004 C 
ENDBRANCH  12  13
ENDBRANCH  11  12
ENDBRANCH  10  11
ENDBRANCH   9  10
ENDBRANCH   1   9
TORSDOF 10
ENDMDL
MODEL 9
REMARK VINA RESULT:    -3.417     13.251     15.424
REMARK INTER + INTRA:          -6.599
REMARK INTER:                  -5.798
REMARK INTRA:                  -0.802
REMARK UNBOUND:                -1.185
REMARK SMILES CCCCCCCCCCCC(=O)[O-]
REMARK SMILES IDX 7 1 8 2 9 3 10 4 11 5 12 6 13 7 14 8 6 9 5 10 4 11 3 12 2 13
REMARK SMILES IDX 1 14
REMARK H PARENT
REMARK Flexibility Score: inf
ROOT
ATOM      1  C   UNL     1       7.215  -7.238   6.168  1.00  0.00     0.000 C 
ENDROOT
BRANCH   1   2
ATOM      2  C   UNL     1       6.892  -7.935   4.836  1.00  0.00     0.000 C 
BRANCH   2   3
ATOM      3  C   UNL     1       7.661  -7.337   3.649  1.00  0.00     0.000 C 
BRANCH   3   4
ATOM      4  C   UNL     1       8.565  -8.390   2.994  1.00  0.00     0.006 C 
BRANCH   4   5
ATOM      5  C   UNL     1       8.468  -9.730   3.729  1.00  0.00     0.053 C 
BRANCH   5   6
ATOM      6  C   UNL     1       8.324 -10.853   2.752  1.00  0.00     0.041 C 
ATOM      7  O   UNL     1       8.171 -12.035   3.161  1.00  0.00    -0.550 OA
ATOM      8  O   UNL     1       8.309 -10.590   1.388  1.00  0.00    -0.550 OA
ENDBRANCH   5   6
ENDBRANCH   4   5
ENDBRANCH   3   4
ENDBRANCH   2   3
ENDBRANCH   1   2
BRANCH   1   9
ATOM      9  C   UNL     1       8.537  -7.728   6.785  1.00  0.00     0.000 C 
BRANCH   9  10
ATOM     10  C   UNL     1       8.318  -8.766   7.899  1.00  0.00    -0.000 C 
BRANCH  10  11
ATOM     11  C   UNL     1       8.359 -10.212   7.375  1.00  0.00    -0.000 C 
BRANCH  11  12
ATOM     12  C   UNL     1       8.044 -11.245   8.470  1.00  0.00    -0.000 C 
BRANCH  12  13
ATOM     13  C   UNL     1       7.303 -10.632   9.668  1.00  0.00    -0.003 C 
ATOM     14  C   UNL     1       6.395 -11.660  10.337  1.00  0.00     0.004 C 
ENDBRANCH  12  13
ENDBRANCH  11  12
ENDBRANCH  10  11
ENDBRANCH   9  10
ENDBRANCH   1   9
TORSDOF 10
ENDMDL
