MODEL 1
REMARK VINA RESULT:    19.997      0.000      0.000
REMARK INTER + INTRA:          23.939
REMARK INTER:                  24.088
REMARK INTRA:                  -0.149
REMARK UNBOUND:                -0.149
REMARK SMILES [NH3+][C@@H](Cc1c[nH]c2ccccc12)C(=O)[O-]
REMARK SMILES IDX 3 1 2 2 1 3 13 7 14 8 15 9 4 10 12 11 5 12 7 13 11 14 6 15
REMARK SMILES IDX 8 16 10 17 9 19
REMARK H PARENT 1 4 1 5 1 6 6 18
REMARK Flexibility Score: inf
ROOT
ATOM      1  C   UNL     1      34.243   4.334  17.111  1.00  0.00     0.109 C 
ENDROOT
BRANCH   1   2
ATOM      2  C   UNL     1      33.257   3.312  16.508  1.00  0.00     0.232 C 
BRANCH   2   3
ATOM      3  N   UNL     1      33.178   2.095  17.327  1.00  0.00    -0.350 N 
ATOM      4  H   UNL     1      34.105   1.612  17.366  1.00  0.00     0.345 HD
ATOM      5  H   UNL     1      32.875   2.336  18.298  1.00  0.00     0.345 HD
ATOM      6  H   UNL     1      32.468   1.441  16.923  1.00  0.00     0.345 HD
ENDBRANCH   2   3
BRANCH   2   7
ATOM      7  C   UNL     1      33.685   2.965  15.107  1.00  0.00     0.099 C 
ATOM      8  O   UNL     1      32.875   2.412  14.316  1.00  0.00    -0.544 OA
ATOM      9  O   UNL     1      34.968   3.273  14.669  1.00  0.00    -0.544 OA
ENDBRANCH   2   7
ENDBRANCH   1   2
BRANCH   1  10
ATOM     10  C   UNL     1      33.744   5.742  16.962  1.00  0.00    -0.016 A 
ATOM     11  C   UNL     1      33.847   6.772  17.876  1.00  0.00     0.003 A 
ATOM     12  C   UNL     1      33.144   6.297  15.835  1.00  0.00     0.087 A 
ATOM     13  C   UNL     1      33.307   7.885  17.282  1.00  0.00     0.046 A 
ATOM     14  C   UNL     1      34.379   6.811  19.165  1.00  0.00     0.010 A 
ATOM     15  N   UNL     1      32.875   7.606  16.041  1.00  0.00    -0.361 N 
ATOM     16  C   UNL     1      33.259   9.114  17.939  1.00  0.00     0.026 A 
ATOM     17  C   UNL     1      34.342   8.039  19.853  1.00  0.00     0.001 A 
ATOM     18  H   UNL     1      32.431   8.266  15.363  1.00  0.00     0.166 HD
ATOM     19  C   UNL     1      33.783   9.184  19.242  1.00  0.00     0.002 A 
ENDBRANCH   1  10
TORSDOF 4
ENDMDL
MODEL 2
REMARK VINA RESULT:    20.431      1.022      1.279
REMARK INTER + INTRA:          24.463
REMARK INTER:                  24.520
REMARK INTRA:                  -0.058
REMARK UNBOUND:                -0.149
REMARK SMILES [NH3+][C@@H](Cc1c[nH]c2ccccc12)C(=O)[O-]
REMARK SMILES IDX 3 1 2 2 1 3 13 7 14 8 15 9 4 10 12 11 5 12 7 13 11 14 6 15
REMARK SMILES IDX 8 16 10 17 9 19
REMARK H PARENT 1 4 1 5 1 6 6 18
REMARK Flexibility Score: inf
ROOT
ATOM      1  C   UNL     1      32.917   4.530  17.110  1.00  0.00     0.109 C 
ENDROOT
BRANCH   1   2
ATOM      2  C   UNL     1      33.305   3.704  15.866  1.00  0.00     0.232 C 
BRANCH   2   3
ATOM      3  N   UNL     1      32.875   2.305  15.996  1.00  0.00    -0.350 N 
ATOM      4  H   UNL     1      33.481   1.676  15.421  1.00  0.00     0.345 HD
ATOM      5  H   UNL     1      32.921   2.008  16.997  1.00  0.00     0.345 HD
ATOM      6  H   UNL     1      31.882   2.209  15.679  1.00  0.00     0.345 HD
ENDBRANCH   2   3
BRANCH   2   7
ATOM      7  C   UNL     1      34.794   3.771  15.662  1.00  0.00     0.099 C 
ATOM      8  O   UNL     1      35.553   4.060  16.624  1.00  0.00    -0.544 OA
ATOM      9  O   UNL     1      35.345   3.493  14.416  1.00  0.00    -0.544 OA
ENDBRANCH   2   7
ENDBRANCH   1   2
BRANCH   1  10
ATOM     10  C   UNL     1      33.036   6.006  16.859  1.00  0.00    -0.016 A 
ATOM     11  C   UNL     1      33.395   6.987  17.761  1.00  0.00     0.003 A 
ATOM     12  C   UNL     1      32.876   6.656  15.638  1.00  0.00     0.087 A 
ATOM     13  C   UNL     1      33.428   8.170  17.068  1.00  0.00     0.046 A 
ATOM     14  C   UNL     1      33.701   6.922  19.121  1.00  0.00     0.010 A 
ATOM     15  N   UNL     1      33.113   7.980  15.775  1.00  0.00    -0.361 N 
ATOM     16  C   UNL     1      33.766   9.372  17.688  1.00  0.00     0.026 A 
ATOM     17  C   UNL     1      34.044   8.121  19.773  1.00  0.00     0.001 A 
ATOM     18  H   UNL     1      33.068   8.704  15.023  1.00  0.00     0.166 HD
ATOM     19  C   UNL     1      34.075   9.341  19.060  1.00  0.00     0.002 A 
ENDBRANCH   1  10
TORSDOF 4
ENDMDL
MODEL 3
REMARK VINA RESULT:    20.607      3.470      5.582
REMARK INTER + INTRA:          24.674
REMARK INTER:                  24.889
REMARK INTRA:                  -0.215
REMARK UNBOUND:                -0.149
REMARK SMILES [NH3+][C@@H](Cc1c[nH]c2ccccc12)C(=O)[O-]
REMARK SMILES IDX 3 1 2 2 1 3 13 7 14 8 15 9 4 10 12 11 5 12 7 13 11 14 6 15
REMARK SMILES IDX 8 16 10 17 9 19
REMARK H PARENT 1 4 1 5 1 6 6 18
REMARK Flexibility Score: inf
ROOT
ATOM      1  C   UNL     1      34.756   7.149  19.079  1.00  0.00     0.109 C 
ENDROOT
BRANCH   1   2
ATOM      2  C   UNL     1      34.050   8.292  19.837  1.00  0.00     0.232 C 
BRANCH   2   3
ATOM      3  N   UNL     1      34.817   9.543  19.758  1.00  0.00    -0.350 N 
ATOM      4  H   UNL     1      35.829   9.348  19.581  1.00  0.00     0.345 HD
ATOM      5  H   UNL     1      34.442  10.144  18.989  1.00  0.00     0.345 HD
ATOM      6  H   UNL     1      34.722  10.074  20.655  1.00  0.00     0.345 HD
ENDBRANCH   2   3
BRANCH   2   7
ATOM      7  C   UNL     1      33.855   7.896  21.276  1.00  0.00     0.099 C 
ATOM      8  O   UNL     1      34.102   6.718  21.648  1.00  0.00    -0.544 OA
ATOM      9  O   UNL     1      33.421   8.831  22.209  1.00  0.00    -0.544 OA
ENDBRANCH   2   7
ENDBRANCH   1   2
BRANCH   1  10
ATOM     10  C   UNL     1      34.082   6.850  17.771  1.00  0.00    -0.016 A 
ATOM     11  C   UNL     1      33.942   5.621  17.158  1.00  0.00     0.003 A 
ATOM     12  C   UNL     1      33.403   7.756  16.960  1.00  0.00     0.087 A 
ATOM     13  C   UNL     1      33.207   5.827  16.018  1.00  0.00     0.046 A 
ATOM     14  C   UNL     1      34.393   4.352  17.522  1.00  0.00     0.010 A 
ATOM     15  N   UNL     1      32.875   7.123  15.887  1.00  0.00    -0.361 N 
ATOM     16  C   UNL     1      32.875   4.779  15.161  1.00  0.00     0.026 A 
ATOM     17  C   UNL     1      34.075   3.275  16.675  1.00  0.00     0.001 A 
ATOM     18  H   UNL     1      32.314   7.557  15.120  1.00  0.00     0.166 HD
ATOM     19  C   UNL     1      33.320   3.487  15.500  1.00  0.00     0.002 A 
ENDBRANCH   1  10
TORSDOF 4
ENDMDL
MODEL 4
REMARK VINA RESULT:    20.941      5.042      6.477
REMARK INTER + INTRA:          25.076
REMARK INTER:                  24.582
REMARK INTRA:                   0.495
REMARK UNBOUND:                -0.149
REMARK SMILES [NH3+][C@@H](Cc1c[nH]c2ccccc12)C(=O)[O-]
REMARK SMILES IDX 3 1 2 2 1 3 13 7 14 8 15 9 4 10 12 11 5 12 7 13 11 14 6 15
REMARK SMILES IDX 8 16 10 17 9 19
REMARK H PARENT 1 4 1 5 1 6 6 18
REMARK Flexibility Score: inf
ROOT
ATOM      1  C   UNL     1      34.457   7.627  21.423  1.00  0.00     0.109 C 
ENDROOT
BRANCH   1   2
ATOM      2  C   UNL     1      33.439   7.916  22.545  1.00  0.00     0.232 C 
BRANCH   2   3
ATOM      3  N   UNL     1      32.875   9.268  22.423  1.00  0.00    -0.350 N 
ATOM      4  H   UNL     1      33.588   9.935  22.049  1.00  0.00     0.345 HD
ATOM      5  H   UNL     1      32.048   9.254  21.783  1.00  0.00     0.345 HD
ATOM      6  H   UNL     1      32.549   9.602  23.359  1.00  0.00     0.345 HD
ENDBRANCH   2   3
BRANCH   2   7
ATOM      7  C   UNL     1      34.106   7.754  23.885  1.00  0.00     0.099 C 
ATOM      8  O   UNL     1      35.129   7.029  23.999  1.00  0.00    -0.544 OA
ATOM      9  O   UNL     1      33.611   8.420  25.001  1.00  0.00    -0.544 OA
ENDBRANCH   2   7
ENDBRANCH   1   2
BRANCH   1  10
ATOM     10  C   UNL     1      34.370   8.639  20.318  1.00  0.00    -0.016 A 
ATOM     11  C   UNL     1      33.962   8.430  19.015  1.00  0.00     0.003 A 
ATOM     12  C   UNL     1      34.618  10.005  20.421  1.00  0.00     0.087 A 
ATOM     13  C   UNL     1      33.987   9.650  18.391  1.00  0.00     0.046 A 
ATOM     14  C   UNL     1      33.566   7.270  18.348  1.00  0.00     0.010 A 
ATOM     15  N   UNL     1      34.386  10.616  19.236  1.00  0.00    -0.361 N 
ATOM     16  C   UNL     1      33.622   9.796  17.053  1.00  0.00     0.026 A 
ATOM     17  C   UNL     1      33.193   7.387  16.996  1.00  0.00     0.001 A 
ATOM     18  H   UNL     1      34.488  11.635  19.029  1.00  0.00     0.166 HD
ATOM     19  C   UNL     1      33.222   8.643  16.352  1.00  0.00     0.002 A 
ENDBRANCH   1  10
TORSDOF 4
ENDMDL
MODEL 5
REMARK VINA RESULT:    21.488      2.127      3.283
REMARK INTER + INTRA:          25.736
REMARK INTER:                  25.137
REMARK INTRA:                   0.599
REMARK UNBOUND:                -0.149
REMARK SMILES [NH3+][C@@H](Cc1c[nH]c2ccccc12)C(=O)[O-]
REMARK SMILES IDX 3 1 2 2 1 3 13 7 14 8 15 9 4 10 12 11 5 12 7 13 11 14 6 15
REMARK SMILES IDX 8 16 10 17 9 19
REMARK H PARENT 1 4 1 5 1 6 6 18
REMARK Flexibility Score: inf
ROOT
ATOM      1  C   UNL     1      34.347   6.091  18.463  1.00  0.00     0.109 C 
ENDROOT
BRANCH   1   2
ATOM      2  C   UNL     1      34.052   6.185  16.952  1.00  0.00     0.232 C 
BRANCH   2   3
ATOM      3  N   UNL     1      32.884   7.036  16.685  1.00  0.00    -0.350 N 
ATOM      4  H   UNL     1      32.230   6.569  16.016  1.00  0.00     0.345 HD
ATOM      5  H   UNL     1      32.378   7.239  17.577  1.00  0.00     0.345 HD
ATOM      6  H   UNL     1      33.196   7.948  16.279  1.00  0.00     0.345 HD
ENDBRANCH   2   3
BRANCH   2   7
ATOM      7  C   UNL     1      33.823   4.804  16.397  1.00  0.00     0.099 C 
ATOM      8  O   UNL     1      32.875   4.593  15.595  1.00  0.00    -0.544 OA
ATOM      9  O   UNL     1      34.669   3.758  16.748  1.00  0.00    -0.544 OA
ENDBRANCH   2   7
ENDBRANCH   1   2
BRANCH   1  10
ATOM     10  C   UNL     1      34.100   7.398  19.160  1.00  0.00    -0.016 A 
ATOM     11  C   UNL     1      33.985   7.619  20.519  1.00  0.00     0.003 A 
ATOM     12  C   UNL     1      34.014   8.654  18.566  1.00  0.00     0.087 A 
ATOM     13  C   UNL     1      33.827   8.970  20.689  1.00  0.00     0.046 A 
ATOM     14  C   UNL     1      34.018   6.739  21.602  1.00  0.00     0.010 A 
ATOM     15  N   UNL     1      33.841   9.610  19.507  1.00  0.00    -0.361 N 
ATOM     16  C   UNL     1      33.687   9.537  21.955  1.00  0.00     0.026 A 
ATOM     17  C   UNL     1      33.878   7.284  22.892  1.00  0.00     0.001 A 
ATOM     18  H   UNL     1      33.749  10.637  19.343  1.00  0.00     0.166 HD
ATOM     19  C   UNL     1      33.712   8.676  23.068  1.00  0.00     0.002 A 
ENDBRANCH   1  10
TORSDOF 4
ENDMDL
