MODEL 1
REMARK VINA RESULT:    -1.353      0.000      0.000
REMARK INTER + INTRA:          -3.895
REMARK INTER:                  -3.094
REMARK INTRA:                  -0.801
REMARK UNBOUND:                -0.801
REMARK SMILES CCCCCCCCCCCCCCCCCCCCCCCC(=O)[O-]
REMARK SMILES IDX 13 1 14 2 15 3 16 4 17 5 18 6 19 7 20 8 21 9 22 10 23 11
REMARK SMILES IDX 24 12 25 13 26 14 12 15 11 16 10 17 9 18 8 19 7 20 6 21 5 22
REMARK SMILES IDX 4 23 3 24 2 25 1 26
REMARK H PARENT
REMARK Flexibility Score: inf
ROOT
ATOM      1  C   UNL     1      25.824   4.374  -0.776  1.00  0.00     0.000 C 
ENDROOT
BRANCH   1   2
ATOM      2  C   UNL     1      25.157   5.016  -2.008  1.00  0.00     0.000 C 
BRANCH   2   3
ATOM      3  C   UNL     1      24.182   4.104  -2.772  1.00  0.00     0.000 C 
BRANCH   3   4
ATOM      4  C   UNL     1      24.593   2.624  -2.727  1.00  0.00     0.000 C 
BRANCH   4   5
ATOM      5  C   UNL     1      23.444   1.697  -2.289  1.00  0.00     0.000 C 
BRANCH   5   6
ATOM      6  C   UNL     1      23.295   0.406  -3.116  1.00  0.00     0.000 C 
BRANCH   6   7
ATOM      7  C   UNL     1      23.531  -0.866  -2.287  1.00  0.00     0.000 C 
BRANCH   7   8
ATOM      8  C   UNL     1      24.075  -2.002  -3.166  1.00  0.00     0.000 C 
BRANCH   8   9
ATOM      9  C   UNL     1      25.583  -2.229  -2.969  1.00  0.00     0.000 C 
BRANCH   9  10
ATOM     10  C   UNL     1      26.077  -3.522  -3.640  1.00  0.00     0.006 C 
BRANCH  10  11
ATOM     11  C   UNL     1      26.032  -4.724  -2.687  1.00  0.00     0.053 C 
BRANCH  11  12
ATOM     12  C   UNL     1      27.344  -4.939  -1.995  1.00  0.00     0.041 C 
ATOM     13  O   UNL     1      27.495  -4.576  -0.798  1.00  0.00    -0.550 OA
ATOM     14  O   UNL     1      28.412  -5.504  -2.684  1.00  0.00    -0.550 OA
ENDBRANCH  11  12
ENDBRANCH  10  11
ENDBRANCH   9  10
ENDBRANCH   8   9
ENDBRANCH   7   8
ENDBRANCH   6   7
ENDBRANCH   5   6
ENDBRANCH   4   5
ENDBRANCH   3   4
ENDBRANCH   2   3
ENDBRANCH   1   2
BRANCH   1  15
ATOM     15  C   UNL     1      27.132   3.618  -1.095  1.00  0.00     0.000 C 
BRANCH  15  16
ATOM     16  C   UNL     1      28.150   3.706   0.056  1.00  0.00     0.000 C 
BRANCH  16  17
ATOM     17  C   UNL     1      28.939   5.025   0.046  1.00  0.00     0.000 C 
BRANCH  17  18
ATOM     18  C   UNL     1      28.238   6.124  -0.774  1.00  0.00    -0.000 C 
BRANCH  18  19
ATOM     19  C   UNL     1      28.655   7.543  -0.350  1.00  0.00    -0.000 C 
BRANCH  19  20
ATOM     20  C   UNL     1      27.829   8.679  -0.986  1.00  0.00    -0.000 C 
BRANCH  20  21
ATOM     21  C   UNL     1      26.972   8.263  -2.197  1.00  0.00    -0.000 C 
BRANCH  21  22
ATOM     22  C   UNL     1      27.285   9.013  -3.508  1.00  0.00    -0.000 C 
BRANCH  22  23
ATOM     23  C   UNL     1      28.784   9.227  -3.792  1.00  0.00    -0.000 C 
BRANCH  23  24
ATOM     24  C   UNL     1      29.125  10.687  -4.125  1.00  0.00    -0.000 C 
BRANCH  24  25
ATOM     25  C   UNL     1      28.267  11.651  -3.298  1.00  0.00    -0.003 C 
ATOM     26  C   UNL     1      29.028  12.937  -2.986  1.00  0.00     0.004 C 
ENDBRANCH  24  25
ENDBRANCH  23  24
ENDBRANCH  22  23
ENDBRANCH  21  22
ENDBRANCH  20  21
ENDBRANCH  19  20
ENDBRANCH  18  19
ENDBRANCH  17  18
ENDBRANCH  16  17
ENDBRANCH  15  16
ENDBRANCH   1  15
TORSDOF 22
ENDMDL
MODEL 2
REMARK VINA RESULT:    -0.860      1.090      2.041
REMARK INTER + INTRA:          -2.766
REMARK INTER:                  -1.941
REMARK INTRA:                  -0.825
REMARK UNBOUND:                -0.801
REMARK SMILES CCCCCCCCCCCCCCCCCCCCCCCC(=O)[O-]
REMARK SMILES IDX 13 1 14 2 15 3 16 4 17 5 18 6 19 7 20 8 21 9 22 10 23 11
REMARK SMILES IDX 24 12 25 13 26 14 12 15 11 16 10 17 9 18 8 19 7 20 6 21 5 22
REMARK SMILES IDX 4 23 3 24 2 25 1 26
REMARK H PARENT
REMARK Flexibility Score: inf
ROOT
ATOM      1  C   UNL     1      24.881   4.264  -2.529  1.00  0.00     0.000 C 
ENDROOT
BRANCH   1   2
ATOM      2  C   UNL     1      24.409   2.842  -2.167  1.00  0.00     0.000 C 
BRANCH   2   3
ATOM      3  C   UNL     1      23.192   2.336  -2.961  1.00  0.00     0.000 C 
BRANCH   3   4
ATOM      4  C   UNL     1      23.346   0.876  -3.419  1.00  0.00     0.000 C 
BRANCH   4   5
ATOM      5  C   UNL     1      23.269  -0.127  -2.253  1.00  0.00     0.000 C 
BRANCH   5   6
ATOM      6  C   UNL     1      23.540  -1.594  -2.635  1.00  0.00     0.000 C 
BRANCH   6   7
ATOM      7  C   UNL     1      25.037  -1.903  -2.796  1.00  0.00     0.000 C 
BRANCH   7   8
ATOM      8  C   UNL     1      25.264  -2.968  -3.880  1.00  0.00     0.000 C 
BRANCH   8   9
ATOM      9  C   UNL     1      26.648  -3.629  -3.775  1.00  0.00     0.000 C 
BRANCH   9  10
ATOM     10  C   UNL     1      26.590  -5.016  -3.111  1.00  0.00     0.006 C 
BRANCH  10  11
ATOM     11  C   UNL     1      27.834  -5.302  -2.258  1.00  0.00     0.053 C 
BRANCH  11  12
ATOM     12  C   UNL     1      27.718  -4.715  -0.884  1.00  0.00     0.041 C 
ATOM     13  O   UNL     1      26.839  -3.846  -0.639  1.00  0.00    -0.550 OA
ATOM     14  O   UNL     1      28.604  -5.100   0.116  1.00  0.00    -0.550 OA
ENDBRANCH  11  12
ENDBRANCH  10  11
ENDBRANCH   9  10
ENDBRANCH   8   9
ENDBRANCH   7   8
ENDBRANCH   6   7
ENDBRANCH   5   6
ENDBRANCH   4   5
ENDBRANCH   3   4
ENDBRANCH   2   3
ENDBRANCH   1   2
BRANCH   1  15
ATOM     15  C   UNL     1      25.739   4.936  -1.436  1.00  0.00     0.000 C 
BRANCH  15  16
ATOM     16  C   UNL     1      26.916   4.049  -0.994  1.00  0.00     0.000 C 
BRANCH  16  17
ATOM     17  C   UNL     1      27.666   4.626   0.217  1.00  0.00     0.000 C 
BRANCH  17  18
ATOM     18  C   UNL     1      29.064   5.155  -0.153  1.00  0.00    -0.000 C 
BRANCH  18  19
ATOM     19  C   UNL     1      29.087   6.678  -0.370  1.00  0.00    -0.000 C 
BRANCH  19  20
ATOM     20  C   UNL     1      27.845   7.251  -1.079  1.00  0.00    -0.000 C 
BRANCH  20  21
ATOM     21  C   UNL     1      27.268   8.535  -0.449  1.00  0.00    -0.000 C 
BRANCH  21  22
ATOM     22  C   UNL     1      28.283   9.677  -0.247  1.00  0.00    -0.000 C 
BRANCH  22  23
ATOM     23  C   UNL     1      29.124  10.027  -1.489  1.00  0.00    -0.000 C 
BRANCH  23  24
ATOM     24  C   UNL     1      28.457  11.082  -2.383  1.00  0.00    -0.000 C 
BRANCH  24  25
ATOM     25  C   UNL     1      28.601  10.714  -3.865  1.00  0.00    -0.003 C 
ATOM     26  C   UNL     1      28.607   9.200  -4.057  1.00  0.00     0.004 C 
ENDBRANCH  24  25
ENDBRANCH  23  24
ENDBRANCH  22  23
ENDBRANCH  21  22
ENDBRANCH  20  21
ENDBRANCH  19  20
ENDBRANCH  18  19
ENDBRANCH  17  18
ENDBRANCH  16  17
ENDBRANCH  15  16
ENDBRANCH   1  15
TORSDOF 22
ENDMDL
MODEL 3
REMARK VINA RESULT:    -0.077      4.792     11.764
REMARK INTER + INTRA:          -0.977
REMARK INTER:                  -0.191
REMARK INTRA:                  -0.786
REMARK UNBOUND:                -0.801
REMARK SMILES CCCCCCCCCCCCCCCCCCCCCCCC(=O)[O-]
REMARK SMILES IDX 13 1 14 2 15 3 16 4 17 5 18 6 19 7 20 8 21 9 22 10 23 11
REMARK SMILES IDX 24 12 25 13 26 14 12 15 11 16 10 17 9 18 8 19 7 20 6 21 5 22
REMARK SMILES IDX 4 23 3 24 2 25 1 26
REMARK H PARENT
REMARK Flexibility Score: inf
ROOT
ATOM      1  C   UNL     1      24.668   3.566  -2.429  1.00  0.00     0.000 C 
ENDROOT
BRANCH   1   2
ATOM      2  C   UNL     1      24.654   5.028  -1.939  1.00  0.00     0.000 C 
BRANCH   2   3
ATOM      3  C   UNL     1      26.026   5.595  -1.537  1.00  0.00     0.000 C 
BRANCH   3   4
ATOM      4  C   UNL     1      26.420   5.233  -0.096  1.00  0.00     0.000 C 
BRANCH   4   5
ATOM      5  C   UNL     1      27.735   4.435  -0.018  1.00  0.00     0.000 C 
BRANCH   5   6
ATOM      6  C   UNL     1      29.014   5.289   0.048  1.00  0.00     0.000 C 
BRANCH   6   7
ATOM      7  C   UNL     1      29.124   6.293  -1.111  1.00  0.00     0.000 C 
BRANCH   7   8
ATOM      8  C   UNL     1      29.006   7.737  -0.600  1.00  0.00     0.000 C 
BRANCH   8   9
ATOM      9  C   UNL     1      28.167   8.625  -1.533  1.00  0.00     0.000 C 
BRANCH   9  10
ATOM     10  C   UNL     1      29.037   9.499  -2.453  1.00  0.00     0.006 C 
BRANCH  10  11
ATOM     11  C   UNL     1      28.838  10.998  -2.187  1.00  0.00     0.053 C 
BRANCH  11  12
ATOM     12  C   UNL     1      28.238  11.701  -3.367  1.00  0.00     0.041 C 
ATOM     13  O   UNL     1      27.377  11.119  -4.079  1.00  0.00    -0.550 OA
ATOM     14  O   UNL     1      28.657  12.984  -3.702  1.00  0.00    -0.550 OA
ENDBRANCH  11  12
ENDBRANCH  10  11
ENDBRANCH   9  10
ENDBRANCH   8   9
ENDBRANCH   7   8
ENDBRANCH   6   7
ENDBRANCH   5   6
ENDBRANCH   4   5
ENDBRANCH   3   4
ENDBRANCH   2   3
ENDBRANCH   1   2
BRANCH   1  15
ATOM     15  C   UNL     1      23.285   2.881  -2.394  1.00  0.00     0.000 C 
BRANCH  15  16
ATOM     16  C   UNL     1      23.192   1.709  -3.387  1.00  0.00     0.000 C 
BRANCH  16  17
ATOM     17  C   UNL     1      22.319   0.559  -2.861  1.00  0.00     0.000 C 
BRANCH  17  18
ATOM     18  C   UNL     1      23.102  -0.410  -1.956  1.00  0.00    -0.000 C 
BRANCH  18  19
ATOM     19  C   UNL     1      23.327  -1.786  -2.607  1.00  0.00    -0.000 C 
BRANCH  19  20
ATOM     20  C   UNL     1      24.608  -1.901  -3.455  1.00  0.00    -0.000 C 
BRANCH  20  21
ATOM     21  C   UNL     1      25.784  -2.621  -2.766  1.00  0.00    -0.000 C 
BRANCH  21  22
ATOM     22  C   UNL     1      26.466  -3.716  -3.612  1.00  0.00    -0.000 C 
BRANCH  22  23
ATOM     23  C   UNL     1      26.035  -5.156  -3.280  1.00  0.00    -0.000 C 
BRANCH  23  24
ATOM     24  C   UNL     1      26.939  -5.822  -2.231  1.00  0.00    -0.000 C 
BRANCH  24  25
ATOM     25  C   UNL     1      27.814  -4.781  -1.523  1.00  0.00    -0.003 C 
ATOM     26  C   UNL     1      27.420  -4.636  -0.056  1.00  0.00     0.004 C 
ENDBRANCH  24  25
ENDBRANCH  23  24
ENDBRANCH  22  23
ENDBRANCH  21  22
ENDBRANCH  20  21
ENDBRANCH  19  20
ENDBRANCH  18  19
ENDBRANCH  17  18
ENDBRANCH  16  17
ENDBRANCH  15  16
ENDBRANCH   1  15
TORSDOF 22
ENDMDL
MODEL 4
REMARK VINA RESULT:     0.220      1.170      2.061
REMARK INTER + INTRA:          -0.298
REMARK INTER:                  -0.637
REMARK INTRA:                   0.339
REMARK UNBOUND:                -0.801
REMARK SMILES CCCCCCCCCCCCCCCCCCCCCCCC(=O)[O-]
REMARK SMILES IDX 13 1 14 2 15 3 16 4 17 5 18 6 19 7 20 8 21 9 22 10 23 11
REMARK SMILES IDX 24 12 25 13 26 14 12 15 11 16 10 17 9 18 8 19 7 20 6 21 5 22
REMARK SMILES IDX 4 23 3 24 2 25 1 26
REMARK H PARENT
REMARK Flexibility Score: inf
ROOT
ATOM      1  C   UNL     1      25.254   4.466  -1.039  1.00  0.00     0.000 C 
ENDROOT
BRANCH   1   2
ATOM      2  C   UNL     1      24.584   4.818  -2.381  1.00  0.00     0.000 C 
BRANCH   2   3
ATOM      3  C   UNL     1      23.746   3.690  -3.007  1.00  0.00     0.000 C 
BRANCH   3   4
ATOM      4  C   UNL     1      23.964   2.334  -2.316  1.00  0.00     0.000 C 
BRANCH   4   5
ATOM      5  C   UNL     1      22.899   1.290  -2.700  1.00  0.00     0.000 C 
BRANCH   5   6
ATOM      6  C   UNL     1      23.451  -0.098  -3.077  1.00  0.00     0.000 C 
BRANCH   6   7
ATOM      7  C   UNL     1      23.205  -1.156  -1.990  1.00  0.00     0.000 C 
BRANCH   7   8
ATOM      8  C   UNL     1      24.097  -2.387  -2.210  1.00  0.00     0.000 C 
BRANCH   8   9
ATOM      9  C   UNL     1      25.283  -2.096  -3.144  1.00  0.00     0.000 C 
BRANCH   9  10
ATOM     10  C   UNL     1      26.472  -3.042  -2.897  1.00  0.00     0.006 C 
BRANCH  10  11
ATOM     11  C   UNL     1      26.461  -4.247  -3.847  1.00  0.00     0.053 C 
BRANCH  11  12
ATOM     12  C   UNL     1      27.161  -5.433  -3.255  1.00  0.00     0.041 C 
ATOM     13  O   UNL     1      26.619  -6.090  -2.327  1.00  0.00    -0.550 OA
ATOM     14  O   UNL     1      28.429  -5.788  -3.702  1.00  0.00    -0.550 OA
ENDBRANCH  11  12
ENDBRANCH  10  11
ENDBRANCH   9  10
ENDBRANCH   8   9
ENDBRANCH   7   8
ENDBRANCH   6   7
ENDBRANCH   5   6
ENDBRANCH   4   5
ENDBRANCH   3   4
ENDBRANCH   2   3
ENDBRANCH   1   2
BRANCH   1  15
ATOM     15  C   UNL     1      26.766   4.177  -1.151  1.00  0.00     0.000 C 
BRANCH  15  16
ATOM     16  C   UNL     1      27.621   5.297  -0.530  1.00  0.00     0.000 C 
BRANCH  16  17
ATOM     17  C   UNL     1      27.096   6.699  -0.877  1.00  0.00     0.000 C 
BRANCH  17  18
ATOM     18  C   UNL     1      26.450   6.758  -2.273  1.00  0.00    -0.000 C 
BRANCH  18  19
ATOM     19  C   UNL     1      25.866   8.143  -2.603  1.00  0.00    -0.000 C 
BRANCH  19  20
ATOM     20  C   UNL     1      26.433   8.798  -3.877  1.00  0.00    -0.000 C 
BRANCH  20  21
ATOM     21  C   UNL     1      27.962   8.988  -3.889  1.00  0.00    -0.000 C 
BRANCH  21  22
ATOM     22  C   UNL     1      28.439  10.436  -4.124  1.00  0.00    -0.000 C 
BRANCH  22  23
ATOM     23  C   UNL     1      29.125  11.099  -2.916  1.00  0.00    -0.000 C 
BRANCH  23  24
ATOM     24  C   UNL     1      28.344  10.906  -1.607  1.00  0.00    -0.000 C 
BRANCH  24  25
ATOM     25  C   UNL     1      29.124  10.018  -0.631  1.00  0.00    -0.003 C 
ATOM     26  C   UNL     1      28.183   9.291   0.325  1.00  0.00     0.004 C 
ENDBRANCH  24  25
ENDBRANCH  23  24
ENDBRANCH  22  23
ENDBRANCH  21  22
ENDBRANCH  20  21
ENDBRANCH  19  20
ENDBRANCH  18  19
ENDBRANCH  17  18
ENDBRANCH  16  17
ENDBRANCH  15  16
ENDBRANCH   1  15
TORSDOF 22
ENDMDL
MODEL 5
REMARK VINA RESULT:     0.322      5.028     11.727
REMARK INTER + INTRA:          -0.065
REMARK INTER:                   0.300
REMARK INTRA:                  -0.365
REMARK UNBOUND:                -0.801
REMARK SMILES CCCCCCCCCCCCCCCCCCCCCCCC(=O)[O-]
REMARK SMILES IDX 13 1 14 2 15 3 16 4 17 5 18 6 19 7 20 8 21 9 22 10 23 11
REMARK SMILES IDX 24 12 25 13 26 14 12 15 11 16 10 17 9 18 8 19 7 20 6 21 5 22
REMARK SMILES IDX 4 23 3 24 2 25 1 26
REMARK H PARENT
REMARK Flexibility Score: inf
ROOT
ATOM      1  C   UNL     1      25.594   4.256  -1.099  1.00  0.00     0.000 C 
ENDROOT
BRANCH   1   2
ATOM      2  C   UNL     1      27.062   4.002  -1.491  1.00  0.00     0.000 C 
BRANCH   2   3
ATOM      3  C   UNL     1      27.900   3.259  -0.437  1.00  0.00     0.000 C 
BRANCH   3   4
ATOM      4  C   UNL     1      28.806   4.200   0.375  1.00  0.00     0.000 C 
BRANCH   4   5
ATOM      5  C   UNL     1      29.125   5.510  -0.369  1.00  0.00     0.000 C 
BRANCH   5   6
ATOM      6  C   UNL     1      27.957   6.510  -0.460  1.00  0.00     0.000 C 
BRANCH   6   7
ATOM      7  C   UNL     1      28.394   7.897  -0.956  1.00  0.00     0.000 C 
BRANCH   7   8
ATOM      8  C   UNL     1      28.764   7.856  -2.446  1.00  0.00     0.000 C 
BRANCH   8   9
ATOM      9  C   UNL     1      28.667   9.237  -3.116  1.00  0.00     0.000 C 
BRANCH   9  10
ATOM     10  C   UNL     1      27.985  10.282  -2.216  1.00  0.00     0.006 C 
BRANCH  10  11
ATOM     11  C   UNL     1      28.837  11.546  -2.047  1.00  0.00     0.053 C 
BRANCH  11  12
ATOM     12  C   UNL     1      28.556  12.558  -3.118  1.00  0.00     0.041 C 
ATOM     13  O   UNL     1      29.125  13.681  -3.092  1.00  0.00    -0.550 OA
ATOM     14  O   UNL     1      27.637  12.273  -4.122  1.00  0.00    -0.550 OA
ENDBRANCH  11  12
ENDBRANCH  10  11
ENDBRANCH   9  10
ENDBRANCH   8   9
ENDBRANCH   7   8
ENDBRANCH   6   7
ENDBRANCH   5   6
ENDBRANCH   4   5
ENDBRANCH   3   4
ENDBRANCH   2   3
ENDBRANCH   1   2
BRANCH   1  15
ATOM     15  C   UNL     1      24.747   4.894  -2.220  1.00  0.00     0.000 C 
BRANCH  15  16
ATOM     16  C   UNL     1      23.872   3.859  -2.949  1.00  0.00     0.000 C 
BRANCH  16  17
ATOM     17  C   UNL     1      24.234   2.413  -2.577  1.00  0.00     0.000 C 
BRANCH  17  18
ATOM     18  C   UNL     1      23.001   1.494  -2.518  1.00  0.00    -0.000 C 
BRANCH  18  19
ATOM     19  C   UNL     1      23.363   0.002  -2.627  1.00  0.00    -0.000 C 
BRANCH  19  20
ATOM     20  C   UNL     1      24.685  -0.292  -3.362  1.00  0.00    -0.000 C 
BRANCH  20  21
ATOM     21  C   UNL     1      24.816  -1.722  -3.922  1.00  0.00    -0.000 C 
BRANCH  21  22
ATOM     22  C   UNL     1      25.608  -2.703  -3.033  1.00  0.00    -0.000 C 
BRANCH  22  23
ATOM     23  C   UNL     1      26.135  -3.956  -3.756  1.00  0.00    -0.000 C 
BRANCH  23  24
ATOM     24  C   UNL     1      26.362  -5.141  -2.805  1.00  0.00    -0.000 C 
BRANCH  24  25
ATOM     25  C   UNL     1      27.495  -4.839  -1.816  1.00  0.00    -0.003 C 
ATOM     26  C   UNL     1      27.005  -4.930  -0.374  1.00  0.00     0.004 C 
ENDBRANCH  24  25
ENDBRANCH  23  24
ENDBRANCH  22  23
ENDBRANCH  21  22
ENDBRANCH  20  21
ENDBRANCH  19  20
ENDBRANCH  18  19
ENDBRANCH  17  18
ENDBRANCH  16  17
ENDBRANCH  15  16
ENDBRANCH   1  15
TORSDOF 22
ENDMDL
MODEL 6
REMARK VINA RESULT:     0.572      1.182      3.784
REMARK INTER + INTRA:           0.508
REMARK INTER:                   1.837
REMARK INTRA:                  -1.330
REMARK UNBOUND:                -0.801
REMARK SMILES CCCCCCCCCCCCCCCCCCCCCCCC(=O)[O-]
REMARK SMILES IDX 13 1 14 2 15 3 16 4 17 5 18 6 19 7 20 8 21 9 22 10 23 11
REMARK SMILES IDX 24 12 25 13 26 14 12 15 11 16 10 17 9 18 8 19 7 20 6 21 5 22
REMARK SMILES IDX 4 23 3 24 2 25 1 26
REMARK H PARENT
REMARK Flexibility Score: inf
ROOT
ATOM      1  C   UNL     1      25.640   6.007  -2.004  1.00  0.00     0.000 C 
ENDROOT
BRANCH   1   2
ATOM      2  C   UNL     1      25.729   4.473  -2.128  1.00  0.00     0.000 C 
BRANCH   2   3
ATOM      3  C   UNL     1      24.394   3.728  -1.961  1.00  0.00     0.000 C 
BRANCH   3   4
ATOM      4  C   UNL     1      24.296   2.477  -2.850  1.00  0.00     0.000 C 
BRANCH   4   5
ATOM      5  C   UNL     1      22.992   1.688  -2.630  1.00  0.00     0.000 C 
BRANCH   5   6
ATOM      6  C   UNL     1      23.034   0.218  -3.085  1.00  0.00     0.000 C 
BRANCH   6   7
ATOM      7  C   UNL     1      22.959  -0.773  -1.913  1.00  0.00     0.000 C 
BRANCH   7   8
ATOM      8  C   UNL     1      23.801  -2.026  -2.199  1.00  0.00     0.000 C 
BRANCH   8   9
ATOM      9  C   UNL     1      24.930  -1.760  -3.208  1.00  0.00     0.000 C 
BRANCH   9  10
ATOM     10  C   UNL     1      25.776  -3.014  -3.490  1.00  0.00     0.006 C 
BRANCH  10  11
ATOM     11  C   UNL     1      26.232  -3.708  -2.200  1.00  0.00     0.053 C 
BRANCH  11  12
ATOM     12  C   UNL     1      27.422  -4.591  -2.429  1.00  0.00     0.041 C 
ATOM     13  O   UNL     1      28.000  -5.140  -1.454  1.00  0.00    -0.550 OA
ATOM     14  O   UNL     1      27.914  -4.777  -3.716  1.00  0.00    -0.550 OA
ENDBRANCH  11  12
ENDBRANCH  10  11
ENDBRANCH   9  10
ENDBRANCH   8   9
ENDBRANCH   7   8
ENDBRANCH   6   7
ENDBRANCH   5   6
ENDBRANCH   4   5
ENDBRANCH   3   4
ENDBRANCH   2   3
ENDBRANCH   1   2
BRANCH   1  15
ATOM     15  C   UNL     1      25.145   6.711  -3.285  1.00  0.00     0.000 C 
BRANCH  15  16
ATOM     16  C   UNL     1      25.679   8.150  -3.401  1.00  0.00     0.000 C 
BRANCH  16  17
ATOM     17  C   UNL     1      27.087   8.210  -4.015  1.00  0.00     0.000 C 
BRANCH  17  18
ATOM     18  C   UNL     1      27.635   9.646  -4.093  1.00  0.00    -0.000 C 
BRANCH  18  19
ATOM     19  C   UNL     1      28.080  10.191  -2.724  1.00  0.00    -0.000 C 
BRANCH  19  20
ATOM     20  C   UNL     1      27.496   9.445  -1.509  1.00  0.00    -0.000 C 
BRANCH  20  21
ATOM     21  C   UNL     1      28.234   9.687  -0.178  1.00  0.00    -0.000 C 
BRANCH  21  22
ATOM     22  C   UNL     1      29.125   8.521   0.298  1.00  0.00    -0.000 C 
BRANCH  22  23
ATOM     23  C   UNL     1      29.110   7.279  -0.612  1.00  0.00    -0.000 C 
BRANCH  23  24
ATOM     24  C   UNL     1      28.511   6.043   0.076  1.00  0.00    -0.000 C 
BRANCH  24  25
ATOM     25  C   UNL     1      29.124   4.754  -0.485  1.00  0.00    -0.003 C 
ATOM     26  C   UNL     1      28.763   3.551   0.381  1.00  0.00     0.004 C 
ENDBRANCH  24  25
ENDBRANCH  23  24
ENDBRANCH  22  23
ENDBRANCH  21  22
ENDBRANCH  20  21
ENDBRANCH  19  20
ENDBRANCH  18  19
ENDBRANCH  17  18
ENDBRANCH  16  17
ENDBRANCH  15  16
ENDBRANCH   1  15
TORSDOF 22
ENDMDL
MODEL 7
REMARK VINA RESULT:     0.678      2.605     10.443
REMARK INTER + INTRA:           0.749
REMARK INTER:                   0.602
REMARK INTRA:                   0.148
REMARK UNBOUND:                -0.801
REMARK SMILES CCCCCCCCCCCCCCCCCCCCCCCC(=O)[O-]
REMARK SMILES IDX 13 1 14 2 15 3 16 4 17 5 18 6 19 7 20 8 21 9 22 10 23 11
REMARK SMILES IDX 24 12 25 13 26 14 12 15 11 16 10 17 9 18 8 19 7 20 6 21 5 22
REMARK SMILES IDX 4 23 3 24 2 25 1 26
REMARK H PARENT
REMARK Flexibility Score: inf
ROOT
ATOM      1  C   UNL     1      25.953   6.515  -3.172  1.00  0.00     0.000 C 
ENDROOT
BRANCH   1   2
ATOM      2  C   UNL     1      25.839   8.048  -3.056  1.00  0.00     0.000 C 
BRANCH   2   3
ATOM      3  C   UNL     1      26.639   8.842  -4.103  1.00  0.00     0.000 C 
BRANCH   3   4
ATOM      4  C   UNL     1      28.130   8.961  -3.746  1.00  0.00     0.000 C 
BRANCH   4   5
ATOM      5  C   UNL     1      28.624  10.419  -3.721  1.00  0.00     0.000 C 
BRANCH   5   6
ATOM      6  C   UNL     1      28.377  11.170  -2.399  1.00  0.00     0.000 C 
BRANCH   6   7
ATOM      7  C   UNL     1      28.885  10.400  -1.170  1.00  0.00     0.000 C 
BRANCH   7   8
ATOM      8  C   UNL     1      28.069   9.117  -0.949  1.00  0.00     0.000 C 
BRANCH   8   9
ATOM      9  C   UNL     1      28.759   8.138   0.015  1.00  0.00     0.000 C 
BRANCH   9  10
ATOM     10  C   UNL     1      29.069   6.782  -0.643  1.00  0.00     0.006 C 
BRANCH  10  11
ATOM     11  C   UNL     1      29.124   5.640   0.380  1.00  0.00     0.053 C 
BRANCH  11  12
ATOM     12  C   UNL     1      28.253   4.487  -0.019  1.00  0.00     0.041 C 
ATOM     13  O   UNL     1      28.687   3.308   0.066  1.00  0.00    -0.550 OA
ATOM     14  O   UNL     1      26.978   4.718  -0.522  1.00  0.00    -0.550 OA
ENDBRANCH  11  12
ENDBRANCH  10  11
ENDBRANCH   9  10
ENDBRANCH   8   9
ENDBRANCH   7   8
ENDBRANCH   6   7
ENDBRANCH   5   6
ENDBRANCH   4   5
ENDBRANCH   3   4
ENDBRANCH   2   3
ENDBRANCH   1   2
BRANCH   1  15
ATOM     15  C   UNL     1      24.642   5.764  -2.858  1.00  0.00     0.000 C 
BRANCH  15  16
ATOM     16  C   UNL     1      24.899   4.356  -2.293  1.00  0.00     0.000 C 
BRANCH  16  17
ATOM     17  C   UNL     1      23.779   3.365  -2.648  1.00  0.00     0.000 C 
BRANCH  17  18
ATOM     18  C   UNL     1      24.217   1.898  -2.483  1.00  0.00    -0.000 C 
BRANCH  18  19
ATOM     19  C   UNL     1      23.175   0.900  -3.018  1.00  0.00    -0.000 C 
BRANCH  19  20
ATOM     20  C   UNL     1      23.399  -0.563  -2.589  1.00  0.00    -0.000 C 
BRANCH  20  21
ATOM     21  C   UNL     1      24.557  -1.285  -3.306  1.00  0.00    -0.000 C 
BRANCH  21  22
ATOM     22  C   UNL     1      24.882  -2.693  -2.768  1.00  0.00    -0.000 C 
BRANCH  22  23
ATOM     23  C   UNL     1      26.354  -3.121  -2.915  1.00  0.00    -0.000 C 
BRANCH  23  24
ATOM     24  C   UNL     1      26.538  -4.646  -2.879  1.00  0.00    -0.000 C 
BRANCH  24  25
ATOM     25  C   UNL     1      26.699  -5.143  -1.437  1.00  0.00    -0.003 C 
ATOM     26  C   UNL     1      27.929  -4.528  -0.777  1.00  0.00     0.004 C 
ENDBRANCH  24  25
ENDBRANCH  23  24
ENDBRANCH  22  23
ENDBRANCH  21  22
ENDBRANCH  20  21
ENDBRANCH  19  20
ENDBRANCH  18  19
ENDBRANCH  17  18
ENDBRANCH  16  17
ENDBRANCH  15  16
ENDBRANCH   1  15
TORSDOF 22
ENDMDL
MODEL 8
REMARK VINA RESULT:     0.959      4.509     11.240
REMARK INTER + INTRA:           1.391
REMARK INTER:                   2.629
REMARK INTRA:                  -1.238
REMARK UNBOUND:                -0.801
REMARK SMILES CCCCCCCCCCCCCCCCCCCCCCCC(=O)[O-]
REMARK SMILES IDX 13 1 14 2 15 3 16 4 17 5 18 6 19 7 20 8 21 9 22 10 23 11
REMARK SMILES IDX 24 12 25 13 26 14 12 15 11 16 10 17 9 18 8 19 7 20 6 21 5 22
REMARK SMILES IDX 4 23 3 24 2 25 1 26
REMARK H PARENT
REMARK Flexibility Score: inf
ROOT
ATOM      1  C   UNL     1      26.679   6.932  -1.798  1.00  0.00     0.000 C 
ENDROOT
BRANCH   1   2
ATOM      2  C   UNL     1      25.821   7.698  -2.824  1.00  0.00     0.000 C 
BRANCH   2   3
ATOM      3  C   UNL     1      26.551   8.830  -3.568  1.00  0.00     0.000 C 
BRANCH   3   4
ATOM      4  C   UNL     1      27.999   9.020  -3.089  1.00  0.00     0.000 C 
BRANCH   4   5
ATOM      5  C   UNL     1      28.195  10.315  -2.278  1.00  0.00     0.000 C 
BRANCH   5   6
ATOM      6  C   UNL     1      29.067  10.170  -1.017  1.00  0.00     0.000 C 
BRANCH   6   7
ATOM      7  C   UNL     1      28.467   9.204   0.017  1.00  0.00     0.000 C 
BRANCH   7   8
ATOM      8  C   UNL     1      28.025   9.957   1.281  1.00  0.00     0.000 C 
BRANCH   8   9
ATOM      9  C   UNL     1      28.559   9.310   2.569  1.00  0.00     0.000 C 
BRANCH   9  10
ATOM     10  C   UNL     1      28.439  10.241   3.789  1.00  0.00     0.006 C 
BRANCH  10  11
ATOM     11  C   UNL     1      29.121   9.656   5.033  1.00  0.00     0.053 C 
BRANCH  11  12
ATOM     12  C   UNL     1      28.455   8.396   5.497  1.00  0.00     0.041 C 
ATOM     13  O   UNL     1      27.348   8.448   6.095  1.00  0.00    -0.550 OA
ATOM     14  O   UNL     1      29.077   7.167   5.303  1.00  0.00    -0.550 OA
ENDBRANCH  11  12
ENDBRANCH  10  11
ENDBRANCH   9  10
ENDBRANCH   8   9
ENDBRANCH   7   8
ENDBRANCH   6   7
ENDBRANCH   5   6
ENDBRANCH   4   5
ENDBRANCH   3   4
ENDBRANCH   2   3
ENDBRANCH   1   2
BRANCH   1  15
ATOM     15  C   UNL     1      25.901   5.854  -1.013  1.00  0.00     0.000 C 
BRANCH  15  16
ATOM     16  C   UNL     1      26.312   4.428  -1.420  1.00  0.00     0.000 C 
BRANCH  16  17
ATOM     17  C   UNL     1      25.122   3.455  -1.442  1.00  0.00     0.000 C 
BRANCH  17  18
ATOM     18  C   UNL     1      24.033   3.879  -2.445  1.00  0.00    -0.000 C 
BRANCH  18  19
ATOM     19  C   UNL     1      23.265   2.682  -3.033  1.00  0.00    -0.000 C 
BRANCH  19  20
ATOM     20  C   UNL     1      23.825   1.300  -2.648  1.00  0.00    -0.000 C 
BRANCH  20  21
ATOM     21  C   UNL     1      22.870   0.116  -2.896  1.00  0.00    -0.000 C 
BRANCH  21  22
ATOM     22  C   UNL     1      23.358  -1.243  -2.352  1.00  0.00    -0.000 C 
BRANCH  22  23
ATOM     23  C   UNL     1      24.393  -1.962  -3.236  1.00  0.00    -0.000 C 
BRANCH  23  24
ATOM     24  C   UNL     1      25.549  -2.570  -2.426  1.00  0.00    -0.000 C 
BRANCH  24  25
ATOM     25  C   UNL     1      26.298  -3.624  -3.250  1.00  0.00    -0.003 C 
ATOM     26  C   UNL     1      27.336  -4.351  -2.399  1.00  0.00     0.004 C 
ENDBRANCH  24  25
ENDBRANCH  23  24
ENDBRANCH  22  23
ENDBRANCH  21  22
ENDBRANCH  20  21
ENDBRANCH  19  20
ENDBRANCH  18  19
ENDBRANCH  17  18
ENDBRANCH  16  17
ENDBRANCH  15  16
ENDBRANCH   1  15
TORSDOF 22
ENDMDL
MODEL 9
REMARK VINA RESULT:     1.324      2.315      4.092
REMARK INTER + INTRA:           2.227
REMARK INTER:                   3.324
REMARK INTRA:                  -1.097
REMARK UNBOUND:                -0.801
REMARK SMILES CCCCCCCCCCCCCCCCCCCCCCCC(=O)[O-]
REMARK SMILES IDX 13 1 14 2 15 3 16 4 17 5 18 6 19 7 20 8 21 9 22 10 23 11
REMARK SMILES IDX 24 12 25 13 26 14 12 15 11 16 10 17 9 18 8 19 7 20 6 21 5 22
REMARK SMILES IDX 4 23 3 24 2 25 1 26
REMARK H PARENT
REMARK Flexibility Score: inf
ROOT
ATOM      1  C   UNL     1      25.556   5.737  -1.331  1.00  0.00     0.000 C 
ENDROOT
BRANCH   1   2
ATOM      2  C   UNL     1      25.681   4.220  -1.576  1.00  0.00     0.000 C 
BRANCH   2   3
ATOM      3  C   UNL     1      24.350   3.486  -1.812  1.00  0.00     0.000 C 
BRANCH   3   4
ATOM      4  C   UNL     1      24.528   2.166  -2.580  1.00  0.00     0.000 C 
BRANCH   4   5
ATOM      5  C   UNL     1      23.189   1.546  -3.021  1.00  0.00     0.000 C 
BRANCH   5   6
ATOM      6  C   UNL     1      23.219   0.023  -3.250  1.00  0.00     0.000 C 
BRANCH   6   7
ATOM      7  C   UNL     1      23.108  -0.781  -1.945  1.00  0.00     0.000 C 
BRANCH   7   8
ATOM      8  C   UNL     1      23.979  -2.044  -2.002  1.00  0.00     0.000 C 
BRANCH   8   9
ATOM      9  C   UNL     1      24.877  -2.085  -3.249  1.00  0.00     0.000 C 
BRANCH   9  10
ATOM     10  C   UNL     1      25.810  -3.309  -3.265  1.00  0.00     0.006 C 
BRANCH  10  11
ATOM     11  C   UNL     1      26.444  -3.572  -1.892  1.00  0.00     0.053 C 
BRANCH  11  12
ATOM     12  C   UNL     1      27.061  -4.936  -1.812  1.00  0.00     0.041 C 
ATOM     13  O   UNL     1      27.938  -5.184  -0.943  1.00  0.00    -0.550 OA
ATOM     14  O   UNL     1      26.694  -5.921  -2.722  1.00  0.00    -0.550 OA
ENDBRANCH  11  12
ENDBRANCH  10  11
ENDBRANCH   9  10
ENDBRANCH   8   9
ENDBRANCH   7   8
ENDBRANCH   6   7
ENDBRANCH   5   6
ENDBRANCH   4   5
ENDBRANCH   3   4
ENDBRANCH   2   3
ENDBRANCH   1   2
BRANCH   1  15
ATOM     15  C   UNL     1      25.437   6.572  -2.624  1.00  0.00     0.000 C 
BRANCH  15  16
ATOM     16  C   UNL     1      26.683   7.441  -2.872  1.00  0.00     0.000 C 
BRANCH  16  17
ATOM     17  C   UNL     1      26.331   8.834  -3.417  1.00  0.00     0.000 C 
BRANCH  17  18
ATOM     18  C   UNL     1      27.380   9.896  -3.039  1.00  0.00    -0.000 C 
BRANCH  18  19
ATOM     19  C   UNL     1      28.613   9.295  -2.342  1.00  0.00    -0.000 C 
BRANCH  19  20
ATOM     20  C   UNL     1      29.027  10.000  -1.035  1.00  0.00    -0.000 C 
BRANCH  20  21
ATOM     21  C   UNL     1      28.972   9.119   0.228  1.00  0.00    -0.000 C 
BRANCH  21  22
ATOM     22  C   UNL     1      28.250   9.752   1.435  1.00  0.00    -0.000 C 
BRANCH  22  23
ATOM     23  C   UNL     1      29.118   9.923   2.695  1.00  0.00    -0.000 C 
BRANCH  23  24
ATOM     24  C   UNL     1      29.028   8.722   3.648  1.00  0.00    -0.000 C 
BRANCH  24  25
ATOM     25  C   UNL     1      28.953   9.186   5.108  1.00  0.00    -0.003 C 
ATOM     26  C   UNL     1      27.750   8.572   5.819  1.00  0.00     0.004 C 
ENDBRANCH  24  25
ENDBRANCH  23  24
ENDBRANCH  22  23
ENDBRANCH  21  22
ENDBRANCH  20  21
ENDBRANCH  19  20
ENDBRANCH  18  19
ENDBRANCH  17  18
ENDBRANCH  16  17
ENDBRANCH  15  16
ENDBRANCH   1  15
TORSDOF 22
ENDMDL
