MODEL 1
REMARK VINA RESULT:    -1.882      0.000      0.000
REMARK INTER + INTRA:          -1.569
REMARK INTER:                  -2.322
REMARK INTRA:                   0.754
REMARK UNBOUND:                 0.754
REMARK SMILES CC1=CC=CC(C)(C)CC1=O
REMARK SMILES IDX 1 1 2 2 3 3 10 4 11 5 9 6 4 8 5 9 6 10 7 11 8 12
REMARK H PARENT
REMARK Flexibility Score: 80.00
ROOT
ATOM      1  C   UNL     1     119.670  88.630  57.626  1.00  0.00     0.048 C 
ATOM      2  C   UNL     1     120.890  87.802  57.299  1.00  0.00    -0.008 C 
ATOM      3  C   UNL     1     121.640  88.181  56.241  1.00  0.00     0.007 C 
ENDROOT
BRANCH   2   4
ATOM      4  C   UNL     1     121.124  86.589  58.123  1.00  0.00     0.159 C 
ATOM      5  O   UNL     1     120.198  86.178  58.875  1.00  0.00    -0.295 OA
BRANCH   4   6
ATOM      6  C   UNL     1     122.411  85.825  58.123  1.00  0.00     0.091 CG0
ATOM      7  G   UNL     1     122.767  85.231  56.741  1.00  0.00     0.000 G0
ENDBRANCH   4   6
ENDBRANCH   2   4
BRANCH   3   8
ATOM      8  C   UNL     1     122.859  87.562  55.669  1.00  0.00    -0.003 C 
ATOM      9  C   UNL     1     123.345  86.327  55.851  1.00  0.00    -0.020 C 
BRANCH   9  10
ATOM     10  C   UNL     1     122.756  85.254  56.735  1.00  0.00    -0.010 CG0
ATOM     11  C   UNL     1     123.825  84.155  56.939  1.00  0.00     0.016 C 
ATOM     12  C   UNL     1     121.535  84.608  56.040  1.00  0.00     0.016 C 
ATOM     13  G   UNL     1     122.409  85.849  58.118  1.00  0.00     0.000 G0
ENDBRANCH   9  10
ENDBRANCH   3   8
TORSDOF 0
ENDMDL
MODEL 2
REMARK VINA RESULT:    -1.685      1.376      2.080
REMARK INTER + INTRA:          -1.325
REMARK INTER:                  -2.058
REMARK INTRA:                   0.734
REMARK UNBOUND:                 0.754
REMARK SMILES CC1=CC=CC(C)(C)CC1=O
REMARK SMILES IDX 1 1 2 2 3 3 10 4 11 5 9 6 4 8 5 9 6 10 7 11 8 12
REMARK H PARENT
REMARK Flexibility Score: 80.00
ROOT
ATOM      1  C   UNL     1     120.414  85.917  59.051  1.00  0.00     0.048 C 
ATOM      2  C   UNL     1     121.411  86.265  57.970  1.00  0.00    -0.008 C 
ATOM      3  C   UNL     1     121.329  87.494  57.415  1.00  0.00     0.007 C 
ENDROOT
BRANCH   2   4
ATOM      4  C   UNL     1     122.353  85.198  57.551  1.00  0.00     0.159 C 
ATOM      5  O   UNL     1     122.165  84.023  57.969  1.00  0.00    -0.295 OA
BRANCH   4   6
ATOM      6  C   UNL     1     123.534  85.440  56.663  1.00  0.00     0.091 CG0
ATOM      7  G   UNL     1     123.150  86.032  55.288  1.00  0.00     0.000 G0
ENDBRANCH   4   6
ENDBRANCH   2   4
BRANCH   3   8
ATOM      8  C   UNL     1     122.137  88.104  56.333  1.00  0.00    -0.003 C 
ATOM      9  C   UNL     1     122.913  87.508  55.420  1.00  0.00    -0.020 C 
BRANCH   9  10
ATOM     10  C   UNL     1     123.174  86.026  55.295  1.00  0.00    -0.010 CG0
ATOM     11  C   UNL     1     124.405  85.827  54.379  1.00  0.00     0.016 C 
ATOM     12  C   UNL     1     121.966  85.331  54.628  1.00  0.00     0.016 C 
ATOM     13  G   UNL     1     123.509  85.437  56.684  1.00  0.00     0.000 G0
ENDBRANCH   9  10
ENDBRANCH   3   8
TORSDOF 0
ENDMDL
MODEL 3
REMARK VINA RESULT:    -1.621     13.160     14.765
REMARK INTER + INTRA:          -1.246
REMARK INTER:                  -1.995
REMARK INTRA:                   0.749
REMARK UNBOUND:                 0.754
REMARK SMILES CC1=CC=CC(C)(C)CC1=O
REMARK SMILES IDX 1 1 2 2 3 3 10 4 11 5 9 6 4 8 5 9 6 10 7 11 8 12
REMARK H PARENT
REMARK Flexibility Score: 80.00
ROOT
ATOM      1  C   UNL     1     105.706  85.438  53.760  1.00  0.00     0.048 C 
ATOM      2  C   UNL     1     106.364  85.967  55.013  1.00  0.00    -0.008 C 
ATOM      3  C   UNL     1     106.794  87.247  55.003  1.00  0.00     0.007 C 
ENDROOT
BRANCH   2   4
ATOM      4  C   UNL     1     106.552  85.010  56.132  1.00  0.00     0.159 C 
ATOM      5  O   UNL     1     106.328  83.785  55.928  1.00  0.00    -0.295 OA
BRANCH   4   6
ATOM      6  C   UNL     1     106.983  85.419  57.506  1.00  0.00     0.091 CG0
ATOM      7  G   UNL     1     108.358  86.124  57.528  1.00  0.00     0.000 G0
ENDBRANCH   4   6
ENDBRANCH   2   4
BRANCH   3   8
ATOM      8  C   UNL     1     107.489  88.025  56.055  1.00  0.00    -0.003 C 
ATOM      9  C   UNL     1     108.160  87.585  57.128  1.00  0.00    -0.020 C 
BRANCH   9  10
ATOM     10  C   UNL     1     108.345  86.144  57.540  1.00  0.00    -0.010 CG0
ATOM     11  C   UNL     1     108.848  86.119  59.002  1.00  0.00     0.016 C 
ATOM     12  C   UNL     1     109.421  85.475  56.654  1.00  0.00     0.016 C 
ATOM     13  G   UNL     1     106.988  85.408  57.486  1.00  0.00     0.000 G0
ENDBRANCH   9  10
ENDBRANCH   3   8
TORSDOF 0
ENDMDL
MODEL 4
REMARK VINA RESULT:    -1.580      3.167      4.596
REMARK INTER + INTRA:          -1.196
REMARK INTER:                  -1.951
REMARK INTRA:                   0.755
REMARK UNBOUND:                 0.754
REMARK SMILES CC1=CC=CC(C)(C)CC1=O
REMARK SMILES IDX 1 1 2 2 3 3 10 4 11 5 9 6 4 8 5 9 6 10 7 11 8 12
REMARK H PARENT
REMARK Flexibility Score: 80.00
ROOT
ATOM      1  C   UNL     1     122.084  88.317  56.173  1.00  0.00     0.048 C 
ATOM      2  C   UNL     1     120.689  88.023  56.672  1.00  0.00    -0.008 C 
ATOM      3  C   UNL     1     120.498  87.973  58.008  1.00  0.00     0.007 C 
ENDROOT
BRANCH   2   4
ATOM      4  C   UNL     1     119.652  87.737  55.648  1.00  0.00     0.159 C 
ATOM      5  O   UNL     1     120.012  87.567  54.451  1.00  0.00    -0.295 OA
BRANCH   4   6
ATOM      6  C   UNL     1     118.190  87.651  55.955  1.00  0.00     0.091 CG0
ATOM      7  G   UNL     1     117.850  86.572  57.007  1.00  0.00     0.000 G0
ENDBRANCH   4   6
ENDBRANCH   2   4
BRANCH   3   8
ATOM      8  C   UNL     1     119.269  87.684  58.783  1.00  0.00    -0.003 C 
ATOM      9  C   UNL     1     118.141  87.081  58.385  1.00  0.00    -0.020 C 
BRANCH   9  10
ATOM     10  C   UNL     1     117.843  86.563  56.998  1.00  0.00    -0.010 CG0
ATOM     11  C   UNL     1     116.326  86.280  56.902  1.00  0.00     0.016 C 
ATOM     12  C   UNL     1     118.593  85.233  56.758  1.00  0.00     0.016 C 
ATOM     13  G   UNL     1     118.197  87.644  55.951  1.00  0.00     0.000 G0
ENDBRANCH   9  10
ENDBRANCH   3   8
TORSDOF 0
ENDMDL
MODEL 5
REMARK VINA RESULT:    -1.535     11.893     13.244
REMARK INTER + INTRA:          -1.140
REMARK INTER:                  -1.900
REMARK INTRA:                   0.761
REMARK UNBOUND:                 0.754
REMARK SMILES CC1=CC=CC(C)(C)CC1=O
REMARK SMILES IDX 1 1 2 2 3 3 10 4 11 5 9 6 4 8 5 9 6 10 7 11 8 12
REMARK H PARENT
REMARK Flexibility Score: 80.00
ROOT
ATOM      1  C   UNL     1     106.781  87.303  55.127  1.00  0.00     0.048 C 
ATOM      2  C   UNL     1     107.683  86.916  56.276  1.00  0.00    -0.008 C 
ATOM      3  C   UNL     1     108.391  87.898  56.875  1.00  0.00     0.007 C 
ENDROOT
BRANCH   2   4
ATOM      4  C   UNL     1     107.776  85.471  56.604  1.00  0.00     0.159 C 
ATOM      5  O   UNL     1     107.257  84.634  55.815  1.00  0.00    -0.295 OA
BRANCH   4   6
ATOM      6  C   UNL     1     108.444  84.945  57.836  1.00  0.00     0.091 CG0
ATOM      7  G   UNL     1     109.932  85.350  57.941  1.00  0.00     0.000 G0
ENDBRANCH   4   6
ENDBRANCH   2   4
BRANCH   3   8
ATOM      8  C   UNL     1     109.363  87.824  57.991  1.00  0.00    -0.003 C 
ATOM      9  C   UNL     1     110.035  86.763  58.457  1.00  0.00    -0.020 C 
BRANCH   9  10
ATOM     10  C   UNL     1     109.933  85.344  57.951  1.00  0.00    -0.010 CG0
ATOM     11  C   UNL     1     110.596  84.411  58.991  1.00  0.00     0.016 C 
ATOM     12  C   UNL     1     110.705  85.200  56.620  1.00  0.00     0.016 C 
ATOM     13  G   UNL     1     108.446  84.942  57.824  1.00  0.00     0.000 G0
ENDBRANCH   9  10
ENDBRANCH   3   8
TORSDOF 0
ENDMDL
MODEL 6
REMARK VINA RESULT:    -1.529     11.409     13.243
REMARK INTER + INTRA:          -1.132
REMARK INTER:                  -1.896
REMARK INTRA:                   0.763
REMARK UNBOUND:                 0.754
REMARK SMILES CC1=CC=CC(C)(C)CC1=O
REMARK SMILES IDX 1 1 2 2 3 3 10 4 11 5 9 6 4 8 5 9 6 10 7 11 8 12
REMARK H PARENT
REMARK Flexibility Score: 80.00
ROOT
ATOM      1  C   UNL     1     112.119  87.786  57.943  1.00  0.00     0.048 C 
ATOM      2  C   UNL     1     110.662  87.474  57.694  1.00  0.00    -0.008 C 
ATOM      3  C   UNL     1     109.939  86.993  58.728  1.00  0.00     0.007 C 
ENDROOT
BRANCH   2   4
ATOM      4  C   UNL     1     110.162  87.650  56.307  1.00  0.00     0.159 C 
ATOM      5  O   UNL     1     110.991  87.893  55.388  1.00  0.00    -0.295 OA
BRANCH   4   6
ATOM      6  C   UNL     1     108.714  87.568  55.935  1.00  0.00     0.091 CG0
ATOM      7  G   UNL     1     108.061  86.221  56.320  1.00  0.00     0.000 G0
ENDBRANCH   4   6
ENDBRANCH   2   4
BRANCH   3   8
ATOM      8  C   UNL     1     108.518  86.577  58.782  1.00  0.00    -0.003 C 
ATOM      9  C   UNL     1     107.699  86.235  57.779  1.00  0.00    -0.020 C 
BRANCH   9  10
ATOM     10  C   UNL     1     108.040  86.221  56.308  1.00  0.00    -0.010 CG0
ATOM     11  C   UNL     1     106.723  86.103  55.506  1.00  0.00     0.016 C 
ATOM     12  C   UNL     1     108.910  84.987  55.979  1.00  0.00     0.016 C 
ATOM     13  G   UNL     1     108.722  87.552  55.918  1.00  0.00     0.000 G0
ENDBRANCH   9  10
ENDBRANCH   3   8
TORSDOF 0
ENDMDL
MODEL 7
REMARK VINA RESULT:    -1.485      1.817      2.462
REMARK INTER + INTRA:          -1.078
REMARK INTER:                  -1.836
REMARK INTRA:                   0.757
REMARK UNBOUND:                 0.754
REMARK SMILES CC1=CC=CC(C)(C)CC1=O
REMARK SMILES IDX 1 1 2 2 3 3 10 4 11 5 9 6 4 8 5 9 6 10 7 11 8 12
REMARK H PARENT
REMARK Flexibility Score: 80.00
ROOT
ATOM      1  C   UNL     1     117.891  89.009  55.260  1.00  0.00     0.048 C 
ATOM      2  C   UNL     1     119.140  88.581  55.994  1.00  0.00    -0.008 C 
ATOM      3  C   UNL     1     120.329  88.822  55.402  1.00  0.00     0.007 C 
ENDROOT
BRANCH   2   4
ATOM      4  C   UNL     1     118.955  87.858  57.278  1.00  0.00     0.159 C 
ATOM      5  O   UNL     1     117.791  87.501  57.611  1.00  0.00    -0.295 OA
BRANCH   4   6
ATOM      6  C   UNL     1     120.077  87.537  58.215  1.00  0.00     0.091 CG0
ATOM      7  G   UNL     1     121.192  86.689  57.563  1.00  0.00     0.000 G0
ENDBRANCH   4   6
ENDBRANCH   2   4
BRANCH   3   8
ATOM      8  C   UNL     1     121.702  88.499  55.857  1.00  0.00    -0.003 C 
ATOM      9  C   UNL     1     122.101  87.600  56.766  1.00  0.00    -0.020 C 
BRANCH   9  10
ATOM     10  C   UNL     1     121.209  86.696  57.584  1.00  0.00    -0.010 CG0
ATOM     11  C   UNL     1     122.054  86.090  58.729  1.00  0.00     0.016 C 
ATOM     12  C   UNL     1     120.690  85.533  56.708  1.00  0.00     0.016 C 
ATOM     13  G   UNL     1     120.067  87.523  58.215  1.00  0.00     0.000 G0
ENDBRANCH   9  10
ENDBRANCH   3   8
TORSDOF 0
ENDMDL
MODEL 8
REMARK VINA RESULT:    -1.447     13.087     14.101
REMARK INTER + INTRA:          -1.031
REMARK INTER:                  -1.791
REMARK INTRA:                   0.759
REMARK UNBOUND:                 0.754
REMARK SMILES CC1=CC=CC(C)(C)CC1=O
REMARK SMILES IDX 1 1 2 2 3 3 10 4 11 5 9 6 4 8 5 9 6 10 7 11 8 12
REMARK H PARENT
REMARK Flexibility Score: 80.00
ROOT
ATOM      1  C   UNL     1     109.870  87.632  53.896  1.00  0.00     0.048 C 
ATOM      2  C   UNL     1     109.077  87.227  55.117  1.00  0.00    -0.008 C 
ATOM      3  C   UNL     1     109.346  87.863  56.277  1.00  0.00     0.007 C 
ENDROOT
BRANCH   2   4
ATOM      4  C   UNL     1     108.117  86.106  54.957  1.00  0.00     0.159 C 
ATOM      5  O   UNL     1     108.142  85.432  53.891  1.00  0.00    -0.295 OA
BRANCH   4   6
ATOM      6  C   UNL     1     107.101  85.735  55.992  1.00  0.00     0.091 CG0
ATOM      7  G   UNL     1     107.728  85.363  57.355  1.00  0.00     0.000 G0
ENDBRANCH   4   6
ENDBRANCH   2   4
BRANCH   3   8
ATOM      8  C   UNL     1     108.762  87.669  57.625  1.00  0.00    -0.003 C 
ATOM      9  C   UNL     1     108.081  86.622  58.108  1.00  0.00    -0.020 C 
BRANCH   9  10
ATOM     10  C   UNL     1     107.717  85.365  57.355  1.00  0.00    -0.010 CG0
ATOM     11  C   UNL     1     106.648  84.603  58.173  1.00  0.00     0.016 C 
ATOM     12  C   UNL     1     108.957  84.451  57.222  1.00  0.00     0.016 C 
ATOM     13  G   UNL     1     107.101  85.737  55.988  1.00  0.00     0.000 G0
ENDBRANCH   9  10
ENDBRANCH   3   8
TORSDOF 0
ENDMDL
MODEL 9
REMARK VINA RESULT:    -1.238      9.966     11.837
REMARK INTER + INTRA:          -0.773
REMARK INTER:                  -1.540
REMARK INTRA:                   0.767
REMARK UNBOUND:                 0.754
REMARK SMILES CC1=CC=CC(C)(C)CC1=O
REMARK SMILES IDX 1 1 2 2 3 3 10 4 11 5 9 6 4 8 5 9 6 10 7 11 8 12
REMARK H PARENT
REMARK Flexibility Score: 80.00
ROOT
ATOM      1  C   UNL     1     113.640  87.154  55.749  1.00  0.00     0.048 C 
ATOM      2  C   UNL     1     112.407  87.181  56.621  1.00  0.00    -0.008 C 
ATOM      3  C   UNL     1     112.573  86.980  57.947  1.00  0.00     0.007 C 
ENDROOT
BRANCH   2   4
ATOM      4  C   UNL     1     111.100  87.353  55.939  1.00  0.00     0.159 C 
ATOM      5  O   UNL     1     111.053  87.249  54.682  1.00  0.00    -0.295 OA
BRANCH   4   6
ATOM      6  C   UNL     1     109.825  87.659  56.660  1.00  0.00     0.091 CG0
ATOM      7  G   UNL     1     109.431  86.573  57.687  1.00  0.00     0.000 G0
ENDBRANCH   4   6
ENDBRANCH   2   4
BRANCH   3   8
ATOM      8  C   UNL     1     111.566  86.924  59.033  1.00  0.00    -0.003 C 
ATOM      9  C   UNL     1     110.243  86.740  58.950  1.00  0.00    -0.020 C 
BRANCH   9  10
ATOM     10  C   UNL     1     109.439  86.567  57.683  1.00  0.00    -0.010 CG0
ATOM     11  C   UNL     1     107.943  86.747  58.030  1.00  0.00     0.016 C 
ATOM     12  C   UNL     1     109.632  85.138  57.125  1.00  0.00     0.016 C 
ATOM     13  G   UNL     1     109.831  87.662  56.664  1.00  0.00     0.000 G0
ENDBRANCH   9  10
ENDBRANCH   3   8
TORSDOF 0
ENDMDL
