MODEL 1
REMARK VINA RESULT:    -3.638      0.000      0.000
REMARK INTER + INTRA:          -4.350
REMARK INTER:                  -4.276
REMARK INTRA:                  -0.074
REMARK UNBOUND:                -0.074
REMARK SMILES CCCCC(=O)[O-]
REMARK SMILES IDX 4 1 5 2 6 3 7 4 3 5 2 6 1 7
REMARK H PARENT
REMARK Flexibility Score: inf
ROOT
ATOM      1  C   UNL     1      16.948  67.207  24.360  1.00  0.00     0.053 C 
ENDROOT
BRANCH   1   2
ATOM      2  C   UNL     1      16.936  68.698  24.237  1.00  0.00     0.041 C 
ATOM      3  O   UNL     1      17.169  69.245  23.128  1.00  0.00    -0.550 OA
ATOM      4  O   UNL     1      16.619  69.483  25.338  1.00  0.00    -0.550 OA
ENDBRANCH   1   2
BRANCH   1   5
ATOM      5  C   UNL     1      17.908  66.771  25.474  1.00  0.00     0.006 C 
BRANCH   5   6
ATOM      6  C   UNL     1      17.189  66.047  26.623  1.00  0.00    -0.003 C 
ATOM      7  C   UNL     1      15.950  65.282  26.156  1.00  0.00     0.004 C 
ENDBRANCH   5   6
ENDBRANCH   1   5
TORSDOF 3
ENDMDL
MODEL 2
REMARK VINA RESULT:    -3.578     12.677     13.915
REMARK INTER + INTRA:          -4.280
REMARK INTER:                  -4.196
REMARK INTRA:                  -0.084
REMARK UNBOUND:                -0.074
REMARK SMILES CCCCC(=O)[O-]
REMARK SMILES IDX 4 1 5 2 6 3 7 4 3 5 2 6 1 7
REMARK H PARENT
REMARK Flexibility Score: inf
ROOT
ATOM      1  C   UNL     1      20.515  77.348  16.133  1.00  0.00     0.053 C 
ENDROOT
BRANCH   1   2
ATOM      2  C   UNL     1      21.172  76.325  17.003  1.00  0.00     0.041 C 
ATOM      3  O   UNL     1      21.544  76.628  18.167  1.00  0.00    -0.550 OA
ATOM      4  O   UNL     1      21.330  75.023  16.547  1.00  0.00    -0.550 OA
ENDBRANCH   1   2
BRANCH   1   5
ATOM      5  C   UNL     1      19.697  78.328  16.984  1.00  0.00     0.006 C 
BRANCH   5   6
ATOM      6  C   UNL     1      20.186  79.778  16.849  1.00  0.00    -0.003 C 
ATOM      7  C   UNL     1      20.587  80.394  18.189  1.00  0.00     0.004 C 
ENDBRANCH   5   6
ENDBRANCH   1   5
TORSDOF 3
ENDMDL
MODEL 3
REMARK VINA RESULT:    -3.567     11.803     13.541
REMARK INTER + INTRA:          -4.267
REMARK INTER:                  -4.182
REMARK INTRA:                  -0.085
REMARK UNBOUND:                -0.074
REMARK SMILES CCCCC(=O)[O-]
REMARK SMILES IDX 4 1 5 2 6 3 7 4 3 5 2 6 1 7
REMARK H PARENT
REMARK Flexibility Score: inf
ROOT
ATOM      1  C   UNL     1      19.847  77.890  18.482  1.00  0.00     0.053 C 
ENDROOT
BRANCH   1   2
ATOM      2  C   UNL     1      20.811  76.750  18.574  1.00  0.00     0.041 C 
ATOM      3  O   UNL     1      21.582  76.492  17.613  1.00  0.00    -0.550 OA
ATOM      4  O   UNL     1      20.892  76.001  19.741  1.00  0.00    -0.550 OA
ENDBRANCH   1   2
BRANCH   1   5
ATOM      5  C   UNL     1      19.753  78.395  17.036  1.00  0.00     0.006 C 
BRANCH   5   6
ATOM      6  C   UNL     1      20.204  79.856  16.891  1.00  0.00    -0.003 C 
ATOM      7  C   UNL     1      20.622  80.482  18.222  1.00  0.00     0.004 C 
ENDBRANCH   5   6
ENDBRANCH   1   5
TORSDOF 3
ENDMDL
MODEL 4
REMARK VINA RESULT:    -3.528     11.365     13.317
REMARK INTER + INTRA:          -4.221
REMARK INTER:                  -4.138
REMARK INTRA:                  -0.084
REMARK UNBOUND:                -0.074
REMARK SMILES CCCCC(=O)[O-]
REMARK SMILES IDX 4 1 5 2 6 3 7 4 3 5 2 6 1 7
REMARK H PARENT
REMARK Flexibility Score: inf
ROOT
ATOM      1  C   UNL     1      20.578  77.752  18.339  1.00  0.00     0.053 C 
ENDROOT
BRANCH   1   2
ATOM      2  C   UNL     1      19.584  76.924  19.090  1.00  0.00     0.041 C 
ATOM      3  O   UNL     1      18.351  77.081  18.894  1.00  0.00    -0.550 OA
ATOM      4  O   UNL     1      20.021  75.943  19.971  1.00  0.00    -0.550 OA
ENDBRANCH   1   2
BRANCH   1   5
ATOM      5  C   UNL     1      19.950  78.305  17.053  1.00  0.00     0.006 C 
BRANCH   5   6
ATOM      6  C   UNL     1      20.119  79.827  16.921  1.00  0.00    -0.003 C 
ATOM      7  C   UNL     1      20.620  80.480  18.209  1.00  0.00     0.004 C 
ENDBRANCH   5   6
ENDBRANCH   1   5
TORSDOF 3
ENDMDL
MODEL 5
REMARK VINA RESULT:    -3.479      8.681      9.496
REMARK INTER + INTRA:          -4.164
REMARK INTER:                  -4.112
REMARK INTRA:                  -0.052
REMARK UNBOUND:                -0.074
REMARK SMILES CCCCC(=O)[O-]
REMARK SMILES IDX 4 1 5 2 6 3 7 4 3 5 2 6 1 7
REMARK H PARENT
REMARK Flexibility Score: inf
ROOT
ATOM      1  C   UNL     1      16.884  68.399  34.055  1.00  0.00     0.053 C 
ENDROOT
BRANCH   1   2
ATOM      2  C   UNL     1      17.357  69.817  34.010  1.00  0.00     0.041 C 
ATOM      3  O   UNL     1      17.519  70.465  35.077  1.00  0.00    -0.550 OA
ATOM      4  O   UNL     1      17.667  70.408  32.792  1.00  0.00    -0.550 OA
ENDBRANCH   1   2
BRANCH   1   5
ATOM      5  C   UNL     1      17.318  67.732  35.367  1.00  0.00     0.006 C 
BRANCH   5   6
ATOM      6  C   UNL     1      17.803  66.288  35.162  1.00  0.00    -0.003 C 
ATOM      7  C   UNL     1      18.387  66.052  33.769  1.00  0.00     0.004 C 
ENDBRANCH   5   6
ENDBRANCH   1   5
TORSDOF 3
ENDMDL
MODEL 6
REMARK VINA RESULT:    -3.458     12.964     13.453
REMARK INTER + INTRA:          -4.139
REMARK INTER:                  -4.004
REMARK INTRA:                  -0.135
REMARK UNBOUND:                -0.074
REMARK SMILES CCCCC(=O)[O-]
REMARK SMILES IDX 4 1 5 2 6 3 7 4 3 5 2 6 1 7
REMARK H PARENT
REMARK Flexibility Score: inf
ROOT
ATOM      1  C   UNL     1      11.369  78.505  30.635  1.00  0.00     0.053 C 
ENDROOT
BRANCH   1   2
ATOM      2  C   UNL     1      10.567  78.529  29.373  1.00  0.00     0.041 C 
ATOM      3  O   UNL     1       9.903  79.552  29.063  1.00  0.00    -0.550 OA
ATOM      4  O   UNL     1      10.591  77.438  28.514  1.00  0.00    -0.550 OA
ENDBRANCH   1   2
BRANCH   1   5
ATOM      5  C   UNL     1      10.981  77.293  31.493  1.00  0.00     0.006 C 
BRANCH   5   6
ATOM      6  C   UNL     1       9.486  77.277  31.849  1.00  0.00    -0.003 C 
ATOM      7  C   UNL     1       8.797  75.972  31.449  1.00  0.00     0.004 C 
ENDBRANCH   5   6
ENDBRANCH   1   5
TORSDOF 3
ENDMDL
MODEL 7
REMARK VINA RESULT:    -3.456     13.258     13.975
REMARK INTER + INTRA:          -4.137
REMARK INTER:                  -4.046
REMARK INTRA:                  -0.091
REMARK UNBOUND:                -0.074
REMARK SMILES CCCCC(=O)[O-]
REMARK SMILES IDX 4 1 5 2 6 3 7 4 3 5 2 6 1 7
REMARK H PARENT
REMARK Flexibility Score: inf
ROOT
ATOM      1  C   UNL     1      10.139  77.395  32.318  1.00  0.00     0.053 C 
ENDROOT
BRANCH   1   2
ATOM      2  C   UNL     1       8.951  76.830  31.607  1.00  0.00     0.041 C 
ATOM      3  O   UNL     1       8.919  75.610  31.299  1.00  0.00    -0.550 OA
ATOM      4  O   UNL     1       7.857  77.639  31.328  1.00  0.00    -0.550 OA
ENDBRANCH   1   2
BRANCH   1   5
ATOM      5  C   UNL     1      11.325  77.529  31.355  1.00  0.00     0.006 C 
BRANCH   5   6
ATOM      6  C   UNL     1      11.238  78.791  30.483  1.00  0.00    -0.003 C 
ATOM      7  C   UNL     1      10.848  78.484  29.037  1.00  0.00     0.004 C 
ENDBRANCH   5   6
ENDBRANCH   1   5
TORSDOF 3
ENDMDL
MODEL 8
REMARK VINA RESULT:    -3.415      9.272     10.101
REMARK INTER + INTRA:          -4.088
REMARK INTER:                  -4.011
REMARK INTRA:                  -0.078
REMARK UNBOUND:                -0.074
REMARK SMILES CCCCC(=O)[O-]
REMARK SMILES IDX 4 1 5 2 6 3 7 4 3 5 2 6 1 7
REMARK H PARENT
REMARK Flexibility Score: inf
ROOT
ATOM      1  C   UNL     1      17.278  67.039  35.328  1.00  0.00     0.053 C 
ENDROOT
BRANCH   1   2
ATOM      2  C   UNL     1      17.386  68.247  34.453  1.00  0.00     0.041 C 
ATOM      3  O   UNL     1      17.127  69.389  34.914  1.00  0.00    -0.550 OA
ATOM      4  O   UNL     1      17.820  68.118  33.140  1.00  0.00    -0.550 OA
ENDBRANCH   1   2
BRANCH   1   5
ATOM      5  C   UNL     1      18.086  65.877  34.737  1.00  0.00     0.006 C 
BRANCH   5   6
ATOM      6  C   UNL     1      19.186  65.380  35.687  1.00  0.00    -0.003 C 
ATOM      7  C   UNL     1      20.390  66.320  35.741  1.00  0.00     0.004 C 
ENDBRANCH   5   6
ENDBRANCH   1   5
TORSDOF 3
ENDMDL
MODEL 9
REMARK VINA RESULT:    -3.343     13.249     14.103
REMARK INTER + INTRA:          -4.003
REMARK INTER:                  -3.862
REMARK INTRA:                  -0.141
REMARK UNBOUND:                -0.074
REMARK SMILES CCCCC(=O)[O-]
REMARK SMILES IDX 4 1 5 2 6 3 7 4 3 5 2 6 1 7
REMARK H PARENT
REMARK Flexibility Score: inf
ROOT
ATOM      1  C   UNL     1      10.193  76.795  30.461  1.00  0.00     0.053 C 
ENDROOT
BRANCH   1   2
ATOM      2  C   UNL     1      10.966  78.028  30.116  1.00  0.00     0.041 C 
ATOM      3  O   UNL     1      10.927  78.493  28.947  1.00  0.00    -0.550 OA
ATOM      4  O   UNL     1      11.691  78.692  31.096  1.00  0.00    -0.550 OA
ENDBRANCH   1   2
BRANCH   1   5
ATOM      5  C   UNL     1       9.325  77.039  31.702  1.00  0.00     0.006 C 
BRANCH   5   6
ATOM      6  C   UNL     1       8.208  78.064  31.449  1.00  0.00    -0.003 C 
ATOM      7  C   UNL     1       8.237  79.226  32.441  1.00  0.00     0.004 C 
ENDBRANCH   5   6
ENDBRANCH   1   5
TORSDOF 3
ENDMDL
