MODEL 1
REMARK VINA RESULT:    -6.110      0.000      0.000
REMARK INTER + INTRA:          -7.154
REMARK INTER:                  -7.003
REMARK INTRA:                  -0.151
REMARK UNBOUND:                -0.151
REMARK SMILES O=C([O-])C=Cc1ccc(O)cc1
REMARK SMILES IDX 6 1 7 2 12 3 8 4 11 5 9 6 5 7 4 8 2 9 1 10 3 11 10 12
REMARK H PARENT 10 13
REMARK Flexibility Score: inf
ROOT
ATOM      1  C   UNL     1      27.794  24.010  48.803  1.00  0.00    -0.025 A 
ATOM      2  C   UNL     1      26.870  22.988  49.083  1.00  0.00     0.012 A 
ATOM      3  C   UNL     1      28.516  24.584  49.869  1.00  0.00     0.012 A 
ATOM      4  C   UNL     1      26.689  22.532  50.392  1.00  0.00     0.047 A 
ATOM      5  C   UNL     1      28.332  24.126  51.177  1.00  0.00     0.047 A 
ATOM      6  C   UNL     1      27.422  23.098  51.442  1.00  0.00     0.115 A 
ENDROOT
BRANCH   1   7
ATOM      7  C   UNL     1      27.941  24.467  47.399  1.00  0.00     0.010 C 
ATOM      8  C   UNL     1      26.948  24.442  46.500  1.00  0.00     0.025 C 
BRANCH   8   9
ATOM      9  C   UNL     1      27.136  24.917  45.119  1.00  0.00     0.064 C 
ATOM     10  O   UNL     1      28.295  24.976  44.635  1.00  0.00    -0.545 OA
ATOM     11  O   UNL     1      26.050  25.305  44.341  1.00  0.00    -0.545 OA
ENDBRANCH   8   9
ENDBRANCH   1   7
BRANCH   6  12
ATOM     12  O   UNL     1      27.251  22.651  52.751  1.00  0.00    -0.508 OA
ATOM     13  H   UNL     1      27.881  22.932  53.493  1.00  0.00     0.293 HD
ENDBRANCH   6  12
TORSDOF 3
ENDMDL
MODEL 2
REMARK VINA RESULT:    -5.843      1.198      5.755
REMARK INTER + INTRA:          -6.848
REMARK INTER:                  -6.708
REMARK INTRA:                  -0.140
REMARK UNBOUND:                -0.151
REMARK SMILES O=C([O-])C=Cc1ccc(O)cc1
REMARK SMILES IDX 6 1 7 2 12 3 8 4 11 5 9 6 5 7 4 8 2 9 1 10 3 11 10 12
REMARK H PARENT 10 13
REMARK Flexibility Score: inf
ROOT
ATOM      1  C   UNL     1      28.308  24.633  48.419  1.00  0.00    -0.025 A 
ATOM      2  C   UNL     1      27.052  24.480  47.807  1.00  0.00     0.012 A 
ATOM      3  C   UNL     1      29.436  24.864  47.606  1.00  0.00     0.012 A 
ATOM      4  C   UNL     1      26.919  24.580  46.419  1.00  0.00     0.047 A 
ATOM      5  C   UNL     1      29.300  24.962  46.217  1.00  0.00     0.047 A 
ATOM      6  C   UNL     1      28.043  24.823  45.621  1.00  0.00     0.115 A 
ENDROOT
BRANCH   1   7
ATOM      7  C   UNL     1      28.398  24.507  49.895  1.00  0.00     0.010 C 
ATOM      8  C   UNL     1      28.270  23.346  50.552  1.00  0.00     0.025 C 
BRANCH   8   9
ATOM      9  C   UNL     1      28.379  23.265  52.018  1.00  0.00     0.064 C 
ATOM     10  O   UNL     1      29.144  24.055  52.628  1.00  0.00    -0.545 OA
ATOM     11  O   UNL     1      27.650  22.326  52.740  1.00  0.00    -0.545 OA
ENDBRANCH   8   9
ENDBRANCH   1   7
BRANCH   6  12
ATOM     12  O   UNL     1      27.924  24.926  44.236  1.00  0.00    -0.508 OA
ATOM     13  H   UNL     1      28.734  25.065  43.644  1.00  0.00     0.293 HD
ENDBRANCH   6  12
TORSDOF 3
ENDMDL
MODEL 3
REMARK VINA RESULT:    -5.127     11.600     12.654
REMARK INTER + INTRA:          -6.027
REMARK INTER:                  -5.874
REMARK INTRA:                  -0.154
REMARK UNBOUND:                -0.151
REMARK SMILES O=C([O-])C=Cc1ccc(O)cc1
REMARK SMILES IDX 6 1 7 2 12 3 8 4 11 5 9 6 5 7 4 8 2 9 1 10 3 11 10 12
REMARK H PARENT 10 13
REMARK Flexibility Score: inf
ROOT
ATOM      1  C   UNL     1      16.605  19.968  44.085  1.00  0.00    -0.025 A 
ATOM      2  C   UNL     1      15.280  20.369  44.330  1.00  0.00     0.012 A 
ATOM      3  C   UNL     1      17.030  18.707  44.550  1.00  0.00     0.012 A 
ATOM      4  C   UNL     1      14.393  19.522  45.001  1.00  0.00     0.047 A 
ATOM      5  C   UNL     1      16.140  17.863  45.221  1.00  0.00     0.047 A 
ATOM      6  C   UNL     1      14.821  18.265  45.446  1.00  0.00     0.115 A 
ENDROOT
BRANCH   1   7
ATOM      7  C   UNL     1      17.511  20.908  43.379  1.00  0.00     0.010 C 
ATOM      8  C   UNL     1      17.123  22.098  42.902  1.00  0.00     0.025 C 
BRANCH   8   9
ATOM      9  C   UNL     1      18.060  23.005  42.218  1.00  0.00     0.064 C 
ATOM     10  O   UNL     1      19.230  23.137  42.659  1.00  0.00    -0.545 OA
ATOM     11  O   UNL     1      17.670  23.721  41.091  1.00  0.00    -0.545 OA
ENDBRANCH   8   9
ENDBRANCH   1   7
BRANCH   6  12
ATOM     12  O   UNL     1      13.945  17.412  46.114  1.00  0.00    -0.508 OA
ATOM     13  H   UNL     1      13.072  17.748  46.503  1.00  0.00     0.293 HD
ENDBRANCH   6  12
TORSDOF 3
ENDMDL
MODEL 4
REMARK VINA RESULT:    -5.057     11.469     13.305
REMARK INTER + INTRA:          -5.947
REMARK INTER:                  -5.806
REMARK INTRA:                  -0.141
REMARK UNBOUND:                -0.151
REMARK SMILES O=C([O-])C=Cc1ccc(O)cc1
REMARK SMILES IDX 6 1 7 2 12 3 8 4 11 5 9 6 5 7 4 8 2 9 1 10 3 11 10 12
REMARK H PARENT 10 13
REMARK Flexibility Score: inf
ROOT
ATOM      1  C   UNL     1      17.151  21.495  43.103  1.00  0.00    -0.025 A 
ATOM      2  C   UNL     1      18.418  22.005  42.770  1.00  0.00     0.012 A 
ATOM      3  C   UNL     1      16.005  22.199  42.681  1.00  0.00     0.012 A 
ATOM      4  C   UNL     1      18.540  23.174  42.014  1.00  0.00     0.047 A 
ATOM      5  C   UNL     1      16.130  23.368  41.925  1.00  0.00     0.047 A 
ATOM      6  C   UNL     1      17.395  23.858  41.588  1.00  0.00     0.115 A 
ENDROOT
BRANCH   1   7
ATOM      7  C   UNL     1      17.076  20.257  43.917  1.00  0.00     0.010 C 
ATOM      8  C   UNL     1      15.931  19.618  44.195  1.00  0.00     0.025 C 
BRANCH   8   9
ATOM      9  C   UNL     1      15.904  18.384  44.998  1.00  0.00     0.064 C 
ATOM     10  O   UNL     1      16.579  17.388  44.629  1.00  0.00    -0.545 OA
ATOM     11  O   UNL     1      15.141  18.300  46.157  1.00  0.00    -0.545 OA
ENDBRANCH   8   9
ENDBRANCH   1   7
BRANCH   6  12
ATOM     12  O   UNL     1      17.502  25.024  40.832  1.00  0.00    -0.508 OA
ATOM     13  H   UNL     1      16.991  25.142  39.966  1.00  0.00     0.293 HD
ENDBRANCH   6  12
TORSDOF 3
ENDMDL
MODEL 5
REMARK VINA RESULT:    -4.992     11.820     12.845
REMARK INTER + INTRA:          -5.873
REMARK INTER:                  -5.729
REMARK INTRA:                  -0.144
REMARK UNBOUND:                -0.151
REMARK SMILES O=C([O-])C=Cc1ccc(O)cc1
REMARK SMILES IDX 6 1 7 2 12 3 8 4 11 5 9 6 5 7 4 8 2 9 1 10 3 11 10 12
REMARK H PARENT 10 13
REMARK Flexibility Score: inf
ROOT
ATOM      1  C   UNL     1      16.308  19.862  44.247  1.00  0.00    -0.025 A 
ATOM      2  C   UNL     1      16.657  18.557  44.637  1.00  0.00     0.012 A 
ATOM      3  C   UNL     1      15.007  20.329  44.525  1.00  0.00     0.012 A 
ATOM      4  C   UNL     1      15.739  17.746  45.311  1.00  0.00     0.047 A 
ATOM      5  C   UNL     1      14.091  19.514  45.198  1.00  0.00     0.047 A 
ATOM      6  C   UNL     1      14.454  18.224  45.595  1.00  0.00     0.115 A 
ENDROOT
BRANCH   1   7
ATOM      7  C   UNL     1      17.314  20.679  43.524  1.00  0.00     0.010 C 
ATOM      8  C   UNL     1      17.061  21.893  43.017  1.00  0.00     0.025 C 
BRANCH   8   9
ATOM      9  C   UNL     1      18.093  22.675  42.317  1.00  0.00     0.064 C 
ATOM     10  O   UNL     1      19.304  22.364  42.450  1.00  0.00    -0.545 OA
ATOM     11  O   UNL     1      17.750  23.756  41.512  1.00  0.00    -0.545 OA
ENDBRANCH   8   9
ENDBRANCH   1   7
BRANCH   6  12
ATOM     12  O   UNL     1      13.531  17.425  46.267  1.00  0.00    -0.508 OA
ATOM     13  H   UNL     1      13.445  17.451  47.276  1.00  0.00     0.293 HD
ENDBRANCH   6  12
TORSDOF 3
ENDMDL
MODEL 6
REMARK VINA RESULT:    -4.777      1.744      6.144
REMARK INTER + INTRA:          -5.626
REMARK INTER:                  -5.484
REMARK INTRA:                  -0.142
REMARK UNBOUND:                -0.151
REMARK SMILES O=C([O-])C=Cc1ccc(O)cc1
REMARK SMILES IDX 6 1 7 2 12 3 8 4 11 5 9 6 5 7 4 8 2 9 1 10 3 11 10 12
REMARK H PARENT 10 13
REMARK Flexibility Score: inf
ROOT
ATOM      1  C   UNL     1      28.176  23.993  50.081  1.00  0.00    -0.025 A 
ATOM      2  C   UNL     1      28.571  24.967  49.148  1.00  0.00     0.012 A 
ATOM      3  C   UNL     1      27.312  22.962  49.661  1.00  0.00     0.012 A 
ATOM      4  C   UNL     1      28.136  24.901  47.821  1.00  0.00     0.047 A 
ATOM      5  C   UNL     1      26.878  22.898  48.333  1.00  0.00     0.047 A 
ATOM      6  C   UNL     1      27.289  23.864  47.410  1.00  0.00     0.115 A 
ENDROOT
BRANCH   1   7
ATOM      7  C   UNL     1      28.656  24.115  51.480  1.00  0.00     0.010 C 
ATOM      8  C   UNL     1      28.571  23.129  52.384  1.00  0.00     0.025 C 
BRANCH   8   9
ATOM      9  C   UNL     1      29.071  23.290  53.759  1.00  0.00     0.064 C 
ATOM     10  O   UNL     1      30.032  24.070  53.983  1.00  0.00    -0.545 OA
ATOM     11  O   UNL     1      28.500  22.589  54.816  1.00  0.00    -0.545 OA
ENDBRANCH   8   9
ENDBRANCH   1   7
BRANCH   6  12
ATOM     12  O   UNL     1      26.849  23.786  46.090  1.00  0.00    -0.508 OA
ATOM     13  H   UNL     1      26.500  22.919  45.699  1.00  0.00     0.293 HD
ENDBRANCH   6  12
TORSDOF 3
ENDMDL
MODEL 7
REMARK VINA RESULT:    -4.638     12.379     13.747
REMARK INTER + INTRA:          -5.467
REMARK INTER:                  -5.316
REMARK INTRA:                  -0.151
REMARK UNBOUND:                -0.151
REMARK SMILES O=C([O-])C=Cc1ccc(O)cc1
REMARK SMILES IDX 6 1 7 2 12 3 8 4 11 5 9 6 5 7 4 8 2 9 1 10 3 11 10 12
REMARK H PARENT 10 13
REMARK Flexibility Score: inf
ROOT
ATOM      1  C   UNL     1      15.176  21.579  43.147  1.00  0.00    -0.025 A 
ATOM      2  C   UNL     1      16.574  21.705  43.091  1.00  0.00     0.012 A 
ATOM      3  C   UNL     1      14.621  20.413  43.711  1.00  0.00     0.012 A 
ATOM      4  C   UNL     1      17.401  20.703  43.609  1.00  0.00     0.047 A 
ATOM      5  C   UNL     1      15.450  19.412  44.228  1.00  0.00     0.047 A 
ATOM      6  C   UNL     1      16.840  19.555  44.181  1.00  0.00     0.115 A 
ENDROOT
BRANCH   1   7
ATOM      7  C   UNL     1      14.342  22.665  42.573  1.00  0.00     0.010 C 
ATOM      8  C   UNL     1      14.819  23.872  42.239  1.00  0.00     0.025 C 
BRANCH   8   9
ATOM      9  C   UNL     1      13.958  24.917  41.662  1.00  0.00     0.064 C 
ATOM     10  O   UNL     1      14.411  25.664  40.757  1.00  0.00    -0.545 OA
ATOM     11  O   UNL     1      12.651  25.093  42.103  1.00  0.00    -0.545 OA
ENDBRANCH   8   9
ENDBRANCH   1   7
BRANCH   6  12
ATOM     12  O   UNL     1      17.653  18.550  44.701  1.00  0.00    -0.508 OA
ATOM     13  H   UNL     1      17.388  18.032  45.531  1.00  0.00     0.293 HD
ENDBRANCH   6  12
TORSDOF 3
ENDMDL
MODEL 8
REMARK VINA RESULT:    -4.633      1.837      2.358
REMARK INTER + INTRA:          -5.461
REMARK INTER:                  -5.323
REMARK INTRA:                  -0.138
REMARK UNBOUND:                -0.151
REMARK SMILES O=C([O-])C=Cc1ccc(O)cc1
REMARK SMILES IDX 6 1 7 2 12 3 8 4 11 5 9 6 5 7 4 8 2 9 1 10 3 11 10 12
REMARK H PARENT 10 13
REMARK Flexibility Score: inf
ROOT
ATOM      1  C   UNL     1      29.356  23.666  49.156  1.00  0.00    -0.025 A 
ATOM      2  C   UNL     1      30.511  22.881  49.316  1.00  0.00     0.012 A 
ATOM      3  C   UNL     1      28.489  23.829  50.256  1.00  0.00     0.012 A 
ATOM      4  C   UNL     1      30.808  22.294  50.550  1.00  0.00     0.047 A 
ATOM      5  C   UNL     1      28.788  23.240  51.488  1.00  0.00     0.047 A 
ATOM      6  C   UNL     1      29.948  22.474  51.640  1.00  0.00     0.115 A 
ENDROOT
BRANCH   1   7
ATOM      7  C   UNL     1      29.079  24.258  47.824  1.00  0.00     0.010 C 
ATOM      8  C   UNL     1      27.893  24.181  47.207  1.00  0.00     0.025 C 
BRANCH   8   9
ATOM      9  C   UNL     1      27.659  24.794  45.889  1.00  0.00     0.064 C 
ATOM     10  O   UNL     1      26.484  25.065  45.530  1.00  0.00    -0.545 OA
ATOM     11  O   UNL     1      28.717  25.076  45.032  1.00  0.00    -0.545 OA
ENDBRANCH   8   9
ENDBRANCH   1   7
BRANCH   6  12
ATOM     12  O   UNL     1      30.233  21.895  52.874  1.00  0.00    -0.508 OA
ATOM     13  H   UNL     1      30.021  22.371  53.743  1.00  0.00     0.293 HD
ENDBRANCH   6  12
TORSDOF 3
ENDMDL
MODEL 9
REMARK VINA RESULT:    -4.577     12.398     12.868
REMARK INTER + INTRA:          -5.397
REMARK INTER:                  -5.263
REMARK INTRA:                  -0.134
REMARK UNBOUND:                -0.151
REMARK SMILES O=C([O-])C=Cc1ccc(O)cc1
REMARK SMILES IDX 6 1 7 2 12 3 8 4 11 5 9 6 5 7 4 8 2 9 1 10 3 11 10 12
REMARK H PARENT 10 13
REMARK Flexibility Score: inf
ROOT
ATOM      1  C   UNL     1      16.870  29.480  52.684  1.00  0.00    -0.025 A 
ATOM      2  C   UNL     1      17.625  28.550  53.419  1.00  0.00     0.012 A 
ATOM      3  C   UNL     1      17.334  30.808  52.590  1.00  0.00     0.012 A 
ATOM      4  C   UNL     1      18.827  28.927  54.024  1.00  0.00     0.047 A 
ATOM      5  C   UNL     1      18.537  31.183  53.197  1.00  0.00     0.047 A 
ATOM      6  C   UNL     1      19.287  30.245  53.913  1.00  0.00     0.115 A 
ENDROOT
BRANCH   1   7
ATOM      7  C   UNL     1      15.595  29.033  52.070  1.00  0.00     0.010 C 
ATOM      8  C   UNL     1      15.481  28.642  50.793  1.00  0.00     0.025 C 
BRANCH   8   9
ATOM      9  C   UNL     1      14.198  28.194  50.228  1.00  0.00     0.064 C 
ATOM     10  O   UNL     1      13.529  27.314  50.828  1.00  0.00    -0.545 OA
ATOM     11  O   UNL     1      13.715  28.727  49.038  1.00  0.00    -0.545 OA
ENDBRANCH   8   9
ENDBRANCH   1   7
BRANCH   6  12
ATOM     12  O   UNL     1      20.484  30.633  54.511  1.00  0.00    -0.508 OA
ATOM     13  H   UNL     1      21.369  30.553  54.024  1.00  0.00     0.293 HD
ENDBRANCH   6  12
TORSDOF 3
ENDMDL
