MODEL 1
REMARK VINA RESULT:    -2.986      0.000      0.000
REMARK INTER + INTRA:          -4.394
REMARK INTER:                  -4.034
REMARK INTRA:                  -0.361
REMARK UNBOUND:                -0.361
REMARK SMILES CCCCCCCC(=O)[O-]
REMARK SMILES IDX 5 1 6 2 7 3 8 4 9 5 10 6 4 7 3 8 2 9 1 10
REMARK H PARENT
REMARK Flexibility Score: inf
ROOT
ATOM      1  C   UNL     1      14.067  12.443  10.437  1.00  0.00     0.000 C 
ENDROOT
BRANCH   1   2
ATOM      2  C   UNL     1      15.245  13.162   9.761  1.00  0.00     0.006 C 
BRANCH   2   3
ATOM      3  C   UNL     1      14.804  14.057   8.596  1.00  0.00     0.053 C 
BRANCH   3   4
ATOM      4  C   UNL     1      14.782  13.278   7.319  1.00  0.00     0.041 C 
ATOM      5  O   UNL     1      15.860  12.988   6.735  1.00  0.00    -0.550 OA
ATOM      6  O   UNL     1      13.575  12.831   6.797  1.00  0.00    -0.550 OA
ENDBRANCH   3   4
ENDBRANCH   2   3
ENDBRANCH   1   2
BRANCH   1   7
ATOM      7  C   UNL     1      14.193  12.420  11.971  1.00  0.00     0.000 C 
BRANCH   7   8
ATOM      8  C   UNL     1      15.652  12.299  12.440  1.00  0.00    -0.000 C 
BRANCH   8   9
ATOM      9  C   UNL     1      16.036  10.861  12.820  1.00  0.00    -0.003 C 
ATOM     10  C   UNL     1      16.787  10.174  11.683  1.00  0.00     0.004 C 
ENDBRANCH   8   9
ENDBRANCH   7   8
ENDBRANCH   1   7
TORSDOF 6
ENDMDL
MODEL 2
REMARK VINA RESULT:    -2.939      3.111      5.328
REMARK INTER + INTRA:          -4.331
REMARK INTER:                  -4.010
REMARK INTRA:                  -0.321
REMARK UNBOUND:                -0.361
REMARK SMILES CCCCCCCC(=O)[O-]
REMARK SMILES IDX 5 1 6 2 7 3 8 4 9 5 10 6 4 7 3 8 2 9 1 10
REMARK H PARENT
REMARK Flexibility Score: inf
ROOT
ATOM      1  C   UNL     1      14.117  12.981   8.216  1.00  0.00     0.000 C 
ENDROOT
BRANCH   1   2
ATOM      2  C   UNL     1      14.693  13.186   9.626  1.00  0.00     0.006 C 
BRANCH   2   3
ATOM      3  C   UNL     1      14.062  12.252  10.666  1.00  0.00     0.053 C 
BRANCH   3   4
ATOM      4  C   UNL     1      13.952  12.941  11.989  1.00  0.00     0.041 C 
ATOM      5  O   UNL     1      12.947  12.747  12.723  1.00  0.00    -0.550 OA
ATOM      6  O   UNL     1      14.982  13.760  12.435  1.00  0.00    -0.550 OA
ENDBRANCH   3   4
ENDBRANCH   2   3
ENDBRANCH   1   2
BRANCH   1   7
ATOM      7  C   UNL     1      15.088  13.434   7.112  1.00  0.00     0.000 C 
BRANCH   7   8
ATOM      8  C   UNL     1      16.082  14.499   7.602  1.00  0.00    -0.000 C 
BRANCH   8   9
ATOM      9  C   UNL     1      15.700  15.918   7.155  1.00  0.00    -0.003 C 
ATOM     10  C   UNL     1      15.264  16.769   8.345  1.00  0.00     0.004 C 
ENDBRANCH   8   9
ENDBRANCH   7   8
ENDBRANCH   1   7
TORSDOF 6
ENDMDL
MODEL 3
REMARK VINA RESULT:    -2.902      2.126      2.737
REMARK INTER + INTRA:          -4.281
REMARK INTER:                  -3.861
REMARK INTRA:                  -0.420
REMARK UNBOUND:                -0.361
REMARK SMILES CCCCCCCC(=O)[O-]
REMARK SMILES IDX 5 1 6 2 7 3 8 4 9 5 10 6 4 7 3 8 2 9 1 10
REMARK H PARENT
REMARK Flexibility Score: inf
ROOT
ATOM      1  C   UNL     1      14.105  12.899   8.071  1.00  0.00     0.000 C 
ENDROOT
BRANCH   1   2
ATOM      2  C   UNL     1      15.098  13.581   7.116  1.00  0.00     0.006 C 
BRANCH   2   3
ATOM      3  C   UNL     1      16.200  14.349   7.856  1.00  0.00     0.053 C 
BRANCH   3   4
ATOM      4  C   UNL     1      16.076  15.818   7.599  1.00  0.00     0.041 C 
ATOM      5  O   UNL     1      16.855  16.388   6.790  1.00  0.00    -0.550 OA
ATOM      6  O   UNL     1      15.067  16.549   8.214  1.00  0.00    -0.550 OA
ENDBRANCH   3   4
ENDBRANCH   2   3
ENDBRANCH   1   2
BRANCH   1   7
ATOM      7  C   UNL     1      14.476  13.102   9.550  1.00  0.00     0.000 C 
BRANCH   7   8
ATOM      8  C   UNL     1      14.092  11.898  10.425  1.00  0.00    -0.000 C 
BRANCH   8   9
ATOM      9  C   UNL     1      15.199  11.506  11.415  1.00  0.00    -0.003 C 
ATOM     10  C   UNL     1      16.531  12.143  11.030  1.00  0.00     0.004 C 
ENDBRANCH   8   9
ENDBRANCH   7   8
ENDBRANCH   1   7
TORSDOF 6
ENDMDL
MODEL 4
REMARK VINA RESULT:    -2.795      3.164      4.998
REMARK INTER + INTRA:          -4.135
REMARK INTER:                  -3.719
REMARK INTRA:                  -0.417
REMARK UNBOUND:                -0.361
REMARK SMILES CCCCCCCC(=O)[O-]
REMARK SMILES IDX 5 1 6 2 7 3 8 4 9 5 10 6 4 7 3 8 2 9 1 10
REMARK H PARENT
REMARK Flexibility Score: inf
ROOT
ATOM      1  C   UNL     1      15.434  14.585   9.221  1.00  0.00     0.000 C 
ENDROOT
BRANCH   1   2
ATOM      2  C   UNL     1      15.428  13.854  10.573  1.00  0.00     0.006 C 
BRANCH   2   3
ATOM      3  C   UNL     1      14.289  12.833  10.691  1.00  0.00     0.053 C 
BRANCH   3   4
ATOM      4  C   UNL     1      14.079  12.449  12.121  1.00  0.00     0.041 C 
ATOM      5  O   UNL     1      14.920  11.720  12.712  1.00  0.00    -0.550 OA
ATOM      6  O   UNL     1      12.980  12.934  12.818  1.00  0.00    -0.550 OA
ENDBRANCH   3   4
ENDBRANCH   2   3
ENDBRANCH   1   2
BRANCH   1   7
ATOM      7  C   UNL     1      16.452  13.990   8.233  1.00  0.00     0.000 C 
BRANCH   7   8
ATOM      8  C   UNL     1      15.781  13.185   7.108  1.00  0.00    -0.000 C 
BRANCH   8   9
ATOM      9  C   UNL     1      14.340  13.640   6.831  1.00  0.00    -0.003 C 
ATOM     10  C   UNL     1      13.346  12.515   7.109  1.00  0.00     0.004 C 
ENDBRANCH   8   9
ENDBRANCH   7   8
ENDBRANCH   1   7
TORSDOF 6
ENDMDL
MODEL 5
REMARK VINA RESULT:    -2.772      1.023      1.914
REMARK INTER + INTRA:          -4.105
REMARK INTER:                  -3.828
REMARK INTRA:                  -0.277
REMARK UNBOUND:                -0.361
REMARK SMILES CCCCCCCC(=O)[O-]
REMARK SMILES IDX 5 1 6 2 7 3 8 4 9 5 10 6 4 7 3 8 2 9 1 10
REMARK H PARENT
REMARK Flexibility Score: inf
ROOT
ATOM      1  C   UNL     1      14.330  12.379  10.253  1.00  0.00     0.000 C 
ENDROOT
BRANCH   1   2
ATOM      2  C   UNL     1      15.387  13.358   9.719  1.00  0.00     0.006 C 
BRANCH   2   3
ATOM      3  C   UNL     1      14.880  14.193   8.537  1.00  0.00     0.053 C 
BRANCH   3   4
ATOM      4  C   UNL     1      14.926  13.391   7.275  1.00  0.00     0.041 C 
ATOM      5  O   UNL     1      16.031  13.122   6.734  1.00  0.00    -0.550 OA
ATOM      6  O   UNL     1      13.751  12.899   6.720  1.00  0.00    -0.550 OA
ENDBRANCH   3   4
ENDBRANCH   2   3
ENDBRANCH   1   2
BRANCH   1   7
ATOM      7  C   UNL     1      14.897  11.419  11.313  1.00  0.00     0.000 C 
BRANCH   7   8
ATOM      8  C   UNL     1      15.224  12.129  12.636  1.00  0.00    -0.000 C 
BRANCH   8   9
ATOM      9  C   UNL     1      14.200  13.217  12.995  1.00  0.00    -0.003 C 
ATOM     10  C   UNL     1      14.871  14.581  13.125  1.00  0.00     0.004 C 
ENDBRANCH   8   9
ENDBRANCH   7   8
ENDBRANCH   1   7
TORSDOF 6
ENDMDL
MODEL 6
REMARK VINA RESULT:    -2.740      1.639      2.366
REMARK INTER + INTRA:          -4.062
REMARK INTER:                  -3.587
REMARK INTRA:                  -0.476
REMARK UNBOUND:                -0.361
REMARK SMILES CCCCCCCC(=O)[O-]
REMARK SMILES IDX 5 1 6 2 7 3 8 4 9 5 10 6 4 7 3 8 2 9 1 10
REMARK H PARENT
REMARK Flexibility Score: inf
ROOT
ATOM      1  C   UNL     1      16.348  14.956  10.400  1.00  0.00     0.000 C 
ENDROOT
BRANCH   1   2
ATOM      2  C   UNL     1      16.378  14.781   8.873  1.00  0.00     0.006 C 
BRANCH   2   3
ATOM      3  C   UNL     1      14.984  14.561   8.273  1.00  0.00     0.053 C 
BRANCH   3   4
ATOM      4  C   UNL     1      15.006  13.422   7.304  1.00  0.00     0.041 C 
ATOM      5  O   UNL     1      13.929  12.880   6.938  1.00  0.00    -0.550 OA
ATOM      6  O   UNL     1      16.211  12.989   6.766  1.00  0.00    -0.550 OA
ENDBRANCH   3   4
ENDBRANCH   2   3
ENDBRANCH   1   2
BRANCH   1   7
ATOM      7  C   UNL     1      16.114  13.628  11.140  1.00  0.00     0.000 C 
BRANCH   7   8
ATOM      8  C   UNL     1      14.951  13.709  12.142  1.00  0.00    -0.000 C 
BRANCH   8   9
ATOM      9  C   UNL     1      13.846  12.681  11.853  1.00  0.00    -0.003 C 
ATOM     10  C   UNL     1      14.151  11.888  10.585  1.00  0.00     0.004 C 
ENDBRANCH   8   9
ENDBRANCH   7   8
ENDBRANCH   1   7
TORSDOF 6
ENDMDL
MODEL 7
REMARK VINA RESULT:    -2.704      4.615      5.808
REMARK INTER + INTRA:          -4.013
REMARK INTER:                  -3.723
REMARK INTRA:                  -0.289
REMARK UNBOUND:                -0.361
REMARK SMILES CCCCCCCC(=O)[O-]
REMARK SMILES IDX 5 1 6 2 7 3 8 4 9 5 10 6 4 7 3 8 2 9 1 10
REMARK H PARENT
REMARK Flexibility Score: inf
ROOT
ATOM      1  C   UNL     1      15.814  15.963   7.426  1.00  0.00     0.000 C 
ENDROOT
BRANCH   1   2
ATOM      2  C   UNL     1      15.167  17.026   8.328  1.00  0.00     0.006 C 
BRANCH   2   3
ATOM      3  C   UNL     1      16.117  17.537   9.419  1.00  0.00     0.053 C 
BRANCH   3   4
ATOM      4  C   UNL     1      15.848  18.979   9.712  1.00  0.00     0.041 C 
ATOM      5  O   UNL     1      15.014  19.300  10.599  1.00  0.00    -0.550 OA
ATOM      6  O   UNL     1      16.553  19.969   9.040  1.00  0.00    -0.550 OA
ENDBRANCH   3   4
ENDBRANCH   2   3
ENDBRANCH   1   2
BRANCH   1   7
ATOM      7  C   UNL     1      16.530  14.864   8.230  1.00  0.00     0.000 C 
BRANCH   7   8
ATOM      8  C   UNL     1      15.718  13.561   8.300  1.00  0.00    -0.000 C 
BRANCH   8   9
ATOM      9  C   UNL     1      15.013  13.229   6.976  1.00  0.00    -0.003 C 
ATOM     10  C   UNL     1      13.591  12.731   7.221  1.00  0.00     0.004 C 
ENDBRANCH   8   9
ENDBRANCH   7   8
ENDBRANCH   1   7
TORSDOF 6
ENDMDL
MODEL 8
REMARK VINA RESULT:    -2.690      3.538      5.568
REMARK INTER + INTRA:          -3.994
REMARK INTER:                  -3.774
REMARK INTRA:                  -0.220
REMARK UNBOUND:                -0.361
REMARK SMILES CCCCCCCC(=O)[O-]
REMARK SMILES IDX 5 1 6 2 7 3 8 4 9 5 10 6 4 7 3 8 2 9 1 10
REMARK H PARENT
REMARK Flexibility Score: inf
ROOT
ATOM      1  C   UNL     1      15.236  16.768   8.240  1.00  0.00     0.000 C 
ENDROOT
BRANCH   1   2
ATOM      2  C   UNL     1      15.282  15.312   8.731  1.00  0.00     0.006 C 
BRANCH   2   3
ATOM      3  C   UNL     1      15.313  14.299   7.580  1.00  0.00     0.053 C 
BRANCH   3   4
ATOM      4  C   UNL     1      14.311  13.213   7.812  1.00  0.00     0.041 C 
ATOM      5  O   UNL     1      13.646  12.748   6.849  1.00  0.00    -0.550 OA
ATOM      6  O   UNL     1      14.147  12.679   9.084  1.00  0.00    -0.550 OA
ENDBRANCH   3   4
ENDBRANCH   2   3
ENDBRANCH   1   2
BRANCH   1   7
ATOM      7  C   UNL     1      16.578  17.497   8.431  1.00  0.00     0.000 C 
BRANCH   7   8
ATOM      8  C   UNL     1      16.406  18.901   9.032  1.00  0.00    -0.000 C 
BRANCH   8   9
ATOM      9  C   UNL     1      16.038  18.868  10.523  1.00  0.00    -0.003 C 
ATOM     10  C   UNL     1      14.918  19.856  10.835  1.00  0.00     0.004 C 
ENDBRANCH   8   9
ENDBRANCH   7   8
ENDBRANCH   1   7
TORSDOF 6
ENDMDL
MODEL 9
REMARK VINA RESULT:    -2.624      3.293      4.536
REMARK INTER + INTRA:          -3.906
REMARK INTER:                  -3.669
REMARK INTRA:                  -0.236
REMARK UNBOUND:                -0.361
REMARK SMILES CCCCCCCC(=O)[O-]
REMARK SMILES IDX 5 1 6 2 7 3 8 4 9 5 10 6 4 7 3 8 2 9 1 10
REMARK H PARENT
REMARK Flexibility Score: inf
ROOT
ATOM      1  C   UNL     1      16.278  14.512   9.837  1.00  0.00     0.000 C 
ENDROOT
BRANCH   1   2
ATOM      2  C   UNL     1      16.599  15.785  10.636  1.00  0.00     0.006 C 
BRANCH   2   3
ATOM      3  C   UNL     1      16.963  16.973   9.737  1.00  0.00     0.053 C 
BRANCH   3   4
ATOM      4  C   UNL     1      15.727  17.667   9.261  1.00  0.00     0.041 C 
ATOM      5  O   UNL     1      15.349  18.736   9.809  1.00  0.00    -0.550 OA
ATOM      6  O   UNL     1      15.017  17.160   8.180  1.00  0.00    -0.550 OA
ENDBRANCH   3   4
ENDBRANCH   2   3
ENDBRANCH   1   2
BRANCH   1   7
ATOM      7  C   UNL     1      15.212  13.640  10.523  1.00  0.00     0.000 C 
BRANCH   7   8
ATOM      8  C   UNL     1      14.385  12.820   9.518  1.00  0.00    -0.000 C 
BRANCH   8   9
ATOM      9  C   UNL     1      14.534  13.325   8.075  1.00  0.00    -0.003 C 
ATOM     10  C   UNL     1      13.558  12.616   7.141  1.00  0.00     0.004 C 
ENDBRANCH   8   9
ENDBRANCH   7   8
ENDBRANCH   1   7
TORSDOF 6
ENDMDL
