MODEL 1
REMARK VINA RESULT:    13.420      0.000      0.000
REMARK INTER + INTRA:          17.066
REMARK INTER:                  16.950
REMARK INTRA:                   0.116
REMARK UNBOUND:                 0.116
REMARK SMILES O=C(C=Cc1ccc(O)cc1)c1ccc(O)cc1O
REMARK SMILES IDX 4 1 3 2 5 3 6 4 7 5 8 6 11 7 10 8 9 9 2 11 1 12 12 13 18 14
REMARK SMILES IDX 13 15 17 16 14 17 15 18 19 19 16 21
REMARK H PARENT 9 10 19 20 16 22
REMARK Flexibility Score: inf
ROOT
ATOM      1  C   UNL     1      -1.860  11.298 -26.018  1.00  0.00     0.012 C 
ATOM      2  C   UNL     1      -1.259  12.458 -26.330  1.00  0.00     0.053 C 
ENDROOT
BRANCH   1   3
ATOM      3  C   UNL     1      -2.530  10.999 -24.737  1.00  0.00    -0.025 A 
ATOM      4  C   UNL     1      -1.856  10.245 -23.765  1.00  0.00     0.012 A 
ATOM      5  C   UNL     1      -2.490   9.914 -22.564  1.00  0.00     0.047 A 
ATOM      6  C   UNL     1      -3.809  10.314 -22.330  1.00  0.00     0.115 A 
ATOM      7  C   UNL     1      -3.867  11.373 -24.512  1.00  0.00     0.012 A 
ATOM      8  C   UNL     1      -4.499  11.041 -23.309  1.00  0.00     0.047 A 
BRANCH   6   9
ATOM      9  O   UNL     1      -4.427   9.978 -21.127  1.00  0.00    -0.508 OA
ATOM     10  H   UNL     1      -4.147  10.404 -20.251  1.00  0.00     0.293 HD
ENDBRANCH   6   9
ENDBRANCH   1   3
BRANCH   2  11
ATOM     11  C   UNL     1      -1.002  13.572 -25.385  1.00  0.00     0.189 C 
ATOM     12  O   UNL     1      -1.109  13.394 -24.141  1.00  0.00    -0.289 OA
BRANCH  11  13
ATOM     13  C   UNL     1      -0.539  14.884 -25.885  1.00  0.00     0.064 A 
ATOM     14  C   UNL     1      -1.373  15.711 -26.676  1.00  0.00     0.130 A 
ATOM     15  C   UNL     1       0.744  15.342 -25.534  1.00  0.00     0.020 A 
ATOM     16  C   UNL     1      -0.919  16.973 -27.078  1.00  0.00     0.093 A 
ATOM     17  C   UNL     1       1.188  16.598 -25.951  1.00  0.00     0.047 A 
ATOM     18  C   UNL     1       0.360  17.418 -26.720  1.00  0.00     0.119 A 
BRANCH  14  19
ATOM     19  O   UNL     1      -2.641  15.304 -27.098  1.00  0.00    -0.507 OA
ATOM     20  H   UNL     1      -3.300  15.924 -27.549  1.00  0.00     0.293 HD
ENDBRANCH  14  19
BRANCH  18  21
ATOM     21  O   UNL     1       0.815  18.671 -27.124  1.00  0.00    -0.508 OA
ATOM     22  H   UNL     1       0.808  18.949 -28.098  1.00  0.00     0.293 HD
ENDBRANCH  18  21
ENDBRANCH  11  13
ENDBRANCH   2  11
TORSDOF 6
ENDMDL
MODEL 2
REMARK VINA RESULT:    13.549      1.415      1.873
REMARK INTER + INTRA:          17.229
REMARK INTER:                  15.849
REMARK INTRA:                   1.379
REMARK UNBOUND:                 0.116
REMARK SMILES O=C(C=Cc1ccc(O)cc1)c1ccc(O)cc1O
REMARK SMILES IDX 4 1 3 2 5 3 6 4 7 5 8 6 11 7 10 8 9 9 2 11 1 12 12 13 18 14
REMARK SMILES IDX 13 15 17 16 14 17 15 18 19 19 16 21
REMARK H PARENT 9 10 19 20 16 22
REMARK Flexibility Score: inf
ROOT
ATOM      1  C   UNL     1      -1.825  10.360 -24.880  1.00  0.00     0.012 C 
ATOM      2  C   UNL     1      -1.492  11.364 -25.707  1.00  0.00     0.053 C 
ENDROOT
BRANCH   1   3
ATOM      3  C   UNL     1      -2.843  10.434 -23.813  1.00  0.00    -0.025 A 
ATOM      4  C   UNL     1      -2.502  10.047 -22.508  1.00  0.00     0.012 A 
ATOM      5  C   UNL     1      -3.464  10.067 -21.493  1.00  0.00     0.047 A 
ATOM      6  C   UNL     1      -4.778  10.453 -21.775  1.00  0.00     0.115 A 
ATOM      7  C   UNL     1      -4.172  10.791 -24.099  1.00  0.00     0.012 A 
ATOM      8  C   UNL     1      -5.131  10.812 -23.082  1.00  0.00     0.047 A 
BRANCH   6   9
ATOM      9  O   UNL     1      -5.724  10.470 -20.752  1.00  0.00    -0.508 OA
ATOM     10  H   UNL     1      -5.498  10.819 -19.828  1.00  0.00     0.293 HD
ENDBRANCH   6   9
ENDBRANCH   1   3
BRANCH   2  11
ATOM     11  C   UNL     1      -1.949  12.769 -25.579  1.00  0.00     0.189 C 
ATOM     12  O   UNL     1      -3.106  13.030 -25.152  1.00  0.00    -0.289 OA
BRANCH  11  13
ATOM     13  C   UNL     1      -1.026  13.885 -25.876  1.00  0.00     0.064 A 
ATOM     14  C   UNL     1       0.139  13.695 -26.659  1.00  0.00     0.130 A 
ATOM     15  C   UNL     1      -1.330  15.176 -25.405  1.00  0.00     0.020 A 
ATOM     16  C   UNL     1       0.954  14.791 -26.968  1.00  0.00     0.093 A 
ATOM     17  C   UNL     1      -0.501  16.257 -25.711  1.00  0.00     0.047 A 
ATOM     18  C   UNL     1       0.639  16.071 -26.494  1.00  0.00     0.119 A 
BRANCH  14  19
ATOM     19  O   UNL     1       0.527  12.436 -27.124  1.00  0.00    -0.507 OA
ATOM     20  H   UNL     1       0.472  11.598 -26.561  1.00  0.00     0.293 HD
ENDBRANCH  14  19
BRANCH  18  21
ATOM     21  O   UNL     1       1.452  17.161 -26.796  1.00  0.00    -0.508 OA
ATOM     22  H   UNL     1       1.807  17.313 -27.733  1.00  0.00     0.293 HD
ENDBRANCH  18  21
ENDBRANCH  11  13
ENDBRANCH   2  11
TORSDOF 6
ENDMDL
MODEL 3
REMARK VINA RESULT:    14.891      1.840      7.075
REMARK INTER + INTRA:          18.923
REMARK INTER:                  18.710
REMARK INTRA:                   0.213
REMARK UNBOUND:                 0.116
REMARK SMILES O=C(C=Cc1ccc(O)cc1)c1ccc(O)cc1O
REMARK SMILES IDX 4 1 3 2 5 3 6 4 7 5 8 6 11 7 10 8 9 9 2 11 1 12 12 13 18 14
REMARK SMILES IDX 13 15 17 16 14 17 15 18 19 19 16 21
REMARK H PARENT 9 10 19 20 16 22
REMARK Flexibility Score: inf
ROOT
ATOM      1  C   UNL     1      -1.744  14.717 -27.123  1.00  0.00     0.012 C 
ATOM      2  C   UNL     1      -2.121  13.538 -26.603  1.00  0.00     0.053 C 
ENDROOT
BRANCH   1   3
ATOM      3  C   UNL     1      -0.573  15.507 -26.692  1.00  0.00    -0.025 A 
ATOM      4  C   UNL     1      -0.770  16.691 -25.966  1.00  0.00     0.012 A 
ATOM      5  C   UNL     1       0.324  17.476 -25.587  1.00  0.00     0.047 A 
ATOM      6  C   UNL     1       1.621  17.098 -25.948  1.00  0.00     0.115 A 
ATOM      7  C   UNL     1       0.730  15.146 -27.080  1.00  0.00     0.012 A 
ATOM      8  C   UNL     1       1.821  15.932 -26.699  1.00  0.00     0.047 A 
BRANCH   6   9
ATOM      9  O   UNL     1       2.700  17.889 -25.562  1.00  0.00    -0.508 OA
ATOM     10  H   UNL     1       2.722  18.885 -25.751  1.00  0.00     0.293 HD
ENDBRANCH   6   9
ENDBRANCH   1   3
BRANCH   2  11
ATOM     11  C   UNL     1      -1.544  12.912 -25.389  1.00  0.00     0.189 C 
ATOM     12  O   UNL     1      -0.796  13.575 -24.620  1.00  0.00    -0.289 OA
BRANCH  11  13
ATOM     13  C   UNL     1      -1.899  11.525 -25.021  1.00  0.00     0.064 A 
ATOM     14  C   UNL     1      -3.245  11.133 -24.823  1.00  0.00     0.130 A 
ATOM     15  C   UNL     1      -0.882  10.560 -24.906  1.00  0.00     0.020 A 
ATOM     16  C   UNL     1      -3.544   9.796 -24.536  1.00  0.00     0.093 A 
ATOM     17  C   UNL     1      -1.194   9.232 -24.608  1.00  0.00     0.047 A 
ATOM     18  C   UNL     1      -2.522   8.844 -24.426  1.00  0.00     0.119 A 
BRANCH  14  19
ATOM     19  O   UNL     1      -4.302  12.045 -24.878  1.00  0.00    -0.507 OA
ATOM     20  H   UNL     1      -5.172  11.856 -25.357  1.00  0.00     0.293 HD
ENDBRANCH  14  19
BRANCH  18  21
ATOM     21  O   UNL     1      -2.818   7.514 -24.135  1.00  0.00    -0.508 OA
ATOM     22  H   UNL     1      -2.126   6.782 -24.241  1.00  0.00     0.293 HD
ENDBRANCH  18  21
ENDBRANCH  11  13
ENDBRANCH   2  11
TORSDOF 6
ENDMDL
MODEL 4
REMARK VINA RESULT:    15.152      2.316      2.960
REMARK INTER + INTRA:          19.254
REMARK INTER:                  18.173
REMARK INTRA:                   1.082
REMARK UNBOUND:                 0.116
REMARK SMILES O=C(C=Cc1ccc(O)cc1)c1ccc(O)cc1O
REMARK SMILES IDX 4 1 3 2 5 3 6 4 7 5 8 6 11 7 10 8 9 9 2 11 1 12 12 13 18 14
REMARK SMILES IDX 13 15 17 16 14 17 15 18 19 19 16 21
REMARK H PARENT 9 10 19 20 16 22
REMARK Flexibility Score: inf
ROOT
ATOM      1  C   UNL     1      -3.109  11.426 -24.629  1.00  0.00     0.012 C 
ATOM      2  C   UNL     1      -2.561  12.572 -25.064  1.00  0.00     0.053 C 
ENDROOT
BRANCH   1   3
ATOM      3  C   UNL     1      -2.449  10.104 -24.642  1.00  0.00    -0.025 A 
ATOM      4  C   UNL     1      -3.209   8.958 -24.920  1.00  0.00     0.012 A 
ATOM      5  C   UNL     1      -2.612   7.694 -24.894  1.00  0.00     0.047 A 
ATOM      6  C   UNL     1      -1.259   7.559 -24.568  1.00  0.00     0.115 A 
ATOM      7  C   UNL     1      -1.097   9.963 -24.284  1.00  0.00     0.012 A 
ATOM      8  C   UNL     1      -0.503   8.697 -24.259  1.00  0.00     0.047 A 
BRANCH   6   9
ATOM      9  O   UNL     1      -0.678   6.293 -24.548  1.00  0.00    -0.508 OA
ATOM     10  H   UNL     1      -0.993   5.576 -23.904  1.00  0.00     0.293 HD
ENDBRANCH   6   9
ENDBRANCH   1   3
BRANCH   2  11
ATOM     11  C   UNL     1      -1.279  12.685 -25.801  1.00  0.00     0.189 C 
ATOM     12  O   UNL     1      -0.696  11.654 -26.234  1.00  0.00    -0.289 OA
BRANCH  11  13
ATOM     13  C   UNL     1      -0.707  14.014 -26.106  1.00  0.00     0.064 A 
ATOM     14  C   UNL     1       0.530  14.150 -26.780  1.00  0.00     0.130 A 
ATOM     15  C   UNL     1      -1.426  15.171 -25.754  1.00  0.00     0.020 A 
ATOM     16  C   UNL     1       1.007  15.427 -27.104  1.00  0.00     0.093 A 
ATOM     17  C   UNL     1      -0.932  16.438 -26.073  1.00  0.00     0.047 A 
ATOM     18  C   UNL     1       0.281  16.571 -26.750  1.00  0.00     0.119 A 
BRANCH  14  19
ATOM     19  O   UNL     1       1.319  13.049 -27.122  1.00  0.00    -0.507 OA
ATOM     20  H   UNL     1       1.170  12.123 -26.743  1.00  0.00     0.293 HD
ENDBRANCH  14  19
BRANCH  18  21
ATOM     21  O   UNL     1       0.757  17.841 -27.066  1.00  0.00    -0.508 OA
ATOM     22  H   UNL     1       1.700  17.983 -27.410  1.00  0.00     0.293 HD
ENDBRANCH  18  21
ENDBRANCH  11  13
ENDBRANCH   2  11
TORSDOF 6
ENDMDL
MODEL 5
REMARK VINA RESULT:    16.352      1.919      7.033
REMARK INTER + INTRA:          20.770
REMARK INTER:                  21.072
REMARK INTRA:                  -0.303
REMARK UNBOUND:                 0.116
REMARK SMILES O=C(C=Cc1ccc(O)cc1)c1ccc(O)cc1O
REMARK SMILES IDX 4 1 3 2 5 3 6 4 7 5 8 6 11 7 10 8 9 9 2 11 1 12 12 13 18 14
REMARK SMILES IDX 13 15 17 16 14 17 15 18 19 19 16 21
REMARK H PARENT 9 10 19 20 16 22
REMARK Flexibility Score: inf
ROOT
ATOM      1  C   UNL     1      -2.259  11.294 -26.486  1.00  0.00     0.012 C 
ATOM      2  C   UNL     1      -2.621  10.367 -25.586  1.00  0.00     0.053 C 
ENDROOT
BRANCH   1   3
ATOM      3  C   UNL     1      -1.420  12.477 -26.205  1.00  0.00    -0.025 A 
ATOM      4  C   UNL     1      -1.781  13.347 -25.165  1.00  0.00     0.012 A 
ATOM      5  C   UNL     1      -1.025  14.495 -24.912  1.00  0.00     0.047 A 
ATOM      6  C   UNL     1       0.083  14.799 -25.708  1.00  0.00     0.115 A 
ATOM      7  C   UNL     1      -0.323  12.802 -27.023  1.00  0.00     0.012 A 
ATOM      8  C   UNL     1       0.431  13.951 -26.767  1.00  0.00     0.047 A 
BRANCH   6   9
ATOM      9  O   UNL     1       0.828  15.946 -25.442  1.00  0.00    -0.508 OA
ATOM     10  H   UNL     1       1.226  16.504 -26.189  1.00  0.00     0.293 HD
ENDBRANCH   6   9
ENDBRANCH   1   3
BRANCH   2  11
ATOM     11  C   UNL     1      -2.402  10.460 -24.122  1.00  0.00     0.189 C 
ATOM     12  O   UNL     1      -1.235  10.564 -23.654  1.00  0.00    -0.289 OA
BRANCH  11  13
ATOM     13  C   UNL     1      -3.552  10.512 -23.195  1.00  0.00     0.064 A 
ATOM     14  C   UNL     1      -3.424  10.145 -21.834  1.00  0.00     0.130 A 
ATOM     15  C   UNL     1      -4.795  10.974 -23.665  1.00  0.00     0.020 A 
ATOM     16  C   UNL     1      -4.524  10.266 -20.976  1.00  0.00     0.093 A 
ATOM     17  C   UNL     1      -5.887  11.079 -22.800  1.00  0.00     0.047 A 
ATOM     18  C   UNL     1      -5.755  10.729 -21.455  1.00  0.00     0.119 A 
BRANCH  14  19
ATOM     19  O   UNL     1      -2.234   9.636 -21.308  1.00  0.00    -0.507 OA
ATOM     20  H   UNL     1      -1.413  10.204 -21.148  1.00  0.00     0.293 HD
ENDBRANCH  14  19
BRANCH  18  21
ATOM     21  O   UNL     1      -6.852  10.846 -20.603  1.00  0.00    -0.508 OA
ATOM     22  H   UNL     1      -7.313  11.735 -20.452  1.00  0.00     0.293 HD
ENDBRANCH  18  21
ENDBRANCH  11  13
ENDBRANCH   2  11
TORSDOF 6
ENDMDL
