MODEL 1
REMARK VINA RESULT:    -4.613      0.000      0.000
REMARK INTER + INTRA:          -6.394
REMARK INTER:                  -6.501
REMARK INTRA:                   0.107
REMARK UNBOUND:                 0.107
REMARK SMILES CC1=CCC(=C(C)C)C(=O)CC(C)=CCC1
REMARK SMILES IDX 12 1 14 2 13 3 15 4 16 5 2 6 1 7 3 8 11 10 9 11 10 12 5 13
REMARK SMILES IDX 6 14 7 15 8 16 4 17
REMARK H PARENT
REMARK Flexibility Score: 60.00
ROOT
ATOM      1  C   UNL     1       3.087  28.733  31.467  1.00  0.00    -0.070 C 
ATOM      2  C   UNL     1       2.971  29.205  32.730  1.00  0.00    -0.027 C 
ATOM      3  C   UNL     1       3.741  27.388  31.275  1.00  0.00     0.039 C 
ENDROOT
BRANCH   2   4
ATOM      4  C   UNL     1       2.306  30.509  33.110  1.00  0.00     0.032 C 
BRANCH   4   5
ATOM      5  C   UNL     1       0.863  30.320  33.621  1.00  0.00     0.034 C 
BRANCH   5   6
ATOM      6  C   UNL     1       0.407  28.871  33.751  1.00  0.00    -0.077 C 
ATOM      7  C   UNL     1       0.775  28.106  34.999  1.00  0.00     0.039 C 
ATOM      8  C   UNL     1      -0.336  28.230  32.820  1.00  0.00    -0.023 CG0
ATOM      9  G   UNL     1      -0.784  28.800  31.496  1.00  0.00     0.000 G0
ENDBRANCH   5   6
ENDBRANCH   4   5
ENDBRANCH   2   4
BRANCH   1  10
ATOM     10  C   UNL     1       2.652  29.527  30.246  1.00  0.00     0.111 C 
BRANCH  10  11
ATOM     11  C   UNL     1       1.157  29.684  30.123  1.00  0.00     0.163 C 
ATOM     12  O   UNL     1       0.693  30.813  29.806  1.00  0.00    -0.294 OA
BRANCH  11  13
ATOM     13  C   UNL     1       0.207  28.573  30.359  1.00  0.00    -0.002 C 
ATOM     14  C   UNL     1       0.167  27.502  29.516  1.00  0.00    -0.069 C 
ATOM     15  C   UNL     1      -0.838  26.385  29.690  1.00  0.00     0.039 C 
ATOM     16  C   UNL     1       1.103  27.415  28.332  1.00  0.00     0.039 C 
BRANCH  13  17
ATOM     17  C   UNL     1      -0.805  28.786  31.474  1.00  0.00     0.066 CG0
ATOM     18  G   UNL     1      -0.322  28.239  32.795  1.00  0.00     0.000 G0
ENDBRANCH  13  17
ENDBRANCH  11  13
ENDBRANCH  10  11
ENDBRANCH   1  10
TORSDOF 0
ENDMDL
MODEL 2
REMARK VINA RESULT:    -4.415      1.504      1.682
REMARK INTER + INTRA:          -6.114
REMARK INTER:                  -6.884
REMARK INTRA:                   0.770
REMARK UNBOUND:                 0.107
REMARK SMILES CC1=CCC(=C(C)C)C(=O)CC(C)=CCC1
REMARK SMILES IDX 12 1 14 2 13 3 15 4 16 5 2 6 1 7 3 8 11 10 9 11 10 12 5 13
REMARK SMILES IDX 6 14 7 15 8 16 4 17
REMARK H PARENT
REMARK Flexibility Score: 60.00
ROOT
ATOM      1  C   UNL     1       3.455  28.551  32.451  1.00  0.00    -0.070 C 
ATOM      2  C   UNL     1       3.127  29.299  33.530  1.00  0.00    -0.027 C 
ATOM      3  C   UNL     1       4.175  27.248  32.689  1.00  0.00     0.039 C 
ENDROOT
BRANCH   2   4
ATOM      4  C   UNL     1       2.367  30.606  33.482  1.00  0.00     0.032 C 
BRANCH   4   5
ATOM      5  C   UNL     1       0.874  30.445  33.834  1.00  0.00     0.034 C 
BRANCH   5   6
ATOM      6  C   UNL     1       0.270  29.089  33.490  1.00  0.00    -0.077 C 
ATOM      7  C   UNL     1       0.099  28.072  34.593  1.00  0.00     0.039 C 
ATOM      8  C   UNL     1      -0.149  28.745  32.251  1.00  0.00    -0.023 CG0
ATOM      9  G   UNL     1      -0.044  29.597  31.010  1.00  0.00     0.000 G0
ENDBRANCH   5   6
ENDBRANCH   4   5
ENDBRANCH   2   4
BRANCH   1  10
ATOM     10  C   UNL     1       3.188  29.002  31.024  1.00  0.00     0.111 C 
BRANCH  10  11
ATOM     11  C   UNL     1       2.038  28.283  30.363  1.00  0.00     0.163 C 
ATOM     12  O   UNL     1       2.130  27.040  30.179  1.00  0.00    -0.294 OA
BRANCH  11  13
ATOM     13  C   UNL     1       0.805  28.973  29.919  1.00  0.00    -0.002 C 
ATOM     14  C   UNL     1       0.539  29.135  28.592  1.00  0.00    -0.069 C 
ATOM     15  C   UNL     1      -0.675  29.894  28.107  1.00  0.00     0.039 C 
ATOM     16  C   UNL     1       1.488  28.600  27.542  1.00  0.00     0.039 C 
BRANCH  13  17
ATOM     17  C   UNL     1      -0.031  29.615  31.014  1.00  0.00     0.066 CG0
ATOM     18  G   UNL     1      -0.145  28.737  32.236  1.00  0.00     0.000 G0
ENDBRANCH  13  17
ENDBRANCH  11  13
ENDBRANCH  10  11
ENDBRANCH   1  10
TORSDOF 0
ENDMDL
MODEL 3
REMARK VINA RESULT:    -4.101      1.865      4.726
REMARK INTER + INTRA:          -5.673
REMARK INTER:                  -6.256
REMARK INTRA:                   0.583
REMARK UNBOUND:                 0.107
REMARK SMILES CC1=CCC(=C(C)C)C(=O)CC(C)=CCC1
REMARK SMILES IDX 12 1 14 2 13 3 15 4 16 5 2 6 1 7 3 8 11 10 9 11 10 12 5 13
REMARK SMILES IDX 6 14 7 15 8 16 4 17
REMARK H PARENT
REMARK Flexibility Score: 60.00
ROOT
ATOM      1  C   UNL     1      -0.301  28.568  31.926  1.00  0.00    -0.070 C 
ATOM      2  C   UNL     1      -0.860  27.717  31.035  1.00  0.00    -0.027 C 
ATOM      3  C   UNL     1      -0.259  28.147  33.373  1.00  0.00     0.039 C 
ENDROOT
BRANCH   2   4
ATOM      4  C   UNL     1      -0.948  27.956  29.544  1.00  0.00     0.032 C 
BRANCH   4   5
ATOM      5  C   UNL     1       0.269  27.401  28.776  1.00  0.00     0.034 C 
BRANCH   5   6
ATOM      6  C   UNL     1       1.285  28.446  28.332  1.00  0.00    -0.077 C 
ATOM      7  C   UNL     1       1.010  29.237  27.076  1.00  0.00     0.039 C 
ATOM      8  C   UNL     1       2.419  28.731  29.014  1.00  0.00    -0.023 CG0
ATOM      9  G   UNL     1       2.894  28.043  30.270  1.00  0.00     0.000 G0
ENDBRANCH   5   6
ENDBRANCH   4   5
ENDBRANCH   2   4
BRANCH   1  10
ATOM     10  C   UNL     1       0.217  29.944  31.539  1.00  0.00     0.111 C 
BRANCH  10  11
ATOM     11  C   UNL     1       1.716  30.010  31.387  1.00  0.00     0.163 C 
ATOM     12  O   UNL     1       2.246  31.119  31.108  1.00  0.00    -0.294 OA
BRANCH  11  13
ATOM     13  C   UNL     1       2.596  28.830  31.552  1.00  0.00    -0.002 C 
ATOM     14  C   UNL     1       3.197  28.572  32.748  1.00  0.00    -0.069 C 
ATOM     15  C   UNL     1       4.154  27.415  32.929  1.00  0.00     0.039 C 
ATOM     16  C   UNL     1       2.965  29.473  33.940  1.00  0.00     0.039 C 
BRANCH  13  17
ATOM     17  C   UNL     1       2.907  28.049  30.285  1.00  0.00     0.066 CG0
ATOM     18  G   UNL     1       2.407  28.749  29.045  1.00  0.00     0.000 G0
ENDBRANCH  13  17
ENDBRANCH  11  13
ENDBRANCH  10  11
ENDBRANCH   1  10
TORSDOF 0
ENDMDL
MODEL 4
REMARK VINA RESULT:    -4.091      1.601      2.979
REMARK INTER + INTRA:          -5.658
REMARK INTER:                  -6.216
REMARK INTRA:                   0.558
REMARK UNBOUND:                 0.107
REMARK SMILES CC1=CCC(=C(C)C)C(=O)CC(C)=CCC1
REMARK SMILES IDX 12 1 14 2 13 3 15 4 16 5 2 6 1 7 3 8 11 10 9 11 10 12 5 13
REMARK SMILES IDX 6 14 7 15 8 16 4 17
REMARK H PARENT
REMARK Flexibility Score: 60.00
ROOT
ATOM      1  C   UNL     1      -0.495  28.637  32.072  1.00  0.00    -0.070 C 
ATOM      2  C   UNL     1       0.183  28.617  33.243  1.00  0.00    -0.027 C 
ATOM      3  C   UNL     1      -1.229  27.386  31.661  1.00  0.00     0.039 C 
ENDROOT
BRANCH   2   4
ATOM      4  C   UNL     1       0.936  29.791  33.829  1.00  0.00     0.032 C 
BRANCH   4   5
ATOM      5  C   UNL     1       2.213  30.140  33.036  1.00  0.00     0.034 C 
BRANCH   5   6
ATOM      6  C   UNL     1       2.993  28.943  32.506  1.00  0.00    -0.077 C 
ATOM      7  C   UNL     1       3.681  28.032  33.494  1.00  0.00     0.039 C 
ATOM      8  C   UNL     1       3.088  28.628  31.193  1.00  0.00    -0.023 CG0
ATOM      9  G   UNL     1       2.503  29.416  30.048  1.00  0.00     0.000 G0
ENDBRANCH   5   6
ENDBRANCH   4   5
ENDBRANCH   2   4
BRANCH   1  10
ATOM     10  C   UNL     1      -0.488  29.834  31.135  1.00  0.00     0.111 C 
BRANCH  10  11
ATOM     11  C   UNL     1      -0.017  29.512  29.739  1.00  0.00     0.163 C 
ATOM     12  O   UNL     1      -0.727  29.878  28.763  1.00  0.00    -0.294 OA
BRANCH  11  13
ATOM     13  C   UNL     1       1.242  28.784  29.460  1.00  0.00    -0.002 C 
ATOM     14  C   UNL     1       1.219  27.556  28.869  1.00  0.00    -0.069 C 
ATOM     15  C   UNL     1       2.482  26.757  28.634  1.00  0.00     0.039 C 
ATOM     16  C   UNL     1      -0.091  26.916  28.466  1.00  0.00     0.039 C 
BRANCH  13  17
ATOM     17  C   UNL     1       2.511  29.408  30.019  1.00  0.00     0.066 CG0
ATOM     18  G   UNL     1       3.070  28.623  31.181  1.00  0.00     0.000 G0
ENDBRANCH  13  17
ENDBRANCH  11  13
ENDBRANCH  10  11
ENDBRANCH   1  10
TORSDOF 0
ENDMDL
MODEL 5
REMARK VINA RESULT:    -4.042      2.011      3.630
REMARK INTER + INTRA:          -5.588
REMARK INTER:                  -6.235
REMARK INTRA:                   0.647
REMARK UNBOUND:                 0.107
REMARK SMILES CC1=CCC(=C(C)C)C(=O)CC(C)=CCC1
REMARK SMILES IDX 12 1 14 2 13 3 15 4 16 5 2 6 1 7 3 8 11 10 9 11 10 12 5 13
REMARK SMILES IDX 6 14 7 15 8 16 4 17
REMARK H PARENT
REMARK Flexibility Score: 60.00
ROOT
ATOM      1  C   UNL     1      -0.583  28.561  31.948  1.00  0.00    -0.070 C 
ATOM      2  C   UNL     1       0.058  28.640  33.137  1.00  0.00    -0.027 C 
ATOM      3  C   UNL     1      -1.368  27.308  31.652  1.00  0.00     0.039 C 
ENDROOT
BRANCH   2   4
ATOM      4  C   UNL     1       0.852  29.834  33.617  1.00  0.00     0.032 C 
BRANCH   4   5
ATOM      5  C   UNL     1       2.328  29.494  33.910  1.00  0.00     0.034 C 
BRANCH   5   6
ATOM      6  C   UNL     1       3.060  28.767  32.788  1.00  0.00    -0.077 C 
ATOM      7  C   UNL     1       3.670  27.418  33.077  1.00  0.00     0.039 C 
ATOM      8  C   UNL     1       3.176  29.250  31.529  1.00  0.00    -0.023 CG0
ATOM      9  G   UNL     1       2.666  30.584  31.040  1.00  0.00     0.000 G0
ENDBRANCH   5   6
ENDBRANCH   4   5
ENDBRANCH   2   4
BRANCH   1  10
ATOM     10  C   UNL     1      -0.488  29.644  30.887  1.00  0.00     0.111 C 
BRANCH  10  11
ATOM     11  C   UNL     1       0.666  29.462  29.932  1.00  0.00     0.163 C 
ATOM     12  O   UNL     1       0.697  28.426  29.214  1.00  0.00    -0.294 OA
BRANCH  11  13
ATOM     13  C   UNL     1       1.767  30.444  29.800  1.00  0.00    -0.002 C 
ATOM     14  C   UNL     1       2.019  31.048  28.605  1.00  0.00    -0.069 C 
ATOM     15  C   UNL     1       3.177  32.003  28.420  1.00  0.00     0.039 C 
ATOM     16  C   UNL     1       1.170  30.745  27.390  1.00  0.00     0.039 C 
BRANCH  13  17
ATOM     17  C   UNL     1       2.673  30.595  31.011  1.00  0.00     0.066 CG0
ATOM     18  G   UNL     1       3.184  29.267  31.512  1.00  0.00     0.000 G0
ENDBRANCH  13  17
ENDBRANCH  11  13
ENDBRANCH  10  11
ENDBRANCH   1  10
TORSDOF 0
ENDMDL
MODEL 6
REMARK VINA RESULT:    -4.010      1.988      3.877
REMARK INTER + INTRA:          -5.544
REMARK INTER:                  -5.947
REMARK INTRA:                   0.403
REMARK UNBOUND:                 0.107
REMARK SMILES CC1=CCC(=C(C)C)C(=O)CC(C)=CCC1
REMARK SMILES IDX 12 1 14 2 13 3 15 4 16 5 2 6 1 7 3 8 11 10 9 11 10 12 5 13
REMARK SMILES IDX 6 14 7 15 8 16 4 17
REMARK H PARENT
REMARK Flexibility Score: 60.00
ROOT
ATOM      1  C   UNL     1       1.001  29.915  32.793  1.00  0.00    -0.070 C 
ATOM      2  C   UNL     1       2.115  30.452  32.243  1.00  0.00    -0.027 C 
ATOM      3  C   UNL     1       1.040  29.557  34.258  1.00  0.00     0.039 C 
ENDROOT
BRANCH   2   4
ATOM      4  C   UNL     1       2.239  30.909  30.807  1.00  0.00     0.032 C 
BRANCH   4   5
ATOM      5  C   UNL     1       2.680  29.778  29.855  1.00  0.00     0.034 C 
BRANCH   5   6
ATOM      6  C   UNL     1       1.733  29.505  28.692  1.00  0.00    -0.077 C 
ATOM      7  C   UNL     1       1.726  30.461  27.524  1.00  0.00     0.039 C 
ATOM      8  C   UNL     1       0.908  28.434  28.629  1.00  0.00    -0.023 CG0
ATOM      9  G   UNL     1       0.741  27.379  29.695  1.00  0.00     0.000 G0
ENDBRANCH   5   6
ENDBRANCH   4   5
ENDBRANCH   2   4
BRANCH   1  10
ATOM     10  C   UNL     1      -0.248  29.601  31.986  1.00  0.00     0.111 C 
BRANCH  10  11
ATOM     11  C   UNL     1      -0.489  28.125  31.786  1.00  0.00     0.163 C 
ATOM     12  O   UNL     1      -0.628  27.394  32.803  1.00  0.00    -0.294 OA
BRANCH  11  13
ATOM     13  C   UNL     1      -0.569  27.495  30.449  1.00  0.00    -0.002 C 
ATOM     14  C   UNL     1      -1.734  26.939  30.010  1.00  0.00    -0.069 C 
ATOM     15  C   UNL     1      -1.829  26.228  28.679  1.00  0.00     0.039 C 
ATOM     16  C   UNL     1      -2.977  26.969  30.871  1.00  0.00     0.039 C 
BRANCH  13  17
ATOM     17  C   UNL     1       0.745  27.364  29.694  1.00  0.00     0.066 CG0
ATOM     18  G   UNL     1       0.900  28.424  28.631  1.00  0.00     0.000 G0
ENDBRANCH  13  17
ENDBRANCH  11  13
ENDBRANCH  10  11
ENDBRANCH   1  10
TORSDOF 0
ENDMDL
MODEL 7
REMARK VINA RESULT:    -3.933      1.736      3.659
REMARK INTER + INTRA:          -5.436
REMARK INTER:                  -5.616
REMARK INTRA:                   0.180
REMARK UNBOUND:                 0.107
REMARK SMILES CC1=CCC(=C(C)C)C(=O)CC(C)=CCC1
REMARK SMILES IDX 12 1 14 2 13 3 15 4 16 5 2 6 1 7 3 8 11 10 9 11 10 12 5 13
REMARK SMILES IDX 6 14 7 15 8 16 4 17
REMARK H PARENT
REMARK Flexibility Score: 60.00
ROOT
ATOM      1  C   UNL     1       1.747  29.377  33.124  1.00  0.00    -0.070 C 
ATOM      2  C   UNL     1       0.399  29.263  33.078  1.00  0.00    -0.027 C 
ATOM      3  C   UNL     1       2.330  30.553  33.868  1.00  0.00     0.039 C 
ENDROOT
BRANCH   2   4
ATOM      4  C   UNL     1      -0.353  28.129  32.417  1.00  0.00     0.032 C 
BRANCH   4   5
ATOM      5  C   UNL     1      -0.776  28.455  30.970  1.00  0.00     0.034 C 
BRANCH   5   6
ATOM      6  C   UNL     1      -0.696  27.288  29.993  1.00  0.00    -0.077 C 
ATOM      7  C   UNL     1      -1.797  26.256  30.006  1.00  0.00     0.039 C 
ATOM      8  C   UNL     1       0.298  27.132  29.088  1.00  0.00    -0.023 CG0
ATOM      9  G   UNL     1       1.501  28.029  28.927  1.00  0.00     0.000 G0
ENDBRANCH   5   6
ENDBRANCH   4   5
ENDBRANCH   2   4
BRANCH   1  10
ATOM     10  C   UNL     1       2.681  28.417  32.407  1.00  0.00     0.111 C 
BRANCH  10  11
ATOM     11  C   UNL     1       2.871  28.731  30.944  1.00  0.00     0.163 C 
ATOM     12  O   UNL     1       3.232  29.894  30.618  1.00  0.00    -0.294 OA
BRANCH  11  13
ATOM     13  C   UNL     1       2.652  27.734  29.870  1.00  0.00    -0.002 C 
ATOM     14  C   UNL     1       3.523  26.701  29.693  1.00  0.00    -0.069 C 
ATOM     15  C   UNL     1       3.366  25.707  28.564  1.00  0.00     0.039 C 
ATOM     16  C   UNL     1       4.724  26.536  30.599  1.00  0.00     0.039 C 
BRANCH  13  17
ATOM     17  C   UNL     1       1.517  28.034  28.904  1.00  0.00     0.066 CG0
ATOM     18  G   UNL     1       0.331  27.126  29.118  1.00  0.00     0.000 G0
ENDBRANCH  13  17
ENDBRANCH  11  13
ENDBRANCH  10  11
ENDBRANCH   1  10
TORSDOF 0
ENDMDL
MODEL 8
REMARK VINA RESULT:    -3.751      2.079      2.775
REMARK INTER + INTRA:          -5.179
REMARK INTER:                  -5.336
REMARK INTRA:                   0.157
REMARK UNBOUND:                 0.107
REMARK SMILES CC1=CCC(=C(C)C)C(=O)CC(C)=CCC1
REMARK SMILES IDX 12 1 14 2 13 3 15 4 16 5 2 6 1 7 3 8 11 10 9 11 10 12 5 13
REMARK SMILES IDX 6 14 7 15 8 16 4 17
REMARK H PARENT
REMARK Flexibility Score: 60.00
ROOT
ATOM      1  C   UNL     1       4.298  26.825  30.969  1.00  0.00    -0.070 C 
ATOM      2  C   UNL     1       4.460  27.007  32.300  1.00  0.00    -0.027 C 
ATOM      3  C   UNL     1       5.448  26.235  30.193  1.00  0.00     0.039 C 
ENDROOT
BRANCH   2   4
ATOM      4  C   UNL     1       3.401  27.544  33.237  1.00  0.00     0.032 C 
BRANCH   4   5
ATOM      5  C   UNL     1       3.268  29.080  33.173  1.00  0.00     0.034 C 
BRANCH   5   6
ATOM      6  C   UNL     1       1.838  29.603  33.099  1.00  0.00    -0.077 C 
ATOM      7  C   UNL     1       0.906  29.328  34.253  1.00  0.00     0.039 C 
ATOM      8  C   UNL     1       1.355  30.328  32.063  1.00  0.00    -0.023 CG0
ATOM      9  G   UNL     1       2.107  30.688  30.806  1.00  0.00     0.000 G0
ENDBRANCH   5   6
ENDBRANCH   4   5
ENDBRANCH   2   4
BRANCH   1  10
ATOM     10  C   UNL     1       3.043  27.252  30.225  1.00  0.00     0.111 C 
BRANCH  10  11
ATOM     11  C   UNL     1       3.116  28.647  29.656  1.00  0.00     0.163 C 
ATOM     12  O   UNL     1       4.185  29.015  29.099  1.00  0.00    -0.294 OA
BRANCH  11  13
ATOM     13  C   UNL     1       1.990  29.605  29.723  1.00  0.00    -0.002 C 
ATOM     14  C   UNL     1       1.008  29.590  28.777  1.00  0.00    -0.069 C 
ATOM     15  C   UNL     1      -0.119  30.599  28.778  1.00  0.00     0.039 C 
ATOM     16  C   UNL     1       1.035  28.583  27.649  1.00  0.00     0.039 C 
BRANCH  13  17
ATOM     17  C   UNL     1       2.093  30.683  30.790  1.00  0.00     0.066 CG0
ATOM     18  G   UNL     1       1.363  30.306  32.055  1.00  0.00     0.000 G0
ENDBRANCH  13  17
ENDBRANCH  11  13
ENDBRANCH  10  11
ENDBRANCH   1  10
TORSDOF 0
ENDMDL
MODEL 9
REMARK VINA RESULT:    -3.701      1.738      4.158
REMARK INTER + INTRA:          -5.108
REMARK INTER:                  -5.736
REMARK INTRA:                   0.628
REMARK UNBOUND:                 0.107
REMARK SMILES CC1=CCC(=C(C)C)C(=O)CC(C)=CCC1
REMARK SMILES IDX 12 1 14 2 13 3 15 4 16 5 2 6 1 7 3 8 11 10 9 11 10 12 5 13
REMARK SMILES IDX 6 14 7 15 8 16 4 17
REMARK H PARENT
REMARK Flexibility Score: 60.00
ROOT
ATOM      1  C   UNL     1       2.668  30.921  29.168  1.00  0.00    -0.070 C 
ATOM      2  C   UNL     1       1.635  30.742  28.313  1.00  0.00    -0.027 C 
ATOM      3  C   UNL     1       4.063  30.942  28.595  1.00  0.00     0.039 C 
ENDROOT
BRANCH   2   4
ATOM      4  C   UNL     1       0.174  30.738  28.705  1.00  0.00     0.032 C 
BRANCH   4   5
ATOM      5  C   UNL     1      -0.550  29.436  28.307  1.00  0.00     0.034 C 
BRANCH   5   6
ATOM      6  C   UNL     1       0.052  28.159  28.881  1.00  0.00    -0.077 C 
ATOM      7  C   UNL     1       0.458  27.059  27.931  1.00  0.00     0.039 C 
ATOM      8  C   UNL     1       0.270  27.958  30.202  1.00  0.00    -0.023 CG0
ATOM      9  G   UNL     1      -0.086  28.912  31.315  1.00  0.00     0.000 G0
ENDBRANCH   5   6
ENDBRANCH   4   5
ENDBRANCH   2   4
BRANCH   1  10
ATOM     10  C   UNL     1       2.483  31.034  30.673  1.00  0.00     0.111 C 
BRANCH  10  11
ATOM     11  C   UNL     1       2.355  29.703  31.372  1.00  0.00     0.163 C 
ATOM     12  O   UNL     1       3.313  28.887  31.295  1.00  0.00    -0.294 OA
BRANCH  11  13
ATOM     13  C   UNL     1       1.155  29.310  32.144  1.00  0.00    -0.002 C 
ATOM     14  C   UNL     1       1.213  29.177  33.500  1.00  0.00    -0.069 C 
ATOM     15  C   UNL     1       0.024  28.710  34.310  1.00  0.00     0.039 C 
ATOM     16  C   UNL     1       2.500  29.445  34.249  1.00  0.00     0.039 C 
BRANCH  13  17
ATOM     17  C   UNL     1      -0.064  28.912  31.327  1.00  0.00     0.066 CG0
ATOM     18  G   UNL     1       0.287  27.970  30.201  1.00  0.00     0.000 G0
ENDBRANCH  13  17
ENDBRANCH  11  13
ENDBRANCH  10  11
ENDBRANCH   1  10
TORSDOF 0
ENDMDL
