MODEL 1
REMARK VINA RESULT:    -2.537      0.000      0.000
REMARK INTER + INTRA:          -1.835
REMARK INTER:                  -3.872
REMARK INTRA:                   2.037
REMARK UNBOUND:                 2.037
REMARK SMILES CC1=CCC[C@@H](C)C(=O)C[C@@H](C(C)C)C(=O)C1
REMARK SMILES IDX 8 1 9 2 6 3 7 4 5 5 4 6 3 7 2 8 1 9 10 11 11 12 15 13 16 14
REMARK SMILES IDX 17 15 12 17 13 18 14 19
REMARK H PARENT
REMARK Flexibility Score: 70.00
ROOT
ATOM      1  C   UNL     1       4.661  12.416  -7.613  1.00  0.00     0.136 C 
ATOM      2  O   UNL     1       5.533  12.035  -8.381  1.00  0.00    -0.299 OA
ENDROOT
BRANCH   1   3
ATOM      3  C   UNL     1       3.216  12.044  -7.935  1.00  0.00     0.053 C 
ATOM      4  C   UNL     1       2.972  10.548  -8.202  1.00  0.00     0.016 C 
BRANCH   3   5
ATOM      5  C   UNL     1       2.614  12.924  -9.061  1.00  0.00     0.015 C 
BRANCH   5   6
ATOM      6  C   UNL     1       2.165  14.334  -8.627  1.00  0.00     0.028 C 
BRANCH   6   7
ATOM      7  C   UNL     1       1.800  14.368  -7.160  1.00  0.00    -0.028 C 
ATOM      8  C   UNL     1       2.323  15.210  -6.241  1.00  0.00    -0.070 CG0
ATOM      9  C   UNL     1       1.828  15.104  -4.820  1.00  0.00     0.039 C 
ATOM     10  G   UNL     1       3.377  16.249  -6.574  1.00  0.00     0.000 G0
ENDBRANCH   6   7
ENDBRANCH   5   6
ENDBRANCH   3   5
ENDBRANCH   1   3
BRANCH   1  11
ATOM     11  C   UNL     1       5.084  13.287  -6.445  1.00  0.00     0.087 C 
BRANCH  11  12
ATOM     12  C   UNL     1       5.517  14.702  -6.898  1.00  0.00     0.066 C 
BRANCH  12  13
ATOM     13  C   UNL     1       4.766  15.772  -6.119  1.00  0.00     0.140 C 
ATOM     14  O   UNL     1       5.264  16.248  -5.110  1.00  0.00    -0.299 OA
BRANCH  13  15
ATOM     15  C   UNL     1       3.389  16.236  -6.530  1.00  0.00     0.106 CG0
ATOM     16  G   UNL     1       2.310  15.213  -6.227  1.00  0.00     0.000 G0
ENDBRANCH  13  15
ENDBRANCH  12  13
BRANCH  12  17
ATOM     17  C   UNL     1       5.404  14.887  -8.443  1.00  0.00    -0.006 C 
ATOM     18  C   UNL     1       6.774  14.743  -9.125  1.00  0.00     0.008 C 
ATOM     19  C   UNL     1       4.736  16.203  -8.877  1.00  0.00     0.008 C 
ENDBRANCH  12  17
ENDBRANCH  11  12
ENDBRANCH   1  11
TORSDOF 1
ENDMDL
MODEL 2
REMARK VINA RESULT:    -2.325      1.758      3.051
REMARK INTER + INTRA:          -1.511
REMARK INTER:                  -2.090
REMARK INTRA:                   0.578
REMARK UNBOUND:                 2.037
REMARK SMILES CC1=CCC[C@@H](C)C(=O)C[C@@H](C(C)C)C(=O)C1
REMARK SMILES IDX 8 1 9 2 6 3 7 4 5 5 4 6 3 7 2 8 1 9 10 11 11 12 15 13 16 14
REMARK SMILES IDX 17 15 12 17 13 18 14 19
REMARK H PARENT
REMARK Flexibility Score: 70.00
ROOT
ATOM      1  C   UNL     1       5.657  13.409  -6.590  1.00  0.00     0.136 C 
ATOM      2  O   UNL     1       5.469  12.852  -5.518  1.00  0.00    -0.299 OA
ENDROOT
BRANCH   1   3
ATOM      3  C   UNL     1       6.002  12.538  -7.795  1.00  0.00     0.053 C 
ATOM      4  C   UNL     1       6.184  13.299  -9.120  1.00  0.00     0.016 C 
BRANCH   3   5
ATOM      5  C   UNL     1       5.028  11.342  -7.960  1.00  0.00     0.015 C 
BRANCH   5   6
ATOM      6  C   UNL     1       3.688  11.674  -8.649  1.00  0.00     0.028 C 
BRANCH   6   7
ATOM      7  C   UNL     1       2.701  12.274  -7.673  1.00  0.00    -0.028 C 
ATOM      8  C   UNL     1       2.234  13.542  -7.709  1.00  0.00    -0.070 CG0
ATOM      9  C   UNL     1       1.242  13.962  -6.653  1.00  0.00     0.039 C 
ATOM     10  G   UNL     1       2.661  14.551  -8.758  1.00  0.00     0.000 G0
ENDBRANCH   6   7
ENDBRANCH   5   6
ENDBRANCH   3   5
ENDBRANCH   1   3
BRANCH   1  11
ATOM     11  C   UNL     1       5.602  14.926  -6.614  1.00  0.00     0.087 C 
BRANCH  11  12
ATOM     12  C   UNL     1       4.156  15.455  -6.770  1.00  0.00     0.066 C 
BRANCH  12  13
ATOM     13  C   UNL     1       3.738  15.458  -8.233  1.00  0.00     0.140 C 
ATOM     14  O   UNL     1       4.264  16.240  -9.012  1.00  0.00    -0.299 OA
BRANCH  13  15
ATOM     15  C   UNL     1       2.648  14.550  -8.752  1.00  0.00     0.106 CG0
ATOM     16  G   UNL     1       2.190  13.536  -7.721  1.00  0.00     0.000 G0
ENDBRANCH  13  15
ENDBRANCH  12  13
BRANCH  12  17
ATOM     17  C   UNL     1       3.957  16.840  -6.081  1.00  0.00    -0.006 C 
ATOM     18  C   UNL     1       4.576  16.858  -4.675  1.00  0.00     0.008 C 
ATOM     19  C   UNL     1       2.495  17.313  -6.019  1.00  0.00     0.008 C 
ENDBRANCH  12  17
ENDBRANCH  11  12
ENDBRANCH   1  11
TORSDOF 1
ENDMDL
MODEL 3
REMARK VINA RESULT:    -1.794      1.712      3.558
REMARK INTER + INTRA:          -0.700
REMARK INTER:                  -2.987
REMARK INTRA:                   2.287
REMARK UNBOUND:                 2.037
REMARK SMILES CC1=CCC[C@@H](C)C(=O)C[C@@H](C(C)C)C(=O)C1
REMARK SMILES IDX 8 1 9 2 6 3 7 4 5 5 4 6 3 7 2 8 1 9 10 11 11 12 15 13 16 14
REMARK SMILES IDX 17 15 12 17 13 18 14 19
REMARK H PARENT
REMARK Flexibility Score: 70.00
ROOT
ATOM      1  C   UNL     1       2.541  13.114  -7.176  1.00  0.00     0.136 C 
ATOM      2  O   UNL     1       2.394  12.623  -6.066  1.00  0.00    -0.299 OA
ENDROOT
BRANCH   1   3
ATOM      3  C   UNL     1       3.243  12.274  -8.240  1.00  0.00     0.053 C 
ATOM      4  C   UNL     1       2.372  11.184  -8.889  1.00  0.00     0.016 C 
BRANCH   3   5
ATOM      5  C   UNL     1       4.593  11.695  -7.743  1.00  0.00     0.015 C 
BRANCH   5   6
ATOM      6  C   UNL     1       5.831  12.113  -8.562  1.00  0.00     0.028 C 
BRANCH   6   7
ATOM      7  C   UNL     1       5.675  13.510  -9.121  1.00  0.00    -0.028 C 
ATOM      8  C   UNL     1       5.609  14.645  -8.390  1.00  0.00    -0.070 CG0
ATOM      9  C   UNL     1       5.463  15.954  -9.125  1.00  0.00     0.039 C 
ATOM     10  G   UNL     1       5.677  14.658  -6.875  1.00  0.00     0.000 G0
ENDBRANCH   6   7
ENDBRANCH   5   6
ENDBRANCH   3   5
ENDBRANCH   1   3
BRANCH   1  11
ATOM     11  C   UNL     1       2.077  14.545  -7.379  1.00  0.00     0.087 C 
BRANCH  11  12
ATOM     12  C   UNL     1       3.166  15.572  -6.990  1.00  0.00     0.066 C 
BRANCH  12  13
ATOM     13  C   UNL     1       4.304  14.894  -6.240  1.00  0.00     0.140 C 
ATOM     14  O   UNL     1       4.143  14.552  -5.077  1.00  0.00    -0.299 OA
BRANCH  13  15
ATOM     15  C   UNL     1       5.655  14.670  -6.876  1.00  0.00     0.106 CG0
ATOM     16  G   UNL     1       5.592  14.642  -8.391  1.00  0.00     0.000 G0
ENDBRANCH  13  15
ENDBRANCH  12  13
BRANCH  12  17
ATOM     17  C   UNL     1       2.577  16.794  -6.220  1.00  0.00    -0.006 C 
ATOM     18  C   UNL     1       3.687  17.752  -5.758  1.00  0.00     0.008 C 
ATOM     19  C   UNL     1       1.677  16.419  -5.030  1.00  0.00     0.008 C 
ENDBRANCH  12  17
ENDBRANCH  11  12
ENDBRANCH   1  11
TORSDOF 1
ENDMDL
MODEL 4
REMARK VINA RESULT:    -1.784      1.867      3.614
REMARK INTER + INTRA:          -0.685
REMARK INTER:                  -2.110
REMARK INTRA:                   1.425
REMARK UNBOUND:                 2.037
REMARK SMILES CC1=CCC[C@@H](C)C(=O)C[C@@H](C(C)C)C(=O)C1
REMARK SMILES IDX 8 1 9 2 6 3 7 4 5 5 4 6 3 7 2 8 1 9 10 11 11 12 15 13 16 14
REMARK SMILES IDX 17 15 12 17 13 18 14 19
REMARK H PARENT
REMARK Flexibility Score: 70.00
ROOT
ATOM      1  C   UNL     1       2.243  14.349  -7.206  1.00  0.00     0.136 C 
ATOM      2  O   UNL     1       2.115  13.324  -6.554  1.00  0.00    -0.299 OA
ENDROOT
BRANCH   1   3
ATOM      3  C   UNL     1       2.685  14.217  -8.661  1.00  0.00     0.053 C 
ATOM      4  C   UNL     1       2.998  12.782  -9.120  1.00  0.00     0.016 C 
BRANCH   3   5
ATOM      5  C   UNL     1       3.838  15.189  -9.021  1.00  0.00     0.015 C 
BRANCH   5   6
ATOM      6  C   UNL     1       5.239  14.549  -9.101  1.00  0.00     0.028 C 
BRANCH   6   7
ATOM      7  C   UNL     1       5.412  13.471  -8.055  1.00  0.00    -0.028 C 
ATOM      8  C   UNL     1       5.589  13.683  -6.732  1.00  0.00    -0.070 CG0
ATOM      9  C   UNL     1       5.734  12.479  -5.834  1.00  0.00     0.039 C 
ATOM     10  G   UNL     1       5.645  15.068  -6.116  1.00  0.00     0.000 G0
ENDBRANCH   6   7
ENDBRANCH   5   6
ENDBRANCH   3   5
ENDBRANCH   1   3
BRANCH   1  11
ATOM     11  C   UNL     1       2.022  15.670  -6.492  1.00  0.00     0.087 C 
BRANCH  11  12
ATOM     12  C   UNL     1       3.351  16.407  -6.203  1.00  0.00     0.066 C 
BRANCH  12  13
ATOM     13  C   UNL     1       4.325  15.496  -5.471  1.00  0.00     0.140 C 
ATOM     14  O   UNL     1       4.065  15.117  -4.338  1.00  0.00    -0.299 OA
BRANCH  13  15
ATOM     15  C   UNL     1       5.639  15.077  -6.086  1.00  0.00     0.106 CG0
ATOM     16  G   UNL     1       5.577  13.701  -6.721  1.00  0.00     0.000 G0
ENDBRANCH  13  15
ENDBRANCH  12  13
BRANCH  12  17
ATOM     17  C   UNL     1       3.126  17.765  -5.470  1.00  0.00    -0.006 C 
ATOM     18  C   UNL     1       1.694  18.283  -5.680  1.00  0.00     0.008 C 
ATOM     19  C   UNL     1       4.141  18.861  -5.837  1.00  0.00     0.008 C 
ENDBRANCH  12  17
ENDBRANCH  11  12
ENDBRANCH   1  11
TORSDOF 1
ENDMDL
MODEL 5
REMARK VINA RESULT:    -1.716      1.616      4.237
REMARK INTER + INTRA:          -0.581
REMARK INTER:                  -2.939
REMARK INTRA:                   2.358
REMARK UNBOUND:                 2.037
REMARK SMILES CC1=CCC[C@@H](C)C(=O)C[C@@H](C(C)C)C(=O)C1
REMARK SMILES IDX 8 1 9 2 6 3 7 4 5 5 4 6 3 7 2 8 1 9 10 11 11 12 15 13 16 14
REMARK SMILES IDX 17 15 12 17 13 18 14 19
REMARK H PARENT
REMARK Flexibility Score: 70.00
ROOT
ATOM      1  C   UNL     1       3.062  14.027  -5.124  1.00  0.00     0.136 C 
ATOM      2  O   UNL     1       3.398  13.342  -4.169  1.00  0.00    -0.299 OA
ENDROOT
BRANCH   1   3
ATOM      3  C   UNL     1       2.973  15.537  -4.921  1.00  0.00     0.053 C 
ATOM      4  C   UNL     1       1.574  16.142  -5.129  1.00  0.00     0.016 C 
BRANCH   3   5
ATOM      5  C   UNL     1       4.048  16.309  -5.731  1.00  0.00     0.015 C 
BRANCH   5   6
ATOM      6  C   UNL     1       3.634  16.706  -7.163  1.00  0.00     0.028 C 
BRANCH   6   7
ATOM      7  C   UNL     1       4.481  15.999  -8.197  1.00  0.00    -0.028 C 
ATOM      8  C   UNL     1       5.280  14.934  -7.962  1.00  0.00    -0.070 CG0
ATOM      9  C   UNL     1       6.046  14.352  -9.124  1.00  0.00     0.039 C 
ATOM     10  G   UNL     1       5.435  14.303  -6.591  1.00  0.00     0.000 G0
ENDBRANCH   6   7
ENDBRANCH   5   6
ENDBRANCH   3   5
ENDBRANCH   1   3
BRANCH   1  11
ATOM     11  C   UNL     1       2.691  13.310  -6.409  1.00  0.00     0.087 C 
BRANCH  11  12
ATOM     12  C   UNL     1       3.744  12.250  -6.812  1.00  0.00     0.066 C 
BRANCH  12  13
ATOM     13  C   UNL     1       5.153  12.799  -6.642  1.00  0.00     0.140 C 
ATOM     14  O   UNL     1       6.089  12.028  -6.488  1.00  0.00    -0.299 OA
BRANCH  13  15
ATOM     15  C   UNL     1       5.431  14.283  -6.609  1.00  0.00     0.106 CG0
ATOM     16  G   UNL     1       5.301  14.934  -7.973  1.00  0.00     0.000 G0
ENDBRANCH  13  15
ENDBRANCH  12  13
BRANCH  12  17
ATOM     17  C   UNL     1       3.487  11.674  -8.237  1.00  0.00    -0.006 C 
ATOM     18  C   UNL     1       2.615  12.623  -9.075  1.00  0.00     0.008 C 
ATOM     19  C   UNL     1       2.885  10.258  -8.251  1.00  0.00     0.008 C 
ENDBRANCH  12  17
ENDBRANCH  11  12
ENDBRANCH   1  11
TORSDOF 1
ENDMDL
MODEL 6
REMARK VINA RESULT:    -1.606      1.946      3.542
REMARK INTER + INTRA:          -0.415
REMARK INTER:                  -1.808
REMARK INTRA:                   1.394
REMARK UNBOUND:                 2.037
REMARK SMILES CC1=CCC[C@@H](C)C(=O)C[C@@H](C(C)C)C(=O)C1
REMARK SMILES IDX 8 1 9 2 6 3 7 4 5 5 4 6 3 7 2 8 1 9 10 11 11 12 15 13 16 14
REMARK SMILES IDX 17 15 12 17 13 18 14 19
REMARK H PARENT
REMARK Flexibility Score: 70.00
ROOT
ATOM      1  C   UNL     1       4.443  15.317  -8.363  1.00  0.00     0.136 C 
ATOM      2  O   UNL     1       4.141  16.421  -8.794  1.00  0.00    -0.299 OA
ENDROOT
BRANCH   1   3
ATOM      3  C   UNL     1       3.940  14.094  -9.124  1.00  0.00     0.053 C 
ATOM      4  C   UNL     1       2.531  13.616  -8.733  1.00  0.00     0.016 C 
BRANCH   3   5
ATOM      5  C   UNL     1       4.958  12.924  -9.105  1.00  0.00     0.015 C 
BRANCH   5   6
ATOM      6  C   UNL     1       4.619  11.771  -8.138  1.00  0.00     0.028 C 
BRANCH   6   7
ATOM      7  C   UNL     1       5.430  11.863  -6.865  1.00  0.00    -0.028 C 
ATOM      8  C   UNL     1       5.057  12.515  -5.742  1.00  0.00    -0.070 CG0
ATOM      9  C   UNL     1       5.996  12.490  -4.562  1.00  0.00     0.039 C 
ATOM     10  G   UNL     1       3.743  13.263  -5.618  1.00  0.00     0.000 G0
ENDBRANCH   6   7
ENDBRANCH   5   6
ENDBRANCH   3   5
ENDBRANCH   1   3
BRANCH   1  11
ATOM     11  C   UNL     1       5.231  15.259  -7.067  1.00  0.00     0.087 C 
BRANCH  11  12
ATOM     12  C   UNL     1       4.415  15.788  -5.863  1.00  0.00     0.066 C 
BRANCH  12  13
ATOM     13  C   UNL     1       3.829  14.635  -5.060  1.00  0.00     0.140 C 
ATOM     14  O   UNL     1       3.472  14.822  -3.906  1.00  0.00    -0.299 OA
BRANCH  13  15
ATOM     15  C   UNL     1       3.718  13.242  -5.631  1.00  0.00     0.106 CG0
ATOM     16  G   UNL     1       5.058  12.536  -5.720  1.00  0.00     0.000 G0
ENDBRANCH  13  15
ENDBRANCH  12  13
BRANCH  12  17
ATOM     17  C   UNL     1       3.340  16.833  -6.293  1.00  0.00    -0.006 C 
ATOM     18  C   UNL     1       3.747  18.256  -5.879  1.00  0.00     0.008 C 
ATOM     19  C   UNL     1       1.918  16.525  -5.790  1.00  0.00     0.008 C 
ENDBRANCH  12  17
ENDBRANCH  11  12
ENDBRANCH   1  11
TORSDOF 1
ENDMDL
MODEL 7
REMARK VINA RESULT:    -1.517      2.178      4.634
REMARK INTER + INTRA:          -0.277
REMARK INTER:                  -0.787
REMARK INTRA:                   0.510
REMARK UNBOUND:                 2.037
REMARK SMILES CC1=CCC[C@@H](C)C(=O)C[C@@H](C(C)C)C(=O)C1
REMARK SMILES IDX 8 1 9 2 6 3 7 4 5 5 4 6 3 7 2 8 1 9 10 11 11 12 15 13 16 14
REMARK SMILES IDX 17 15 12 17 13 18 14 19
REMARK H PARENT
REMARK Flexibility Score: 70.00
ROOT
ATOM      1  C   UNL     1       3.344  16.171  -7.105  1.00  0.00     0.136 C 
ATOM      2  O   UNL     1       3.810  17.222  -6.690  1.00  0.00    -0.299 OA
ENDROOT
BRANCH   1   3
ATOM      3  C   UNL     1       3.430  15.897  -8.604  1.00  0.00     0.053 C 
ATOM      4  C   UNL     1       2.602  14.696  -9.096  1.00  0.00     0.016 C 
BRANCH   3   5
ATOM      5  C   UNL     1       4.893  15.818  -9.110  1.00  0.00     0.015 C 
BRANCH   5   6
ATOM      6  C   UNL     1       5.737  14.674  -8.512  1.00  0.00     0.028 C 
BRANCH   6   7
ATOM      7  C   UNL     1       5.336  13.334  -9.089  1.00  0.00    -0.028 C 
ATOM      8  C   UNL     1       4.934  12.260  -8.373  1.00  0.00    -0.070 CG0
ATOM      9  C   UNL     1       4.562  11.006  -9.124  1.00  0.00     0.039 C 
ATOM     10  G   UNL     1       4.840  12.263  -6.859  1.00  0.00     0.000 G0
ENDBRANCH   6   7
ENDBRANCH   5   6
ENDBRANCH   3   5
ENDBRANCH   1   3
BRANCH   1  11
ATOM     11  C   UNL     1       2.657  15.262  -6.103  1.00  0.00     0.087 C 
BRANCH  11  12
ATOM     12  C   UNL     1       3.619  14.198  -5.524  1.00  0.00     0.066 C 
BRANCH  12  13
ATOM     13  C   UNL     1       3.578  12.924  -6.356  1.00  0.00     0.140 C 
ATOM     14  O   UNL     1       2.504  12.392  -6.596  1.00  0.00    -0.299 OA
BRANCH  13  15
ATOM     15  C   UNL     1       4.838  12.262  -6.860  1.00  0.00     0.106 CG0
ATOM     16  G   UNL     1       4.931  12.253  -8.374  1.00  0.00     0.000 G0
ENDBRANCH  13  15
ENDBRANCH  12  13
BRANCH  12  17
ATOM     17  C   UNL     1       3.368  13.938  -4.007  1.00  0.00    -0.006 C 
ATOM     18  C   UNL     1       3.408  15.246  -3.202  1.00  0.00     0.008 C 
ATOM     19  C   UNL     1       4.314  12.902  -3.375  1.00  0.00     0.008 C 
ENDBRANCH  12  17
ENDBRANCH  11  12
ENDBRANCH   1  11
TORSDOF 1
ENDMDL
MODEL 8
REMARK VINA RESULT:    -1.469      1.901      4.227
REMARK INTER + INTRA:          -0.204
REMARK INTER:                  -0.703
REMARK INTRA:                   0.499
REMARK UNBOUND:                 2.037
REMARK SMILES CC1=CCC[C@@H](C)C(=O)C[C@@H](C(C)C)C(=O)C1
REMARK SMILES IDX 8 1 9 2 6 3 7 4 5 5 4 6 3 7 2 8 1 9 10 11 11 12 15 13 16 14
REMARK SMILES IDX 17 15 12 17 13 18 14 19
REMARK H PARENT
REMARK Flexibility Score: 70.00
ROOT
ATOM      1  C   UNL     1       3.761  13.568  -5.341  1.00  0.00     0.136 C 
ATOM      2  O   UNL     1       4.647  12.874  -4.864  1.00  0.00    -0.299 OA
ENDROOT
BRANCH   1   3
ATOM      3  C   UNL     1       3.612  14.993  -4.813  1.00  0.00     0.053 C 
ATOM      4  C   UNL     1       3.203  15.100  -3.333  1.00  0.00     0.016 C 
BRANCH   3   5
ATOM      5  C   UNL     1       2.703  15.867  -5.715  1.00  0.00     0.015 C 
BRANCH   5   6
ATOM      6  C   UNL     1       3.435  16.934  -6.553  1.00  0.00     0.028 C 
BRANCH   6   7
ATOM      7  C   UNL     1       4.610  16.339  -7.297  1.00  0.00    -0.028 C 
ATOM      8  C   UNL     1       4.531  15.604  -8.428  1.00  0.00    -0.070 CG0
ATOM      9  C   UNL     1       5.816  15.100  -9.037  1.00  0.00     0.039 C 
ATOM     10  G   UNL     1       3.217  15.268  -9.107  1.00  0.00     0.000 G0
ENDBRANCH   6   7
ENDBRANCH   5   6
ENDBRANCH   3   5
ENDBRANCH   1   3
BRANCH   1  11
ATOM     11  C   UNL     1       2.840  12.930  -6.364  1.00  0.00     0.087 C 
BRANCH  11  12
ATOM     12  C   UNL     1       3.433  12.978  -7.793  1.00  0.00     0.066 C 
BRANCH  12  13
ATOM     13  C   UNL     1       2.645  13.938  -8.672  1.00  0.00     0.140 C 
ATOM     14  O   UNL     1       1.531  13.624  -9.065  1.00  0.00    -0.299 OA
BRANCH  13  15
ATOM     15  C   UNL     1       3.220  15.261  -9.120  1.00  0.00     0.106 CG0
ATOM     16  G   UNL     1       4.531  15.593  -8.433  1.00  0.00     0.000 G0
ENDBRANCH  13  15
ENDBRANCH  12  13
BRANCH  12  17
ATOM     17  C   UNL     1       3.572  11.557  -8.421  1.00  0.00    -0.006 C 
ATOM     18  C   UNL     1       2.634  10.549  -7.738  1.00  0.00     0.008 C 
ATOM     19  C   UNL     1       5.010  11.009  -8.441  1.00  0.00     0.008 C 
ENDBRANCH  12  17
ENDBRANCH  11  12
ENDBRANCH   1  11
TORSDOF 1
ENDMDL
MODEL 9
REMARK VINA RESULT:    -1.408      1.944      2.942
REMARK INTER + INTRA:          -0.111
REMARK INTER:                  -2.045
REMARK INTRA:                   1.934
REMARK UNBOUND:                 2.037
REMARK SMILES CC1=CCC[C@@H](C)C(=O)C[C@@H](C(C)C)C(=O)C1
REMARK SMILES IDX 8 1 9 2 6 3 7 4 5 5 4 6 3 7 2 8 1 9 10 11 11 12 15 13 16 14
REMARK SMILES IDX 17 15 12 17 13 18 14 19
REMARK H PARENT
REMARK Flexibility Score: 70.00
ROOT
ATOM      1  C   UNL     1       2.273  13.467  -7.017  1.00  0.00     0.136 C 
ATOM      2  O   UNL     1       1.489  14.275  -6.541  1.00  0.00    -0.299 OA
ENDROOT
BRANCH   1   3
ATOM      3  C   UNL     1       2.423  13.430  -8.535  1.00  0.00     0.053 C 
ATOM      4  C   UNL     1       3.313  12.296  -9.075  1.00  0.00     0.016 C 
BRANCH   3   5
ATOM      5  C   UNL     1       2.838  14.802  -9.124  1.00  0.00     0.015 C 
BRANCH   5   6
ATOM      6  C   UNL     1       4.119  15.417  -8.525  1.00  0.00     0.028 C 
BRANCH   6   7
ATOM      7  C   UNL     1       3.808  16.652  -7.709  1.00  0.00    -0.028 C 
ATOM      8  C   UNL     1       4.113  16.827  -6.404  1.00  0.00    -0.070 CG0
ATOM      9  C   UNL     1       3.731  18.135  -5.756  1.00  0.00     0.039 C 
ATOM     10  G   UNL     1       4.818  15.774  -5.570  1.00  0.00     0.000 G0
ENDBRANCH   6   7
ENDBRANCH   5   6
ENDBRANCH   3   5
ENDBRANCH   1   3
BRANCH   1  11
ATOM     11  C   UNL     1       2.976  12.522  -6.060  1.00  0.00     0.087 C 
BRANCH  11  12
ATOM     12  C   UNL     1       4.169  13.198  -5.343  1.00  0.00     0.066 C 
BRANCH  12  13
ATOM     13  C   UNL     1       3.881  14.670  -5.086  1.00  0.00     0.140 C 
ATOM     14  O   UNL     1       2.857  14.993  -4.502  1.00  0.00    -0.299 OA
BRANCH  13  15
ATOM     15  C   UNL     1       4.805  15.759  -5.576  1.00  0.00     0.106 CG0
ATOM     16  G   UNL     1       4.085  16.814  -6.394  1.00  0.00     0.000 G0
ENDBRANCH  13  15
ENDBRANCH  12  13
BRANCH  12  17
ATOM     17  C   UNL     1       5.516  12.967  -6.095  1.00  0.00    -0.006 C 
ATOM     18  C   UNL     1       5.360  11.930  -7.217  1.00  0.00     0.008 C 
ATOM     19  C   UNL     1       6.694  12.582  -5.182  1.00  0.00     0.008 C 
ENDBRANCH  12  17
ENDBRANCH  11  12
ENDBRANCH   1  11
TORSDOF 1
ENDMDL
