MODEL 1
REMARK VINA RESULT:    -3.981      0.000      0.000
REMARK INTER + INTRA:          -9.608
REMARK INTER:                  -7.472
REMARK INTRA:                  -2.137
REMARK UNBOUND:                -2.137
REMARK SMILES O=C([O-])CCCCCCCCCCCCCCC(=O)[O-]
REMARK SMILES IDX 10 1 9 2 8 3 7 4 6 5 5 6 4 7 2 8 1 9 3 10 11 11 12 12 13 13
REMARK SMILES IDX 14 14 15 15 16 16 17 17 18 18 19 19 20 20
REMARK H PARENT
REMARK Flexibility Score: inf
ROOT
ATOM      1  C   UNL     1     161.876 175.658 183.971  1.00  0.00     0.000 C 
ENDROOT
BRANCH   1   2
ATOM      2  C   UNL     1     160.636 174.762 183.820  1.00  0.00     0.000 C 
BRANCH   2   3
ATOM      3  C   UNL     1     160.422 173.825 185.024  1.00  0.00     0.000 C 
BRANCH   3   4
ATOM      4  C   UNL     1     161.624 173.703 185.980  1.00  0.00     0.000 C 
BRANCH   4   5
ATOM      5  C   UNL     1     161.266 173.414 187.450  1.00  0.00     0.000 C 
BRANCH   5   6
ATOM      6  C   UNL     1     161.865 172.099 187.990  1.00  0.00     0.006 C 
BRANCH   6   7
ATOM      7  C   UNL     1     160.812 170.994 188.148  1.00  0.00     0.053 C 
BRANCH   7   8
ATOM      8  C   UNL     1     160.863 170.054 186.985  1.00  0.00     0.041 C 
ATOM      9  O   UNL     1     161.457 168.950 187.088  1.00  0.00    -0.550 OA
ATOM     10  O   UNL     1     160.212 170.378 185.801  1.00  0.00    -0.550 OA
ENDBRANCH   7   8
ENDBRANCH   6   7
ENDBRANCH   5   6
ENDBRANCH   4   5
ENDBRANCH   3   4
ENDBRANCH   2   3
ENDBRANCH   1   2
BRANCH   1  11
ATOM     11  C   UNL     1     161.536 177.160 183.985  1.00  0.00     0.000 C 
BRANCH  11  12
ATOM     12  C   UNL     1     160.288 177.544 184.801  1.00  0.00     0.000 C 
BRANCH  12  13
ATOM     13  C   UNL     1     160.631 178.198 186.150  1.00  0.00     0.000 C 
BRANCH  13  14
ATOM     14  C   UNL     1     160.833 177.164 187.270  1.00  0.00     0.000 C 
BRANCH  14  15
ATOM     15  C   UNL     1     162.061 177.476 188.143  1.00  0.00     0.000 C 
BRANCH  15  16
ATOM     16  C   UNL     1     163.257 176.553 187.839  1.00  0.00     0.006 C 
BRANCH  16  17
ATOM     17  C   UNL     1     164.081 176.969 186.610  1.00  0.00     0.053 C 
BRANCH  17  18
ATOM     18  C   UNL     1     164.969 178.141 186.897  1.00  0.00     0.041 C 
ATOM     19  O   UNL     1     166.163 177.960 187.251  1.00  0.00    -0.550 OA
ATOM     20  O   UNL     1     164.466 179.434 186.806  1.00  0.00    -0.550 OA
ENDBRANCH  17  18
ENDBRANCH  16  17
ENDBRANCH  15  16
ENDBRANCH  14  15
ENDBRANCH  13  14
ENDBRANCH  12  13
ENDBRANCH  11  12
ENDBRANCH   1  11
TORSDOF 15
ENDMDL
MODEL 2
REMARK VINA RESULT:    -3.941      3.606      7.717
REMARK INTER + INTRA:          -9.534
REMARK INTER:                  -8.034
REMARK INTRA:                  -1.500
REMARK UNBOUND:                -2.137
REMARK SMILES O=C([O-])CCCCCCCCCCCCCCC(=O)[O-]
REMARK SMILES IDX 10 1 9 2 8 3 7 4 6 5 5 6 4 7 2 8 1 9 3 10 11 11 12 12 13 13
REMARK SMILES IDX 14 14 15 15 16 16 17 17 18 18 19 19 20 20
REMARK H PARENT
REMARK Flexibility Score: inf
ROOT
ATOM      1  C   UNL     1     164.260 177.364 186.824  1.00  0.00     0.000 C 
ENDROOT
BRANCH   1   2
ATOM      2  C   UNL     1     165.344 178.178 186.098  1.00  0.00     0.000 C 
BRANCH   2   3
ATOM      3  C   UNL     1     166.714 177.475 186.084  1.00  0.00     0.000 C 
BRANCH   3   4
ATOM      4  C   UNL     1     167.228 177.016 187.462  1.00  0.00     0.000 C 
BRANCH   4   5
ATOM      5  C   UNL     1     168.080 178.050 188.221  1.00  0.00     0.000 C 
BRANCH   5   6
ATOM      6  C   UNL     1     169.571 178.044 187.822  1.00  0.00     0.006 C 
BRANCH   6   7
ATOM      7  C   UNL     1     170.113 179.454 187.549  1.00  0.00     0.053 C 
BRANCH   7   8
ATOM      8  C   UNL     1     170.313 179.661 186.081  1.00  0.00     0.041 C 
ATOM      9  O   UNL     1     171.476 179.734 185.604  1.00  0.00    -0.550 OA
ATOM     10  O   UNL     1     169.215 179.726 185.232  1.00  0.00    -0.550 OA
ENDBRANCH   7   8
ENDBRANCH   6   7
ENDBRANCH   5   6
ENDBRANCH   4   5
ENDBRANCH   3   4
ENDBRANCH   2   3
ENDBRANCH   1   2
BRANCH   1  11
ATOM     11  C   UNL     1     163.140 178.243 187.411  1.00  0.00     0.000 C 
BRANCH  11  12
ATOM     12  C   UNL     1     162.133 177.509 188.316  1.00  0.00     0.000 C 
BRANCH  12  13
ATOM     13  C   UNL     1     160.881 177.035 187.560  1.00  0.00     0.000 C 
BRANCH  13  14
ATOM     14  C   UNL     1     160.697 175.509 187.624  1.00  0.00     0.000 C 
BRANCH  14  15
ATOM     15  C   UNL     1     161.230 174.800 186.367  1.00  0.00     0.000 C 
BRANCH  15  16
ATOM     16  C   UNL     1     160.858 175.537 185.065  1.00  0.00     0.006 C 
BRANCH  16  17
ATOM     17  C   UNL     1     162.063 176.059 184.267  1.00  0.00     0.053 C 
BRANCH  17  18
ATOM     18  C   UNL     1     161.935 177.516 183.943  1.00  0.00     0.041 C 
ATOM     19  O   UNL     1     160.848 178.117 184.143  1.00  0.00    -0.550 OA
ATOM     20  O   UNL     1     163.010 178.202 183.387  1.00  0.00    -0.550 OA
ENDBRANCH  17  18
ENDBRANCH  16  17
ENDBRANCH  15  16
ENDBRANCH  14  15
ENDBRANCH  13  14
ENDBRANCH  12  13
ENDBRANCH  11  12
ENDBRANCH   1  11
TORSDOF 15
ENDMDL
MODEL 3
REMARK VINA RESULT:    -3.898      3.699      5.713
REMARK INTER + INTRA:          -9.453
REMARK INTER:                  -7.321
REMARK INTRA:                  -2.132
REMARK UNBOUND:                -2.137
REMARK SMILES O=C([O-])CCCCCCCCCCCCCCC(=O)[O-]
REMARK SMILES IDX 10 1 9 2 8 3 7 4 6 5 5 6 4 7 2 8 1 9 3 10 11 11 12 12 13 13
REMARK SMILES IDX 14 14 15 15 16 16 17 17 18 18 19 19 20 20
REMARK H PARENT
REMARK Flexibility Score: inf
ROOT
ATOM      1  C   UNL     1     161.585 177.891 185.687  1.00  0.00     0.000 C 
ENDROOT
BRANCH   1   2
ATOM      2  C   UNL     1     160.240 177.898 184.942  1.00  0.00     0.000 C 
BRANCH   2   3
ATOM      3  C   UNL     1     160.219 176.944 183.733  1.00  0.00     0.000 C 
BRANCH   3   4
ATOM      4  C   UNL     1     161.288 175.835 183.756  1.00  0.00     0.000 C 
BRANCH   4   5
ATOM      5  C   UNL     1     161.840 175.428 182.376  1.00  0.00     0.000 C 
BRANCH   5   6
ATOM      6  C   UNL     1     161.203 176.196 181.199  1.00  0.00     0.006 C 
BRANCH   6   7
ATOM      7  C   UNL     1     162.186 177.165 180.528  1.00  0.00     0.053 C 
BRANCH   7   8
ATOM      8  C   UNL     1     162.216 178.469 181.260  1.00  0.00     0.041 C 
ATOM      9  O   UNL     1     161.335 179.340 181.038  1.00  0.00    -0.550 OA
ATOM     10  O   UNL     1     163.189 178.704 182.222  1.00  0.00    -0.550 OA
ENDBRANCH   7   8
ENDBRANCH   6   7
ENDBRANCH   5   6
ENDBRANCH   4   5
ENDBRANCH   3   4
ENDBRANCH   2   3
ENDBRANCH   1   2
BRANCH   1  11
ATOM     11  C   UNL     1     161.446 178.226 187.184  1.00  0.00     0.000 C 
BRANCH  11  12
ATOM     12  C   UNL     1     161.895 177.116 188.151  1.00  0.00     0.000 C 
BRANCH  12  13
ATOM     13  C   UNL     1     161.830 175.712 187.525  1.00  0.00     0.000 C 
BRANCH  13  14
ATOM     14  C   UNL     1     163.166 174.958 187.633  1.00  0.00     0.000 C 
BRANCH  14  15
ATOM     15  C   UNL     1     163.758 174.612 186.255  1.00  0.00     0.000 C 
BRANCH  15  16
ATOM     16  C   UNL     1     165.061 175.379 185.958  1.00  0.00     0.006 C 
BRANCH  16  17
ATOM     17  C   UNL     1     165.307 176.588 186.873  1.00  0.00     0.053 C 
BRANCH  17  18
ATOM     18  C   UNL     1     165.128 177.888 186.151  1.00  0.00     0.041 C 
ATOM     19  O   UNL     1     164.988 178.958 186.798  1.00  0.00    -0.550 OA
ATOM     20  O   UNL     1     165.080 177.911 184.762  1.00  0.00    -0.550 OA
ENDBRANCH  17  18
ENDBRANCH  16  17
ENDBRANCH  15  16
ENDBRANCH  14  15
ENDBRANCH  13  14
ENDBRANCH  12  13
ENDBRANCH  11  12
ENDBRANCH   1  11
TORSDOF 15
ENDMDL
MODEL 4
REMARK VINA RESULT:    -3.872      2.697      5.855
REMARK INTER + INTRA:          -9.404
REMARK INTER:                  -6.729
REMARK INTRA:                  -2.676
REMARK UNBOUND:                -2.137
REMARK SMILES O=C([O-])CCCCCCCCCCCCCCC(=O)[O-]
REMARK SMILES IDX 10 1 9 2 8 3 7 4 6 5 5 6 4 7 2 8 1 9 3 10 11 11 12 12 13 13
REMARK SMILES IDX 14 14 15 15 16 16 17 17 18 18 19 19 20 20
REMARK H PARENT
REMARK Flexibility Score: inf
ROOT
ATOM      1  C   UNL     1     162.565 177.408 187.992  1.00  0.00     0.000 C 
ENDROOT
BRANCH   1   2
ATOM      2  C   UNL     1     161.130 177.186 187.488  1.00  0.00     0.000 C 
BRANCH   2   3
ATOM      3  C   UNL     1     160.688 178.238 186.452  1.00  0.00     0.000 C 
BRANCH   3   4
ATOM      4  C   UNL     1     160.418 177.690 185.038  1.00  0.00     0.000 C 
BRANCH   4   5
ATOM      5  C   UNL     1     160.957 176.272 184.770  1.00  0.00     0.000 C 
BRANCH   5   6
ATOM      6  C   UNL     1     161.257 175.990 183.282  1.00  0.00     0.006 C 
BRANCH   6   7
ATOM      7  C   UNL     1     161.271 177.268 182.433  1.00  0.00     0.053 C 
BRANCH   7   8
ATOM      8  C   UNL     1     162.668 177.600 182.013  1.00  0.00     0.041 C 
ATOM      9  O   UNL     1     163.443 176.691 181.618  1.00  0.00    -0.550 OA
ATOM     10  O   UNL     1     163.098 178.921 182.012  1.00  0.00    -0.550 OA
ENDBRANCH   7   8
ENDBRANCH   6   7
ENDBRANCH   5   6
ENDBRANCH   4   5
ENDBRANCH   3   4
ENDBRANCH   2   3
ENDBRANCH   1   2
BRANCH   1  11
ATOM     11  C   UNL     1     163.236 178.648 187.370  1.00  0.00     0.000 C 
BRANCH  11  12
ATOM     12  C   UNL     1     164.566 178.380 186.641  1.00  0.00     0.000 C 
BRANCH  12  13
ATOM     13  C   UNL     1     164.370 177.908 185.190  1.00  0.00     0.000 C 
BRANCH  13  14
ATOM     14  C   UNL     1     164.641 176.403 185.021  1.00  0.00     0.000 C 
BRANCH  14  15
ATOM     15  C   UNL     1     165.431 175.812 186.201  1.00  0.00     0.000 C 
BRANCH  15  16
ATOM     16  C   UNL     1     165.073 174.339 186.479  1.00  0.00     0.006 C 
BRANCH  16  17
ATOM     17  C   UNL     1     163.607 173.978 186.188  1.00  0.00     0.053 C 
BRANCH  17  18
ATOM     18  C   UNL     1     162.824 173.747 187.444  1.00  0.00     0.041 C 
ATOM     19  O   UNL     1     163.418 173.615 188.546  1.00  0.00    -0.550 OA
ATOM     20  O   UNL     1     161.439 173.643 187.391  1.00  0.00    -0.550 OA
ENDBRANCH  17  18
ENDBRANCH  16  17
ENDBRANCH  15  16
ENDBRANCH  14  15
ENDBRANCH  13  14
ENDBRANCH  12  13
ENDBRANCH  11  12
ENDBRANCH   1  11
TORSDOF 15
ENDMDL
MODEL 5
REMARK VINA RESULT:    -3.819      2.203      6.301
REMARK INTER + INTRA:          -9.305
REMARK INTER:                  -7.063
REMARK INTRA:                  -2.242
REMARK UNBOUND:                -2.137
REMARK SMILES O=C([O-])CCCCCCCCCCCCCCC(=O)[O-]
REMARK SMILES IDX 10 1 9 2 8 3 7 4 6 5 5 6 4 7 2 8 1 9 3 10 11 11 12 12 13 13
REMARK SMILES IDX 14 14 15 15 16 16 17 17 18 18 19 19 20 20
REMARK H PARENT
REMARK Flexibility Score: inf
ROOT
ATOM      1  C   UNL     1     164.266 176.455 187.105  1.00  0.00     0.000 C 
ENDROOT
BRANCH   1   2
ATOM      2  C   UNL     1     163.262 177.561 187.467  1.00  0.00     0.000 C 
BRANCH   2   3
ATOM      3  C   UNL     1     162.014 177.025 188.194  1.00  0.00     0.000 C 
BRANCH   3   4
ATOM      4  C   UNL     1     160.707 177.082 187.381  1.00  0.00     0.000 C 
BRANCH   4   5
ATOM      5  C   UNL     1     160.613 178.243 186.373  1.00  0.00     0.000 C 
BRANCH   5   6
ATOM      6  C   UNL     1     160.319 177.790 184.927  1.00  0.00     0.006 C 
BRANCH   6   7
ATOM      7  C   UNL     1     161.162 176.578 184.508  1.00  0.00     0.053 C 
BRANCH   7   8
ATOM      8  C   UNL     1     162.394 177.025 183.785  1.00  0.00     0.041 C 
ATOM      9  O   UNL     1     162.549 178.238 183.487  1.00  0.00    -0.550 OA
ATOM     10  O   UNL     1     163.394 176.109 183.484  1.00  0.00    -0.550 OA
ENDBRANCH   7   8
ENDBRANCH   6   7
ENDBRANCH   5   6
ENDBRANCH   4   5
ENDBRANCH   3   4
ENDBRANCH   2   3
ENDBRANCH   1   2
BRANCH   1  11
ATOM     11  C   UNL     1     163.749 175.042 187.435  1.00  0.00     0.000 C 
BRANCH  11  12
ATOM     12  C   UNL     1     163.560 174.111 186.223  1.00  0.00     0.000 C 
BRANCH  12  13
ATOM     13  C   UNL     1     162.185 173.422 186.204  1.00  0.00     0.000 C 
BRANCH  13  14
ATOM     14  C   UNL     1     161.561 173.316 187.606  1.00  0.00     0.000 C 
BRANCH  14  15
ATOM     15  C   UNL     1     160.754 172.020 187.794  1.00  0.00     0.000 C 
BRANCH  15  16
ATOM     16  C   UNL     1     161.504 170.968 188.634  1.00  0.00     0.006 C 
BRANCH  16  17
ATOM     17  C   UNL     1     162.794 171.485 189.291  1.00  0.00     0.053 C 
BRANCH  17  18
ATOM     18  C   UNL     1     164.017 170.843 188.713  1.00  0.00     0.041 C 
ATOM     19  O   UNL     1     164.070 169.593 188.569  1.00  0.00    -0.550 OA
ATOM     20  O   UNL     1     165.115 171.623 188.365  1.00  0.00    -0.550 OA
ENDBRANCH  17  18
ENDBRANCH  16  17
ENDBRANCH  15  16
ENDBRANCH  14  15
ENDBRANCH  13  14
ENDBRANCH  12  13
ENDBRANCH  11  12
ENDBRANCH   1  11
TORSDOF 15
ENDMDL
MODEL 6
REMARK VINA RESULT:    -3.806      1.539      2.910
REMARK INTER + INTRA:          -9.281
REMARK INTER:                  -6.909
REMARK INTRA:                  -2.371
REMARK UNBOUND:                -2.137
REMARK SMILES O=C([O-])CCCCCCCCCCCCCCC(=O)[O-]
REMARK SMILES IDX 10 1 9 2 8 3 7 4 6 5 5 6 4 7 2 8 1 9 3 10 11 11 12 12 13 13
REMARK SMILES IDX 14 14 15 15 16 16 17 17 18 18 19 19 20 20
REMARK H PARENT
REMARK Flexibility Score: inf
ROOT
ATOM      1  C   UNL     1     160.258 177.614 184.496  1.00  0.00     0.000 C 
ENDROOT
BRANCH   1   2
ATOM      2  C   UNL     1     161.297 177.928 185.585  1.00  0.00     0.000 C 
BRANCH   2   3
ATOM      3  C   UNL     1     160.697 177.930 187.003  1.00  0.00     0.000 C 
BRANCH   3   4
ATOM      4  C   UNL     1     161.046 176.700 187.863  1.00  0.00     0.000 C 
BRANCH   4   5
ATOM      5  C   UNL     1     160.254 175.421 187.529  1.00  0.00     0.000 C 
BRANCH   5   6
ATOM      6  C   UNL     1     161.117 174.298 186.916  1.00  0.00     0.006 C 
BRANCH   6   7
ATOM      7  C   UNL     1     160.307 173.367 186.002  1.00  0.00     0.053 C 
BRANCH   7   8
ATOM      8  C   UNL     1     160.584 171.936 186.338  1.00  0.00     0.041 C 
ATOM      9  O   UNL     1     161.122 171.636 187.436  1.00  0.00    -0.550 OA
ATOM     10  O   UNL     1     160.203 170.930 185.460  1.00  0.00    -0.550 OA
ENDBRANCH   7   8
ENDBRANCH   6   7
ENDBRANCH   5   6
ENDBRANCH   4   5
ENDBRANCH   3   4
ENDBRANCH   2   3
ENDBRANCH   1   2
BRANCH   1  11
ATOM     11  C   UNL     1     160.558 176.308 183.736  1.00  0.00     0.000 C 
BRANCH  11  12
ATOM     12  C   UNL     1     161.902 176.278 182.985  1.00  0.00     0.000 C 
BRANCH  12  13
ATOM     13  C   UNL     1     162.913 175.297 183.604  1.00  0.00     0.000 C 
BRANCH  13  14
ATOM     14  C   UNL     1     163.955 176.005 184.485  1.00  0.00     0.000 C 
BRANCH  14  15
ATOM     15  C   UNL     1     164.384 175.150 185.690  1.00  0.00     0.000 C 
BRANCH  15  16
ATOM     16  C   UNL     1     164.464 175.962 186.998  1.00  0.00     0.006 C 
BRANCH  16  17
ATOM     17  C   UNL     1     164.905 177.422 186.810  1.00  0.00     0.053 C 
BRANCH  17  18
ATOM     18  C   UNL     1     166.391 177.550 186.671  1.00  0.00     0.041 C 
ATOM     19  O   UNL     1     167.156 176.897 187.428  1.00  0.00    -0.550 OA
ATOM     20  O   UNL     1     166.930 178.417 185.728  1.00  0.00    -0.550 OA
ENDBRANCH  17  18
ENDBRANCH  16  17
ENDBRANCH  15  16
ENDBRANCH  14  15
ENDBRANCH  13  14
ENDBRANCH  12  13
ENDBRANCH  11  12
ENDBRANCH   1  11
TORSDOF 15
ENDMDL
MODEL 7
REMARK VINA RESULT:    -3.798      3.642      5.288
REMARK INTER + INTRA:          -9.265
REMARK INTER:                  -6.900
REMARK INTRA:                  -2.365
REMARK UNBOUND:                -2.137
REMARK SMILES O=C([O-])CCCCCCCCCCCCCCC(=O)[O-]
REMARK SMILES IDX 10 1 9 2 8 3 7 4 6 5 5 6 4 7 2 8 1 9 3 10 11 11 12 12 13 13
REMARK SMILES IDX 14 14 15 15 16 16 17 17 18 18 19 19 20 20
REMARK H PARENT
REMARK Flexibility Score: inf
ROOT
ATOM      1  C   UNL     1     160.525 175.546 187.388  1.00  0.00     0.000 C 
ENDROOT
BRANCH   1   2
ATOM      2  C   UNL     1     161.750 174.620 187.323  1.00  0.00     0.000 C 
BRANCH   2   3
ATOM      3  C   UNL     1     161.924 173.951 185.946  1.00  0.00     0.000 C 
BRANCH   3   4
ATOM      4  C   UNL     1     161.162 174.626 184.790  1.00  0.00     0.000 C 
BRANCH   4   5
ATOM      5  C   UNL     1     162.019 174.987 183.562  1.00  0.00     0.000 C 
BRANCH   5   6
ATOM      6  C   UNL     1     161.411 176.101 182.683  1.00  0.00     0.006 C 
BRANCH   6   7
ATOM      7  C   UNL     1     162.418 176.668 181.673  1.00  0.00     0.053 C 
BRANCH   7   8
ATOM      8  C   UNL     1     162.549 178.149 181.842  1.00  0.00     0.041 C 
ATOM      9  O   UNL     1     163.450 178.624 182.581  1.00  0.00    -0.550 OA
ATOM     10  O   UNL     1     161.707 179.005 181.144  1.00  0.00    -0.550 OA
ENDBRANCH   7   8
ENDBRANCH   6   7
ENDBRANCH   5   6
ENDBRANCH   4   5
ENDBRANCH   3   4
ENDBRANCH   2   3
ENDBRANCH   1   2
BRANCH   1  11
ATOM     11  C   UNL     1     160.870 176.967 187.874  1.00  0.00     0.000 C 
BRANCH  11  12
ATOM     12  C   UNL     1     160.713 178.079 186.820  1.00  0.00     0.000 C 
BRANCH  12  13
ATOM     13  C   UNL     1     161.767 177.999 185.702  1.00  0.00     0.000 C 
BRANCH  13  14
ATOM     14  C   UNL     1     163.201 178.154 186.235  1.00  0.00     0.000 C 
BRANCH  14  15
ATOM     15  C   UNL     1     164.172 177.136 185.611  1.00  0.00     0.000 C 
BRANCH  15  16
ATOM     16  C   UNL     1     165.017 176.396 186.666  1.00  0.00     0.006 C 
BRANCH  16  17
ATOM     17  C   UNL     1     166.265 177.162 187.130  1.00  0.00     0.053 C 
BRANCH  17  18
ATOM     18  C   UNL     1     167.257 177.347 186.024  1.00  0.00     0.041 C 
ATOM     19  O   UNL     1     167.907 176.363 185.584  1.00  0.00    -0.550 OA
ATOM     20  O   UNL     1     167.488 178.615 185.501  1.00  0.00    -0.550 OA
ENDBRANCH  17  18
ENDBRANCH  16  17
ENDBRANCH  15  16
ENDBRANCH  14  15
ENDBRANCH  13  14
ENDBRANCH  12  13
ENDBRANCH  11  12
ENDBRANCH   1  11
TORSDOF 15
ENDMDL
MODEL 8
REMARK VINA RESULT:    -3.789      1.761      2.731
REMARK INTER + INTRA:          -9.248
REMARK INTER:                  -6.923
REMARK INTRA:                  -2.324
REMARK UNBOUND:                -2.137
REMARK SMILES O=C([O-])CCCCCCCCCCCCCCC(=O)[O-]
REMARK SMILES IDX 10 1 9 2 8 3 7 4 6 5 5 6 4 7 2 8 1 9 3 10 11 11 12 12 13 13
REMARK SMILES IDX 14 14 15 15 16 16 17 17 18 18 19 19 20 20
REMARK H PARENT
REMARK Flexibility Score: inf
ROOT
ATOM      1  C   UNL     1     160.247 177.554 184.898  1.00  0.00     0.000 C 
ENDROOT
BRANCH   1   2
ATOM      2  C   UNL     1     161.444 176.863 184.224  1.00  0.00     0.000 C 
BRANCH   2   3
ATOM      3  C   UNL     1     161.233 175.349 184.034  1.00  0.00     0.000 C 
BRANCH   3   4
ATOM      4  C   UNL     1     161.589 174.480 185.255  1.00  0.00     0.000 C 
BRANCH   4   5
ATOM      5  C   UNL     1     160.387 174.005 186.095  1.00  0.00     0.000 C 
BRANCH   5   6
ATOM      6  C   UNL     1     160.783 173.364 187.442  1.00  0.00     0.006 C 
BRANCH   6   7
ATOM      7  C   UNL     1     162.252 173.619 187.805  1.00  0.00     0.053 C 
BRANCH   7   8
ATOM      8  C   UNL     1     162.906 172.351 188.255  1.00  0.00     0.041 C 
ATOM      9  O   UNL     1     164.161 172.251 188.253  1.00  0.00    -0.550 OA
ATOM     10  O   UNL     1     162.132 171.297 188.722  1.00  0.00    -0.550 OA
ENDBRANCH   7   8
ENDBRANCH   6   7
ENDBRANCH   5   6
ENDBRANCH   4   5
ENDBRANCH   3   4
ENDBRANCH   2   3
ENDBRANCH   1   2
BRANCH   1  11
ATOM     11  C   UNL     1     160.622 178.256 186.217  1.00  0.00     0.000 C 
BRANCH  11  12
ATOM     12  C   UNL     1     160.704 177.339 187.451  1.00  0.00     0.000 C 
BRANCH  12  13
ATOM     13  C   UNL     1     162.000 177.532 188.257  1.00  0.00     0.000 C 
BRANCH  13  14
ATOM     14  C   UNL     1     163.249 177.096 187.474  1.00  0.00     0.000 C 
BRANCH  14  15
ATOM     15  C   UNL     1     164.170 178.279 187.130  1.00  0.00     0.000 C 
BRANCH  15  16
ATOM     16  C   UNL     1     164.327 178.488 185.611  1.00  0.00     0.006 C 
BRANCH  16  17
ATOM     17  C   UNL     1     165.323 177.530 184.940  1.00  0.00     0.053 C 
BRANCH  17  18
ATOM     18  C   UNL     1     166.633 177.479 185.665  1.00  0.00     0.041 C 
ATOM     19  O   UNL     1     167.424 178.456 185.613  1.00  0.00    -0.550 OA
ATOM     20  O   UNL     1     166.993 176.337 186.371  1.00  0.00    -0.550 OA
ENDBRANCH  17  18
ENDBRANCH  16  17
ENDBRANCH  15  16
ENDBRANCH  14  15
ENDBRANCH  13  14
ENDBRANCH  12  13
ENDBRANCH  11  12
ENDBRANCH   1  11
TORSDOF 15
ENDMDL
MODEL 9
REMARK VINA RESULT:    -3.785      2.205      6.481
REMARK INTER + INTRA:          -9.241
REMARK INTER:                  -7.208
REMARK INTRA:                  -2.033
REMARK UNBOUND:                -2.137
REMARK SMILES O=C([O-])CCCCCCCCCCCCCCC(=O)[O-]
REMARK SMILES IDX 10 1 9 2 8 3 7 4 6 5 5 6 4 7 2 8 1 9 3 10 11 11 12 12 13 13
REMARK SMILES IDX 14 14 15 15 16 16 17 17 18 18 19 19 20 20
REMARK H PARENT
REMARK Flexibility Score: inf
ROOT
ATOM      1  C   UNL     1     164.658 176.565 184.659  1.00  0.00     0.000 C 
ENDROOT
BRANCH   1   2
ATOM      2  C   UNL     1     164.345 177.989 185.146  1.00  0.00     0.000 C 
BRANCH   2   3
ATOM      3  C   UNL     1     164.539 178.160 186.665  1.00  0.00     0.000 C 
BRANCH   3   4
ATOM      4  C   UNL     1     163.283 178.600 187.440  1.00  0.00     0.000 C 
BRANCH   4   5
ATOM      5  C   UNL     1     162.500 177.460 188.120  1.00  0.00     0.000 C 
BRANCH   5   6
ATOM      6  C   UNL     1     161.023 177.372 187.681  1.00  0.00     0.006 C 
BRANCH   6   7
ATOM      7  C   UNL     1     160.712 178.272 186.477  1.00  0.00     0.053 C 
BRANCH   7   8
ATOM      8  C   UNL     1     160.643 177.459 185.223  1.00  0.00     0.041 C 
ATOM      9  O   UNL     1     160.268 176.258 185.266  1.00  0.00    -0.550 OA
ATOM     10  O   UNL     1     160.945 178.042 183.999  1.00  0.00    -0.550 OA
ENDBRANCH   7   8
ENDBRANCH   6   7
ENDBRANCH   5   6
ENDBRANCH   4   5
ENDBRANCH   3   4
ENDBRANCH   2   3
ENDBRANCH   1   2
BRANCH   1  11
ATOM     11  C   UNL     1     164.886 175.571 185.813  1.00  0.00     0.000 C 
BRANCH  11  12
ATOM     12  C   UNL     1     163.703 174.634 186.119  1.00  0.00     0.000 C 
BRANCH  12  13
ATOM     13  C   UNL     1     163.709 174.112 187.566  1.00  0.00     0.000 C 
BRANCH  13  14
ATOM     14  C   UNL     1     162.526 173.174 187.858  1.00  0.00     0.000 C 
BRANCH  14  15
ATOM     15  C   UNL     1     161.172 173.805 187.489  1.00  0.00     0.000 C 
BRANCH  15  16
ATOM     16  C   UNL     1     160.247 172.830 186.735  1.00  0.00     0.006 C 
BRANCH  16  17
ATOM     17  C   UNL     1     160.984 171.699 186.001  1.00  0.00     0.053 C 
BRANCH  17  18
ATOM     18  C   UNL     1     160.592 170.346 186.512  1.00  0.00     0.041 C 
ATOM     19  O   UNL     1     160.709 170.072 187.735  1.00  0.00    -0.550 OA
ATOM     20  O   UNL     1     160.129 169.376 185.630  1.00  0.00    -0.550 OA
ENDBRANCH  17  18
ENDBRANCH  16  17
ENDBRANCH  15  16
ENDBRANCH  14  15
ENDBRANCH  13  14
ENDBRANCH  12  13
ENDBRANCH  11  12
ENDBRANCH   1  11
TORSDOF 15
ENDMDL
