MODEL 1
REMARK VINA RESULT:    -6.264      0.000      0.000
REMARK INTER + INTRA:          -6.846
REMARK INTER:                  -6.813
REMARK INTRA:                  -0.032
REMARK UNBOUND:                -0.032
REMARK SMILES COc1cc2ccc(=O)oc2cc1O
REMARK SMILES IDX 3 1 13 2 12 3 11 4 5 5 4 6 6 7 7 8 8 9 9 10 10 11 2 12 1 13
REMARK SMILES IDX 14 14
REMARK H PARENT 14 15
REMARK Flexibility Score: inf
ROOT
ATOM      1  C   UNL     1      11.446   7.133  20.570  1.00  0.00     0.161 A 
ATOM      2  C   UNL     1      10.248   6.950  21.276  1.00  0.00     0.161 A 
ATOM      3  C   UNL     1       9.445   5.827  21.031  1.00  0.00     0.098 A 
ATOM      4  C   UNL     1       9.832   4.879  20.080  1.00  0.00     0.142 A 
ATOM      5  C   UNL     1      11.035   5.056  19.366  1.00  0.00     0.022 A 
ATOM      6  C   UNL     1      11.838   6.179  19.610  1.00  0.00     0.062 A 
ATOM      7  C   UNL     1      11.396   4.089  18.420  1.00  0.00     0.019 A 
ATOM      8  C   UNL     1      10.563   2.990  18.212  1.00  0.00     0.094 A 
ATOM      9  C   UNL     1       9.385   2.882  18.959  1.00  0.00     0.336 A 
ATOM     10  O   UNL     1       8.621   1.897  18.787  1.00  0.00    -0.246 OA
ATOM     11  O   UNL     1       9.067   3.815  19.852  1.00  0.00    -0.423 OA
ENDROOT
BRANCH   1  12
ATOM     12  O   UNL     1      12.218   8.273  20.848  1.00  0.00    -0.493 OA
ATOM     13  C   UNL     1      13.227   8.338  21.851  1.00  0.00     0.278 C 
ENDBRANCH   1  12
BRANCH   2  14
ATOM     14  O   UNL     1       9.859   7.895  22.226  1.00  0.00    -0.504 OA
ATOM     15  H   UNL     1       8.882   8.075  22.426  1.00  0.00     0.293 HD
ENDBRANCH   2  14
TORSDOF 2
ENDMDL
MODEL 2
REMARK VINA RESULT:    -6.119     18.713     19.424
REMARK INTER + INTRA:          -6.688
REMARK INTER:                  -6.642
REMARK INTRA:                  -0.046
REMARK UNBOUND:                -0.032
REMARK SMILES COc1cc2ccc(=O)oc2cc1O
REMARK SMILES IDX 3 1 13 2 12 3 11 4 5 5 4 6 6 7 7 8 8 9 9 10 10 11 2 12 1 13
REMARK SMILES IDX 14 14
REMARK H PARENT 14 15
REMARK Flexibility Score: inf
ROOT
ATOM      1  C   UNL     1      16.568  -7.195  32.956  1.00  0.00     0.161 A 
ATOM      2  C   UNL     1      15.479  -6.652  33.656  1.00  0.00     0.161 A 
ATOM      3  C   UNL     1      15.622  -5.456  34.372  1.00  0.00     0.098 A 
ATOM      4  C   UNL     1      16.851  -4.792  34.397  1.00  0.00     0.142 A 
ATOM      5  C   UNL     1      17.951  -5.331  33.696  1.00  0.00     0.022 A 
ATOM      6  C   UNL     1      17.809  -6.528  32.980  1.00  0.00     0.062 A 
ATOM      7  C   UNL     1      19.169  -4.643  33.740  1.00  0.00     0.019 A 
ATOM      8  C   UNL     1      19.261  -3.458  34.467  1.00  0.00     0.094 A 
ATOM      9  C   UNL     1      18.127  -2.983  35.137  1.00  0.00     0.336 A 
ATOM     10  O   UNL     1      18.189  -1.914  35.798  1.00  0.00    -0.246 OA
ATOM     11  O   UNL     1      16.981  -3.657  35.078  1.00  0.00    -0.423 OA
ENDROOT
BRANCH   1  12
ATOM     12  O   UNL     1      16.378  -8.395  32.253  1.00  0.00    -0.493 OA
ATOM     13  C   UNL     1      17.432  -9.250  31.819  1.00  0.00     0.278 C 
ENDBRANCH   1  12
BRANCH   2  14
ATOM     14  O   UNL     1      14.251  -7.312  33.633  1.00  0.00    -0.504 OA
ATOM     15  H   UNL     1      14.164  -8.261  33.288  1.00  0.00     0.293 HD
ENDBRANCH   2  14
TORSDOF 2
ENDMDL
MODEL 3
REMARK VINA RESULT:    -6.092     18.515     18.824
REMARK INTER + INTRA:          -6.659
REMARK INTER:                  -6.650
REMARK INTRA:                  -0.008
REMARK UNBOUND:                -0.032
REMARK SMILES COc1cc2ccc(=O)oc2cc1O
REMARK SMILES IDX 3 1 13 2 12 3 11 4 5 5 4 6 6 7 7 8 8 9 9 10 10 11 2 12 1 13
REMARK SMILES IDX 14 14
REMARK H PARENT 14 15
REMARK Flexibility Score: inf
ROOT
ATOM      1  C   UNL     1      17.883  -3.231  35.270  1.00  0.00     0.161 A 
ATOM      2  C   UNL     1      18.779  -3.632  34.268  1.00  0.00     0.161 A 
ATOM      3  C   UNL     1      18.496  -4.750  33.470  1.00  0.00     0.098 A 
ATOM      4  C   UNL     1      17.318  -5.474  33.665  1.00  0.00     0.142 A 
ATOM      5  C   UNL     1      16.411  -5.077  34.670  1.00  0.00     0.022 A 
ATOM      6  C   UNL     1      16.693  -3.960  35.469  1.00  0.00     0.062 A 
ATOM      7  C   UNL     1      15.239  -5.823  34.842  1.00  0.00     0.019 A 
ATOM      8  C   UNL     1      15.004  -6.927  34.023  1.00  0.00     0.094 A 
ATOM      9  C   UNL     1      15.949  -7.261  33.047  1.00  0.00     0.336 A 
ATOM     10  O   UNL     1      15.754  -8.253  32.297  1.00  0.00    -0.246 OA
ATOM     11  O   UNL     1      17.054  -6.534  32.905  1.00  0.00    -0.423 OA
ENDROOT
BRANCH   1  12
ATOM     12  O   UNL     1      18.208  -2.106  36.044  1.00  0.00    -0.493 OA
ATOM     13  C   UNL     1      17.937  -0.760  35.664  1.00  0.00     0.278 C 
ENDBRANCH   1  12
BRANCH   2  14
ATOM     14  O   UNL     1      19.957  -2.912  34.070  1.00  0.00    -0.504 OA
ATOM     15  H   UNL     1      20.728  -3.291  33.532  1.00  0.00     0.293 HD
ENDBRANCH   2  14
TORSDOF 2
ENDMDL
MODEL 4
REMARK VINA RESULT:    -6.032     19.510     19.707
REMARK INTER + INTRA:          -6.594
REMARK INTER:                  -6.528
REMARK INTRA:                  -0.065
REMARK UNBOUND:                -0.032
REMARK SMILES COc1cc2ccc(=O)oc2cc1O
REMARK SMILES IDX 3 1 13 2 12 3 11 4 5 5 4 6 6 7 7 8 8 9 9 10 10 11 2 12 1 13
REMARK SMILES IDX 14 14
REMARK H PARENT 14 15
REMARK Flexibility Score: inf
ROOT
ATOM      1  C   UNL     1      17.767  -6.139  34.991  1.00  0.00     0.161 A 
ATOM      2  C   UNL     1      16.400  -6.086  35.302  1.00  0.00     0.161 A 
ATOM      3  C   UNL     1      15.481  -6.875  34.595  1.00  0.00     0.098 A 
ATOM      4  C   UNL     1      15.919  -7.723  33.575  1.00  0.00     0.142 A 
ATOM      5  C   UNL     1      17.292  -7.783  33.256  1.00  0.00     0.022 A 
ATOM      6  C   UNL     1      18.211  -6.994  33.962  1.00  0.00     0.062 A 
ATOM      7  C   UNL     1      17.700  -8.642  32.229  1.00  0.00     0.019 A 
ATOM      8  C   UNL     1      16.747  -9.405  31.556  1.00  0.00     0.094 A 
ATOM      9  C   UNL     1      15.403  -9.294  31.928  1.00  0.00     0.336 A 
ATOM     10  O   UNL     1      14.528  -9.976  31.333  1.00  0.00    -0.246 OA
ATOM     11  O   UNL     1      15.043  -8.469  32.908  1.00  0.00    -0.423 OA
ENDROOT
BRANCH   1  12
ATOM     12  O   UNL     1      18.651  -5.331  35.724  1.00  0.00    -0.493 OA
ATOM     13  C   UNL     1      19.213  -4.113  35.248  1.00  0.00     0.278 C 
ENDBRANCH   1  12
BRANCH   2  14
ATOM     14  O   UNL     1      15.959  -5.241  36.319  1.00  0.00    -0.504 OA
ATOM     15  H   UNL     1      14.975  -5.040  36.454  1.00  0.00     0.293 HD
ENDBRANCH   2  14
TORSDOF 2
ENDMDL
MODEL 5
REMARK VINA RESULT:    -5.968      8.211      8.557
REMARK INTER + INTRA:          -6.524
REMARK INTER:                  -6.478
REMARK INTRA:                  -0.046
REMARK UNBOUND:                -0.032
REMARK SMILES COc1cc2ccc(=O)oc2cc1O
REMARK SMILES IDX 3 1 13 2 12 3 11 4 5 5 4 6 6 7 7 8 8 9 9 10 10 11 2 12 1 13
REMARK SMILES IDX 14 14
REMARK H PARENT 14 15
REMARK Flexibility Score: inf
ROOT
ATOM      1  C   UNL     1      13.777   0.590  27.747  1.00  0.00     0.161 A 
ATOM      2  C   UNL     1      14.550   1.220  26.759  1.00  0.00     0.161 A 
ATOM      3  C   UNL     1      14.011   1.469  25.489  1.00  0.00     0.098 A 
ATOM      4  C   UNL     1      12.698   1.094  25.195  1.00  0.00     0.142 A 
ATOM      5  C   UNL     1      11.914   0.461  26.182  1.00  0.00     0.022 A 
ATOM      6  C   UNL     1      12.452   0.210  27.452  1.00  0.00     0.062 A 
ATOM      7  C   UNL     1      10.602   0.096  25.857  1.00  0.00     0.019 A 
ATOM      8  C   UNL     1      10.113   0.365  24.580  1.00  0.00     0.094 A 
ATOM      9  C   UNL     1      10.949   0.997  23.653  1.00  0.00     0.336 A 
ATOM     10  O   UNL     1      10.526   1.250  22.495  1.00  0.00    -0.246 OA
ATOM     11  O   UNL     1      12.192   1.333  23.989  1.00  0.00    -0.423 OA
ENDROOT
BRANCH   1  12
ATOM     12  O   UNL     1      14.358   0.361  29.004  1.00  0.00    -0.493 OA
ATOM     13  C   UNL     1      13.627   0.033  30.182  1.00  0.00     0.278 C 
ENDBRANCH   1  12
BRANCH   2  14
ATOM     14  O   UNL     1      15.861   1.596  27.050  1.00  0.00    -0.504 OA
ATOM     15  H   UNL     1      16.647   1.236  26.520  1.00  0.00     0.293 HD
ENDBRANCH   2  14
TORSDOF 2
ENDMDL
MODEL 6
REMARK VINA RESULT:    -5.958      1.244      5.452
REMARK INTER + INTRA:          -6.513
REMARK INTER:                  -6.581
REMARK INTRA:                   0.069
REMARK UNBOUND:                -0.032
REMARK SMILES COc1cc2ccc(=O)oc2cc1O
REMARK SMILES IDX 3 1 13 2 12 3 11 4 5 5 4 6 6 7 7 8 8 9 9 10 10 11 2 12 1 13
REMARK SMILES IDX 14 14
REMARK H PARENT 14 15
REMARK Flexibility Score: inf
ROOT
ATOM      1  C   UNL     1       9.177   3.253  18.869  1.00  0.00     0.161 A 
ATOM      2  C   UNL     1      10.525   3.283  18.477  1.00  0.00     0.161 A 
ATOM      3  C   UNL     1      11.378   4.291  18.947  1.00  0.00     0.098 A 
ATOM      4  C   UNL     1      10.895   5.275  19.812  1.00  0.00     0.142 A 
ATOM      5  C   UNL     1       9.542   5.253  20.212  1.00  0.00     0.022 A 
ATOM      6  C   UNL     1       8.688   4.246  19.741  1.00  0.00     0.062 A 
ATOM      7  C   UNL     1       9.088   6.253  21.080  1.00  0.00     0.019 A 
ATOM      8  C   UNL     1       9.976   7.233  21.519  1.00  0.00     0.094 A 
ATOM      9  C   UNL     1      11.304   7.191  21.081  1.00  0.00     0.336 A 
ATOM     10  O   UNL     1      12.121   8.067  21.468  1.00  0.00    -0.246 OA
ATOM     11  O   UNL     1      11.709   6.229  20.256  1.00  0.00    -0.423 OA
ENDROOT
BRANCH   1  12
ATOM     12  O   UNL     1       8.360   2.226  18.372  1.00  0.00    -0.493 OA
ATOM     13  C   UNL     1       8.387   0.879  18.836  1.00  0.00     0.278 C 
ENDBRANCH   1  12
BRANCH   2  14
ATOM     14  O   UNL     1      11.010   2.301  17.613  1.00  0.00    -0.504 OA
ATOM     15  H   UNL     1      11.986   2.030  17.613  1.00  0.00     0.293 HD
ENDBRANCH   2  14
TORSDOF 2
ENDMDL
MODEL 7
REMARK VINA RESULT:    -5.898      1.670      2.736
REMARK INTER + INTRA:          -6.448
REMARK INTER:                  -6.440
REMARK INTRA:                  -0.008
REMARK UNBOUND:                -0.032
REMARK SMILES COc1cc2ccc(=O)oc2cc1O
REMARK SMILES IDX 3 1 13 2 12 3 11 4 5 5 4 6 6 7 7 8 8 9 9 10 10 11 2 12 1 13
REMARK SMILES IDX 14 14
REMARK H PARENT 14 15
REMARK Flexibility Score: inf
ROOT
ATOM      1  C   UNL     1      12.502   7.907  21.464  1.00  0.00     0.161 A 
ATOM      2  C   UNL     1      13.003   8.018  20.158  1.00  0.00     0.161 A 
ATOM      3  C   UNL     1      12.540   7.164  19.147  1.00  0.00     0.098 A 
ATOM      4  C   UNL     1      11.573   6.196  19.431  1.00  0.00     0.142 A 
ATOM      5  C   UNL     1      11.064   6.079  20.741  1.00  0.00     0.022 A 
ATOM      6  C   UNL     1      11.527   6.931  21.753  1.00  0.00     0.062 A 
ATOM      7  C   UNL     1      10.097   5.100  20.994  1.00  0.00     0.019 A 
ATOM      8  C   UNL     1       9.669   4.275  19.954  1.00  0.00     0.094 A 
ATOM      9  C   UNL     1      10.219   4.451  18.680  1.00  0.00     0.336 A 
ATOM     10  O   UNL     1       9.845   3.717  17.728  1.00  0.00    -0.246 OA
ATOM     11  O   UNL     1      11.137   5.390  18.467  1.00  0.00    -0.423 OA
ENDROOT
BRANCH   1  12
ATOM     12  O   UNL     1      12.996   8.783  22.445  1.00  0.00    -0.493 OA
ATOM     13  C   UNL     1      12.498  10.097  22.677  1.00  0.00     0.278 C 
ENDBRANCH   1  12
BRANCH   2  14
ATOM     14  O   UNL     1      13.968   8.983  19.872  1.00  0.00    -0.504 OA
ATOM     15  H   UNL     1      14.031   9.417  18.958  1.00  0.00     0.293 HD
ENDBRANCH   2  14
TORSDOF 2
ENDMDL
MODEL 8
REMARK VINA RESULT:    -5.849     18.948     19.778
REMARK INTER + INTRA:          -6.394
REMARK INTER:                  -6.342
REMARK INTRA:                  -0.052
REMARK UNBOUND:                -0.032
REMARK SMILES COc1cc2ccc(=O)oc2cc1O
REMARK SMILES IDX 3 1 13 2 12 3 11 4 5 5 4 6 6 7 7 8 8 9 9 10 10 11 2 12 1 13
REMARK SMILES IDX 14 14
REMARK H PARENT 14 15
REMARK Flexibility Score: inf
ROOT
ATOM      1  C   UNL     1      17.575  -6.905  33.422  1.00  0.00     0.161 A 
ATOM      2  C   UNL     1      18.406  -7.030  34.546  1.00  0.00     0.161 A 
ATOM      3  C   UNL     1      18.800  -5.894  35.266  1.00  0.00     0.098 A 
ATOM      4  C   UNL     1      18.370  -4.625  34.870  1.00  0.00     0.142 A 
ATOM      5  C   UNL     1      17.535  -4.490  33.741  1.00  0.00     0.022 A 
ATOM      6  C   UNL     1      17.140  -5.626  33.021  1.00  0.00     0.062 A 
ATOM      7  C   UNL     1      17.121  -3.206  33.370  1.00  0.00     0.019 A 
ATOM      8  C   UNL     1      17.541  -2.108  34.118  1.00  0.00     0.094 A 
ATOM      9  C   UNL     1      18.369  -2.318  35.226  1.00  0.00     0.336 A 
ATOM     10  O   UNL     1      18.758  -1.340  35.914  1.00  0.00    -0.246 OA
ATOM     11  O   UNL     1      18.748  -3.550  35.557  1.00  0.00    -0.423 OA
ENDROOT
BRANCH   1  12
ATOM     12  O   UNL     1      17.205  -8.070  32.732  1.00  0.00    -0.493 OA
ATOM     13  C   UNL     1      15.891  -8.340  32.251  1.00  0.00     0.278 C 
ENDBRANCH   1  12
BRANCH   2  14
ATOM     14  O   UNL     1      18.837  -8.296  34.944  1.00  0.00    -0.504 OA
ATOM     15  H   UNL     1      18.823  -8.580  35.916  1.00  0.00     0.293 HD
ENDBRANCH   2  14
TORSDOF 2
ENDMDL
MODEL 9
REMARK VINA RESULT:    -5.810      1.411      5.116
REMARK INTER + INTRA:          -6.351
REMARK INTER:                  -6.288
REMARK INTRA:                  -0.063
REMARK UNBOUND:                -0.032
REMARK SMILES COc1cc2ccc(=O)oc2cc1O
REMARK SMILES IDX 3 1 13 2 12 3 11 4 5 5 4 6 6 7 7 8 8 9 9 10 10 11 2 12 1 13
REMARK SMILES IDX 14 14
REMARK H PARENT 14 15
REMARK Flexibility Score: inf
ROOT
ATOM      1  C   UNL     1       9.994   5.629  19.143  1.00  0.00     0.161 A 
ATOM      2  C   UNL     1       9.116   6.072  20.144  1.00  0.00     0.161 A 
ATOM      3  C   UNL     1       9.514   7.070  21.044  1.00  0.00     0.098 A 
ATOM      4  C   UNL     1      10.788   7.634  20.952  1.00  0.00     0.142 A 
ATOM      5  C   UNL     1      11.677   7.195  19.949  1.00  0.00     0.022 A 
ATOM      6  C   UNL     1      11.281   6.196  19.049  1.00  0.00     0.062 A 
ATOM      7  C   UNL     1      12.947   7.779  19.883  1.00  0.00     0.019 A 
ATOM      8  C   UNL     1      13.295   8.768  20.801  1.00  0.00     0.094 A 
ATOM      9  C   UNL     1      12.361   9.154  21.769  1.00  0.00     0.336 A 
ATOM     10  O   UNL     1      12.655  10.046  22.607  1.00  0.00    -0.246 OA
ATOM     11  O   UNL     1      11.160   8.582  21.809  1.00  0.00    -0.423 OA
ENDROOT
BRANCH   1  12
ATOM     12  O   UNL     1       9.553   4.626  18.264  1.00  0.00    -0.493 OA
ATOM     13  C   UNL     1       9.866   3.243  18.397  1.00  0.00     0.278 C 
ENDBRANCH   1  12
BRANCH   2  14
ATOM     14  O   UNL     1       7.843   5.511  20.238  1.00  0.00    -0.504 OA
ATOM     15  H   UNL     1       7.016   6.086  20.346  1.00  0.00     0.293 HD
ENDBRANCH   2  14
TORSDOF 2
ENDMDL
