MODEL 1
REMARK VINA RESULT:    -4.467      0.000      0.000
REMARK INTER + INTRA:          -5.743
REMARK INTER:                  -5.512
REMARK INTRA:                  -0.231
REMARK UNBOUND:                -0.231
REMARK SMILES CCCCC=CC(C)=O
REMARK SMILES IDX 4 1 3 2 2 3 1 4 5 5 6 6 7 7 9 8 8 9
REMARK H PARENT
REMARK Flexibility Score: inf
ROOT
ATOM      1  C   UNL     1      34.795  21.910  18.251  1.00  0.00     0.027 C 
ENDROOT
BRANCH   1   2
ATOM      2  C   UNL     1      34.752  21.944  16.718  1.00  0.00     0.004 C 
BRANCH   2   3
ATOM      3  C   UNL     1      33.526  21.210  16.156  1.00  0.00    -0.003 C 
ATOM      4  C   UNL     1      33.944  20.060  15.245  1.00  0.00     0.004 C 
ENDBRANCH   2   3
ENDBRANCH   1   2
BRANCH   1   5
ATOM      5  C   UNL     1      33.666  21.092  18.816  1.00  0.00    -0.023 C 
ATOM      6  C   UNL     1      33.366  21.118  20.120  1.00  0.00     0.042 C 
BRANCH   6   7
ATOM      7  C   UNL     1      32.290  20.303  20.721  1.00  0.00     0.152 C 
ATOM      8  O   UNL     1      32.436  19.886  21.900  1.00  0.00    -0.295 OA
ATOM      9  C   UNL     1      31.036  19.954  19.977  1.00  0.00     0.093 C 
ENDBRANCH   6   7
ENDBRANCH   1   5
TORSDOF 4
ENDMDL
MODEL 2
REMARK VINA RESULT:    -4.359     10.413     11.764
REMARK INTER + INTRA:          -5.609
REMARK INTER:                  -5.348
REMARK INTRA:                  -0.261
REMARK UNBOUND:                -0.231
REMARK SMILES CCCCC=CC(C)=O
REMARK SMILES IDX 4 1 3 2 2 3 1 4 5 5 6 6 7 7 9 8 8 9
REMARK H PARENT
REMARK Flexibility Score: inf
ROOT
ATOM      1  C   UNL     1      25.942  18.690  27.419  1.00  0.00     0.027 C 
ENDROOT
BRANCH   1   2
ATOM      2  C   UNL     1      25.418  19.785  28.356  1.00  0.00     0.004 C 
BRANCH   2   3
ATOM      3  C   UNL     1      26.068  21.148  28.076  1.00  0.00    -0.003 C 
ATOM      4  C   UNL     1      26.975  21.572  29.226  1.00  0.00     0.004 C 
ENDBRANCH   2   3
ENDBRANCH   1   2
BRANCH   1   5
ATOM      5  C   UNL     1      27.248  18.126  27.905  1.00  0.00    -0.023 C 
ATOM      6  C   UNL     1      28.403  18.397  27.286  1.00  0.00     0.042 C 
BRANCH   6   7
ATOM      7  C   UNL     1      29.701  17.834  27.709  1.00  0.00     0.152 C 
ATOM      8  O   UNL     1      30.611  17.702  26.849  1.00  0.00    -0.295 OA
ATOM      9  C   UNL     1      29.973  17.415  29.123  1.00  0.00     0.093 C 
ENDBRANCH   6   7
ENDBRANCH   1   5
TORSDOF 4
ENDMDL
MODEL 3
REMARK VINA RESULT:    -4.351      3.071      3.962
REMARK INTER + INTRA:          -5.599
REMARK INTER:                  -5.368
REMARK INTRA:                  -0.231
REMARK UNBOUND:                -0.231
REMARK SMILES CCCCC=CC(C)=O
REMARK SMILES IDX 4 1 3 2 2 3 1 4 5 5 6 6 7 7 9 8 8 9
REMARK H PARENT
REMARK Flexibility Score: inf
ROOT
ATOM      1  C   UNL     1      32.476  20.802  18.598  1.00  0.00     0.027 C 
ENDROOT
BRANCH   1   2
ATOM      2  C   UNL     1      33.860  21.082  19.198  1.00  0.00     0.004 C 
BRANCH   2   3
ATOM      3  C   UNL     1      34.617  22.171  18.423  1.00  0.00    -0.003 C 
ATOM      4  C   UNL     1      34.924  21.720  16.999  1.00  0.00     0.004 C 
ENDBRANCH   2   3
ENDBRANCH   1   2
BRANCH   1   5
ATOM      5  C   UNL     1      32.351  19.374  18.144  1.00  0.00    -0.023 C 
ATOM      6  C   UNL     1      32.339  19.049  16.846  1.00  0.00     0.042 C 
BRANCH   6   7
ATOM      7  C   UNL     1      32.182  17.664  16.357  1.00  0.00     0.152 C 
ATOM      8  O   UNL     1      33.217  16.974  16.157  1.00  0.00    -0.295 OA
ATOM      9  C   UNL     1      30.839  17.053  16.091  1.00  0.00     0.093 C 
ENDBRANCH   6   7
ENDBRANCH   1   5
TORSDOF 4
ENDMDL
MODEL 4
REMARK VINA RESULT:    -4.318      9.037     11.400
REMARK INTER + INTRA:          -5.559
REMARK INTER:                  -5.353
REMARK INTRA:                  -0.206
REMARK UNBOUND:                -0.231
REMARK SMILES CCCCC=CC(C)=O
REMARK SMILES IDX 4 1 3 2 2 3 1 4 5 5 6 6 7 7 9 8 8 9
REMARK H PARENT
REMARK Flexibility Score: inf
ROOT
ATOM      1  C   UNL     1      29.141  17.593  29.350  1.00  0.00     0.027 C 
ENDROOT
BRANCH   1   2
ATOM      2  C   UNL     1      30.250  17.387  28.310  1.00  0.00     0.004 C 
BRANCH   2   3
ATOM      3  C   UNL     1      29.987  18.176  27.019  1.00  0.00    -0.003 C 
ATOM      4  C   UNL     1      31.221  18.190  26.123  1.00  0.00     0.004 C 
ENDBRANCH   2   3
ENDBRANCH   1   2
BRANCH   1   5
ATOM      5  C   UNL     1      28.149  18.630  28.900  1.00  0.00    -0.023 C 
ATOM      6  C   UNL     1      27.925  19.741  29.613  1.00  0.00     0.042 C 
BRANCH   6   7
ATOM      7  C   UNL     1      26.935  20.767  29.226  1.00  0.00     0.152 C 
ATOM      8  O   UNL     1      26.992  21.898  29.775  1.00  0.00    -0.295 OA
ATOM      9  C   UNL     1      25.866  20.507  28.207  1.00  0.00     0.093 C 
ENDBRANCH   6   7
ENDBRANCH   1   5
TORSDOF 4
ENDMDL
MODEL 5
REMARK VINA RESULT:    -4.296      2.693      4.509
REMARK INTER + INTRA:          -5.531
REMARK INTER:                  -5.288
REMARK INTRA:                  -0.243
REMARK UNBOUND:                -0.231
REMARK SMILES CCCCC=CC(C)=O
REMARK SMILES IDX 4 1 3 2 2 3 1 4 5 5 6 6 7 7 9 8 8 9
REMARK H PARENT
REMARK Flexibility Score: inf
ROOT
ATOM      1  C   UNL     1      35.100  21.884  18.255  1.00  0.00     0.027 C 
ENDROOT
BRANCH   1   2
ATOM      2  C   UNL     1      33.859  22.184  19.105  1.00  0.00     0.004 C 
BRANCH   2   3
ATOM      3  C   UNL     1      33.642  21.135  20.205  1.00  0.00    -0.003 C 
ATOM      4  C   UNL     1      32.307  20.420  20.028  1.00  0.00     0.004 C 
ENDBRANCH   2   3
ENDBRANCH   1   2
BRANCH   1   5
ATOM      5  C   UNL     1      34.724  21.406  16.880  1.00  0.00    -0.023 C 
ATOM      6  C   UNL     1      33.454  21.138  16.554  1.00  0.00     0.042 C 
BRANCH   6   7
ATOM      7  C   UNL     1      33.046  20.632  15.227  1.00  0.00     0.152 C 
ATOM      8  O   UNL     1      33.870  19.950  14.562  1.00  0.00    -0.295 OA
ATOM      9  C   UNL     1      31.692  20.905  14.644  1.00  0.00     0.093 C 
ENDBRANCH   6   7
ENDBRANCH   1   5
TORSDOF 4
ENDMDL
MODEL 6
REMARK VINA RESULT:    -4.275     10.356     11.829
REMARK INTER + INTRA:          -5.506
REMARK INTER:                  -5.213
REMARK INTRA:                  -0.293
REMARK UNBOUND:                -0.231
REMARK SMILES CCCCC=CC(C)=O
REMARK SMILES IDX 4 1 3 2 2 3 1 4 5 5 6 6 7 7 9 8 8 9
REMARK H PARENT
REMARK Flexibility Score: inf
ROOT
ATOM      1  C   UNL     1      28.400  19.856  26.948  1.00  0.00     0.027 C 
ENDROOT
BRANCH   1   2
ATOM      2  C   UNL     1      28.884  18.400  26.961  1.00  0.00     0.004 C 
BRANCH   2   3
ATOM      3  C   UNL     1      29.915  18.143  28.070  1.00  0.00    -0.003 C 
ATOM      4  C   UNL     1      29.279  17.425  29.256  1.00  0.00     0.004 C 
ENDBRANCH   2   3
ENDBRANCH   1   2
BRANCH   1   5
ATOM      5  C   UNL     1      27.101  20.012  27.687  1.00  0.00    -0.023 C 
ATOM      6  C   UNL     1      26.182  19.039  27.703  1.00  0.00     0.042 C 
BRANCH   6   7
ATOM      7  C   UNL     1      24.878  19.166  28.387  1.00  0.00     0.152 C 
ATOM      8  O   UNL     1      23.892  19.591  27.730  1.00  0.00    -0.295 OA
ATOM      9  C   UNL     1      24.690  18.808  29.831  1.00  0.00     0.093 C 
ENDBRANCH   6   7
ENDBRANCH   1   5
TORSDOF 4
ENDMDL
MODEL 7
REMARK VINA RESULT:    -4.250      7.667     10.755
REMARK INTER + INTRA:          -5.475
REMARK INTER:                  -5.245
REMARK INTRA:                  -0.230
REMARK UNBOUND:                -0.231
REMARK SMILES CCCCC=CC(C)=O
REMARK SMILES IDX 4 1 3 2 2 3 1 4 5 5 6 6 7 7 9 8 8 9
REMARK H PARENT
REMARK Flexibility Score: inf
ROOT
ATOM      1  C   UNL     1      30.228  17.287  28.356  1.00  0.00     0.027 C 
ENDROOT
BRANCH   1   2
ATOM      2  C   UNL     1      29.501  17.684  29.647  1.00  0.00     0.004 C 
BRANCH   2   3
ATOM      3  C   UNL     1      28.381  18.703  29.392  1.00  0.00    -0.003 C 
ATOM      4  C   UNL     1      28.158  19.593  30.611  1.00  0.00     0.004 C 
ENDBRANCH   2   3
ENDBRANCH   1   2
BRANCH   1   5
ATOM      5  C   UNL     1      29.774  18.120  27.189  1.00  0.00    -0.023 C 
ATOM      6  C   UNL     1      30.631  18.535  26.249  1.00  0.00     0.042 C 
BRANCH   6   7
ATOM      7  C   UNL     1      30.233  19.385  25.107  1.00  0.00     0.152 C 
ATOM      8  O   UNL     1      31.134  19.929  24.417  1.00  0.00    -0.295 OA
ATOM      9  C   UNL     1      28.797  19.622  24.745  1.00  0.00     0.093 C 
ENDBRANCH   6   7
ENDBRANCH   1   5
TORSDOF 4
ENDMDL
MODEL 8
REMARK VINA RESULT:    -4.181      1.322      2.182
REMARK INTER + INTRA:          -5.390
REMARK INTER:                  -5.112
REMARK INTRA:                  -0.277
REMARK UNBOUND:                -0.231
REMARK SMILES CCCCC=CC(C)=O
REMARK SMILES IDX 4 1 3 2 2 3 1 4 5 5 6 6 7 7 9 8 8 9
REMARK H PARENT
REMARK Flexibility Score: inf
ROOT
ATOM      1  C   UNL     1      32.467  19.587  17.161  1.00  0.00     0.027 C 
ENDROOT
BRANCH   1   2
ATOM      2  C   UNL     1      32.586  21.105  16.973  1.00  0.00     0.004 C 
BRANCH   2   3
ATOM      3  C   UNL     1      34.017  21.535  16.621  1.00  0.00    -0.003 C 
ATOM      4  C   UNL     1      34.815  21.868  17.878  1.00  0.00     0.004 C 
ENDBRANCH   2   3
ENDBRANCH   1   2
BRANCH   1   5
ATOM      5  C   UNL     1      32.130  19.232  18.582  1.00  0.00    -0.023 C 
ATOM      6  C   UNL     1      31.792  20.168  19.477  1.00  0.00     0.042 C 
BRANCH   6   7
ATOM      7  C   UNL     1      31.489  19.866  20.891  1.00  0.00     0.152 C 
ATOM      8  O   UNL     1      32.425  19.477  21.639  1.00  0.00    -0.295 OA
ATOM      9  C   UNL     1      30.110  20.004  21.465  1.00  0.00     0.093 C 
ENDBRANCH   6   7
ENDBRANCH   1   5
TORSDOF 4
ENDMDL
