MODEL 1
REMARK VINA RESULT:    -5.215      0.000      0.000
REMARK INTER + INTRA:          -5.532
REMARK INTER:                  -5.520
REMARK INTRA:                  -0.011
REMARK UNBOUND:                -0.011
REMARK SMILES O=Cc1ccccc1
REMARK SMILES IDX 6 1 5 2 4 3 3 4 8 5 7 6 2 7 1 8
REMARK H PARENT
REMARK Flexibility Score: inf
ROOT
ATOM      1  C   UNL     1      17.980  28.421  37.117  1.00  0.00     0.000 A 
ATOM      2  C   UNL     1      19.350  28.331  36.854  1.00  0.00     0.001 A 
ATOM      3  C   UNL     1      19.896  27.137  36.374  1.00  0.00     0.011 A 
ATOM      4  C   UNL     1      19.070  26.019  36.152  1.00  0.00     0.014 A 
ATOM      5  C   UNL     1      17.695  26.118  36.419  1.00  0.00     0.011 A 
ATOM      6  C   UNL     1      17.153  27.316  36.899  1.00  0.00     0.001 A 
ENDROOT
BRANCH   4   7
ATOM      7  C   UNL     1      19.624  24.750  35.647  1.00  0.00     0.260 C 
ATOM      8  O   UNL     1      20.564  24.739  34.808  1.00  0.00    -0.298 OA
ENDBRANCH   4   7
TORSDOF 1
ENDMDL
MODEL 2
REMARK VINA RESULT:    -4.043      7.381      8.145
REMARK INTER + INTRA:          -4.290
REMARK INTER:                  -4.281
REMARK INTRA:                  -0.009
REMARK UNBOUND:                -0.011
REMARK SMILES O=Cc1ccccc1
REMARK SMILES IDX 6 1 5 2 4 3 3 4 8 5 7 6 2 7 1 8
REMARK H PARENT
REMARK Flexibility Score: inf
ROOT
ATOM      1  C   UNL     1      19.450  35.116  32.953  1.00  0.00     0.000 A 
ATOM      2  C   UNL     1      19.450  35.124  34.351  1.00  0.00     0.001 A 
ATOM      3  C   UNL     1      20.409  34.393  35.057  1.00  0.00     0.011 A 
ATOM      4  C   UNL     1      21.380  33.644  34.366  1.00  0.00     0.014 A 
ATOM      5  C   UNL     1      21.373  33.641  32.962  1.00  0.00     0.011 A 
ATOM      6  C   UNL     1      20.411  34.375  32.259  1.00  0.00     0.001 A 
ENDROOT
BRANCH   4   7
ATOM      7  C   UNL     1      22.401  32.864  35.090  1.00  0.00     0.260 C 
ATOM      8  O   UNL     1      22.074  31.911  35.847  1.00  0.00    -0.298 OA
ENDBRANCH   4   7
TORSDOF 1
ENDMDL
MODEL 3
REMARK VINA RESULT:    -3.887      6.607      7.760
REMARK INTER + INTRA:          -4.126
REMARK INTER:                  -4.117
REMARK INTRA:                  -0.009
REMARK UNBOUND:                -0.011
REMARK SMILES O=Cc1ccccc1
REMARK SMILES IDX 6 1 5 2 4 3 3 4 8 5 7 6 2 7 1 8
REMARK H PARENT
REMARK Flexibility Score: inf
ROOT
ATOM      1  C   UNL     1      20.725  32.292  36.788  1.00  0.00     0.000 A 
ATOM      2  C   UNL     1      19.926  33.422  36.592  1.00  0.00     0.001 A 
ATOM      3  C   UNL     1      20.093  34.210  35.449  1.00  0.00     0.011 A 
ATOM      4  C   UNL     1      21.065  33.870  34.490  1.00  0.00     0.014 A 
ATOM      5  C   UNL     1      21.862  32.733  34.694  1.00  0.00     0.011 A 
ATOM      6  C   UNL     1      21.691  31.947  35.839  1.00  0.00     0.001 A 
ENDROOT
BRANCH   4   7
ATOM      7  C   UNL     1      21.258  34.687  33.278  1.00  0.00     0.260 C 
ATOM      8  O   UNL     1      20.751  34.346  32.176  1.00  0.00    -0.298 OA
ENDBRANCH   4   7
TORSDOF 1
ENDMDL
MODEL 4
REMARK VINA RESULT:    -3.871     20.617     21.934
REMARK INTER + INTRA:          -4.109
REMARK INTER:                  -4.100
REMARK INTRA:                  -0.009
REMARK UNBOUND:                -0.011
REMARK SMILES O=Cc1ccccc1
REMARK SMILES IDX 6 1 5 2 4 3 3 4 8 5 7 6 2 7 1 8
REMARK H PARENT
REMARK Flexibility Score: inf
ROOT
ATOM      1  C   UNL     1      30.303  15.271  24.257  1.00  0.00     0.000 A 
ATOM      2  C   UNL     1      29.571  15.633  23.123  1.00  0.00     0.001 A 
ATOM      3  C   UNL     1      30.176  15.617  21.863  1.00  0.00     0.011 A 
ATOM      4  C   UNL     1      31.525  15.238  21.729  1.00  0.00     0.014 A 
ATOM      5  C   UNL     1      32.253  14.876  22.874  1.00  0.00     0.011 A 
ATOM      6  C   UNL     1      31.643  14.893  24.133  1.00  0.00     0.001 A 
ENDROOT
BRANCH   4   7
ATOM      7  C   UNL     1      32.184  15.215  20.410  1.00  0.00     0.260 C 
ATOM      8  O   UNL     1      33.004  16.112  20.077  1.00  0.00    -0.298 OA
ENDBRANCH   4   7
TORSDOF 1
ENDMDL
MODEL 5
REMARK VINA RESULT:    -3.814     16.013     17.191
REMARK INTER + INTRA:          -4.049
REMARK INTER:                  -4.040
REMARK INTRA:                  -0.009
REMARK UNBOUND:                -0.011
REMARK SMILES O=Cc1ccccc1
REMARK SMILES IDX 6 1 5 2 4 3 3 4 8 5 7 6 2 7 1 8
REMARK H PARENT
REMARK Flexibility Score: inf
ROOT
ATOM      1  C   UNL     1      21.345  23.675  17.627  1.00  0.00     0.000 A 
ATOM      2  C   UNL     1      20.662  24.793  18.114  1.00  0.00     0.001 A 
ATOM      3  C   UNL     1      20.322  24.874  19.468  1.00  0.00     0.011 A 
ATOM      4  C   UNL     1      20.664  23.830  20.348  1.00  0.00     0.014 A 
ATOM      5  C   UNL     1      21.350  22.710  19.850  1.00  0.00     0.011 A 
ATOM      6  C   UNL     1      21.688  22.634  18.495  1.00  0.00     0.001 A 
ENDROOT
BRANCH   4   7
ATOM      7  C   UNL     1      20.315  23.894  21.779  1.00  0.00     0.260 C 
ATOM      8  O   UNL     1      19.167  23.565  22.183  1.00  0.00    -0.298 OA
ENDBRANCH   4   7
TORSDOF 1
ENDMDL
MODEL 6
REMARK VINA RESULT:    -3.800     16.015     17.192
REMARK INTER + INTRA:          -4.034
REMARK INTER:                  -4.025
REMARK INTRA:                  -0.009
REMARK UNBOUND:                -0.011
REMARK SMILES O=Cc1ccccc1
REMARK SMILES IDX 6 1 5 2 4 3 3 4 8 5 7 6 2 7 1 8
REMARK H PARENT
REMARK Flexibility Score: inf
ROOT
ATOM      1  C   UNL     1      21.351  23.678  17.629  1.00  0.00     0.000 A 
ATOM      2  C   UNL     1      21.727  22.647  18.495  1.00  0.00     0.001 A 
ATOM      3  C   UNL     1      21.386  22.710  19.849  1.00  0.00     0.011 A 
ATOM      4  C   UNL     1      20.663  23.809  20.348  1.00  0.00     0.014 A 
ATOM      5  C   UNL     1      20.288  24.839  19.471  1.00  0.00     0.011 A 
ATOM      6  C   UNL     1      20.632  24.773  18.116  1.00  0.00     0.001 A 
ENDROOT
BRANCH   4   7
ATOM      7  C   UNL     1      20.293  23.896  21.773  1.00  0.00     0.260 C 
ATOM      8  O   UNL     1      19.158  23.523  22.174  1.00  0.00    -0.298 OA
ENDBRANCH   4   7
TORSDOF 1
ENDMDL
MODEL 7
REMARK VINA RESULT:    -3.787      7.737      8.564
REMARK INTER + INTRA:          -4.019
REMARK INTER:                  -4.008
REMARK INTRA:                  -0.011
REMARK UNBOUND:                -0.011
REMARK SMILES O=Cc1ccccc1
REMARK SMILES IDX 6 1 5 2 4 3 3 4 8 5 7 6 2 7 1 8
REMARK H PARENT
REMARK Flexibility Score: inf
ROOT
ATOM      1  C   UNL     1      20.603  34.348  32.263  1.00  0.00     0.000 A 
ATOM      2  C   UNL     1      19.531  35.103  32.749  1.00  0.00     0.001 A 
ATOM      3  C   UNL     1      19.251  35.124  34.118  1.00  0.00     0.011 A 
ATOM      4  C   UNL     1      20.046  34.387  35.015  1.00  0.00     0.014 A 
ATOM      5  C   UNL     1      21.120  33.631  34.519  1.00  0.00     0.011 A 
ATOM      6  C   UNL     1      21.397  33.613  33.148  1.00  0.00     0.001 A 
ENDROOT
BRANCH   4   7
ATOM      7  C   UNL     1      19.768  34.394  36.464  1.00  0.00     0.260 C 
ATOM      8  O   UNL     1      19.735  33.322  37.125  1.00  0.00    -0.298 OA
ENDBRANCH   4   7
TORSDOF 1
ENDMDL
MODEL 8
REMARK VINA RESULT:    -3.731     16.390     17.539
REMARK INTER + INTRA:          -3.961
REMARK INTER:                  -3.947
REMARK INTRA:                  -0.013
REMARK UNBOUND:                -0.011
REMARK SMILES O=Cc1ccccc1
REMARK SMILES IDX 6 1 5 2 4 3 3 4 8 5 7 6 2 7 1 8
REMARK H PARENT
REMARK Flexibility Score: inf
ROOT
ATOM      1  C   UNL     1      20.316  24.196  17.309  1.00  0.00     0.000 A 
ATOM      2  C   UNL     1      19.383  24.505  18.303  1.00  0.00     0.001 A 
ATOM      3  C   UNL     1      19.592  24.081  19.618  1.00  0.00     0.011 A 
ATOM      4  C   UNL     1      20.742  23.340  19.949  1.00  0.00     0.014 A 
ATOM      5  C   UNL     1      21.674  23.034  18.945  1.00  0.00     0.011 A 
ATOM      6  C   UNL     1      21.461  23.462  17.630  1.00  0.00     0.001 A 
ENDROOT
BRANCH   4   7
ATOM      7  C   UNL     1      20.982  22.881  21.330  1.00  0.00     0.260 C 
ATOM      8  O   UNL     1      22.145  22.607  21.731  1.00  0.00    -0.298 OA
ENDBRANCH   4   7
TORSDOF 1
ENDMDL
