MODEL 1
REMARK VINA RESULT:    -5.271      0.000      0.000
REMARK INTER + INTRA:          -6.091
REMARK INTER:                  -5.887
REMARK INTRA:                  -0.204
REMARK UNBOUND:                -0.204
REMARK SMILES CC(C)c1ccc(C(=O)[O-])cc1
REMARK SMILES IDX 7 1 6 2 11 3 5 4 12 5 4 6 8 7 9 8 10 9 2 10 1 11 3 12
REMARK H PARENT
REMARK Flexibility Score: inf
ROOT
ATOM      1  C   UNL     1      40.826  18.470  10.633  1.00  0.00    -0.003 A 
ATOM      2  C   UNL     1      39.906  18.627   9.582  1.00  0.00     0.010 A 
ATOM      3  C   UNL     1      40.346  18.161  11.917  1.00  0.00     0.010 A 
ATOM      4  C   UNL     1      38.535  18.478   9.810  1.00  0.00     0.004 A 
ATOM      5  C   UNL     1      38.974  18.013  12.145  1.00  0.00     0.004 A 
ATOM      6  C   UNL     1      38.053  18.169  11.095  1.00  0.00    -0.045 A 
ENDROOT
BRANCH   1   7
ATOM      7  C   UNL     1      42.277  18.627  10.397  1.00  0.00     0.071 C 
ATOM      8  O   UNL     1      42.771  19.765  10.173  1.00  0.00    -0.545 OA
ATOM      9  O   UNL     1      43.118  17.521  10.419  1.00  0.00    -0.545 OA
ENDBRANCH   1   7
BRANCH   6  10
ATOM     10  C   UNL     1      36.568  18.004  11.357  1.00  0.00     0.013 C 
ATOM     11  C   UNL     1      36.169  16.523  11.351  1.00  0.00     0.012 C 
ATOM     12  C   UNL     1      36.159  18.680  12.670  1.00  0.00     0.012 C 
ENDBRANCH   6  10
TORSDOF 2
ENDMDL
MODEL 2
REMARK VINA RESULT:    -5.170      1.440      2.094
REMARK INTER + INTRA:          -5.978
REMARK INTER:                  -5.774
REMARK INTRA:                  -0.204
REMARK UNBOUND:                -0.204
REMARK SMILES CC(C)c1ccc(C(=O)[O-])cc1
REMARK SMILES IDX 7 1 6 2 11 3 5 4 12 5 4 6 8 7 9 8 10 9 2 10 1 11 3 12
REMARK H PARENT
REMARK Flexibility Score: inf
ROOT
ATOM      1  C   UNL     1      39.125  18.261  10.443  1.00  0.00    -0.003 A 
ATOM      2  C   UNL     1      37.899  18.343   9.761  1.00  0.00     0.010 A 
ATOM      3  C   UNL     1      39.118  18.172  11.845  1.00  0.00     0.010 A 
ATOM      4  C   UNL     1      36.692  18.336  10.465  1.00  0.00     0.004 A 
ATOM      5  C   UNL     1      37.911  18.165  12.550  1.00  0.00     0.004 A 
ATOM      6  C   UNL     1      36.685  18.248  11.869  1.00  0.00    -0.045 A 
ENDROOT
BRANCH   1   7
ATOM      7  C   UNL     1      40.405  18.268   9.702  1.00  0.00     0.071 C 
ATOM      8  O   UNL     1      41.343  19.033  10.051  1.00  0.00    -0.545 OA
ATOM      9  O   UNL     1      40.591  17.430   8.609  1.00  0.00    -0.545 OA
ENDBRANCH   1   7
BRANCH   6  10
ATOM     10  C   UNL     1      35.382  18.238  12.647  1.00  0.00     0.013 C 
ATOM     11  C   UNL     1      34.422  19.315  12.128  1.00  0.00     0.012 C 
ATOM     12  C   UNL     1      34.727  16.853  12.613  1.00  0.00     0.012 C 
ENDBRANCH   6  10
TORSDOF 2
ENDMDL
MODEL 3
REMARK VINA RESULT:    -5.128      1.407      2.286
REMARK INTER + INTRA:          -5.931
REMARK INTER:                  -5.723
REMARK INTRA:                  -0.208
REMARK UNBOUND:                -0.204
REMARK SMILES CC(C)c1ccc(C(=O)[O-])cc1
REMARK SMILES IDX 7 1 6 2 11 3 5 4 12 5 4 6 8 7 9 8 10 9 2 10 1 11 3 12
REMARK H PARENT
REMARK Flexibility Score: inf
ROOT
ATOM      1  C   UNL     1      39.287  18.274  10.560  1.00  0.00    -0.003 A 
ATOM      2  C   UNL     1      38.961  18.089  11.914  1.00  0.00     0.010 A 
ATOM      3  C   UNL     1      38.249  18.430   9.626  1.00  0.00     0.010 A 
ATOM      4  C   UNL     1      37.626  18.060  12.326  1.00  0.00     0.004 A 
ATOM      5  C   UNL     1      36.913  18.400  10.037  1.00  0.00     0.004 A 
ATOM      6  C   UNL     1      36.586  18.215  11.391  1.00  0.00    -0.045 A 
ENDROOT
BRANCH   1   7
ATOM      7  C   UNL     1      40.698  18.306  10.119  1.00  0.00     0.071 C 
ATOM      8  O   UNL     1      41.028  17.848   8.991  1.00  0.00    -0.545 OA
ATOM      9  O   UNL     1      41.682  18.842  10.941  1.00  0.00    -0.545 OA
ENDBRANCH   1   7
BRANCH   6  10
ATOM     10  C   UNL     1      35.132  18.186  11.824  1.00  0.00     0.013 C 
ATOM     11  C   UNL     1      34.933  17.253  13.025  1.00  0.00     0.012 C 
ATOM     12  C   UNL     1      34.618  19.597  12.131  1.00  0.00     0.012 C 
ENDBRANCH   6  10
TORSDOF 2
ENDMDL
MODEL 4
REMARK VINA RESULT:    -5.123      3.790      4.954
REMARK INTER + INTRA:          -5.926
REMARK INTER:                  -5.705
REMARK INTRA:                  -0.221
REMARK UNBOUND:                -0.204
REMARK SMILES CC(C)c1ccc(C(=O)[O-])cc1
REMARK SMILES IDX 7 1 6 2 11 3 5 4 12 5 4 6 8 7 9 8 10 9 2 10 1 11 3 12
REMARK H PARENT
REMARK Flexibility Score: inf
ROOT
ATOM      1  C   UNL     1      36.444  19.187   8.066  1.00  0.00    -0.003 A 
ATOM      2  C   UNL     1      35.536  19.027   9.127  1.00  0.00     0.010 A 
ATOM      3  C   UNL     1      37.804  18.914   8.288  1.00  0.00     0.010 A 
ATOM      4  C   UNL     1      35.979  18.604  10.383  1.00  0.00     0.004 A 
ATOM      5  C   UNL     1      38.248  18.491   9.545  1.00  0.00     0.004 A 
ATOM      6  C   UNL     1      37.341  18.332  10.606  1.00  0.00    -0.045 A 
ENDROOT
BRANCH   1   7
ATOM      7  C   UNL     1      35.981  19.634   6.735  1.00  0.00     0.071 C 
ATOM      8  O   UNL     1      34.794  20.027   6.568  1.00  0.00    -0.545 OA
ATOM      9  O   UNL     1      36.846  19.627   5.648  1.00  0.00    -0.545 OA
ENDBRANCH   1   7
BRANCH   6  10
ATOM     10  C   UNL     1      37.836  17.871  11.965  1.00  0.00     0.013 C 
ATOM     11  C   UNL     1      39.353  18.052  12.090  1.00  0.00     0.012 C 
ATOM     12  C   UNL     1      37.098  18.595  13.097  1.00  0.00     0.012 C 
ENDBRANCH   6  10
TORSDOF 2
ENDMDL
MODEL 5
REMARK VINA RESULT:    -5.117      3.024      4.957
REMARK INTER + INTRA:          -5.918
REMARK INTER:                  -5.712
REMARK INTRA:                  -0.207
REMARK UNBOUND:                -0.204
REMARK SMILES CC(C)c1ccc(C(=O)[O-])cc1
REMARK SMILES IDX 7 1 6 2 11 3 5 4 12 5 4 6 8 7 9 8 10 9 2 10 1 11 3 12
REMARK H PARENT
REMARK Flexibility Score: inf
ROOT
ATOM      1  C   UNL     1      38.048  18.241  10.928  1.00  0.00    -0.003 A 
ATOM      2  C   UNL     1      38.693  18.384   9.687  1.00  0.00     0.010 A 
ATOM      3  C   UNL     1      38.828  18.102  12.088  1.00  0.00     0.010 A 
ATOM      4  C   UNL     1      40.088  18.388   9.608  1.00  0.00     0.004 A 
ATOM      5  C   UNL     1      40.224  18.106  12.009  1.00  0.00     0.004 A 
ATOM      6  C   UNL     1      40.870  18.249  10.769  1.00  0.00    -0.045 A 
ENDROOT
BRANCH   1   7
ATOM      7  C   UNL     1      36.572  18.236  11.017  1.00  0.00     0.071 C 
ATOM      8  O   UNL     1      35.873  18.753  10.103  1.00  0.00    -0.545 OA
ATOM      9  O   UNL     1      35.933  17.660  12.108  1.00  0.00    -0.545 OA
ENDBRANCH   1   7
BRANCH   6  10
ATOM     10  C   UNL     1      42.386  18.253  10.699  1.00  0.00     0.013 C 
ATOM     11  C   UNL     1      42.899  17.113   9.811  1.00  0.00     0.012 C 
ATOM     12  C   UNL     1      42.914  19.608  10.216  1.00  0.00     0.012 C 
ENDBRANCH   6  10
TORSDOF 2
ENDMDL
MODEL 6
REMARK VINA RESULT:    -5.063      2.356      3.610
REMARK INTER + INTRA:          -5.859
REMARK INTER:                  -5.658
REMARK INTRA:                  -0.201
REMARK UNBOUND:                -0.204
REMARK SMILES CC(C)c1ccc(C(=O)[O-])cc1
REMARK SMILES IDX 7 1 6 2 11 3 5 4 12 5 4 6 8 7 9 8 10 9 2 10 1 11 3 12
REMARK H PARENT
REMARK Flexibility Score: inf
ROOT
ATOM      1  C   UNL     1      37.837  17.802  11.721  1.00  0.00    -0.003 A 
ATOM      2  C   UNL     1      37.213  18.590  12.703  1.00  0.00     0.010 A 
ATOM      3  C   UNL     1      37.159  16.679  11.218  1.00  0.00     0.010 A 
ATOM      4  C   UNL     1      35.939  18.261  13.173  1.00  0.00     0.004 A 
ATOM      5  C   UNL     1      35.884  16.350  11.688  1.00  0.00     0.004 A 
ATOM      6  C   UNL     1      35.259  17.137  12.670  1.00  0.00    -0.045 A 
ENDROOT
BRANCH   1   7
ATOM      7  C   UNL     1      39.186  18.145  11.221  1.00  0.00     0.071 C 
ATOM      8  O   UNL     1      39.368  18.416  10.003  1.00  0.00    -0.545 OA
ATOM      9  O   UNL     1      40.273  18.174  12.086  1.00  0.00    -0.545 OA
ENDBRANCH   1   7
BRANCH   6  10
ATOM     10  C   UNL     1      33.875  16.769  13.170  1.00  0.00     0.013 C 
ATOM     11  C   UNL     1      33.935  16.203  14.594  1.00  0.00     0.012 C 
ATOM     12  C   UNL     1      32.922  17.967  13.093  1.00  0.00     0.012 C 
ENDBRANCH   6  10
TORSDOF 2
ENDMDL
MODEL 7
REMARK VINA RESULT:    -5.036      3.589      5.477
REMARK INTER + INTRA:          -5.829
REMARK INTER:                  -5.621
REMARK INTRA:                  -0.208
REMARK UNBOUND:                -0.204
REMARK SMILES CC(C)c1ccc(C(=O)[O-])cc1
REMARK SMILES IDX 7 1 6 2 11 3 5 4 12 5 4 6 8 7 9 8 10 9 2 10 1 11 3 12
REMARK H PARENT
REMARK Flexibility Score: inf
ROOT
ATOM      1  C   UNL     1      36.703  18.113  11.537  1.00  0.00    -0.003 A 
ATOM      2  C   UNL     1      37.851  18.030  12.344  1.00  0.00     0.010 A 
ATOM      3  C   UNL     1      36.856  18.326  10.157  1.00  0.00     0.010 A 
ATOM      4  C   UNL     1      39.124  18.159  11.783  1.00  0.00     0.004 A 
ATOM      5  C   UNL     1      38.130  18.455   9.596  1.00  0.00     0.004 A 
ATOM      6  C   UNL     1      39.278  18.372  10.401  1.00  0.00    -0.045 A 
ENDROOT
BRANCH   1   7
ATOM      7  C   UNL     1      35.353  17.978  12.126  1.00  0.00     0.071 C 
ATOM      8  O   UNL     1      34.892  16.842  12.417  1.00  0.00    -0.545 OA
ATOM      9  O   UNL     1      34.573  19.103  12.366  1.00  0.00    -0.545 OA
ENDBRANCH   1   7
BRANCH   6  10
ATOM     10  C   UNL     1      40.655  18.512   9.779  1.00  0.00     0.013 C 
ATOM     11  C   UNL     1      41.749  18.512  10.853  1.00  0.00     0.012 C 
ATOM     12  C   UNL     1      40.905  17.416   8.737  1.00  0.00     0.012 C 
ENDBRANCH   6  10
TORSDOF 2
ENDMDL
MODEL 8
REMARK VINA RESULT:    -5.028     11.179     13.426
REMARK INTER + INTRA:          -5.819
REMARK INTER:                  -5.603
REMARK INTRA:                  -0.216
REMARK UNBOUND:                -0.204
REMARK SMILES CC(C)c1ccc(C(=O)[O-])cc1
REMARK SMILES IDX 7 1 6 2 11 3 5 4 12 5 4 6 8 7 9 8 10 9 2 10 1 11 3 12
REMARK H PARENT
REMARK Flexibility Score: inf
ROOT
ATOM      1  C   UNL     1      28.172  11.572  14.739  1.00  0.00    -0.003 A 
ATOM      2  C   UNL     1      29.286  11.539  13.885  1.00  0.00     0.010 A 
ATOM      3  C   UNL     1      28.338  12.032  16.056  1.00  0.00     0.010 A 
ATOM      4  C   UNL     1      30.540  11.957  14.337  1.00  0.00     0.004 A 
ATOM      5  C   UNL     1      29.593  12.450  16.509  1.00  0.00     0.004 A 
ATOM      6  C   UNL     1      30.708  12.418  15.655  1.00  0.00    -0.045 A 
ENDROOT
BRANCH   1   7
ATOM      7  C   UNL     1      26.842  11.130  14.266  1.00  0.00     0.071 C 
ATOM      8  O   UNL     1      26.733  10.139  13.495  1.00  0.00    -0.545 OA
ATOM      9  O   UNL     1      25.693  11.802  14.664  1.00  0.00    -0.545 OA
ENDBRANCH   1   7
BRANCH   6  10
ATOM     10  C   UNL     1      32.064  12.876  16.159  1.00  0.00     0.013 C 
ATOM     11  C   UNL     1      33.090  12.917  15.021  1.00  0.00     0.012 C 
ATOM     12  C   UNL     1      31.963  14.235  16.861  1.00  0.00     0.012 C 
ENDBRANCH   6  10
TORSDOF 2
ENDMDL
MODEL 9
REMARK VINA RESULT:    -4.984      8.682     10.859
REMARK INTER + INTRA:          -5.771
REMARK INTER:                  -5.561
REMARK INTRA:                  -0.209
REMARK UNBOUND:                -0.204
REMARK SMILES CC(C)c1ccc(C(=O)[O-])cc1
REMARK SMILES IDX 7 1 6 2 11 3 5 4 12 5 4 6 8 7 9 8 10 9 2 10 1 11 3 12
REMARK H PARENT
REMARK Flexibility Score: inf
ROOT
ATOM      1  C   UNL     1      32.476  13.639  15.526  1.00  0.00    -0.003 A 
ATOM      2  C   UNL     1      31.251  14.254  15.833  1.00  0.00     0.010 A 
ATOM      3  C   UNL     1      32.469  12.354  14.957  1.00  0.00     0.010 A 
ATOM      4  C   UNL     1      30.044  13.599  15.578  1.00  0.00     0.004 A 
ATOM      5  C   UNL     1      31.260  11.699  14.701  1.00  0.00     0.004 A 
ATOM      6  C   UNL     1      30.035  12.313  15.008  1.00  0.00    -0.045 A 
ENDROOT
BRANCH   1   7
ATOM      7  C   UNL     1      33.757  14.327  15.795  1.00  0.00     0.071 C 
ATOM      8  O   UNL     1      34.843  13.853  15.364  1.00  0.00    -0.545 OA
ATOM      9  O   UNL     1      33.783  15.508  16.528  1.00  0.00    -0.545 OA
ENDBRANCH   1   7
BRANCH   6  10
ATOM     10  C   UNL     1      28.731  11.591  14.723  1.00  0.00     0.013 C 
ATOM     11  C   UNL     1      27.767  11.704  15.911  1.00  0.00     0.012 C 
ATOM     12  C   UNL     1      28.082  12.108  13.434  1.00  0.00     0.012 C 
ENDBRANCH   6  10
TORSDOF 2
ENDMDL
