MODEL 1
REMARK VINA RESULT:    -6.033      0.000      0.000
REMARK INTER + INTRA:          -7.660
REMARK INTER:                  -7.444
REMARK INTRA:                  -0.216
REMARK UNBOUND:                -0.216
REMARK SMILES O=c1c(O)c(-c2cc(O)c(O)c(O)c2)oc2cc(O)cc(O)c12
REMARK SMILES IDX 5 1 3 2 2 3 1 4 23 5 21 6 20 7 18 8 17 9 16 10 15 11 6 12
REMARK SMILES IDX 7 13 8 14 14 15 10 16 12 17 9 18 11 20 13 22 4 24 22 26
REMARK SMILES IDX 19 28
REMARK H PARENT 9 19 11 21 13 23 4 25 22 27 19 29
REMARK Flexibility Score: inf
ROOT
ATOM      1  C   UNL     1      28.534  32.830 122.071  1.00  0.00     0.180 A 
ATOM      2  C   UNL     1      29.501  32.108 122.791  1.00  0.00     0.208 A 
ATOM      3  C   UNL     1      29.596  32.291 124.180  1.00  0.00     0.238 A 
ATOM      4  O   UNL     1      30.499  31.682 124.809  1.00  0.00    -0.285 OA
ATOM      5  C   UNL     1      28.712  33.183 124.834  1.00  0.00     0.111 A 
ATOM      6  C   UNL     1      28.693  33.417 126.241  1.00  0.00     0.134 A 
ATOM      7  C   UNL     1      27.864  34.418 126.764  1.00  0.00     0.093 A 
ATOM      8  C   UNL     1      27.008  35.148 125.940  1.00  0.00     0.123 A 
ATOM      9  C   UNL     1      26.975  34.886 124.569  1.00  0.00     0.094 A 
ATOM     10  C   UNL     1      27.817  33.918 124.014  1.00  0.00     0.146 A 
ATOM     11  O   UNL     1      27.763  33.708 122.704  1.00  0.00    -0.452 OA
ENDROOT
BRANCH   1  12
ATOM     12  C   UNL     1      28.356  32.671 120.610  1.00  0.00     0.029 A 
ATOM     13  C   UNL     1      27.201  32.044 120.119  1.00  0.00     0.062 A 
ATOM     14  C   UNL     1      27.019  31.863 118.741  1.00  0.00     0.162 A 
ATOM     15  C   UNL     1      29.348  33.085 119.704  1.00  0.00     0.062 A 
ATOM     16  C   UNL     1      28.002  32.296 117.841  1.00  0.00     0.200 A 
ATOM     17  C   UNL     1      29.173  32.905 118.324  1.00  0.00     0.162 A 
BRANCH  14  18
ATOM     18  O   UNL     1      25.864  31.252 118.258  1.00  0.00    -0.504 OA
ATOM     19  H   UNL     1      24.942  31.594 118.501  1.00  0.00     0.293 HD
ENDBRANCH  14  18
BRANCH  16  20
ATOM     20  O   UNL     1      27.803  32.110 116.473  1.00  0.00    -0.502 OA
ATOM     21  H   UNL     1      28.396  31.504 115.919  1.00  0.00     0.293 HD
ENDBRANCH  16  20
BRANCH  17  22
ATOM     22  O   UNL     1      30.160  33.324 117.434  1.00  0.00    -0.504 OA
ATOM     23  H   UNL     1      30.874  32.691 117.096  1.00  0.00     0.293 HD
ENDBRANCH  17  22
ENDBRANCH   1  12
BRANCH   2  24
ATOM     24  O   UNL     1      30.376  31.248 122.122  1.00  0.00    -0.502 OA
ATOM     25  H   UNL     1      31.246  30.931 122.533  1.00  0.00     0.293 HD
ENDBRANCH   2  24
BRANCH   6  26
ATOM     26  O   UNL     1      29.441  32.681 127.166  1.00  0.00    -0.507 OA
ATOM     27  H   UNL     1      30.444  32.581 127.143  1.00  0.00     0.293 HD
ENDBRANCH   6  26
BRANCH   8  28
ATOM     28  O   UNL     1      26.186  36.125 126.497  1.00  0.00    -0.508 OA
ATOM     29  H   UNL     1      26.399  36.548 127.393  1.00  0.00     0.293 HD
ENDBRANCH   8  28
TORSDOF 7
ENDMDL
MODEL 2
REMARK VINA RESULT:    -5.951      2.315      7.346
REMARK INTER + INTRA:          -7.558
REMARK INTER:                  -7.243
REMARK INTRA:                  -0.315
REMARK UNBOUND:                -0.216
REMARK SMILES O=c1c(O)c(-c2cc(O)c(O)c(O)c2)oc2cc(O)cc(O)c12
REMARK SMILES IDX 5 1 3 2 2 3 1 4 23 5 21 6 20 7 18 8 17 9 16 10 15 11 6 12
REMARK SMILES IDX 7 13 8 14 14 15 10 16 12 17 9 18 11 20 13 22 4 24 22 26
REMARK SMILES IDX 19 28
REMARK H PARENT 9 19 11 21 13 23 4 25 22 27 19 29
REMARK Flexibility Score: inf
ROOT
ATOM      1  C   UNL     1      28.984  32.855 125.422  1.00  0.00     0.180 A 
ATOM      2  C   UNL     1      29.938  32.257 124.581  1.00  0.00     0.208 A 
ATOM      3  C   UNL     1      29.663  32.147 123.208  1.00  0.00     0.238 A 
ATOM      4  O   UNL     1      30.497  31.562 122.469  1.00  0.00    -0.285 OA
ATOM      5  C   UNL     1      28.445  32.649 122.691  1.00  0.00     0.111 A 
ATOM      6  C   UNL     1      28.078  32.626 121.312  1.00  0.00     0.134 A 
ATOM      7  C   UNL     1      26.794  33.033 120.932  1.00  0.00     0.093 A 
ATOM      8  C   UNL     1      25.885  33.521 121.869  1.00  0.00     0.123 A 
ATOM      9  C   UNL     1      26.253  33.604 123.213  1.00  0.00     0.094 A 
ATOM     10  C   UNL     1      27.516  33.172 123.629  1.00  0.00     0.146 A 
ATOM     11  O   UNL     1      27.823  33.257 124.917  1.00  0.00    -0.452 OA
ENDROOT
BRANCH   1  12
ATOM     12  C   UNL     1      29.213  33.030 126.874  1.00  0.00     0.029 A 
ATOM     13  C   UNL     1      28.512  32.226 127.785  1.00  0.00     0.062 A 
ATOM     14  C   UNL     1      28.696  32.386 129.166  1.00  0.00     0.162 A 
ATOM     15  C   UNL     1      30.075  34.026 127.363  1.00  0.00     0.062 A 
ATOM     16  C   UNL     1      29.573  33.366 129.647  1.00  0.00     0.200 A 
ATOM     17  C   UNL     1      30.262  34.193 128.743  1.00  0.00     0.162 A 
BRANCH  14  18
ATOM     18  O   UNL     1      28.008  31.574 130.066  1.00  0.00    -0.504 OA
ATOM     19  H   UNL     1      28.218  30.587 130.157  1.00  0.00     0.293 HD
ENDBRANCH  14  18
BRANCH  16  20
ATOM     20  O   UNL     1      29.745  33.509 131.024  1.00  0.00    -0.502 OA
ATOM     21  H   UNL     1      29.249  34.212 131.559  1.00  0.00     0.293 HD
ENDBRANCH  16  20
BRANCH  17  22
ATOM     22  O   UNL     1      31.125  35.179 129.218  1.00  0.00    -0.504 OA
ATOM     23  H   UNL     1      31.812  35.618 128.617  1.00  0.00     0.293 HD
ENDBRANCH  17  22
ENDBRANCH   1  12
BRANCH   2  24
ATOM     24  O   UNL     1      31.125  31.749 125.115  1.00  0.00    -0.502 OA
ATOM     25  H   UNL     1      31.341  31.798 126.104  1.00  0.00     0.293 HD
ENDBRANCH   2  24
BRANCH   6  26
ATOM     26  O   UNL     1      28.943  32.243 120.281  1.00  0.00    -0.507 OA
ATOM     27  H   UNL     1      29.649  31.527 120.360  1.00  0.00     0.293 HD
ENDBRANCH   6  26
BRANCH   8  28
ATOM     28  O   UNL     1      24.621  33.931 121.453  1.00  0.00    -0.508 OA
ATOM     29  H   UNL     1      24.451  34.877 121.128  1.00  0.00     0.293 HD
ENDBRANCH   8  28
TORSDOF 7
ENDMDL
MODEL 3
REMARK VINA RESULT:    -5.664      1.209      3.274
REMARK INTER + INTRA:          -7.205
REMARK INTER:                  -7.148
REMARK INTRA:                  -0.057
REMARK UNBOUND:                -0.216
REMARK SMILES O=c1c(O)c(-c2cc(O)c(O)c(O)c2)oc2cc(O)cc(O)c12
REMARK SMILES IDX 5 1 3 2 2 3 1 4 23 5 21 6 20 7 18 8 17 9 16 10 15 11 6 12
REMARK SMILES IDX 7 13 8 14 14 15 10 16 12 17 9 18 11 20 13 22 4 24 22 26
REMARK SMILES IDX 19 28
REMARK H PARENT 9 19 11 21 13 23 4 25 22 27 19 29
REMARK Flexibility Score: inf
ROOT
ATOM      1  C   UNL     1      27.939  33.415 122.083  1.00  0.00     0.180 A 
ATOM      2  C   UNL     1      26.845  34.178 122.524  1.00  0.00     0.208 A 
ATOM      3  C   UNL     1      26.832  34.652 123.845  1.00  0.00     0.238 A 
ATOM      4  O   UNL     1      25.825  35.289 124.250  1.00  0.00    -0.285 OA
ATOM      5  C   UNL     1      27.921  34.370 124.705  1.00  0.00     0.111 A 
ATOM      6  C   UNL     1      28.033  34.832 126.050  1.00  0.00     0.134 A 
ATOM      7  C   UNL     1      29.092  34.384 126.849  1.00  0.00     0.093 A 
ATOM      8  C   UNL     1      30.077  33.543 126.334  1.00  0.00     0.123 A 
ATOM      9  C   UNL     1      30.010  33.132 125.002  1.00  0.00     0.094 A 
ATOM     10  C   UNL     1      28.946  33.534 124.190  1.00  0.00     0.146 A 
ATOM     11  O   UNL     1      28.914  33.112 122.932  1.00  0.00    -0.452 OA
ENDROOT
BRANCH   1  12
ATOM     12  C   UNL     1      28.035  32.902 120.697  1.00  0.00     0.029 A 
ATOM     13  C   UNL     1      29.153  33.231 119.915  1.00  0.00     0.062 A 
ATOM     14  C   UNL     1      29.259  32.776 118.594  1.00  0.00     0.162 A 
ATOM     15  C   UNL     1      27.003  32.139 120.126  1.00  0.00     0.062 A 
ATOM     16  C   UNL     1      28.235  31.998 118.037  1.00  0.00     0.200 A 
ATOM     17  C   UNL     1      27.100  31.682 118.804  1.00  0.00     0.162 A 
BRANCH  14  18
ATOM     18  O   UNL     1      30.378  33.093 117.827  1.00  0.00    -0.504 OA
ATOM     19  H   UNL     1      31.241  33.408 118.253  1.00  0.00     0.293 HD
ENDBRANCH  14  18
BRANCH  16  20
ATOM     20  O   UNL     1      28.358  31.550 116.721  1.00  0.00    -0.502 OA
ATOM     21  H   UNL     1      29.073  31.904 116.097  1.00  0.00     0.293 HD
ENDBRANCH  16  20
BRANCH  17  22
ATOM     22  O   UNL     1      26.073  30.920 118.249  1.00  0.00    -0.504 OA
ATOM     23  H   UNL     1      25.109  31.040 118.536  1.00  0.00     0.293 HD
ENDBRANCH  17  22
ENDBRANCH   1  12
BRANCH   2  24
ATOM     24  O   UNL     1      25.771  34.427 121.665  1.00  0.00    -0.502 OA
ATOM     25  H   UNL     1      25.838  35.064 120.880  1.00  0.00     0.293 HD
ENDBRANCH   2  24
BRANCH   6  26
ATOM     26  O   UNL     1      27.153  35.748 126.637  1.00  0.00    -0.507 OA
ATOM     27  H   UNL     1      26.330  36.121 126.188  1.00  0.00     0.293 HD
ENDBRANCH   6  26
BRANCH   8  28
ATOM     28  O   UNL     1      31.124  33.129 127.154  1.00  0.00    -0.508 OA
ATOM     29  H   UNL     1      31.829  32.477 126.826  1.00  0.00     0.293 HD
ENDBRANCH   8  28
TORSDOF 7
ENDMDL
MODEL 4
REMARK VINA RESULT:    -5.598      2.390      8.050
REMARK INTER + INTRA:          -7.123
REMARK INTER:                  -6.783
REMARK INTRA:                  -0.340
REMARK UNBOUND:                -0.216
REMARK SMILES O=c1c(O)c(-c2cc(O)c(O)c(O)c2)oc2cc(O)cc(O)c12
REMARK SMILES IDX 5 1 3 2 2 3 1 4 23 5 21 6 20 7 18 8 17 9 16 10 15 11 6 12
REMARK SMILES IDX 7 13 8 14 14 15 10 16 12 17 9 18 11 20 13 22 4 24 22 26
REMARK SMILES IDX 19 28
REMARK H PARENT 9 19 11 21 13 23 4 25 22 27 19 29
REMARK Flexibility Score: inf
ROOT
ATOM      1  C   UNL     1      28.982  33.749 125.886  1.00  0.00     0.180 A 
ATOM      2  C   UNL     1      28.067  34.696 125.396  1.00  0.00     0.208 A 
ATOM      3  C   UNL     1      27.888  34.817 124.009  1.00  0.00     0.238 A 
ATOM      4  O   UNL     1      27.107  35.704 123.575  1.00  0.00    -0.285 OA
ATOM      5  C   UNL     1      28.614  33.979 123.129  1.00  0.00     0.111 A 
ATOM      6  C   UNL     1      28.483  33.989 121.708  1.00  0.00     0.134 A 
ATOM      7  C   UNL     1      29.346  33.207 120.930  1.00  0.00     0.093 A 
ATOM      8  C   UNL     1      30.291  32.370 121.521  1.00  0.00     0.123 A 
ATOM      9  C   UNL     1      30.388  32.308 122.912  1.00  0.00     0.094 A 
ATOM     10  C   UNL     1      29.565  33.103 123.715  1.00  0.00     0.146 A 
ATOM     11  O   UNL     1      29.696  33.023 125.033  1.00  0.00    -0.452 OA
ENDROOT
BRANCH   1  12
ATOM     12  C   UNL     1      29.206  33.545 127.335  1.00  0.00     0.029 A 
ATOM     13  C   UNL     1      28.496  32.540 128.009  1.00  0.00     0.062 A 
ATOM     14  C   UNL     1      28.675  32.340 129.385  1.00  0.00     0.162 A 
ATOM     15  C   UNL     1      30.074  34.375 128.064  1.00  0.00     0.062 A 
ATOM     16  C   UNL     1      29.558  33.158 130.103  1.00  0.00     0.200 A 
ATOM     17  C   UNL     1      30.256  34.183 129.441  1.00  0.00     0.162 A 
BRANCH  14  18
ATOM     18  O   UNL     1      27.978  31.332 130.047  1.00  0.00    -0.504 OA
ATOM     19  H   UNL     1      26.998  31.153 129.860  1.00  0.00     0.293 HD
ENDBRANCH  14  18
BRANCH  16  20
ATOM     20  O   UNL     1      29.726  32.943 131.471  1.00  0.00    -0.502 OA
ATOM     21  H   UNL     1      29.002  33.163 132.144  1.00  0.00     0.293 HD
ENDBRANCH  16  20
BRANCH  17  22
ATOM     22  O   UNL     1      31.125  35.007 130.154  1.00  0.00    -0.504 OA
ATOM     23  H   UNL     1      31.403  34.791 131.104  1.00  0.00     0.293 HD
ENDBRANCH  17  22
ENDBRANCH   1  12
BRANCH   2  24
ATOM     24  O   UNL     1      27.376  35.527 126.282  1.00  0.00    -0.502 OA
ATOM     25  H   UNL     1      27.331  36.532 126.161  1.00  0.00     0.293 HD
ENDBRANCH   2  24
BRANCH   6  26
ATOM     26  O   UNL     1      27.510  34.719 121.019  1.00  0.00    -0.507 OA
ATOM     27  H   UNL     1      27.697  35.332 120.239  1.00  0.00     0.293 HD
ENDBRANCH   6  26
BRANCH   8  28
ATOM     28  O   UNL     1      31.123  31.596 120.716  1.00  0.00    -0.508 OA
ATOM     29  H   UNL     1      32.130  31.600 120.836  1.00  0.00     0.293 HD
ENDBRANCH   8  28
TORSDOF 7
ENDMDL
MODEL 5
REMARK VINA RESULT:    -5.476      1.311      6.984
REMARK INTER + INTRA:          -6.972
REMARK INTER:                  -6.799
REMARK INTRA:                  -0.173
REMARK UNBOUND:                -0.216
REMARK SMILES O=c1c(O)c(-c2cc(O)c(O)c(O)c2)oc2cc(O)cc(O)c12
REMARK SMILES IDX 5 1 3 2 2 3 1 4 23 5 21 6 20 7 18 8 17 9 16 10 15 11 6 12
REMARK SMILES IDX 7 13 8 14 14 15 10 16 12 17 9 18 11 20 13 22 4 24 22 26
REMARK SMILES IDX 19 28
REMARK H PARENT 9 19 11 21 13 23 4 25 22 27 19 29
REMARK Flexibility Score: inf
ROOT
ATOM      1  C   UNL     1      28.395  32.981 121.834  1.00  0.00     0.180 A 
ATOM      2  C   UNL     1      29.698  32.875 121.318  1.00  0.00     0.208 A 
ATOM      3  C   UNL     1      29.869  32.557 119.961  1.00  0.00     0.238 A 
ATOM      4  O   UNL     1      31.038  32.410 119.517  1.00  0.00    -0.285 OA
ATOM      5  C   UNL     1      28.736  32.365 119.134  1.00  0.00     0.111 A 
ATOM      6  C   UNL     1      28.792  32.078 117.737  1.00  0.00     0.134 A 
ATOM      7  C   UNL     1      27.611  31.780 117.046  1.00  0.00     0.093 A 
ATOM      8  C   UNL     1      26.372  31.819 117.684  1.00  0.00     0.123 A 
ATOM      9  C   UNL     1      26.301  32.156 119.037  1.00  0.00     0.094 A 
ATOM     10  C   UNL     1      27.465  32.425 119.762  1.00  0.00     0.146 A 
ATOM     11  O   UNL     1      27.354  32.731 121.049  1.00  0.00    -0.452 OA
ENDROOT
BRANCH   1  12
ATOM     12  C   UNL     1      28.135  33.337 123.247  1.00  0.00     0.029 A 
ATOM     13  C   UNL     1      27.501  34.553 123.548  1.00  0.00     0.062 A 
ATOM     14  C   UNL     1      27.261  34.923 124.878  1.00  0.00     0.162 A 
ATOM     15  C   UNL     1      28.560  32.510 124.301  1.00  0.00     0.062 A 
ATOM     16  C   UNL     1      27.669  34.084 125.923  1.00  0.00     0.200 A 
ATOM     17  C   UNL     1      28.325  32.875 125.634  1.00  0.00     0.162 A 
BRANCH  14  18
ATOM     18  O   UNL     1      26.619  36.124 125.170  1.00  0.00    -0.504 OA
ATOM     19  H   UNL     1      25.832  36.452 124.621  1.00  0.00     0.293 HD
ENDBRANCH  14  18
BRANCH  16  20
ATOM     20  O   UNL     1      27.419  34.467 127.242  1.00  0.00    -0.502 OA
ATOM     21  H   UNL     1      27.632  35.396 127.582  1.00  0.00     0.293 HD
ENDBRANCH  16  20
BRANCH  17  22
ATOM     22  O   UNL     1      28.745  32.044 126.671  1.00  0.00    -0.504 OA
ATOM     23  H   UNL     1      29.606  31.513 126.611  1.00  0.00     0.293 HD
ENDBRANCH  17  22
ENDBRANCH   1  12
BRANCH   2  24
ATOM     24  O   UNL     1      30.802  33.047 122.157  1.00  0.00    -0.502 OA
ATOM     25  H   UNL     1      31.684  33.422 121.825  1.00  0.00     0.293 HD
ENDBRANCH   2  24
BRANCH   6  26
ATOM     26  O   UNL     1      29.968  32.102 116.981  1.00  0.00    -0.507 OA
ATOM     27  H   UNL     1      30.273  31.360 116.369  1.00  0.00     0.293 HD
ENDBRANCH   6  26
BRANCH   8  28
ATOM     28  O   UNL     1      25.218  31.531 116.962  1.00  0.00    -0.508 OA
ATOM     29  H   UNL     1      24.295  31.684 117.354  1.00  0.00     0.293 HD
ENDBRANCH   8  28
TORSDOF 7
ENDMDL
MODEL 6
REMARK VINA RESULT:    -5.406      1.862      7.259
REMARK INTER + INTRA:          -6.886
REMARK INTER:                  -6.696
REMARK INTRA:                  -0.190
REMARK UNBOUND:                -0.216
REMARK SMILES O=c1c(O)c(-c2cc(O)c(O)c(O)c2)oc2cc(O)cc(O)c12
REMARK SMILES IDX 5 1 3 2 2 3 1 4 23 5 21 6 20 7 18 8 17 9 16 10 15 11 6 12
REMARK SMILES IDX 7 13 8 14 14 15 10 16 12 17 9 18 11 20 13 22 4 24 22 26
REMARK SMILES IDX 19 28
REMARK H PARENT 9 19 11 21 13 23 4 25 22 27 19 29
REMARK Flexibility Score: inf
ROOT
ATOM      1  C   UNL     1      28.751  32.624 120.130  1.00  0.00     0.180 A 
ATOM      2  C   UNL     1      29.808  32.380 119.236  1.00  0.00     0.208 A 
ATOM      3  C   UNL     1      29.515  32.138 117.884  1.00  0.00     0.238 A 
ATOM      4  O   UNL     1      30.461  31.867 117.100  1.00  0.00    -0.285 OA
ATOM      5  C   UNL     1      28.171  32.158 117.440  1.00  0.00     0.111 A 
ATOM      6  C   UNL     1      27.762  31.965 116.087  1.00  0.00     0.134 A 
ATOM      7  C   UNL     1      26.398  31.877 115.783  1.00  0.00     0.093 A 
ATOM      8  C   UNL     1      25.428  32.038 116.771  1.00  0.00     0.123 A 
ATOM      9  C   UNL     1      25.816  32.286 118.089  1.00  0.00     0.094 A 
ATOM     10  C   UNL     1      27.170  32.344 118.429  1.00  0.00     0.146 A 
ATOM     11  O   UNL     1      27.496  32.572 119.695  1.00  0.00    -0.452 OA
ENDROOT
BRANCH   1  12
ATOM     12  C   UNL     1      28.981  32.912 121.564  1.00  0.00     0.029 A 
ATOM     13  C   UNL     1      28.685  34.187 122.068  1.00  0.00     0.062 A 
ATOM     14  C   UNL     1      28.914  34.492 123.417  1.00  0.00     0.162 A 
ATOM     15  C   UNL     1      29.546  31.952 122.421  1.00  0.00     0.062 A 
ATOM     16  C   UNL     1      29.457  33.524 124.271  1.00  0.00     0.200 A 
ATOM     17  C   UNL     1      29.779  32.251 123.771  1.00  0.00     0.162 A 
BRANCH  14  18
ATOM     18  O   UNL     1      28.604  35.755 123.916  1.00  0.00    -0.504 OA
ATOM     19  H   UNL     1      28.009  36.397 123.404  1.00  0.00     0.293 HD
ENDBRANCH  14  18
BRANCH  16  20
ATOM     20  O   UNL     1      29.675  33.844 125.612  1.00  0.00    -0.502 OA
ATOM     21  H   UNL     1      30.602  33.859 126.018  1.00  0.00     0.293 HD
ENDBRANCH  16  20
BRANCH  17  22
ATOM     22  O   UNL     1      30.333  31.289 124.614  1.00  0.00    -0.504 OA
ATOM     23  H   UNL     1      30.248  30.299 124.418  1.00  0.00     0.293 HD
ENDBRANCH  17  22
ENDBRANCH   1  12
BRANCH   2  24
ATOM     24  O   UNL     1      31.125  32.344 119.700  1.00  0.00    -0.502 OA
ATOM     25  H   UNL     1      31.355  32.370 120.687  1.00  0.00     0.293 HD
ENDBRANCH   2  24
BRANCH   6  26
ATOM     26  O   UNL     1      28.648  31.884 115.007  1.00  0.00    -0.507 OA
ATOM     27  H   UNL     1      28.976  31.023 114.597  1.00  0.00     0.293 HD
ENDBRANCH   6  26
BRANCH   8  28
ATOM     28  O   UNL     1      24.080  31.958 116.430  1.00  0.00    -0.508 OA
ATOM     29  H   UNL     1      23.584  32.753 116.040  1.00  0.00     0.293 HD
ENDBRANCH   8  28
TORSDOF 7
ENDMDL
MODEL 7
REMARK VINA RESULT:    -5.400      1.788      7.666
REMARK INTER + INTRA:          -6.879
REMARK INTER:                  -6.672
REMARK INTRA:                  -0.207
REMARK UNBOUND:                -0.216
REMARK SMILES O=c1c(O)c(-c2cc(O)c(O)c(O)c2)oc2cc(O)cc(O)c12
REMARK SMILES IDX 5 1 3 2 2 3 1 4 23 5 21 6 20 7 18 8 17 9 16 10 15 11 6 12
REMARK SMILES IDX 7 13 8 14 14 15 10 16 12 17 9 18 11 20 13 22 4 24 22 26
REMARK SMILES IDX 19 28
REMARK H PARENT 9 19 11 21 13 23 4 25 22 27 19 29
REMARK Flexibility Score: inf
ROOT
ATOM      1  C   UNL     1      28.355  32.564 120.310  1.00  0.00     0.180 A 
ATOM      2  C   UNL     1      27.011  32.507 119.903  1.00  0.00     0.208 A 
ATOM      3  C   UNL     1      26.717  32.201 118.564  1.00  0.00     0.238 A 
ATOM      4  O   UNL     1      25.514  32.204 118.193  1.00  0.00    -0.285 OA
ATOM      5  C   UNL     1      27.769  31.940 117.653  1.00  0.00     0.111 A 
ATOM      6  C   UNL     1      27.586  31.582 116.284  1.00  0.00     0.134 A 
ATOM      7  C   UNL     1      28.700  31.474 115.444  1.00  0.00     0.093 A 
ATOM      8  C   UNL     1      29.994  31.648 115.935  1.00  0.00     0.123 A 
ATOM      9  C   UNL     1      30.188  31.941 117.286  1.00  0.00     0.094 A 
ATOM     10  C   UNL     1      29.093  32.090 118.142  1.00  0.00     0.146 A 
ATOM     11  O   UNL     1      29.321  32.379 119.417  1.00  0.00    -0.452 OA
ENDROOT
BRANCH   1  12
ATOM     12  C   UNL     1      28.743  32.855 121.709  1.00  0.00     0.029 A 
ATOM     13  C   UNL     1      28.514  34.134 122.237  1.00  0.00     0.062 A 
ATOM     14  C   UNL     1      28.891  34.441 123.551  1.00  0.00     0.162 A 
ATOM     15  C   UNL     1      29.389  31.893 122.504  1.00  0.00     0.062 A 
ATOM     16  C   UNL     1      29.516  33.472 124.346  1.00  0.00     0.200 A 
ATOM     17  C   UNL     1      29.771  32.194 123.819  1.00  0.00     0.162 A 
BRANCH  14  18
ATOM     18  O   UNL     1      28.648  35.709 124.076  1.00  0.00    -0.504 OA
ATOM     19  H   UNL     1      27.706  36.047 124.232  1.00  0.00     0.293 HD
ENDBRANCH  14  18
BRANCH  16  20
ATOM     20  O   UNL     1      29.881  33.794 125.653  1.00  0.00    -0.502 OA
ATOM     21  H   UNL     1      29.258  33.648 126.438  1.00  0.00     0.293 HD
ENDBRANCH  16  20
BRANCH  17  22
ATOM     22  O   UNL     1      30.405  31.230 124.601  1.00  0.00    -0.504 OA
ATOM     23  H   UNL     1      30.314  30.241 124.403  1.00  0.00     0.293 HD
ENDBRANCH  17  22
ENDBRANCH   1  12
BRANCH   2  24
ATOM     24  O   UNL     1      25.989  32.788 120.813  1.00  0.00    -0.502 OA
ATOM     25  H   UNL     1      25.245  33.445 120.609  1.00  0.00     0.293 HD
ENDBRANCH   2  24
BRANCH   6  26
ATOM     26  O   UNL     1      26.343  31.295 115.712  1.00  0.00    -0.507 OA
ATOM     27  H   UNL     1      25.809  30.457 115.889  1.00  0.00     0.293 HD
ENDBRANCH   6  26
BRANCH   8  28
ATOM     28  O   UNL     1      31.079  31.519 115.072  1.00  0.00    -0.508 OA
ATOM     29  H   UNL     1      31.133  32.043 114.206  1.00  0.00     0.293 HD
ENDBRANCH   8  28
TORSDOF 7
ENDMDL
MODEL 8
REMARK VINA RESULT:    -5.311      2.805      3.444
REMARK INTER + INTRA:          -6.769
REMARK INTER:                  -6.508
REMARK INTRA:                  -0.261
REMARK UNBOUND:                -0.216
REMARK SMILES O=c1c(O)c(-c2cc(O)c(O)c(O)c2)oc2cc(O)cc(O)c12
REMARK SMILES IDX 5 1 3 2 2 3 1 4 23 5 21 6 20 7 18 8 17 9 16 10 15 11 6 12
REMARK SMILES IDX 7 13 8 14 14 15 10 16 12 17 9 18 11 20 13 22 4 24 22 26
REMARK SMILES IDX 19 28
REMARK H PARENT 9 19 11 21 13 23 4 25 22 27 19 29
REMARK Flexibility Score: inf
ROOT
ATOM      1  C   UNL     1      27.314  33.672 122.146  1.00  0.00     0.180 A 
ATOM      2  C   UNL     1      28.143  32.608 121.751  1.00  0.00     0.208 A 
ATOM      3  C   UNL     1      29.163  32.181 122.617  1.00  0.00     0.238 A 
ATOM      4  O   UNL     1      29.936  31.265 122.235  1.00  0.00    -0.285 OA
ATOM      5  C   UNL     1      29.331  32.813 123.873  1.00  0.00     0.111 A 
ATOM      6  C   UNL     1      30.306  32.437 124.845  1.00  0.00     0.134 A 
ATOM      7  C   UNL     1      30.468  33.215 125.997  1.00  0.00     0.093 A 
ATOM      8  C   UNL     1      29.650  34.317 126.244  1.00  0.00     0.123 A 
ATOM      9  C   UNL     1      28.653  34.659 125.328  1.00  0.00     0.094 A 
ATOM     10  C   UNL     1      28.491  33.922 124.152  1.00  0.00     0.146 A 
ATOM     11  O   UNL     1      27.539  34.287 123.302  1.00  0.00    -0.452 OA
ENDROOT
BRANCH   1  12
ATOM     12  C   UNL     1      26.202  34.161 121.300  1.00  0.00     0.029 A 
ATOM     13  C   UNL     1      24.879  33.859 121.655  1.00  0.00     0.062 A 
ATOM     14  C   UNL     1      23.810  34.293 120.859  1.00  0.00     0.162 A 
ATOM     15  C   UNL     1      26.446  34.873 120.113  1.00  0.00     0.062 A 
ATOM     16  C   UNL     1      24.058  35.021 119.689  1.00  0.00     0.200 A 
ATOM     17  C   UNL     1      25.381  35.308 119.311  1.00  0.00     0.162 A 
BRANCH  14  18
ATOM     18  O   UNL     1      22.497  34.003 121.225  1.00  0.00    -0.504 OA
ATOM     19  H   UNL     1      21.775  33.849 120.532  1.00  0.00     0.293 HD
ENDBRANCH  14  18
BRANCH  16  20
ATOM     20  O   UNL     1      22.981  35.447 118.910  1.00  0.00    -0.502 OA
ATOM     21  H   UNL     1      22.437  34.806 118.347  1.00  0.00     0.293 HD
ENDBRANCH  16  20
BRANCH  17  22
ATOM     22  O   UNL     1      25.633  36.020 118.139  1.00  0.00    -0.504 OA
ATOM     23  H   UNL     1      26.519  36.485 117.980  1.00  0.00     0.293 HD
ENDBRANCH  17  22
ENDBRANCH   1  12
BRANCH   2  24
ATOM     24  O   UNL     1      27.973  32.013 120.499  1.00  0.00    -0.502 OA
ATOM     25  H   UNL     1      27.229  31.352 120.307  1.00  0.00     0.293 HD
ENDBRANCH   2  24
BRANCH   6  26
ATOM     26  O   UNL     1      31.114  31.300 124.741  1.00  0.00    -0.507 OA
ATOM     27  H   UNL     1      31.129  30.677 123.948  1.00  0.00     0.293 HD
ENDBRANCH   6  26
BRANCH   8  28
ATOM     28  O   UNL     1      29.829  35.059 127.409  1.00  0.00    -0.508 OA
ATOM     29  H   UNL     1      30.586  35.728 127.500  1.00  0.00     0.293 HD
ENDBRANCH   8  28
TORSDOF 7
ENDMDL
MODEL 9
REMARK VINA RESULT:    -5.293      1.801      7.408
REMARK INTER + INTRA:          -6.747
REMARK INTER:                  -6.529
REMARK INTRA:                  -0.218
REMARK UNBOUND:                -0.216
REMARK SMILES O=c1c(O)c(-c2cc(O)c(O)c(O)c2)oc2cc(O)cc(O)c12
REMARK SMILES IDX 5 1 3 2 2 3 1 4 23 5 21 6 20 7 18 8 17 9 16 10 15 11 6 12
REMARK SMILES IDX 7 13 8 14 14 15 10 16 12 17 9 18 11 20 13 22 4 24 22 26
REMARK SMILES IDX 19 28
REMARK H PARENT 9 19 11 21 13 23 4 25 22 27 19 29
REMARK Flexibility Score: inf
ROOT
ATOM      1  C   UNL     1      28.544  33.247 124.099  1.00  0.00     0.180 A 
ATOM      2  C   UNL     1      27.204  33.465 123.734  1.00  0.00     0.208 A 
ATOM      3  C   UNL     1      26.831  33.319 122.388  1.00  0.00     0.238 A 
ATOM      4  O   UNL     1      25.642  33.568 122.060  1.00  0.00    -0.285 OA
ATOM      5  C   UNL     1      27.798  32.941 121.427  1.00  0.00     0.111 A 
ATOM      6  C   UNL     1      27.525  32.726 120.043  1.00  0.00     0.134 A 
ATOM      7  C   UNL     1      28.583  32.482 119.159  1.00  0.00     0.093 A 
ATOM      8  C   UNL     1      29.896  32.382 119.617  1.00  0.00     0.123 A 
ATOM      9  C   UNL     1      30.169  32.532 120.978  1.00  0.00     0.094 A 
ATOM     10  C   UNL     1      29.138  32.812 121.879  1.00  0.00     0.146 A 
ATOM     11  O   UNL     1      29.441  32.958 123.163  1.00  0.00    -0.452 OA
ENDROOT
BRANCH   1  12
ATOM     12  C   UNL     1      29.007  33.358 125.500  1.00  0.00     0.029 A 
ATOM     13  C   UNL     1      28.541  32.442 126.456  1.00  0.00     0.062 A 
ATOM     14  C   UNL     1      28.948  32.538 127.794  1.00  0.00     0.162 A 
ATOM     15  C   UNL     1      29.862  34.396 125.908  1.00  0.00     0.062 A 
ATOM     16  C   UNL     1      29.817  33.563 128.190  1.00  0.00     0.200 A 
ATOM     17  C   UNL     1      30.272  34.499 127.245  1.00  0.00     0.162 A 
BRANCH  14  18
ATOM     18  O   UNL     1      28.494  31.617 128.736  1.00  0.00    -0.504 OA
ATOM     19  H   UNL     1      27.769  30.945 128.513  1.00  0.00     0.293 HD
ENDBRANCH  14  18
BRANCH  16  20
ATOM     20  O   UNL     1      30.215  33.641 129.525  1.00  0.00    -0.502 OA
ATOM     21  H   UNL     1      31.112  33.292 129.841  1.00  0.00     0.293 HD
ENDBRANCH  16  20
BRANCH  17  22
ATOM     22  O   UNL     1      31.125  35.529 127.638  1.00  0.00    -0.504 OA
ATOM     23  H   UNL     1      32.019  35.340 128.075  1.00  0.00     0.293 HD
ENDBRANCH  17  22
ENDBRANCH   1  12
BRANCH   2  24
ATOM     24  O   UNL     1      26.270  33.858 124.696  1.00  0.00    -0.502 OA
ATOM     25  H   UNL     1      26.094  34.831 124.919  1.00  0.00     0.293 HD
ENDBRANCH   2  24
BRANCH   6  26
ATOM     26  O   UNL     1      26.238  32.712 119.495  1.00  0.00    -0.507 OA
ATOM     27  H   UNL     1      25.612  33.503 119.479  1.00  0.00     0.293 HD
ENDBRANCH   6  26
BRANCH   8  28
ATOM     28  O   UNL     1      30.922  32.124 118.711  1.00  0.00    -0.508 OA
ATOM     29  H   UNL     1      30.959  32.583 117.807  1.00  0.00     0.293 HD
ENDBRANCH   8  28
TORSDOF 7
ENDMDL
