MODEL 1
REMARK VINA RESULT:    -4.321      0.000      0.000
REMARK INTER + INTRA:          -8.929
REMARK INTER:                  -7.351
REMARK INTRA:                  -1.578
REMARK UNBOUND:                -1.578
REMARK SMILES CCCCCCCCCCCCCC(=O)[O-]
REMARK SMILES IDX 8 1 9 2 10 3 11 4 12 5 13 6 14 7 15 8 16 9 7 10 6 11 5 12
REMARK SMILES IDX 4 13 3 14 2 15 1 16
REMARK H PARENT
REMARK Flexibility Score: inf
ROOT
ATOM      1  C   UNL     1      28.981  21.507  11.706  1.00  0.00     0.000 C 
ENDROOT
BRANCH   1   2
ATOM      2  C   UNL     1      29.747  22.483  10.795  1.00  0.00     0.000 C 
BRANCH   2   3
ATOM      3  C   UNL     1      31.098  22.975  11.353  1.00  0.00     0.000 C 
BRANCH   3   4
ATOM      4  C   UNL     1      31.229  22.928  12.888  1.00  0.00     0.000 C 
BRANCH   4   5
ATOM      5  C   UNL     1      32.675  22.863  13.418  1.00  0.00     0.006 C 
BRANCH   5   6
ATOM      6  C   UNL     1      32.980  21.628  14.281  1.00  0.00     0.053 C 
BRANCH   6   7
ATOM      7  C   UNL     1      34.366  21.667  14.847  1.00  0.00     0.041 C 
ATOM      8  O   UNL     1      34.617  22.370  15.861  1.00  0.00    -0.550 OA
ATOM      9  O   UNL     1      35.373  20.901  14.275  1.00  0.00    -0.550 OA
ENDBRANCH   6   7
ENDBRANCH   5   6
ENDBRANCH   4   5
ENDBRANCH   3   4
ENDBRANCH   2   3
ENDBRANCH   1   2
BRANCH   1  10
ATOM     10  C   UNL     1      27.852  20.767  10.971  1.00  0.00     0.000 C 
BRANCH  10  11
ATOM     11  C   UNL     1      27.882  19.250  11.222  1.00  0.00    -0.000 C 
BRANCH  11  12
ATOM     12  C   UNL     1      29.299  18.731  11.520  1.00  0.00    -0.000 C 
BRANCH  12  13
ATOM     13  C   UNL     1      30.088  18.374  10.246  1.00  0.00    -0.000 C 
BRANCH  13  14
ATOM     14  C   UNL     1      31.619  18.386  10.402  1.00  0.00    -0.000 C 
BRANCH  14  15
ATOM     15  C   UNL     1      32.105  19.379  11.468  1.00  0.00    -0.003 C 
ATOM     16  C   UNL     1      33.442  19.999  11.072  1.00  0.00     0.004 C 
ENDBRANCH  14  15
ENDBRANCH  13  14
ENDBRANCH  12  13
ENDBRANCH  11  12
ENDBRANCH  10  11
ENDBRANCH   1  10
TORSDOF 12
ENDMDL
MODEL 2
REMARK VINA RESULT:    -4.288      0.888      2.888
REMARK INTER + INTRA:          -8.874
REMARK INTER:                  -7.400
REMARK INTRA:                  -1.474
REMARK UNBOUND:                -1.578
REMARK SMILES CCCCCCCCCCCCCC(=O)[O-]
REMARK SMILES IDX 8 1 9 2 10 3 11 4 12 5 13 6 14 7 15 8 16 9 7 10 6 11 5 12
REMARK SMILES IDX 4 13 3 14 2 15 1 16
REMARK H PARENT
REMARK Flexibility Score: inf
ROOT
ATOM      1  C   UNL     1      31.653  19.148  11.707  1.00  0.00     0.000 C 
ENDROOT
BRANCH   1   2
ATOM      2  C   UNL     1      32.775  20.197  11.605  1.00  0.00     0.000 C 
BRANCH   2   3
ATOM      3  C   UNL     1      32.373  21.626  12.022  1.00  0.00     0.000 C 
BRANCH   3   4
ATOM      4  C   UNL     1      31.601  21.727  13.353  1.00  0.00     0.000 C 
BRANCH   4   5
ATOM      5  C   UNL     1      32.380  22.386  14.510  1.00  0.00     0.006 C 
BRANCH   5   6
ATOM      6  C   UNL     1      33.869  22.629  14.214  1.00  0.00     0.053 C 
BRANCH   6   7
ATOM      7  C   UNL     1      34.738  21.559  14.800  1.00  0.00     0.041 C 
ATOM      8  O   UNL     1      34.852  21.447  16.049  1.00  0.00    -0.550 OA
ATOM      9  O   UNL     1      35.396  20.663  13.967  1.00  0.00    -0.550 OA
ENDBRANCH   6   7
ENDBRANCH   5   6
ENDBRANCH   4   5
ENDBRANCH   3   4
ENDBRANCH   2   3
ENDBRANCH   1   2
BRANCH   1  10
ATOM     10  C   UNL     1      31.312  18.506  10.352  1.00  0.00     0.000 C 
BRANCH  10  11
ATOM     11  C   UNL     1      29.832  18.102  10.248  1.00  0.00    -0.000 C 
BRANCH  11  12
ATOM     12  C   UNL     1      28.985  18.669  11.400  1.00  0.00    -0.000 C 
BRANCH  12  13
ATOM     13  C   UNL     1      27.661  19.292  10.920  1.00  0.00    -0.000 C 
BRANCH  13  14
ATOM     14  C   UNL     1      27.415  20.739  11.382  1.00  0.00    -0.000 C 
BRANCH  14  15
ATOM     15  C   UNL     1      28.703  21.572  11.454  1.00  0.00    -0.003 C 
ATOM     16  C   UNL     1      29.114  22.070  10.071  1.00  0.00     0.004 C 
ENDBRANCH  14  15
ENDBRANCH  13  14
ENDBRANCH  12  13
ENDBRANCH  11  12
ENDBRANCH  10  11
ENDBRANCH   1  10
TORSDOF 12
ENDMDL
MODEL 3
REMARK VINA RESULT:    -4.232      3.299      6.054
REMARK INTER + INTRA:          -8.779
REMARK INTER:                  -7.342
REMARK INTRA:                  -1.436
REMARK UNBOUND:                -1.578
REMARK SMILES CCCCCCCCCCCCCC(=O)[O-]
REMARK SMILES IDX 8 1 9 2 10 3 11 4 12 5 13 6 14 7 15 8 16 9 7 10 6 11 5 12
REMARK SMILES IDX 4 13 3 14 2 15 1 16
REMARK H PARENT
REMARK Flexibility Score: inf
ROOT
ATOM      1  C   UNL     1      32.264  19.239  12.656  1.00  0.00     0.000 C 
ENDROOT
BRANCH   1   2
ATOM      2  C   UNL     1      32.533  19.378  11.147  1.00  0.00     0.000 C 
BRANCH   2   3
ATOM      3  C   UNL     1      31.593  18.563  10.237  1.00  0.00     0.000 C 
BRANCH   3   4
ATOM      4  C   UNL     1      30.262  19.255   9.883  1.00  0.00     0.000 C 
BRANCH   4   5
ATOM      5  C   UNL     1      29.073  18.889  10.794  1.00  0.00     0.006 C 
BRANCH   5   6
ATOM      6  C   UNL     1      27.711  19.402  10.298  1.00  0.00     0.053 C 
BRANCH   6   7
ATOM      7  C   UNL     1      27.362  20.730  10.894  1.00  0.00     0.041 C 
ATOM      8  O   UNL     1      28.090  21.236  11.787  1.00  0.00    -0.550 OA
ATOM      9  O   UNL     1      26.250  21.427  10.438  1.00  0.00    -0.550 OA
ENDBRANCH   6   7
ENDBRANCH   5   6
ENDBRANCH   4   5
ENDBRANCH   3   4
ENDBRANCH   2   3
ENDBRANCH   1   2
BRANCH   1  10
ATOM     10  C   UNL     1      31.568  20.474  13.253  1.00  0.00     0.000 C 
BRANCH  10  11
ATOM     11  C   UNL     1      31.749  21.729  12.383  1.00  0.00    -0.000 C 
BRANCH  11  12
ATOM     12  C   UNL     1      32.069  22.982  13.216  1.00  0.00    -0.000 C 
BRANCH  12  13
ATOM     13  C   UNL     1      32.464  22.652  14.667  1.00  0.00    -0.000 C 
BRANCH  13  14
ATOM     14  C   UNL     1      33.964  22.797  14.983  1.00  0.00    -0.000 C 
BRANCH  14  15
ATOM     15  C   UNL     1      34.620  21.471  15.392  1.00  0.00    -0.003 C 
ATOM     16  C   UNL     1      35.213  20.755  14.182  1.00  0.00     0.004 C 
ENDBRANCH  14  15
ENDBRANCH  13  14
ENDBRANCH  12  13
ENDBRANCH  11  12
ENDBRANCH  10  11
ENDBRANCH   1  10
TORSDOF 12
ENDMDL
MODEL 4
REMARK VINA RESULT:    -4.105      2.376      4.772
REMARK INTER + INTRA:          -8.562
REMARK INTER:                  -6.879
REMARK INTRA:                  -1.683
REMARK UNBOUND:                -1.578
REMARK SMILES CCCCCCCCCCCCCC(=O)[O-]
REMARK SMILES IDX 8 1 9 2 10 3 11 4 12 5 13 6 14 7 15 8 16 9 7 10 6 11 5 12
REMARK SMILES IDX 4 13 3 14 2 15 1 16
REMARK H PARENT
REMARK Flexibility Score: inf
ROOT
ATOM      1  C   UNL     1      28.570  21.657  11.608  1.00  0.00     0.000 C 
ENDROOT
BRANCH   1   2
ATOM      2  C   UNL     1      27.366  20.792  11.195  1.00  0.00     0.000 C 
BRANCH   2   3
ATOM      3  C   UNL     1      27.486  19.295  11.546  1.00  0.00     0.000 C 
BRANCH   3   4
ATOM      4  C   UNL     1      28.917  18.724  11.499  1.00  0.00     0.000 C 
BRANCH   4   5
ATOM      5  C   UNL     1      29.513  18.573  10.085  1.00  0.00     0.006 C 
BRANCH   5   6
ATOM      6  C   UNL     1      30.844  19.313   9.875  1.00  0.00     0.053 C 
BRANCH   6   7
ATOM      7  C   UNL     1      32.023  18.409  10.064  1.00  0.00     0.041 C 
ATOM      8  O   UNL     1      31.878  17.159  10.019  1.00  0.00    -0.550 OA
ATOM      9  O   UNL     1      33.289  18.947  10.257  1.00  0.00    -0.550 OA
ENDBRANCH   6   7
ENDBRANCH   5   6
ENDBRANCH   4   5
ENDBRANCH   3   4
ENDBRANCH   2   3
ENDBRANCH   1   2
BRANCH   1  10
ATOM     10  C   UNL     1      29.284  22.296  10.405  1.00  0.00     0.000 C 
BRANCH  10  11
ATOM     11  C   UNL     1      30.580  23.020  10.806  1.00  0.00    -0.000 C 
BRANCH  11  12
ATOM     12  C   UNL     1      30.958  22.777  12.278  1.00  0.00    -0.000 C 
BRANCH  12  13
ATOM     13  C   UNL     1      32.462  22.510  12.473  1.00  0.00    -0.000 C 
BRANCH  13  14
ATOM     14  C   UNL     1      32.833  21.042  12.754  1.00  0.00    -0.000 C 
BRANCH  14  15
ATOM     15  C   UNL     1      31.738  20.283  13.518  1.00  0.00    -0.003 C 
ATOM     16  C   UNL     1      32.111  18.815  13.698  1.00  0.00     0.004 C 
ENDBRANCH  14  15
ENDBRANCH  13  14
ENDBRANCH  12  13
ENDBRANCH  11  12
ENDBRANCH  10  11
ENDBRANCH   1  10
TORSDOF 12
ENDMDL
MODEL 5
REMARK VINA RESULT:    -4.023     15.563     18.383
REMARK INTER + INTRA:          -8.422
REMARK INTER:                  -7.000
REMARK INTRA:                  -1.422
REMARK UNBOUND:                -1.578
REMARK SMILES CCCCCCCCCCCCCC(=O)[O-]
REMARK SMILES IDX 8 1 9 2 10 3 11 4 12 5 13 6 14 7 15 8 16 9 7 10 6 11 5 12
REMARK SMILES IDX 4 13 3 14 2 15 1 16
REMARK H PARENT
REMARK Flexibility Score: inf
ROOT
ATOM      1  C   UNL     1      45.584  14.328  21.214  1.00  0.00     0.000 C 
ENDROOT
BRANCH   1   2
ATOM      2  C   UNL     1      45.583  14.253  22.752  1.00  0.00     0.000 C 
BRANCH   2   3
ATOM      3  C   UNL     1      44.763  13.092  23.349  1.00  0.00     0.000 C 
BRANCH   3   4
ATOM      4  C   UNL     1      44.484  11.923  22.385  1.00  0.00     0.000 C 
BRANCH   4   5
ATOM      5  C   UNL     1      43.655  10.768  22.983  1.00  0.00     0.006 C 
BRANCH   5   6
ATOM      6  C   UNL     1      44.318   9.385  22.867  1.00  0.00     0.053 C 
BRANCH   6   7
ATOM      7  C   UNL     1      44.191   8.817  21.488  1.00  0.00     0.041 C 
ATOM      8  O   UNL     1      44.962   9.202  20.570  1.00  0.00    -0.550 OA
ATOM      9  O   UNL     1      43.244   7.835  21.224  1.00  0.00    -0.550 OA
ENDBRANCH   6   7
ENDBRANCH   5   6
ENDBRANCH   4   5
ENDBRANCH   3   4
ENDBRANCH   2   3
ENDBRANCH   1   2
BRANCH   1  10
ATOM     10  C   UNL     1      45.285  15.741  20.686  1.00  0.00     0.000 C 
BRANCH  10  11
ATOM     11  C   UNL     1      44.226  16.471  21.529  1.00  0.00    -0.000 C 
BRANCH  11  12
ATOM     12  C   UNL     1      42.936  16.753  20.738  1.00  0.00    -0.000 C 
BRANCH  12  13
ATOM     13  C   UNL     1      41.691  16.107  21.373  1.00  0.00    -0.000 C 
BRANCH  13  14
ATOM     14  C   UNL     1      41.968  15.234  22.610  1.00  0.00    -0.000 C 
BRANCH  14  15
ATOM     15  C   UNL     1      41.271  13.867  22.547  1.00  0.00    -0.003 C 
ATOM     16  C   UNL     1      40.959  13.344  23.946  1.00  0.00     0.004 C 
ENDBRANCH  14  15
ENDBRANCH  13  14
ENDBRANCH  12  13
ENDBRANCH  11  12
ENDBRANCH  10  11
ENDBRANCH   1  10
TORSDOF 12
ENDMDL
MODEL 6
REMARK VINA RESULT:    -3.932      3.339      5.321
REMARK INTER + INTRA:          -8.268
REMARK INTER:                  -6.985
REMARK INTRA:                  -1.283
REMARK UNBOUND:                -1.578
REMARK SMILES CCCCCCCCCCCCCC(=O)[O-]
REMARK SMILES IDX 8 1 9 2 10 3 11 4 12 5 13 6 14 7 15 8 16 9 7 10 6 11 5 12
REMARK SMILES IDX 4 13 3 14 2 15 1 16
REMARK H PARENT
REMARK Flexibility Score: inf
ROOT
ATOM      1  C   UNL     1      31.963  22.443  14.062  1.00  0.00     0.000 C 
ENDROOT
BRANCH   1   2
ATOM      2  C   UNL     1      31.809  22.899  12.600  1.00  0.00     0.000 C 
BRANCH   2   3
ATOM      3  C   UNL     1      30.380  22.794  12.031  1.00  0.00     0.000 C 
BRANCH   3   4
ATOM      4  C   UNL     1      30.291  22.720  10.493  1.00  0.00     0.000 C 
BRANCH   4   5
ATOM      5  C   UNL     1      28.867  22.546   9.930  1.00  0.00     0.006 C 
BRANCH   5   6
ATOM      6  C   UNL     1      28.370  21.091   9.899  1.00  0.00     0.053 C 
BRANCH   6   7
ATOM      7  C   UNL     1      27.324  20.834  10.939  1.00  0.00     0.041 C 
ATOM      8  O   UNL     1      26.365  21.637  11.086  1.00  0.00    -0.550 OA
ATOM      9  O   UNL     1      27.388  19.690  11.723  1.00  0.00    -0.550 OA
ENDBRANCH   6   7
ENDBRANCH   5   6
ENDBRANCH   4   5
ENDBRANCH   3   4
ENDBRANCH   2   3
ENDBRANCH   1   2
BRANCH   1  10
ATOM     10  C   UNL     1      33.343  21.828  14.352  1.00  0.00     0.000 C 
BRANCH  10  11
ATOM     11  C   UNL     1      33.508  20.433  13.724  1.00  0.00    -0.000 C 
BRANCH  11  12
ATOM     12  C   UNL     1      32.177  19.668  13.631  1.00  0.00    -0.000 C 
BRANCH  12  13
ATOM     13  C   UNL     1      32.100  18.746  12.400  1.00  0.00    -0.000 C 
BRANCH  13  14
ATOM     14  C   UNL     1      31.876  19.467  11.059  1.00  0.00    -0.000 C 
BRANCH  14  15
ATOM     15  C   UNL     1      31.464  18.512   9.928  1.00  0.00    -0.003 C 
ATOM     16  C   UNL     1      30.062  17.956  10.162  1.00  0.00     0.004 C 
ENDBRANCH  14  15
ENDBRANCH  13  14
ENDBRANCH  12  13
ENDBRANCH  11  12
ENDBRANCH  10  11
ENDBRANCH   1  10
TORSDOF 12
ENDMDL
MODEL 7
REMARK VINA RESULT:    -3.823      2.953      5.375
REMARK INTER + INTRA:          -8.083
REMARK INTER:                  -6.768
REMARK INTRA:                  -1.315
REMARK UNBOUND:                -1.578
REMARK SMILES CCCCCCCCCCCCCC(=O)[O-]
REMARK SMILES IDX 8 1 9 2 10 3 11 4 12 5 13 6 14 7 15 8 16 9 7 10 6 11 5 12
REMARK SMILES IDX 4 13 3 14 2 15 1 16
REMARK H PARENT
REMARK Flexibility Score: inf
ROOT
ATOM      1  C   UNL     1      31.395  22.422  13.497  1.00  0.00     0.000 C 
ENDROOT
BRANCH   1   2
ATOM      2  C   UNL     1      30.765  23.125  12.282  1.00  0.00     0.000 C 
BRANCH   2   3
ATOM      3  C   UNL     1      30.427  22.200  11.094  1.00  0.00     0.000 C 
BRANCH   3   4
ATOM      4  C   UNL     1      29.046  22.437  10.452  1.00  0.00     0.000 C 
BRANCH   4   5
ATOM      5  C   UNL     1      28.359  21.173   9.898  1.00  0.00     0.006 C 
BRANCH   5   6
ATOM      6  C   UNL     1      27.841  20.208  10.977  1.00  0.00     0.053 C 
BRANCH   6   7
ATOM      7  C   UNL     1      28.719  19.003  11.120  1.00  0.00     0.041 C 
ATOM      8  O   UNL     1      28.658  18.294  12.159  1.00  0.00    -0.550 OA
ATOM      9  O   UNL     1      29.579  18.643  10.091  1.00  0.00    -0.550 OA
ENDBRANCH   6   7
ENDBRANCH   5   6
ENDBRANCH   4   5
ENDBRANCH   3   4
ENDBRANCH   2   3
ENDBRANCH   1   2
BRANCH   1  10
ATOM     10  C   UNL     1      32.703  23.087  13.958  1.00  0.00     0.000 C 
BRANCH  10  11
ATOM     11  C   UNL     1      33.472  22.229  14.976  1.00  0.00    -0.000 C 
BRANCH  11  12
ATOM     12  C   UNL     1      34.624  21.440  14.331  1.00  0.00    -0.000 C 
BRANCH  12  13
ATOM     13  C   UNL     1      34.178  20.076  13.774  1.00  0.00    -0.000 C 
BRANCH  13  14
ATOM     14  C   UNL     1      33.723  20.088  12.303  1.00  0.00    -0.000 C 
BRANCH  14  15
ATOM     15  C   UNL     1      32.422  19.305  12.072  1.00  0.00    -0.003 C 
ATOM     16  C   UNL     1      31.813  18.850  13.395  1.00  0.00     0.004 C 
ENDBRANCH  14  15
ENDBRANCH  13  14
ENDBRANCH  12  13
ENDBRANCH  11  12
ENDBRANCH  10  11
ENDBRANCH   1  10
TORSDOF 12
ENDMDL
MODEL 8
REMARK VINA RESULT:    -3.812     17.531     18.963
REMARK INTER + INTRA:          -8.064
REMARK INTER:                  -6.724
REMARK INTRA:                  -1.340
REMARK UNBOUND:                -1.578
REMARK SMILES CCCCCCCCCCCCCC(=O)[O-]
REMARK SMILES IDX 8 1 9 2 10 3 11 4 12 5 13 6 14 7 15 8 16 9 7 10 6 11 5 12
REMARK SMILES IDX 4 13 3 14 2 15 1 16
REMARK H PARENT
REMARK Flexibility Score: inf
ROOT
ATOM      1  C   UNL     1      35.996  10.583  29.857  1.00  0.00     0.000 C 
ENDROOT
BRANCH   1   2
ATOM      2  C   UNL     1      36.064  12.117  29.963  1.00  0.00     0.000 C 
BRANCH   2   3
ATOM      3  C   UNL     1      34.697  12.828  30.033  1.00  0.00     0.000 C 
BRANCH   3   4
ATOM      4  C   UNL     1      34.524  14.013  29.062  1.00  0.00     0.000 C 
BRANCH   4   5
ATOM      5  C   UNL     1      35.768  14.349  28.215  1.00  0.00     0.006 C 
BRANCH   5   6
ATOM      6  C   UNL     1      36.631  15.489  28.780  1.00  0.00     0.053 C 
BRANCH   6   7
ATOM      7  C   UNL     1      35.956  16.819  28.652  1.00  0.00     0.041 C 
ATOM      8  O   UNL     1      36.099  17.692  29.548  1.00  0.00    -0.550 OA
ATOM      9  O   UNL     1      35.197  17.109  27.525  1.00  0.00    -0.550 OA
ENDBRANCH   6   7
ENDBRANCH   5   6
ENDBRANCH   4   5
ENDBRANCH   3   4
ENDBRANCH   2   3
ENDBRANCH   1   2
BRANCH   1  10
ATOM     10  C   UNL     1      34.788  10.095  29.040  1.00  0.00     0.000 C 
BRANCH  10  11
ATOM     11  C   UNL     1      35.034   8.724  28.388  1.00  0.00    -0.000 C 
BRANCH  11  12
ATOM     12  C   UNL     1      34.758   8.733  26.875  1.00  0.00    -0.000 C 
BRANCH  12  13
ATOM     13  C   UNL     1      36.046   8.708  26.031  1.00  0.00    -0.000 C 
BRANCH  13  14
ATOM     14  C   UNL     1      37.349   8.922  26.823  1.00  0.00    -0.000 C 
BRANCH  14  15
ATOM     15  C   UNL     1      38.075  10.221  26.443  1.00  0.00    -0.003 C 
ATOM     16  C   UNL     1      37.088  11.373  26.275  1.00  0.00     0.004 C 
ENDBRANCH  14  15
ENDBRANCH  13  14
ENDBRANCH  12  13
ENDBRANCH  11  12
ENDBRANCH  10  11
ENDBRANCH   1  10
TORSDOF 12
ENDMDL
MODEL 9
REMARK VINA RESULT:    -3.745     15.234     17.895
REMARK INTER + INTRA:          -7.949
REMARK INTER:                  -6.049
REMARK INTRA:                  -1.900
REMARK UNBOUND:                -1.578
REMARK SMILES CCCCCCCCCCCCCC(=O)[O-]
REMARK SMILES IDX 8 1 9 2 10 3 11 4 12 5 13 6 14 7 15 8 16 9 7 10 6 11 5 12
REMARK SMILES IDX 4 13 3 14 2 15 1 16
REMARK H PARENT
REMARK Flexibility Score: inf
ROOT
ATOM      1  C   UNL     1      46.064  14.723  21.110  1.00  0.00     0.000 C 
ENDROOT
BRANCH   1   2
ATOM      2  C   UNL     1      45.420  13.419  21.612  1.00  0.00     0.000 C 
BRANCH   2   3
ATOM      3  C   UNL     1      45.435  13.230  23.143  1.00  0.00     0.000 C 
BRANCH   3   4
ATOM      4  C   UNL     1      45.805  14.487  23.954  1.00  0.00     0.000 C 
BRANCH   4   5
ATOM      5  C   UNL     1      44.839  14.827  25.107  1.00  0.00     0.006 C 
BRANCH   5   6
ATOM      6  C   UNL     1      44.331  16.278  25.102  1.00  0.00     0.053 C 
BRANCH   6   7
ATOM      7  C   UNL     1      43.267  16.503  26.132  1.00  0.00     0.041 C 
ATOM      8  O   UNL     1      43.546  17.078  27.216  1.00  0.00    -0.550 OA
ATOM      9  O   UNL     1      41.960  16.108  25.879  1.00  0.00    -0.550 OA
ENDBRANCH   6   7
ENDBRANCH   5   6
ENDBRANCH   4   5
ENDBRANCH   3   4
ENDBRANCH   2   3
ENDBRANCH   1   2
BRANCH   1  10
ATOM     10  C   UNL     1      45.072  15.629  20.362  1.00  0.00     0.000 C 
BRANCH  10  11
ATOM     11  C   UNL     1      44.177  16.437  21.318  1.00  0.00    -0.000 C 
BRANCH  11  12
ATOM     12  C   UNL     1      42.798  16.748  20.712  1.00  0.00    -0.000 C 
BRANCH  12  13
ATOM     13  C   UNL     1      41.650  16.014  21.427  1.00  0.00    -0.000 C 
BRANCH  13  14
ATOM     14  C   UNL     1      42.082  15.099  22.587  1.00  0.00    -0.000 C 
BRANCH  14  15
ATOM     15  C   UNL     1      41.315  13.769  22.619  1.00  0.00    -0.003 C 
ATOM     16  C   UNL     1      41.817  12.873  23.748  1.00  0.00     0.004 C 
ENDBRANCH  14  15
ENDBRANCH  13  14
ENDBRANCH  12  13
ENDBRANCH  11  12
ENDBRANCH  10  11
ENDBRANCH   1  10
TORSDOF 12
ENDMDL
