MODEL 1
REMARK VINA RESULT:    -3.425      0.000      0.000
REMARK INTER + INTRA:          -4.960
REMARK INTER:                  -4.626
REMARK INTRA:                  -0.334
REMARK UNBOUND:                -0.334
REMARK SMILES CCCCCCC=CC(=O)[O-]
REMARK SMILES IDX 5 1 6 2 7 3 8 4 9 5 10 6 11 7 4 8 3 9 2 10 1 11
REMARK H PARENT
REMARK Flexibility Score: inf
ROOT
ATOM      1  C   UNL     1      35.007   5.440 -32.873  1.00  0.00     0.004 C 
ENDROOT
BRANCH   1   2
ATOM      2  C   UNL     1      35.156   6.020 -31.462  1.00  0.00     0.027 C 
BRANCH   2   3
ATOM      3  C   UNL     1      34.510   7.371 -31.356  1.00  0.00    -0.025 C 
ATOM      4  C   UNL     1      33.494   7.595 -30.516  1.00  0.00     0.020 C 
BRANCH   4   5
ATOM      5  C   UNL     1      32.842   8.909 -30.411  1.00  0.00     0.064 C 
ATOM      6  O   UNL     1      31.920   9.081 -29.572  1.00  0.00    -0.545 OA
ATOM      7  O   UNL     1      33.228   9.967 -31.228  1.00  0.00    -0.545 OA
ENDBRANCH   4   5
ENDBRANCH   2   3
ENDBRANCH   1   2
BRANCH   1   8
ATOM      8  C   UNL     1      34.242   4.109 -32.843  1.00  0.00     0.000 C 
BRANCH   8   9
ATOM      9  C   UNL     1      32.733   4.287 -33.077  1.00  0.00    -0.000 C 
BRANCH   9  10
ATOM     10  C   UNL     1      32.040   2.978 -33.479  1.00  0.00    -0.003 C 
ATOM     11  C   UNL     1      33.048   1.838 -33.603  1.00  0.00     0.004 C 
ENDBRANCH   9  10
ENDBRANCH   8   9
ENDBRANCH   1   8
TORSDOF 6
ENDMDL
MODEL 2
REMARK VINA RESULT:    -3.316      3.456      5.355
REMARK INTER + INTRA:          -4.813
REMARK INTER:                  -4.572
REMARK INTRA:                  -0.241
REMARK UNBOUND:                -0.334
REMARK SMILES CCCCCCC=CC(=O)[O-]
REMARK SMILES IDX 5 1 6 2 7 3 8 4 9 5 10 6 11 7 4 8 3 9 2 10 1 11
REMARK H PARENT
REMARK Flexibility Score: inf
ROOT
ATOM      1  C   UNL     1      32.740   0.531 -34.163  1.00  0.00     0.004 C 
ENDROOT
BRANCH   1   2
ATOM      2  C   UNL     1      32.326   1.937 -33.710  1.00  0.00     0.027 C 
BRANCH   2   3
ATOM      3  C   UNL     1      33.517   2.746 -33.286  1.00  0.00    -0.025 C 
ATOM      4  C   UNL     1      33.443   4.074 -33.141  1.00  0.00     0.020 C 
BRANCH   4   5
ATOM      5  C   UNL     1      34.604   4.881 -32.740  1.00  0.00     0.064 C 
ATOM      6  O   UNL     1      35.297   5.455 -33.619  1.00  0.00    -0.545 OA
ATOM      7  O   UNL     1      34.951   5.021 -31.400  1.00  0.00    -0.545 OA
ENDBRANCH   4   5
ENDBRANCH   2   3
ENDBRANCH   1   2
BRANCH   1   8
ATOM      8  C   UNL     1      32.318   0.275 -35.617  1.00  0.00     0.000 C 
BRANCH   8   9
ATOM      9  C   UNL     1      33.463  -0.282 -36.477  1.00  0.00    -0.000 C 
BRANCH   9  10
ATOM     10  C   UNL     1      33.122  -0.300 -37.975  1.00  0.00    -0.003 C 
ATOM     11  C   UNL     1      31.813   0.437 -38.248  1.00  0.00     0.004 C 
ENDBRANCH   9  10
ENDBRANCH   8   9
ENDBRANCH   1   8
TORSDOF 6
ENDMDL
MODEL 3
REMARK VINA RESULT:    -3.289      1.281      1.773
REMARK INTER + INTRA:          -4.777
REMARK INTER:                  -4.078
REMARK INTRA:                  -0.699
REMARK UNBOUND:                -0.334
REMARK SMILES CCCCCCC=CC(=O)[O-]
REMARK SMILES IDX 5 1 6 2 7 3 8 4 9 5 10 6 11 7 4 8 3 9 2 10 1 11
REMARK H PARENT
REMARK Flexibility Score: inf
ROOT
ATOM      1  C   UNL     1      35.150   5.398 -31.413  1.00  0.00     0.004 C 
ENDROOT
BRANCH   1   2
ATOM      2  C   UNL     1      35.412   6.880 -31.118  1.00  0.00     0.027 C 
BRANCH   2   3
ATOM      3  C   UNL     1      34.152   7.688 -31.222  1.00  0.00    -0.025 C 
ATOM      4  C   UNL     1      33.201   7.623 -30.283  1.00  0.00     0.020 C 
BRANCH   4   5
ATOM      5  C   UNL     1      31.956   8.399 -30.378  1.00  0.00     0.064 C 
ATOM      6  O   UNL     1      31.942   9.601 -30.007  1.00  0.00    -0.545 OA
ATOM      7  O   UNL     1      30.789   7.825 -30.873  1.00  0.00    -0.545 OA
ENDBRANCH   4   5
ENDBRANCH   2   3
ENDBRANCH   1   2
BRANCH   1   8
ATOM      8  C   UNL     1      34.924   5.168 -32.914  1.00  0.00     0.000 C 
BRANCH   8   9
ATOM      9  C   UNL     1      33.654   4.352 -33.204  1.00  0.00    -0.000 C 
BRANCH   9  10
ATOM     10  C   UNL     1      32.851   4.038 -31.934  1.00  0.00    -0.003 C 
ATOM     11  C   UNL     1      31.412   4.532 -32.058  1.00  0.00     0.004 C 
ENDBRANCH   9  10
ENDBRANCH   8   9
ENDBRANCH   1   8
TORSDOF 6
ENDMDL
MODEL 4
REMARK VINA RESULT:    -3.270      2.127      3.583
REMARK INTER + INTRA:          -4.751
REMARK INTER:                  -4.500
REMARK INTRA:                  -0.251
REMARK UNBOUND:                -0.334
REMARK SMILES CCCCCCC=CC(=O)[O-]
REMARK SMILES IDX 5 1 6 2 7 3 8 4 9 5 10 6 11 7 4 8 3 9 2 10 1 11
REMARK H PARENT
REMARK Flexibility Score: inf
ROOT
ATOM      1  C   UNL     1      33.546   7.184 -30.186  1.00  0.00     0.004 C 
ENDROOT
BRANCH   1   2
ATOM      2  C   UNL     1      32.470   8.254 -30.414  1.00  0.00     0.027 C 
BRANCH   2   3
ATOM      3  C   UNL     1      32.603   9.379 -29.429  1.00  0.00    -0.025 C 
ATOM      4  C   UNL     1      32.418   9.186 -28.119  1.00  0.00     0.020 C 
BRANCH   4   5
ATOM      5  C   UNL     1      32.532  10.282 -27.145  1.00  0.00     0.064 C 
ATOM      6  O   UNL     1      31.530  10.610 -26.458  1.00  0.00    -0.545 OA
ATOM      7  O   UNL     1      33.732  10.963 -26.969  1.00  0.00    -0.545 OA
ENDBRANCH   4   5
ENDBRANCH   2   3
ENDBRANCH   1   2
BRANCH   1   8
ATOM      8  C   UNL     1      34.660   7.291 -31.237  1.00  0.00     0.000 C 
BRANCH   8   9
ATOM      9  C   UNL     1      35.378   5.954 -31.479  1.00  0.00    -0.000 C 
BRANCH   9  10
ATOM     10  C   UNL     1      35.240   5.463 -32.927  1.00  0.00    -0.003 C 
ATOM     11  C   UNL     1      34.029   4.547 -33.083  1.00  0.00     0.004 C 
ENDBRANCH   9  10
ENDBRANCH   8   9
ENDBRANCH   1   8
TORSDOF 6
ENDMDL
MODEL 5
REMARK VINA RESULT:    -3.267      3.435      5.567
REMARK INTER + INTRA:          -4.747
REMARK INTER:                  -4.348
REMARK INTRA:                  -0.400
REMARK UNBOUND:                -0.334
REMARK SMILES CCCCCCC=CC(=O)[O-]
REMARK SMILES IDX 5 1 6 2 7 3 8 4 9 5 10 6 11 7 4 8 3 9 2 10 1 11
REMARK H PARENT
REMARK Flexibility Score: inf
ROOT
ATOM      1  C   UNL     1      35.388   5.887 -30.920  1.00  0.00     0.004 C 
ENDROOT
BRANCH   1   2
ATOM      2  C   UNL     1      35.248   5.850 -32.447  1.00  0.00     0.027 C 
BRANCH   2   3
ATOM      3  C   UNL     1      34.682   4.540 -32.911  1.00  0.00    -0.025 C 
ATOM      4  C   UNL     1      33.362   4.345 -33.008  1.00  0.00     0.020 C 
BRANCH   4   5
ATOM      5  C   UNL     1      32.793   3.063 -33.449  1.00  0.00     0.064 C 
ATOM      6  O   UNL     1      33.496   2.021 -33.400  1.00  0.00    -0.545 OA
ATOM      7  O   UNL     1      31.487   2.984 -33.922  1.00  0.00    -0.545 OA
ENDBRANCH   4   5
ENDBRANCH   2   3
ENDBRANCH   1   2
BRANCH   1   8
ATOM      8  C   UNL     1      34.269   6.726 -30.285  1.00  0.00     0.000 C 
BRANCH   8   9
ATOM      9  C   UNL     1      33.882   7.942 -31.141  1.00  0.00    -0.000 C 
BRANCH   9  10
ATOM     10  C   UNL     1      32.875   8.863 -30.437  1.00  0.00    -0.003 C 
ATOM     11  C   UNL     1      32.483   8.305 -29.072  1.00  0.00     0.004 C 
ENDBRANCH   9  10
ENDBRANCH   8   9
ENDBRANCH   1   8
TORSDOF 6
ENDMDL
MODEL 6
REMARK VINA RESULT:    -3.264     14.000     15.440
REMARK INTER + INTRA:          -4.743
REMARK INTER:                  -4.332
REMARK INTRA:                  -0.411
REMARK UNBOUND:                -0.334
REMARK SMILES CCCCCCC=CC(=O)[O-]
REMARK SMILES IDX 5 1 6 2 7 3 8 4 9 5 10 6 11 7 4 8 3 9 2 10 1 11
REMARK H PARENT
REMARK Flexibility Score: inf
ROOT
ATOM      1  C   UNL     1      25.045  -5.211 -29.521  1.00  0.00     0.004 C 
ENDROOT
BRANCH   1   2
ATOM      2  C   UNL     1      23.842  -5.704 -30.334  1.00  0.00     0.027 C 
BRANCH   2   3
ATOM      3  C   UNL     1      24.023  -5.427 -31.798  1.00  0.00    -0.025 C 
ATOM      4  C   UNL     1      25.208  -5.058 -32.298  1.00  0.00     0.020 C 
BRANCH   4   5
ATOM      5  C   UNL     1      25.397  -4.771 -33.727  1.00  0.00     0.064 C 
ATOM      6  O   UNL     1      26.331  -5.332 -34.356  1.00  0.00    -0.545 OA
ATOM      7  O   UNL     1      24.559  -3.886 -34.398  1.00  0.00    -0.545 OA
ENDBRANCH   4   5
ENDBRANCH   2   3
ENDBRANCH   1   2
BRANCH   1   8
ATOM      8  C   UNL     1      25.827  -6.392 -28.927  1.00  0.00     0.000 C 
BRANCH   8   9
ATOM      9  C   UNL     1      25.014  -7.696 -28.914  1.00  0.00    -0.000 C 
BRANCH   9  10
ATOM     10  C   UNL     1      24.448  -8.026 -27.526  1.00  0.00    -0.003 C 
ATOM     11  C   UNL     1      25.517  -7.870 -26.447  1.00  0.00     0.004 C 
ENDBRANCH   9  10
ENDBRANCH   8   9
ENDBRANCH   1   8
TORSDOF 6
ENDMDL
MODEL 7
REMARK VINA RESULT:    -3.221     13.694     15.651
REMARK INTER + INTRA:          -4.686
REMARK INTER:                  -4.046
REMARK INTRA:                  -0.639
REMARK UNBOUND:                -0.334
REMARK SMILES CCCCCCC=CC(=O)[O-]
REMARK SMILES IDX 5 1 6 2 7 3 8 4 9 5 10 6 11 7 4 8 3 9 2 10 1 11
REMARK H PARENT
REMARK Flexibility Score: inf
ROOT
ATOM      1  C   UNL     1      24.624  -8.013 -27.718  1.00  0.00     0.004 C 
ENDROOT
BRANCH   1   2
ATOM      2  C   UNL     1      23.789  -6.727 -27.765  1.00  0.00     0.027 C 
BRANCH   2   3
ATOM      3  C   UNL     1      24.249  -5.818 -28.866  1.00  0.00    -0.025 C 
ATOM      4  C   UNL     1      24.173  -6.182 -30.151  1.00  0.00     0.020 C 
BRANCH   4   5
ATOM      5  C   UNL     1      24.632  -5.307 -31.239  1.00  0.00     0.064 C 
ATOM      6  O   UNL     1      24.218  -5.502 -32.411  1.00  0.00    -0.545 OA
ATOM      7  O   UNL     1      25.520  -4.264 -30.995  1.00  0.00    -0.545 OA
ENDBRANCH   4   5
ENDBRANCH   2   3
ENDBRANCH   1   2
BRANCH   1   8
ATOM      8  C   UNL     1      26.008  -7.748 -27.109  1.00  0.00     0.000 C 
BRANCH   8   9
ATOM      9  C   UNL     1      27.153  -8.023 -28.096  1.00  0.00    -0.000 C 
BRANCH   9  10
ATOM     10  C   UNL     1      28.276  -6.979 -28.004  1.00  0.00    -0.003 C 
ATOM     11  C   UNL     1      27.888  -5.691 -28.726  1.00  0.00     0.004 C 
ENDBRANCH   9  10
ENDBRANCH   8   9
ENDBRANCH   1   8
TORSDOF 6
ENDMDL
MODEL 8
REMARK VINA RESULT:    -3.152      3.408      6.851
REMARK INTER + INTRA:          -4.592
REMARK INTER:                  -4.214
REMARK INTRA:                  -0.378
REMARK UNBOUND:                -0.334
REMARK SMILES CCCCCCC=CC(=O)[O-]
REMARK SMILES IDX 5 1 6 2 7 3 8 4 9 5 10 6 11 7 4 8 3 9 2 10 1 11
REMARK H PARENT
REMARK Flexibility Score: inf
ROOT
ATOM      1  C   UNL     1      31.696   9.524 -28.781  1.00  0.00     0.004 C 
ENDROOT
BRANCH   1   2
ATOM      2  C   UNL     1      32.418   9.368 -30.125  1.00  0.00     0.027 C 
BRANCH   2   3
ATOM      3  C   UNL     1      33.202   8.090 -30.179  1.00  0.00    -0.025 C 
ATOM      4  C   UNL     1      34.098   7.859 -31.145  1.00  0.00     0.020 C 
BRANCH   4   5
ATOM      5  C   UNL     1      34.864   6.606 -31.217  1.00  0.00     0.064 C 
ATOM      6  O   UNL     1      36.120   6.648 -31.274  1.00  0.00    -0.545 OA
ATOM      7  O   UNL     1      34.221   5.373 -31.225  1.00  0.00    -0.545 OA
ENDBRANCH   4   5
ENDBRANCH   2   3
ENDBRANCH   1   2
BRANCH   1   8
ATOM      8  C   UNL     1      32.307   8.598 -27.718  1.00  0.00     0.000 C 
BRANCH   8   9
ATOM      9  C   UNL     1      32.689   9.345 -26.430  1.00  0.00    -0.000 C 
BRANCH   9  10
ATOM     10  C   UNL     1      33.180  10.774 -26.700  1.00  0.00    -0.003 C 
ATOM     11  C   UNL     1      33.565  11.477 -25.400  1.00  0.00     0.004 C 
ENDBRANCH   9  10
ENDBRANCH   8   9
ENDBRANCH   1   8
TORSDOF 6
ENDMDL
MODEL 9
REMARK VINA RESULT:    -3.116      7.645      9.245
REMARK INTER + INTRA:          -4.543
REMARK INTER:                  -3.837
REMARK INTRA:                  -0.706
REMARK UNBOUND:                -0.334
REMARK SMILES CCCCCCC=CC(=O)[O-]
REMARK SMILES IDX 5 1 6 2 7 3 8 4 9 5 10 6 11 7 4 8 3 9 2 10 1 11
REMARK H PARENT
REMARK Flexibility Score: inf
ROOT
ATOM      1  C   UNL     1      33.151  -0.238 -37.738  1.00  0.00     0.004 C 
ENDROOT
BRANCH   1   2
ATOM      2  C   UNL     1      32.112  -1.133 -38.425  1.00  0.00     0.027 C 
BRANCH   2   3
ATOM      3  C   UNL     1      30.862  -0.369 -38.748  1.00  0.00    -0.025 C 
ATOM      4  C   UNL     1      30.881   0.955 -38.935  1.00  0.00     0.020 C 
BRANCH   4   5
ATOM      5  C   UNL     1      29.661   1.718 -39.239  1.00  0.00     0.064 C 
ATOM      6  O   UNL     1      29.718   2.691 -40.035  1.00  0.00    -0.545 OA
ATOM      7  O   UNL     1      28.442   1.382 -38.660  1.00  0.00    -0.545 OA
ENDBRANCH   4   5
ENDBRANCH   2   3
ENDBRANCH   1   2
BRANCH   1   8
ATOM      8  C   UNL     1      33.466  -0.746 -36.324  1.00  0.00     0.000 C 
BRANCH   8   9
ATOM      9  C   UNL     1      32.987   0.218 -35.227  1.00  0.00    -0.000 C 
BRANCH   9  10
ATOM     10  C   UNL     1      31.459   0.223 -35.071  1.00  0.00    -0.003 C 
ATOM     11  C   UNL     1      30.890   1.623 -35.292  1.00  0.00     0.004 C 
ENDBRANCH   9  10
ENDBRANCH   8   9
ENDBRANCH   1   8
TORSDOF 6
ENDMDL
