MODEL 1
REMARK VINA RESULT:    -5.638      0.000      0.000
REMARK INTER + INTRA:          -6.506
REMARK INTER:                  -6.462
REMARK INTRA:                  -0.045
REMARK UNBOUND:                -0.045
REMARK SMILES O=C([O-])c1cc(O)c(O)c(O)c1
REMARK SMILES IDX 4 1 5 2 12 3 6 4 10 5 8 6 2 7 1 8 3 9 7 10 11 12 9 14
REMARK H PARENT 7 11 11 13 9 15
REMARK Flexibility Score: inf
ROOT
ATOM      1  C   UNL     1      54.262  58.683   7.756  1.00  0.00     0.005 A 
ATOM      2  C   UNL     1      52.863  58.593   7.812  1.00  0.00     0.060 A 
ATOM      3  C   UNL     1      54.901  59.768   8.377  1.00  0.00     0.060 A 
ATOM      4  C   UNL     1      52.112  59.569   8.474  1.00  0.00     0.162 A 
ATOM      5  C   UNL     1      54.163  60.753   9.044  1.00  0.00     0.162 A 
ATOM      6  C   UNL     1      52.751  60.657   9.096  1.00  0.00     0.200 A 
ENDROOT
BRANCH   1   7
ATOM      7  C   UNL     1      55.050  57.645   7.054  1.00  0.00     0.072 C 
ATOM      8  O   UNL     1      55.248  57.722   5.812  1.00  0.00    -0.545 OA
ATOM      9  O   UNL     1      55.582  56.570   7.756  1.00  0.00    -0.545 OA
ENDBRANCH   1   7
BRANCH   4  10
ATOM     10  O   UNL     1      50.723  59.439   8.503  1.00  0.00    -0.504 OA
ATOM     11  H   UNL     1      50.128  59.813   7.774  1.00  0.00     0.293 HD
ENDBRANCH   4  10
BRANCH   5  12
ATOM     12  O   UNL     1      54.870  61.802   9.636  1.00  0.00    -0.504 OA
ATOM     13  H   UNL     1      55.841  61.752   9.907  1.00  0.00     0.293 HD
ENDBRANCH   5  12
BRANCH   6  14
ATOM     14  O   UNL     1      51.962  61.608   9.747  1.00  0.00    -0.502 OA
ATOM     15  H   UNL     1      51.599  62.442   9.307  1.00  0.00     0.293 HD
ENDBRANCH   6  14
TORSDOF 4
ENDMDL
MODEL 2
REMARK VINA RESULT:    -5.582      0.099      2.445
REMARK INTER + INTRA:          -6.443
REMARK INTER:                  -6.398
REMARK INTRA:                  -0.045
REMARK UNBOUND:                -0.045
REMARK SMILES O=C([O-])c1cc(O)c(O)c(O)c1
REMARK SMILES IDX 4 1 5 2 12 3 6 4 10 5 8 6 2 7 1 8 3 9 7 10 11 12 9 14
REMARK H PARENT 7 11 11 13 9 15
REMARK Flexibility Score: inf
ROOT
ATOM      1  C   UNL     1      54.261  58.641   7.736  1.00  0.00     0.005 A 
ATOM      2  C   UNL     1      54.863  59.754   8.342  1.00  0.00     0.060 A 
ATOM      3  C   UNL     1      52.864  58.507   7.794  1.00  0.00     0.060 A 
ATOM      4  C   UNL     1      54.088  60.717   8.995  1.00  0.00     0.162 A 
ATOM      5  C   UNL     1      52.074  59.461   8.444  1.00  0.00     0.162 A 
ATOM      6  C   UNL     1      52.689  60.582   9.054  1.00  0.00     0.200 A 
ENDROOT
BRANCH   1   7
ATOM      7  C   UNL     1      55.088  57.627   7.047  1.00  0.00     0.072 C 
ATOM      8  O   UNL     1      55.295  57.702   5.806  1.00  0.00    -0.545 OA
ATOM      9  O   UNL     1      55.651  56.574   7.760  1.00  0.00    -0.545 OA
ENDBRANCH   1   7
BRANCH   4  10
ATOM     10  O   UNL     1      54.730  61.807   9.584  1.00  0.00    -0.504 OA
ATOM     11  H   UNL     1      54.349  62.744   9.549  1.00  0.00     0.293 HD
ENDBRANCH   4  10
BRANCH   5  12
ATOM     12  O   UNL     1      50.692  59.258   8.460  1.00  0.00    -0.504 OA
ATOM     13  H   UNL     1      50.128  59.127   7.633  1.00  0.00     0.293 HD
ENDBRANCH   5  12
BRANCH   6  14
ATOM     14  O   UNL     1      51.953  61.568   9.716  1.00  0.00    -0.502 OA
ATOM     15  H   UNL     1      51.648  61.500  10.676  1.00  0.00     0.293 HD
ENDBRANCH   6  14
TORSDOF 4
ENDMDL
MODEL 3
REMARK VINA RESULT:    -5.458      1.900      3.823
REMARK INTER + INTRA:          -6.300
REMARK INTER:                  -6.255
REMARK INTRA:                  -0.045
REMARK UNBOUND:                -0.045
REMARK SMILES O=C([O-])c1cc(O)c(O)c(O)c1
REMARK SMILES IDX 4 1 5 2 12 3 6 4 10 5 8 6 2 7 1 8 3 9 7 10 11 12 9 14
REMARK H PARENT 7 11 11 13 9 15
REMARK Flexibility Score: inf
ROOT
ATOM      1  C   UNL     1      51.456  58.198   8.305  1.00  0.00     0.005 A 
ATOM      2  C   UNL     1      52.189  58.005   7.125  1.00  0.00     0.060 A 
ATOM      3  C   UNL     1      51.865  59.194   9.206  1.00  0.00     0.060 A 
ATOM      4  C   UNL     1      53.312  58.790   6.846  1.00  0.00     0.162 A 
ATOM      5  C   UNL     1      52.986  59.989   8.943  1.00  0.00     0.162 A 
ATOM      6  C   UNL     1      53.722  59.788   7.749  1.00  0.00     0.200 A 
ENDROOT
BRANCH   1   7
ATOM      7  C   UNL     1      50.268  57.363   8.592  1.00  0.00     0.072 C 
ATOM      8  O   UNL     1      50.375  56.307   9.271  1.00  0.00    -0.545 OA
ATOM      9  O   UNL     1      49.016  57.732   8.115  1.00  0.00    -0.545 OA
ENDBRANCH   1   7
BRANCH   4  10
ATOM     10  O   UNL     1      54.011  58.562   5.661  1.00  0.00    -0.504 OA
ATOM     11  H   UNL     1      54.317  59.315   5.058  1.00  0.00     0.293 HD
ENDBRANCH   4  10
BRANCH   5  12
ATOM     12  O   UNL     1      53.331  60.958   9.887  1.00  0.00    -0.504 OA
ATOM     13  H   UNL     1      53.771  60.757  10.773  1.00  0.00     0.293 HD
ENDBRANCH   5  12
BRANCH   6  14
ATOM     14  O   UNL     1      54.849  60.550   7.431  1.00  0.00    -0.502 OA
ATOM     15  H   UNL     1      54.813  61.480   7.039  1.00  0.00     0.293 HD
ENDBRANCH   6  14
TORSDOF 4
ENDMDL
MODEL 4
REMARK VINA RESULT:    -5.431      1.899      4.099
REMARK INTER + INTRA:          -6.269
REMARK INTER:                  -6.225
REMARK INTRA:                  -0.045
REMARK UNBOUND:                -0.045
REMARK SMILES O=C([O-])c1cc(O)c(O)c(O)c1
REMARK SMILES IDX 4 1 5 2 12 3 6 4 10 5 8 6 2 7 1 8 3 9 7 10 11 12 9 14
REMARK H PARENT 7 11 11 13 9 15
REMARK Flexibility Score: inf
ROOT
ATOM      1  C   UNL     1      51.465  58.233   8.267  1.00  0.00     0.005 A 
ATOM      2  C   UNL     1      51.921  59.221   9.152  1.00  0.00     0.060 A 
ATOM      3  C   UNL     1      52.160  58.023   7.065  1.00  0.00     0.060 A 
ATOM      4  C   UNL     1      53.049  59.988   8.846  1.00  0.00     0.162 A 
ATOM      5  C   UNL     1      53.291  58.781   6.743  1.00  0.00     0.162 A 
ATOM      6  C   UNL     1      53.745  59.778   7.642  1.00  0.00     0.200 A 
ENDROOT
BRANCH   1   7
ATOM      7  C   UNL     1      50.271  57.425   8.599  1.00  0.00     0.072 C 
ATOM      8  O   UNL     1      50.373  56.389   9.308  1.00  0.00    -0.545 OA
ATOM      9  O   UNL     1      49.016  57.800   8.133  1.00  0.00    -0.545 OA
ENDBRANCH   1   7
BRANCH   4  10
ATOM     10  O   UNL     1      53.465  60.960   9.757  1.00  0.00    -0.504 OA
ATOM     11  H   UNL     1      54.414  61.005  10.106  1.00  0.00     0.293 HD
ENDBRANCH   4  10
BRANCH   5  12
ATOM     12  O   UNL     1      53.927  58.515   5.529  1.00  0.00    -0.504 OA
ATOM     13  H   UNL     1      53.556  58.770   4.625  1.00  0.00     0.293 HD
ENDBRANCH   5  12
BRANCH   6  14
ATOM     14  O   UNL     1      54.867  60.566   7.376  1.00  0.00    -0.502 OA
ATOM     15  H   UNL     1      55.474  60.948   8.087  1.00  0.00     0.293 HD
ENDBRANCH   6  14
TORSDOF 4
ENDMDL
MODEL 5
REMARK VINA RESULT:    -5.428      1.440      2.284
REMARK INTER + INTRA:          -6.266
REMARK INTER:                  -6.213
REMARK INTRA:                  -0.053
REMARK UNBOUND:                -0.045
REMARK SMILES O=C([O-])c1cc(O)c(O)c(O)c1
REMARK SMILES IDX 4 1 5 2 12 3 6 4 10 5 8 6 2 7 1 8 3 9 7 10 11 12 9 14
REMARK H PARENT 7 11 11 13 9 15
REMARK Flexibility Score: inf
ROOT
ATOM      1  C   UNL     1      53.790  58.685   8.166  1.00  0.00     0.005 A 
ATOM      2  C   UNL     1      52.882  57.808   7.556  1.00  0.00     0.060 A 
ATOM      3  C   UNL     1      53.306  59.856   8.770  1.00  0.00     0.060 A 
ATOM      4  C   UNL     1      51.513  58.093   7.545  1.00  0.00     0.162 A 
ATOM      5  C   UNL     1      51.939  60.156   8.768  1.00  0.00     0.162 A 
ATOM      6  C   UNL     1      51.027  59.267   8.149  1.00  0.00     0.200 A 
ENDROOT
BRANCH   1   7
ATOM      7  C   UNL     1      55.238  58.375   8.173  1.00  0.00     0.072 C 
ATOM      8  O   UNL     1      56.071  59.212   8.611  1.00  0.00    -0.545 OA
ATOM      9  O   UNL     1      55.698  57.153   7.694  1.00  0.00    -0.545 OA
ENDBRANCH   1   7
BRANCH   4  10
ATOM     10  O   UNL     1      50.646  57.192   6.925  1.00  0.00    -0.504 OA
ATOM     11  H   UNL     1      50.979  56.383   6.416  1.00  0.00     0.293 HD
ENDBRANCH   4  10
BRANCH   5  12
ATOM     12  O   UNL     1      51.535  61.341   9.387  1.00  0.00    -0.504 OA
ATOM     13  H   UNL     1      51.496  62.238   8.927  1.00  0.00     0.293 HD
ENDBRANCH   5  12
BRANCH   6  14
ATOM     14  O   UNL     1      49.653  59.512   8.116  1.00  0.00    -0.502 OA
ATOM     15  H   UNL     1      48.946  58.795   8.199  1.00  0.00     0.293 HD
ENDBRANCH   6  14
TORSDOF 4
ENDMDL
MODEL 6
REMARK VINA RESULT:    -5.410      2.504      4.059
REMARK INTER + INTRA:          -6.245
REMARK INTER:                  -6.193
REMARK INTRA:                  -0.052
REMARK UNBOUND:                -0.045
REMARK SMILES O=C([O-])c1cc(O)c(O)c(O)c1
REMARK SMILES IDX 4 1 5 2 12 3 6 4 10 5 8 6 2 7 1 8 3 9 7 10 11 12 9 14
REMARK H PARENT 7 11 11 13 9 15
REMARK Flexibility Score: inf
ROOT
ATOM      1  C   UNL     1      52.161  58.450   8.780  1.00  0.00     0.005 A 
ATOM      2  C   UNL     1      53.100  59.433   9.125  1.00  0.00     0.060 A 
ATOM      3  C   UNL     1      51.707  58.376   7.453  1.00  0.00     0.060 A 
ATOM      4  C   UNL     1      53.580  60.329   8.165  1.00  0.00     0.162 A 
ATOM      5  C   UNL     1      52.177  59.266   6.480  1.00  0.00     0.162 A 
ATOM      6  C   UNL     1      53.125  60.257   6.835  1.00  0.00     0.200 A 
ENDROOT
BRANCH   1   7
ATOM      7  C   UNL     1      51.659  57.505   9.802  1.00  0.00     0.072 C 
ATOM      8  O   UNL     1      52.289  57.330  10.879  1.00  0.00    -0.545 OA
ATOM      9  O   UNL     1      50.482  56.795   9.587  1.00  0.00    -0.545 OA
ENDBRANCH   1   7
BRANCH   4  10
ATOM     10  O   UNL     1      54.513  61.291   8.554  1.00  0.00    -0.504 OA
ATOM     11  H   UNL     1      54.498  61.721   9.470  1.00  0.00     0.293 HD
ENDBRANCH   4  10
BRANCH   5  12
ATOM     12  O   UNL     1      51.677  59.131   5.183  1.00  0.00    -0.504 OA
ATOM     13  H   UNL     1      50.747  58.806   4.963  1.00  0.00     0.293 HD
ENDBRANCH   5  12
BRANCH   6  14
ATOM     14  O   UNL     1      53.630  61.171   5.909  1.00  0.00    -0.502 OA
ATOM     15  H   UNL     1      54.328  60.948   5.213  1.00  0.00     0.293 HD
ENDBRANCH   6  14
TORSDOF 4
ENDMDL
MODEL 7
REMARK VINA RESULT:    -5.404      8.010      9.429
REMARK INTER + INTRA:          -6.239
REMARK INTER:                  -6.191
REMARK INTRA:                  -0.047
REMARK UNBOUND:                -0.045
REMARK SMILES O=C([O-])c1cc(O)c(O)c(O)c1
REMARK SMILES IDX 4 1 5 2 12 3 6 4 10 5 8 6 2 7 1 8 3 9 7 10 11 12 9 14
REMARK H PARENT 7 11 11 13 9 15
REMARK Flexibility Score: inf
ROOT
ATOM      1  C   UNL     1      53.109  58.940   0.309  1.00  0.00     0.005 A 
ATOM      2  C   UNL     1      52.555  60.225   0.209  1.00  0.00     0.060 A 
ATOM      3  C   UNL     1      52.739  57.963  -0.629  1.00  0.00     0.060 A 
ATOM      4  C   UNL     1      51.646  60.532  -0.808  1.00  0.00     0.162 A 
ATOM      5  C   UNL     1      51.830  58.254  -1.653  1.00  0.00     0.162 A 
ATOM      6  C   UNL     1      51.274  59.553  -1.748  1.00  0.00     0.200 A 
ENDROOT
BRANCH   1   7
ATOM      7  C   UNL     1      54.071  58.624   1.388  1.00  0.00     0.072 C 
ATOM      8  O   UNL     1      55.190  58.110   1.121  1.00  0.00    -0.545 OA
ATOM      9  O   UNL     1      53.752  58.889   2.716  1.00  0.00    -0.545 OA
ENDBRANCH   1   7
BRANCH   4  10
ATOM     10  O   UNL     1      51.119  61.823  -0.867  1.00  0.00    -0.504 OA
ATOM     11  H   UNL     1      50.171  62.035  -0.582  1.00  0.00     0.293 HD
ENDBRANCH   4  10
BRANCH   5  12
ATOM     12  O   UNL     1      51.511  57.230  -2.547  1.00  0.00    -0.504 OA
ATOM     13  H   UNL     1      51.814  56.272  -2.445  1.00  0.00     0.293 HD
ENDBRANCH   5  12
BRANCH   6  14
ATOM     14  O   UNL     1      50.363  59.903  -2.747  1.00  0.00    -0.502 OA
ATOM     15  H   UNL     1      50.153  59.328  -3.550  1.00  0.00     0.293 HD
ENDBRANCH   6  14
TORSDOF 4
ENDMDL
MODEL 8
REMARK VINA RESULT:    -5.302      7.097      8.565
REMARK INTER + INTRA:          -6.121
REMARK INTER:                  -6.072
REMARK INTRA:                  -0.049
REMARK UNBOUND:                -0.045
REMARK SMILES O=C([O-])c1cc(O)c(O)c(O)c1
REMARK SMILES IDX 4 1 5 2 12 3 6 4 10 5 8 6 2 7 1 8 3 9 7 10 11 12 9 14
REMARK H PARENT 7 11 11 13 9 15
REMARK Flexibility Score: inf
ROOT
ATOM      1  C   UNL     1      52.105  58.786  -0.446  1.00  0.00     0.005 A 
ATOM      2  C   UNL     1      53.458  58.469  -0.256  1.00  0.00     0.060 A 
ATOM      3  C   UNL     1      51.333  59.167   0.663  1.00  0.00     0.060 A 
ATOM      4  C   UNL     1      54.034  58.529   1.016  1.00  0.00     0.162 A 
ATOM      5  C   UNL     1      51.893  59.232   1.944  1.00  0.00     0.162 A 
ATOM      6  C   UNL     1      53.260  58.910   2.128  1.00  0.00     0.200 A 
ENDROOT
BRANCH   1   7
ATOM      7  C   UNL     1      51.504  58.720  -1.797  1.00  0.00     0.072 C 
ATOM      8  O   UNL     1      51.809  57.790  -2.590  1.00  0.00    -0.545 OA
ATOM      9  O   UNL     1      50.594  59.686  -2.210  1.00  0.00    -0.545 OA
ENDBRANCH   1   7
BRANCH   4  10
ATOM     10  O   UNL     1      55.383  58.204   1.157  1.00  0.00    -0.504 OA
ATOM     11  H   UNL     1      55.854  57.562   0.532  1.00  0.00     0.293 HD
ENDBRANCH   4  10
BRANCH   5  12
ATOM     12  O   UNL     1      51.061  59.618   2.997  1.00  0.00    -0.504 OA
ATOM     13  H   UNL     1      51.302  60.317   3.684  1.00  0.00     0.293 HD
ENDBRANCH   5  12
BRANCH   6  14
ATOM     14  O   UNL     1      53.875  58.957   3.381  1.00  0.00    -0.502 OA
ATOM     15  H   UNL     1      54.553  58.284   3.707  1.00  0.00     0.293 HD
ENDBRANCH   6  14
TORSDOF 4
ENDMDL
MODEL 9
REMARK VINA RESULT:    -5.249     10.243     12.183
REMARK INTER + INTRA:          -6.061
REMARK INTER:                  -6.009
REMARK INTRA:                  -0.052
REMARK UNBOUND:                -0.045
REMARK SMILES O=C([O-])c1cc(O)c(O)c(O)c1
REMARK SMILES IDX 4 1 5 2 12 3 6 4 10 5 8 6 2 7 1 8 3 9 7 10 11 12 9 14
REMARK H PARENT 7 11 11 13 9 15
REMARK Flexibility Score: inf
ROOT
ATOM      1  C   UNL     1      45.748  67.160   3.828  1.00  0.00     0.005 A 
ATOM      2  C   UNL     1      46.932  67.865   3.566  1.00  0.00     0.060 A 
ATOM      3  C   UNL     1      45.708  65.778   3.580  1.00  0.00     0.060 A 
ATOM      4  C   UNL     1      48.059  67.206   3.066  1.00  0.00     0.162 A 
ATOM      5  C   UNL     1      46.827  65.103   3.079  1.00  0.00     0.162 A 
ATOM      6  C   UNL     1      48.020  65.822   2.817  1.00  0.00     0.200 A 
ENDROOT
BRANCH   1   7
ATOM      7  C   UNL     1      44.560  67.866   4.358  1.00  0.00     0.072 C 
ATOM      8  O   UNL     1      44.650  69.051   4.773  1.00  0.00    -0.545 OA
ATOM      9  O   UNL     1      43.325  67.228   4.405  1.00  0.00    -0.545 OA
ENDBRANCH   1   7
BRANCH   4  10
ATOM     10  O   UNL     1      49.215  67.948   2.820  1.00  0.00    -0.504 OA
ATOM     11  H   UNL     1      49.429  68.332   1.908  1.00  0.00     0.293 HD
ENDBRANCH   4  10
BRANCH   5  12
ATOM     12  O   UNL     1      46.710  63.730   2.857  1.00  0.00    -0.504 OA
ATOM     13  H   UNL     1      46.411  63.065   3.556  1.00  0.00     0.293 HD
ENDBRANCH   5  12
BRANCH   6  14
ATOM     14  O   UNL     1      49.168  65.203   2.318  1.00  0.00    -0.502 OA
ATOM     15  H   UNL     1      50.070  65.652   2.245  1.00  0.00     0.293 HD
ENDBRANCH   6  14
TORSDOF 4
ENDMDL
