MODEL 1
REMARK VINA RESULT:    -4.864      0.000      0.000
REMARK INTER + INTRA:          -5.366
REMARK INTER:                  -5.290
REMARK INTRA:                  -0.076
REMARK UNBOUND:                -0.076
REMARK SMILES CCc1cccc(O)c1
REMARK SMILES IDX 3 1 9 2 7 3 6 4 5 5 4 6 2 7 1 8 8 9
REMARK H PARENT 8 10
REMARK Flexibility Score: inf
ROOT
ATOM      1  C   UNL     1      24.967  47.075  32.095  1.00  0.00    -0.045 A 
ATOM      2  C   UNL     1      26.326  47.272  32.393  1.00  0.00     0.049 A 
ATOM      3  C   UNL     1      26.709  47.795  33.637  1.00  0.00     0.115 A 
ATOM      4  C   UNL     1      25.733  48.128  34.582  1.00  0.00     0.046 A 
ATOM      5  C   UNL     1      24.380  47.947  34.286  1.00  0.00     0.004 A 
ATOM      6  C   UNL     1      23.996  47.426  33.046  1.00  0.00     0.004 A 
ENDROOT
BRANCH   1   7
ATOM      7  C   UNL     1      24.554  46.545  30.749  1.00  0.00     0.032 C 
ATOM      8  C   UNL     1      23.043  46.647  30.568  1.00  0.00     0.009 C 
ENDBRANCH   1   7
BRANCH   3   9
ATOM      9  O   UNL     1      28.054  47.988  33.943  1.00  0.00    -0.508 OA
ATOM     10  H   UNL     1      28.596  47.275  34.419  1.00  0.00     0.293 HD
ENDBRANCH   3   9
TORSDOF 2
ENDMDL
MODEL 2
REMARK VINA RESULT:    -4.839      1.957      3.621
REMARK INTER + INTRA:          -5.339
REMARK INTER:                  -5.264
REMARK INTRA:                  -0.075
REMARK UNBOUND:                -0.076
REMARK SMILES CCc1cccc(O)c1
REMARK SMILES IDX 3 1 9 2 7 3 6 4 5 5 4 6 2 7 1 8 8 9
REMARK H PARENT 8 10
REMARK Flexibility Score: inf
ROOT
ATOM      1  C   UNL     1      25.787  46.976  32.659  1.00  0.00    -0.045 A 
ATOM      2  C   UNL     1      26.695  46.201  31.916  1.00  0.00     0.049 A 
ATOM      3  C   UNL     1      26.369  45.777  30.620  1.00  0.00     0.115 A 
ATOM      4  C   UNL     1      25.131  46.121  30.067  1.00  0.00     0.046 A 
ATOM      5  C   UNL     1      24.219  46.880  30.805  1.00  0.00     0.004 A 
ATOM      6  C   UNL     1      24.543  47.303  32.098  1.00  0.00     0.004 A 
ENDROOT
BRANCH   1   7
ATOM      7  C   UNL     1      26.123  47.402  34.062  1.00  0.00     0.032 C 
ATOM      8  C   UNL     1      24.877  47.897  34.789  1.00  0.00     0.009 C 
ENDBRANCH   1   7
BRANCH   3   9
ATOM      9  O   UNL     1      27.265  45.014  29.876  1.00  0.00    -0.508 OA
ATOM     10  H   UNL     1      28.062  45.436  29.412  1.00  0.00     0.293 HD
ENDBRANCH   3   9
TORSDOF 2
ENDMDL
MODEL 3
REMARK VINA RESULT:    -4.759      2.310      4.114
REMARK INTER + INTRA:          -5.252
REMARK INTER:                  -5.202
REMARK INTRA:                  -0.050
REMARK UNBOUND:                -0.076
REMARK SMILES CCc1cccc(O)c1
REMARK SMILES IDX 3 1 9 2 7 3 6 4 5 5 4 6 2 7 1 8 8 9
REMARK H PARENT 8 10
REMARK Flexibility Score: inf
ROOT
ATOM      1  C   UNL     1      25.692  47.051  32.801  1.00  0.00    -0.045 A 
ATOM      2  C   UNL     1      24.399  47.354  32.338  1.00  0.00     0.049 A 
ATOM      3  C   UNL     1      23.981  46.920  31.072  1.00  0.00     0.115 A 
ATOM      4  C   UNL     1      24.857  46.188  30.264  1.00  0.00     0.046 A 
ATOM      5  C   UNL     1      26.148  45.896  30.713  1.00  0.00     0.004 A 
ATOM      6  C   UNL     1      26.567  46.329  31.974  1.00  0.00     0.004 A 
ENDROOT
BRANCH   1   7
ATOM      7  C   UNL     1      26.152  47.546  34.145  1.00  0.00     0.032 C 
ATOM      8  C   UNL     1      24.960  47.916  35.021  1.00  0.00     0.009 C 
ENDBRANCH   1   7
BRANCH   3   9
ATOM      9  O   UNL     1      22.700  47.210  30.609  1.00  0.00    -0.508 OA
ATOM     10  H   UNL     1      21.925  46.576  30.765  1.00  0.00     0.293 HD
ENDBRANCH   3   9
TORSDOF 2
ENDMDL
MODEL 4
REMARK VINA RESULT:    -4.478     11.233     12.197
REMARK INTER + INTRA:          -4.947
REMARK INTER:                  -4.892
REMARK INTRA:                  -0.055
REMARK UNBOUND:                -0.076
REMARK SMILES CCc1cccc(O)c1
REMARK SMILES IDX 3 1 9 2 7 3 6 4 5 5 4 6 2 7 1 8 8 9
REMARK H PARENT 8 10
REMARK Flexibility Score: inf
ROOT
ATOM      1  C   UNL     1      21.281  47.431  44.024  1.00  0.00    -0.045 A 
ATOM      2  C   UNL     1      22.125  48.348  43.375  1.00  0.00     0.049 A 
ATOM      3  C   UNL     1      22.410  49.588  43.965  1.00  0.00     0.115 A 
ATOM      4  C   UNL     1      21.844  49.915  45.202  1.00  0.00     0.046 A 
ATOM      5  C   UNL     1      20.994  49.013  45.846  1.00  0.00     0.004 A 
ATOM      6  C   UNL     1      20.708  47.776  45.259  1.00  0.00     0.004 A 
ENDROOT
BRANCH   1   7
ATOM      7  C   UNL     1      20.949  46.114  43.376  1.00  0.00     0.032 C 
ATOM      8  C   UNL     1      21.664  44.968  44.085  1.00  0.00     0.009 C 
ENDBRANCH   1   7
BRANCH   3   9
ATOM      9  O   UNL     1      23.250  50.500  43.331  1.00  0.00    -0.508 OA
ATOM     10  H   UNL     1      24.189  50.678  43.669  1.00  0.00     0.293 HD
ENDBRANCH   3   9
TORSDOF 2
ENDMDL
MODEL 5
REMARK VINA RESULT:    -4.454      2.691      3.439
REMARK INTER + INTRA:          -4.920
REMARK INTER:                  -4.868
REMARK INTRA:                  -0.052
REMARK UNBOUND:                -0.076
REMARK SMILES CCc1cccc(O)c1
REMARK SMILES IDX 3 1 9 2 7 3 6 4 5 5 4 6 2 7 1 8 8 9
REMARK H PARENT 8 10
REMARK Flexibility Score: inf
ROOT
ATOM      1  C   UNL     1      26.151  46.243  31.427  1.00  0.00    -0.045 A 
ATOM      2  C   UNL     1      24.864  46.364  30.875  1.00  0.00     0.049 A 
ATOM      3  C   UNL     1      23.839  46.986  31.602  1.00  0.00     0.115 A 
ATOM      4  C   UNL     1      24.098  47.483  32.884  1.00  0.00     0.046 A 
ATOM      5  C   UNL     1      25.372  47.354  33.442  1.00  0.00     0.004 A 
ATOM      6  C   UNL     1      26.395  46.733  32.720  1.00  0.00     0.004 A 
ENDROOT
BRANCH   1   7
ATOM      7  C   UNL     1      27.243  45.546  30.661  1.00  0.00     0.032 C 
ATOM      8  C   UNL     1      27.147  44.034  30.840  1.00  0.00     0.009 C 
ENDBRANCH   1   7
BRANCH   3   9
ATOM      9  O   UNL     1      22.562  47.115  31.061  1.00  0.00    -0.508 OA
ATOM     10  H   UNL     1      22.314  46.678  30.181  1.00  0.00     0.293 HD
ENDBRANCH   3   9
TORSDOF 2
ENDMDL
MODEL 6
REMARK VINA RESULT:    -4.384     12.419     13.757
REMARK INTER + INTRA:          -4.844
REMARK INTER:                  -4.794
REMARK INTRA:                  -0.050
REMARK UNBOUND:                -0.076
REMARK SMILES CCc1cccc(O)c1
REMARK SMILES IDX 3 1 9 2 7 3 6 4 5 5 4 6 2 7 1 8 8 9
REMARK H PARENT 8 10
REMARK Flexibility Score: inf
ROOT
ATOM      1  C   UNL     1      20.997  46.521  44.616  1.00  0.00    -0.045 A 
ATOM      2  C   UNL     1      20.033  46.158  45.573  1.00  0.00     0.049 A 
ATOM      3  C   UNL     1      19.562  47.102  46.496  1.00  0.00     0.115 A 
ATOM      4  C   UNL     1      20.059  48.410  46.468  1.00  0.00     0.046 A 
ATOM      5  C   UNL     1      21.026  48.773  45.527  1.00  0.00     0.004 A 
ATOM      6  C   UNL     1      21.497  47.832  44.606  1.00  0.00     0.004 A 
ENDROOT
BRANCH   1   7
ATOM      7  C   UNL     1      21.527  45.499  43.647  1.00  0.00     0.032 C 
ATOM      8  C   UNL     1      22.134  44.314  44.391  1.00  0.00     0.009 C 
ENDBRANCH   1   7
BRANCH   3   9
ATOM      9  O   UNL     1      18.604  46.753  47.444  1.00  0.00    -0.508 OA
ATOM     10  H   UNL     1      17.623  46.677  47.201  1.00  0.00     0.293 HD
ENDBRANCH   3   9
TORSDOF 2
ENDMDL
MODEL 7
REMARK VINA RESULT:    -4.223     11.435     12.666
REMARK INTER + INTRA:          -4.668
REMARK INTER:                  -4.600
REMARK INTRA:                  -0.069
REMARK UNBOUND:                -0.076
REMARK SMILES CCc1cccc(O)c1
REMARK SMILES IDX 3 1 9 2 7 3 6 4 5 5 4 6 2 7 1 8 8 9
REMARK H PARENT 8 10
REMARK Flexibility Score: inf
ROOT
ATOM      1  C   UNL     1      21.474  48.505  44.151  1.00  0.00    -0.045 A 
ATOM      2  C   UNL     1      21.367  47.404  43.283  1.00  0.00     0.049 A 
ATOM      3  C   UNL     1      20.630  46.273  43.663  1.00  0.00     0.115 A 
ATOM      4  C   UNL     1      20.006  46.237  44.914  1.00  0.00     0.046 A 
ATOM      5  C   UNL     1      20.121  47.323  45.786  1.00  0.00     0.004 A 
ATOM      6  C   UNL     1      20.855  48.451  45.410  1.00  0.00     0.004 A 
ENDROOT
BRANCH   1   7
ATOM      7  C   UNL     1      22.292  49.705  43.758  1.00  0.00     0.032 C 
ATOM      8  C   UNL     1      23.283  50.068  44.859  1.00  0.00     0.009 C 
ENDBRANCH   1   7
BRANCH   3   9
ATOM      9  O   UNL     1      20.513  45.181  42.806  1.00  0.00    -0.508 OA
ATOM     10  H   UNL     1      20.647  45.276  41.806  1.00  0.00     0.293 HD
ENDBRANCH   3   9
TORSDOF 2
ENDMDL
MODEL 8
REMARK VINA RESULT:    -4.132     11.826     13.096
REMARK INTER + INTRA:          -4.570
REMARK INTER:                  -4.496
REMARK INTRA:                  -0.075
REMARK UNBOUND:                -0.076
REMARK SMILES CCc1cccc(O)c1
REMARK SMILES IDX 3 1 9 2 7 3 6 4 5 5 4 6 2 7 1 8 8 9
REMARK H PARENT 8 10
REMARK Flexibility Score: inf
ROOT
ATOM      1  C   UNL     1      21.395  48.290  44.685  1.00  0.00    -0.045 A 
ATOM      2  C   UNL     1      20.422  47.768  45.555  1.00  0.00     0.049 A 
ATOM      3  C   UNL     1      19.536  46.775  45.112  1.00  0.00     0.115 A 
ATOM      4  C   UNL     1      19.617  46.308  43.795  1.00  0.00     0.046 A 
ATOM      5  C   UNL     1      20.573  46.834  42.922  1.00  0.00     0.004 A 
ATOM      6  C   UNL     1      21.457  47.824  43.362  1.00  0.00     0.004 A 
ENDROOT
BRANCH   1   7
ATOM      7  C   UNL     1      22.323  49.379  45.150  1.00  0.00     0.032 C 
ATOM      8  C   UNL     1      22.919  50.126  43.961  1.00  0.00     0.009 C 
ENDBRANCH   1   7
BRANCH   3   9
ATOM      9  O   UNL     1      18.573  46.248  45.969  1.00  0.00    -0.508 OA
ATOM     10  H   UNL     1      18.363  46.683  46.860  1.00  0.00     0.293 HD
ENDBRANCH   3   9
TORSDOF 2
ENDMDL
MODEL 9
REMARK VINA RESULT:    -4.051     11.726     13.511
REMARK INTER + INTRA:          -4.482
REMARK INTER:                  -4.406
REMARK INTRA:                  -0.076
REMARK UNBOUND:                -0.076
REMARK SMILES CCc1cccc(O)c1
REMARK SMILES IDX 3 1 9 2 7 3 6 4 5 5 4 6 2 7 1 8 8 9
REMARK H PARENT 8 10
REMARK Flexibility Score: inf
ROOT
ATOM      1  C   UNL     1      20.248  47.536  45.656  1.00  0.00    -0.045 A 
ATOM      2  C   UNL     1      19.900  46.348  44.991  1.00  0.00     0.049 A 
ATOM      3  C   UNL     1      20.344  46.114  43.682  1.00  0.00     0.115 A 
ATOM      4  C   UNL     1      21.131  47.072  43.033  1.00  0.00     0.046 A 
ATOM      5  C   UNL     1      21.469  48.261  43.685  1.00  0.00     0.004 A 
ATOM      6  C   UNL     1      21.027  48.496  44.990  1.00  0.00     0.004 A 
ENDROOT
BRANCH   1   7
ATOM      7  C   UNL     1      19.744  47.802  47.049  1.00  0.00     0.032 C 
ATOM      8  C   UNL     1      20.065  49.231  47.476  1.00  0.00     0.009 C 
ENDBRANCH   1   7
BRANCH   3   9
ATOM      9  O   UNL     1      20.009  44.937  43.017  1.00  0.00    -0.508 OA
ATOM     10  H   UNL     1      19.383  44.256  43.431  1.00  0.00     0.293 HD
ENDBRANCH   3   9
TORSDOF 2
ENDMDL
