MODEL 1
REMARK VINA RESULT:    -5.391      0.000      0.000
REMARK INTER + INTRA:          -5.802
REMARK INTER:                  -5.706
REMARK INTRA:                  -0.096
REMARK UNBOUND:                -0.096
REMARK SMILES C=C(C)[C@@H]1CC=C(C)C(=O)C1
REMARK SMILES IDX 8 1 7 2 6 3 5 4 4 5 11 6 9 7 10 8 2 9 1 10 3 11
REMARK H PARENT
REMARK Flexibility Score: inf
ROOT
ATOM      1  C   UNL     1       3.798  16.415  -6.086  1.00  0.00     0.048 C 
ATOM      2  C   UNL     1       3.437  17.783  -6.596  1.00  0.00    -0.012 C 
ATOM      3  C   UNL     1       2.946  18.709  -5.755  1.00  0.00    -0.019 C 
ATOM      4  C   UNL     1       2.646  20.117  -6.202  1.00  0.00     0.036 C 
ATOM      5  C   UNL     1       2.237  20.153  -7.687  1.00  0.00     0.025 C 
ATOM      6  C   UNL     1       3.316  19.481  -8.557  1.00  0.00     0.089 C 
ATOM      7  C   UNL     1       3.649  18.113  -8.027  1.00  0.00     0.158 C 
ATOM      8  O   UNL     1       4.155  17.260  -8.805  1.00  0.00    -0.295 OA
ENDROOT
BRANCH   5   9
ATOM      9  C   UNL     1       1.942  21.572  -8.155  1.00  0.00    -0.077 C 
ATOM     10  C   UNL     1       2.683  22.163  -9.108  1.00  0.00     0.008 C 
ATOM     11  C   UNL     1       0.799  22.346  -7.548  1.00  0.00     0.039 C 
ENDBRANCH   5   9
TORSDOF 1
ENDMDL
MODEL 2
REMARK VINA RESULT:    -5.318      1.384      1.937
REMARK INTER + INTRA:          -5.725
REMARK INTER:                  -5.636
REMARK INTRA:                  -0.088
REMARK UNBOUND:                -0.096
REMARK SMILES C=C(C)[C@@H]1CC=C(C)C(=O)C1
REMARK SMILES IDX 8 1 7 2 6 3 5 4 4 5 11 6 9 7 10 8 2 9 1 10 3 11
REMARK H PARENT
REMARK Flexibility Score: inf
ROOT
ATOM      1  C   UNL     1       4.137  16.036  -6.882  1.00  0.00     0.048 C 
ATOM      2  C   UNL     1       3.562  17.401  -7.145  1.00  0.00    -0.012 C 
ATOM      3  C   UNL     1       2.917  17.652  -8.297  1.00  0.00    -0.019 C 
ATOM      4  C   UNL     1       2.255  18.977  -8.571  1.00  0.00     0.036 C 
ATOM      5  C   UNL     1       2.991  20.125  -7.854  1.00  0.00     0.025 C 
ATOM      6  C   UNL     1       3.105  19.829  -6.346  1.00  0.00     0.089 C 
ATOM      7  C   UNL     1       3.691  18.462  -6.116  1.00  0.00     0.158 C 
ATOM      8  O   UNL     1       4.254  18.214  -5.017  1.00  0.00    -0.295 OA
ENDROOT
BRANCH   5   9
ATOM      9  C   UNL     1       2.325  21.470  -8.114  1.00  0.00    -0.077 C 
ATOM     10  C   UNL     1       2.734  22.271  -9.113  1.00  0.00     0.008 C 
ATOM     11  C   UNL     1       1.182  21.929  -7.244  1.00  0.00     0.039 C 
ENDBRANCH   5   9
TORSDOF 1
ENDMDL
MODEL 3
REMARK VINA RESULT:    -5.290      1.654      1.943
REMARK INTER + INTRA:          -5.696
REMARK INTER:                  -5.601
REMARK INTRA:                  -0.095
REMARK UNBOUND:                -0.096
REMARK SMILES C=C(C)[C@@H]1CC=C(C)C(=O)C1
REMARK SMILES IDX 8 1 7 2 6 3 5 4 4 5 11 6 9 7 10 8 2 9 1 10 3 11
REMARK H PARENT
REMARK Flexibility Score: inf
ROOT
ATOM      1  C   UNL     1       3.116  16.079  -8.043  1.00  0.00     0.048 C 
ATOM      2  C   UNL     1       2.817  17.542  -8.225  1.00  0.00    -0.012 C 
ATOM      3  C   UNL     1       3.775  18.459  -8.004  1.00  0.00    -0.019 C 
ATOM      4  C   UNL     1       3.548  19.928  -8.251  1.00  0.00     0.036 C 
ATOM      5  C   UNL     1       2.072  20.308  -8.023  1.00  0.00     0.025 C 
ATOM      6  C   UNL     1       1.151  19.422  -8.883  1.00  0.00     0.089 C 
ATOM      7  C   UNL     1       1.468  17.966  -8.673  1.00  0.00     0.158 C 
ATOM      8  O   UNL     1       0.585  17.104  -8.927  1.00  0.00    -0.295 OA
ENDROOT
BRANCH   5   9
ATOM      9  C   UNL     1       1.827  21.789  -8.280  1.00  0.00    -0.077 C 
ATOM     10  C   UNL     1       2.603  22.490  -9.125  1.00  0.00     0.008 C 
ATOM     11  C   UNL     1       0.696  22.501  -7.582  1.00  0.00     0.039 C 
ENDBRANCH   5   9
TORSDOF 1
ENDMDL
MODEL 4
REMARK VINA RESULT:    -5.081      1.803      2.906
REMARK INTER + INTRA:          -5.474
REMARK INTER:                  -5.378
REMARK INTRA:                  -0.096
REMARK UNBOUND:                -0.096
REMARK SMILES C=C(C)[C@@H]1CC=C(C)C(=O)C1
REMARK SMILES IDX 8 1 7 2 6 3 5 4 4 5 11 6 9 7 10 8 2 9 1 10 3 11
REMARK H PARENT
REMARK Flexibility Score: inf
ROOT
ATOM      1  C   UNL     1       4.884  14.621  -6.498  1.00  0.00     0.048 C 
ATOM      2  C   UNL     1       4.269  15.978  -6.709  1.00  0.00    -0.012 C 
ATOM      3  C   UNL     1       3.764  16.310  -7.909  1.00  0.00    -0.019 C 
ATOM      4  C   UNL     1       3.067  17.625  -8.147  1.00  0.00     0.036 C 
ATOM      5  C   UNL     1       3.638  18.729  -7.236  1.00  0.00     0.025 C 
ATOM      6  C   UNL     1       3.575  18.293  -5.761  1.00  0.00     0.089 C 
ATOM      7  C   UNL     1       4.204  16.938  -5.580  1.00  0.00     0.158 C 
ATOM      8  O   UNL     1       4.634  16.608  -4.443  1.00  0.00    -0.295 OA
ENDROOT
BRANCH   5   9
ATOM      9  C   UNL     1       2.934  20.062  -7.459  1.00  0.00    -0.077 C 
ATOM     10  C   UNL     1       2.192  20.630  -6.494  1.00  0.00     0.008 C 
ATOM     11  C   UNL     1       3.061  20.772  -8.783  1.00  0.00     0.039 C 
ENDBRANCH   5   9
TORSDOF 1
ENDMDL
MODEL 5
REMARK VINA RESULT:    -4.839      1.908      4.754
REMARK INTER + INTRA:          -5.218
REMARK INTER:                  -5.130
REMARK INTRA:                  -0.088
REMARK UNBOUND:                -0.096
REMARK SMILES C=C(C)[C@@H]1CC=C(C)C(=O)C1
REMARK SMILES IDX 8 1 7 2 6 3 5 4 4 5 11 6 9 7 10 8 2 9 1 10 3 11
REMARK H PARENT
REMARK Flexibility Score: inf
ROOT
ATOM      1  C   UNL     1       2.546  21.629  -9.125  1.00  0.00     0.048 C 
ATOM      2  C   UNL     1       2.801  20.434  -8.248  1.00  0.00    -0.012 C 
ATOM      3  C   UNL     1       3.442  19.360  -8.740  1.00  0.00    -0.019 C 
ATOM      4  C   UNL     1       3.792  18.173  -7.879  1.00  0.00     0.036 C 
ATOM      5  C   UNL     1       2.764  17.985  -6.748  1.00  0.00     0.025 C 
ATOM      6  C   UNL     1       2.626  19.282  -5.927  1.00  0.00     0.089 C 
ATOM      7  C   UNL     1       2.363  20.456  -6.830  1.00  0.00     0.158 C 
ATOM      8  O   UNL     1       1.805  21.481  -6.356  1.00  0.00    -0.295 OA
ENDROOT
BRANCH   5   9
ATOM      9  C   UNL     1       3.112  16.795  -5.864  1.00  0.00    -0.077 C 
ATOM     10  C   UNL     1       2.325  15.705  -5.816  1.00  0.00     0.008 C 
ATOM     11  C   UNL     1       4.360  16.820  -5.018  1.00  0.00     0.039 C 
ENDBRANCH   5   9
TORSDOF 1
ENDMDL
MODEL 6
REMARK VINA RESULT:    -4.701      1.903      5.217
REMARK INTER + INTRA:          -5.072
REMARK INTER:                  -4.982
REMARK INTRA:                  -0.090
REMARK UNBOUND:                -0.096
REMARK SMILES C=C(C)[C@@H]1CC=C(C)C(=O)C1
REMARK SMILES IDX 8 1 7 2 6 3 5 4 4 5 11 6 9 7 10 8 2 9 1 10 3 11
REMARK H PARENT
REMARK Flexibility Score: inf
ROOT
ATOM      1  C   UNL     1       3.166  20.685  -8.394  1.00  0.00     0.048 C 
ATOM      2  C   UNL     1       3.479  19.307  -7.879  1.00  0.00    -0.012 C 
ATOM      3  C   UNL     1       3.736  18.307  -8.739  1.00  0.00    -0.019 C 
ATOM      4  C   UNL     1       4.134  16.931  -8.270  1.00  0.00     0.036 C 
ATOM      5  C   UNL     1       3.504  16.606  -6.902  1.00  0.00     0.025 C 
ATOM      6  C   UNL     1       3.859  17.698  -5.876  1.00  0.00     0.089 C 
ATOM      7  C   UNL     1       3.527  19.063  -6.416  1.00  0.00     0.158 C 
ATOM      8  O   UNL     1       3.333  20.011  -5.609  1.00  0.00    -0.295 OA
ENDROOT
BRANCH   5   9
ATOM      9  C   UNL     1       3.907  15.222  -6.412  1.00  0.00    -0.077 C 
ATOM     10  C   UNL     1       3.029  14.418  -5.787  1.00  0.00     0.008 C 
ATOM     11  C   UNL     1       5.314  14.724  -6.624  1.00  0.00     0.039 C 
ENDBRANCH   5   9
TORSDOF 1
ENDMDL
MODEL 7
REMARK VINA RESULT:    -4.673      3.189      5.146
REMARK INTER + INTRA:          -5.042
REMARK INTER:                  -4.951
REMARK INTRA:                  -0.091
REMARK UNBOUND:                -0.096
REMARK SMILES C=C(C)[C@@H]1CC=C(C)C(=O)C1
REMARK SMILES IDX 8 1 7 2 6 3 5 4 4 5 11 6 9 7 10 8 2 9 1 10 3 11
REMARK H PARENT
REMARK Flexibility Score: inf
ROOT
ATOM      1  C   UNL     1       5.619  11.761  -8.024  1.00  0.00     0.048 C 
ATOM      2  C   UNL     1       5.047  13.138  -7.823  1.00  0.00    -0.012 C 
ATOM      3  C   UNL     1       4.264  13.688  -8.766  1.00  0.00    -0.019 C 
ATOM      4  C   UNL     1       3.603  15.029  -8.574  1.00  0.00     0.036 C 
ATOM      5  C   UNL     1       4.453  15.943  -7.672  1.00  0.00     0.025 C 
ATOM      6  C   UNL     1       4.755  15.244  -6.333  1.00  0.00     0.089 C 
ATOM      7  C   UNL     1       5.333  13.875  -6.567  1.00  0.00     0.158 C 
ATOM      8  O   UNL     1       6.027  13.339  -5.662  1.00  0.00    -0.295 OA
ENDROOT
BRANCH   5   9
ATOM      9  C   UNL     1       3.791  17.299  -7.461  1.00  0.00    -0.077 C 
ATOM     10  C   UNL     1       3.717  18.202  -8.454  1.00  0.00     0.008 C 
ATOM     11  C   UNL     1       3.200  17.652  -6.120  1.00  0.00     0.039 C 
ENDBRANCH   5   9
TORSDOF 1
ENDMDL
MODEL 8
REMARK VINA RESULT:    -4.662      2.391      3.746
REMARK INTER + INTRA:          -5.031
REMARK INTER:                  -4.937
REMARK INTRA:                  -0.094
REMARK UNBOUND:                -0.096
REMARK SMILES C=C(C)[C@@H]1CC=C(C)C(=O)C1
REMARK SMILES IDX 8 1 7 2 6 3 5 4 4 5 11 6 9 7 10 8 2 9 1 10 3 11
REMARK H PARENT
REMARK Flexibility Score: inf
ROOT
ATOM      1  C   UNL     1       2.926  13.106  -7.222  1.00  0.00     0.048 C 
ATOM      2  C   UNL     1       3.001  14.606  -7.146  1.00  0.00    -0.012 C 
ATOM      3  C   UNL     1       2.683  15.353  -8.217  1.00  0.00    -0.019 C 
ATOM      4  C   UNL     1       2.665  16.859  -8.165  1.00  0.00     0.036 C 
ATOM      5  C   UNL     1       3.695  17.393  -7.152  1.00  0.00     0.025 C 
ATOM      6  C   UNL     1       3.465  16.758  -5.768  1.00  0.00     0.089 C 
ATOM      7  C   UNL     1       3.404  15.258  -5.875  1.00  0.00     0.158 C 
ATOM      8  O   UNL     1       3.654  14.560  -4.857  1.00  0.00    -0.295 OA
ENDROOT
BRANCH   5   9
ATOM      9  C   UNL     1       3.679  18.914  -7.083  1.00  0.00    -0.077 C 
ATOM     10  C   UNL     1       3.792  19.666  -8.192  1.00  0.00     0.008 C 
ATOM     11  C   UNL     1       3.534  19.609  -5.753  1.00  0.00     0.039 C 
ENDBRANCH   5   9
TORSDOF 1
ENDMDL
MODEL 9
REMARK VINA RESULT:    -4.615      3.769      6.482
REMARK INTER + INTRA:          -4.980
REMARK INTER:                  -4.892
REMARK INTRA:                  -0.088
REMARK UNBOUND:                -0.096
REMARK SMILES C=C(C)[C@@H]1CC=C(C)C(=O)C1
REMARK SMILES IDX 8 1 7 2 6 3 5 4 4 5 11 6 9 7 10 8 2 9 1 10 3 11
REMARK H PARENT
REMARK Flexibility Score: inf
ROOT
ATOM      1  C   UNL     1       2.000  17.247  -5.786  1.00  0.00     0.048 C 
ATOM      2  C   UNL     1       2.927  16.266  -6.451  1.00  0.00    -0.012 C 
ATOM      3  C   UNL     1       2.612  15.746  -7.650  1.00  0.00    -0.019 C 
ATOM      4  C   UNL     1       3.545  14.824  -8.391  1.00  0.00     0.036 C 
ATOM      5  C   UNL     1       4.405  14.000  -7.414  1.00  0.00     0.025 C 
ATOM      6  C   UNL     1       5.155  14.932  -6.443  1.00  0.00     0.089 C 
ATOM      7  C   UNL     1       4.201  15.894  -5.788  1.00  0.00     0.158 C 
ATOM      8  O   UNL     1       4.519  16.419  -4.687  1.00  0.00    -0.295 OA
ENDROOT
BRANCH   5   9
ATOM      9  C   UNL     1       5.361  13.071  -8.151  1.00  0.00    -0.077 C 
ATOM     10  C   UNL     1       5.333  11.741  -7.956  1.00  0.00     0.008 C 
ATOM     11  C   UNL     1       6.364  13.636  -9.125  1.00  0.00     0.039 C 
ENDBRANCH   5   9
TORSDOF 1
ENDMDL
