MODEL 1
REMARK VINA RESULT:    -2.621      0.000      0.000
REMARK INTER + INTRA:          -2.621
REMARK INTER:                  -2.621
REMARK INTRA:                   0.000
REMARK UNBOUND:                 0.000
REMARK SMILES CC1=CC[C@@]2(C)CCCC(C)(C)[C@@]23C[C@@H]13
REMARK SMILES IDX 1 1 2 2 3 3 4 4 5 5 7 6 8 7 9 8 10 9 13 10 15 11 14 12 11 13
REMARK SMILES IDX 12 14 6 15
REMARK H PARENT
REMARK Flexibility Score: inf
ROOT
ATOM      1  C   UNL     1     164.887 175.942 139.516  1.00  0.00     0.039 C 
ATOM      2  C   UNL     1     166.278 175.383 139.626  1.00  0.00    -0.074 C 
ATOM      3  C   UNL     1     167.319 176.125 139.194  1.00  0.00    -0.027 C 
ATOM      4  C   UNL     1     168.744 175.648 139.305  1.00  0.00     0.034 C 
ATOM      5  C   UNL     1     168.856 174.107 139.106  1.00  0.00    -0.022 C 
ATOM      6  C   UNL     1     170.310 173.643 139.446  1.00  0.00     0.008 C 
ATOM      7  C   UNL     1     170.405 172.249 140.106  1.00  0.00     0.001 C 
ATOM      8  C   UNL     1     169.342 171.273 139.585  1.00  0.00     0.007 C 
ATOM      9  C   UNL     1     167.890 171.722 139.953  1.00  0.00    -0.029 C 
ATOM     10  C   UNL     1     167.829 173.313 140.007  1.00  0.00    -0.012 C 
ATOM     11  C   UNL     1     166.464 173.989 140.201  1.00  0.00     0.022 C 
ATOM     12  C   UNL     1     167.444 173.948 141.371  1.00  0.00     0.017 C 
ATOM     13  C   UNL     1     167.515 171.035 141.294  1.00  0.00     0.012 C 
ATOM     14  C   UNL     1     166.908 171.175 138.888  1.00  0.00     0.012 C 
ATOM     15  C   UNL     1     168.573 173.842 137.600  1.00  0.00     0.012 C 
ENDROOT
TORSDOF 0
ENDMDL
MODEL 2
REMARK VINA RESULT:    -2.530     13.136     15.754
REMARK INTER + INTRA:          -2.530
REMARK INTER:                  -2.530
REMARK INTRA:                   0.000
REMARK UNBOUND:                 0.000
REMARK SMILES CC1=CC[C@@]2(C)CCCC(C)(C)[C@@]23C[C@@H]13
REMARK SMILES IDX 1 1 2 2 3 3 4 4 5 5 7 6 8 7 9 8 10 9 13 10 15 11 14 12 11 13
REMARK SMILES IDX 12 14 6 15
REMARK H PARENT
REMARK Flexibility Score: inf
ROOT
ATOM      1  C   UNL     1     162.813 161.777 138.405  1.00  0.00     0.039 C 
ATOM      2  C   UNL     1     163.399 160.396 138.315  1.00  0.00    -0.074 C 
ATOM      3  C   UNL     1     162.887 159.523 137.424  1.00  0.00    -0.027 C 
ATOM      4  C   UNL     1     163.444 158.134 137.250  1.00  0.00     0.034 C 
ATOM      5  C   UNL     1     163.946 157.538 138.600  1.00  0.00    -0.022 C 
ATOM      6  C   UNL     1     164.707 156.200 138.327  1.00  0.00     0.008 C 
ATOM      7  C   UNL     1     165.904 155.935 139.267  1.00  0.00     0.001 C 
ATOM      8  C   UNL     1     165.669 156.460 140.690  1.00  0.00     0.007 C 
ATOM      9  C   UNL     1     165.542 158.017 140.735  1.00  0.00    -0.029 C 
ATOM     10  C   UNL     1     164.899 158.533 139.373  1.00  0.00    -0.012 C 
ATOM     11  C   UNL     1     164.538 160.021 139.249  1.00  0.00     0.022 C 
ATOM     12  C   UNL     1     165.768 159.494 138.515  1.00  0.00     0.017 C 
ATOM     13  C   UNL     1     166.957 158.591 141.018  1.00  0.00     0.012 C 
ATOM     14  C   UNL     1     164.656 158.415 141.941  1.00  0.00     0.012 C 
ATOM     15  C   UNL     1     162.674 157.242 139.444  1.00  0.00     0.012 C 
ENDROOT
TORSDOF 0
ENDMDL
MODEL 3
REMARK VINA RESULT:    -2.511      1.322      3.969
REMARK INTER + INTRA:          -2.511
REMARK INTER:                  -2.511
REMARK INTRA:                   0.000
REMARK UNBOUND:                 0.000
REMARK SMILES CC1=CC[C@@]2(C)CCCC(C)(C)[C@@]23C[C@@H]13
REMARK SMILES IDX 1 1 2 2 3 3 4 4 5 5 7 6 8 7 9 8 10 9 13 10 15 11 14 12 11 13
REMARK SMILES IDX 12 14 6 15
REMARK H PARENT
REMARK Flexibility Score: inf
ROOT
ATOM      1  C   UNL     1     169.098 170.207 138.318  1.00  0.00     0.039 C 
ATOM      2  C   UNL     1     168.560 171.609 138.258  1.00  0.00    -0.074 C 
ATOM      3  C   UNL     1     169.118 172.489 137.402  1.00  0.00    -0.027 C 
ATOM      4  C   UNL     1     168.611 173.901 137.258  1.00  0.00     0.034 C 
ATOM      5  C   UNL     1     168.104 174.475 138.615  1.00  0.00    -0.022 C 
ATOM      6  C   UNL     1     167.393 175.845 138.367  1.00  0.00     0.008 C 
ATOM      7  C   UNL     1     166.189 176.125 139.293  1.00  0.00     0.001 C 
ATOM      8  C   UNL     1     166.379 175.552 140.704  1.00  0.00     0.007 C 
ATOM      9  C   UNL     1     166.453 173.990 140.707  1.00  0.00    -0.029 C 
ATOM     10  C   UNL     1     167.104 173.491 139.342  1.00  0.00    -0.012 C 
ATOM     11  C   UNL     1     167.418 171.997 139.182  1.00  0.00     0.022 C 
ATOM     12  C   UNL     1     166.220 172.585 138.441  1.00  0.00     0.017 C 
ATOM     13  C   UNL     1     165.015 173.457 140.948  1.00  0.00     0.012 C 
ATOM     14  C   UNL     1     167.303 173.529 141.917  1.00  0.00     0.012 C 
ATOM     15  C   UNL     1     169.369 174.704 139.489  1.00  0.00     0.012 C 
ENDROOT
TORSDOF 0
ENDMDL
MODEL 4
REMARK VINA RESULT:    -2.499     13.224     16.195
REMARK INTER + INTRA:          -2.499
REMARK INTER:                  -2.499
REMARK INTRA:                   0.000
REMARK UNBOUND:                 0.000
REMARK SMILES CC1=CC[C@@]2(C)CCCC(C)(C)[C@@]23C[C@@H]13
REMARK SMILES IDX 1 1 2 2 3 3 4 4 5 5 7 6 8 7 9 8 10 9 13 10 15 11 14 12 11 13
REMARK SMILES IDX 12 14 6 15
REMARK H PARENT
REMARK Flexibility Score: inf
ROOT
ATOM      1  C   UNL     1     166.979 155.943 139.501  1.00  0.00     0.039 C 
ATOM      2  C   UNL     1     165.618 156.573 139.611  1.00  0.00    -0.074 C 
ATOM      3  C   UNL     1     164.538 155.875 139.204  1.00  0.00    -0.027 C 
ATOM      4  C   UNL     1     163.139 156.424 139.316  1.00  0.00     0.034 C 
ATOM      5  C   UNL     1     163.102 157.965 139.084  1.00  0.00    -0.022 C 
ATOM      6  C   UNL     1     161.676 158.508 139.427  1.00  0.00     0.008 C 
ATOM      7  C   UNL     1     161.657 159.918 140.057  1.00  0.00     0.001 C 
ATOM      8  C   UNL     1     162.762 160.829 139.506  1.00  0.00     0.007 C 
ATOM      9  C   UNL     1     164.193 160.316 139.872  1.00  0.00    -0.029 C 
ATOM     10  C   UNL     1     164.175 158.726 139.959  1.00  0.00    -0.012 C 
ATOM     11  C   UNL     1     165.507 157.986 140.157  1.00  0.00     0.022 C 
ATOM     12  C   UNL     1     164.541 158.101 141.334  1.00  0.00     0.017 C 
ATOM     13  C   UNL     1     164.614 161.011 141.194  1.00  0.00     0.012 C 
ATOM     14  C   UNL     1     165.191 160.790 138.787  1.00  0.00     0.012 C 
ATOM     15  C   UNL     1     163.384 158.183 137.571  1.00  0.00     0.012 C 
ENDROOT
TORSDOF 0
ENDMDL
MODEL 5
REMARK VINA RESULT:    -2.466      1.322      3.899
REMARK INTER + INTRA:          -2.466
REMARK INTER:                  -2.466
REMARK INTRA:                   0.000
REMARK UNBOUND:                 0.000
REMARK SMILES CC1=CC[C@@]2(C)CCCC(C)(C)[C@@]23C[C@@H]13
REMARK SMILES IDX 1 1 2 2 3 3 4 4 5 5 7 6 8 7 9 8 10 9 13 10 15 11 14 12 11 13
REMARK SMILES IDX 12 14 6 15
REMARK H PARENT
REMARK Flexibility Score: inf
ROOT
ATOM      1  C   UNL     1     168.544 173.176 143.948  1.00  0.00     0.039 C 
ATOM      2  C   UNL     1     168.469 172.749 142.509  1.00  0.00    -0.074 C 
ATOM      3  C   UNL     1     169.028 171.578 142.141  1.00  0.00    -0.027 C 
ATOM      4  C   UNL     1     168.962 171.066 140.726  1.00  0.00     0.034 C 
ATOM      5  C   UNL     1     169.029 172.225 139.687  1.00  0.00    -0.022 C 
ATOM      6  C   UNL     1     168.736 171.661 138.258  1.00  0.00     0.008 C 
ATOM      7  C   UNL     1     167.961 172.622 137.330  1.00  0.00     0.001 C 
ATOM      8  C   UNL     1     168.326 174.095 137.563  1.00  0.00     0.007 C 
ATOM      9  C   UNL     1     167.913 174.592 138.987  1.00  0.00    -0.029 C 
ATOM     10  C   UNL     1     167.999 173.379 140.014  1.00  0.00    -0.012 C 
ATOM     11  C   UNL     1     167.783 173.664 141.507  1.00  0.00     0.022 C 
ATOM     12  C   UNL     1     166.676 172.969 140.719  1.00  0.00     0.017 C 
ATOM     13  C   UNL     1     166.496 175.214 138.869  1.00  0.00     0.012 C 
ATOM     14  C   UNL     1     168.863 175.737 139.415  1.00  0.00     0.012 C 
ATOM     15  C   UNL     1     170.484 172.769 139.736  1.00  0.00     0.012 C 
ENDROOT
TORSDOF 0
ENDMDL
MODEL 6
REMARK VINA RESULT:    -2.452     13.722     15.623
REMARK INTER + INTRA:          -2.452
REMARK INTER:                  -2.452
REMARK INTRA:                   0.000
REMARK UNBOUND:                 0.000
REMARK SMILES CC1=CC[C@@]2(C)CCCC(C)(C)[C@@]23C[C@@H]13
REMARK SMILES IDX 1 1 2 2 3 3 4 4 5 5 7 6 8 7 9 8 10 9 13 10 15 11 14 12 11 13
REMARK SMILES IDX 12 14 6 15
REMARK H PARENT
REMARK Flexibility Score: inf
ROOT
ATOM      1  C   UNL     1     163.423 158.862 143.944  1.00  0.00     0.039 C 
ATOM      2  C   UNL     1     163.553 159.263 142.501  1.00  0.00    -0.074 C 
ATOM      3  C   UNL     1     163.065 160.456 142.106  1.00  0.00    -0.027 C 
ATOM      4  C   UNL     1     163.190 160.944 140.685  1.00  0.00     0.034 C 
ATOM      5  C   UNL     1     163.087 159.775 139.661  1.00  0.00    -0.022 C 
ATOM      6  C   UNL     1     163.441 160.302 138.232  1.00  0.00     0.008 C 
ATOM      7  C   UNL     1     164.186 159.289 137.336  1.00  0.00     0.001 C 
ATOM      8  C   UNL     1     163.740 157.841 137.579  1.00  0.00     0.007 C 
ATOM      9  C   UNL     1     164.094 157.343 139.018  1.00  0.00    -0.029 C 
ATOM     10  C   UNL     1     164.047 158.574 140.027  1.00  0.00    -0.012 C 
ATOM     11  C   UNL     1     164.214 158.300 141.529  1.00  0.00     0.022 C 
ATOM     12  C   UNL     1     165.373 158.925 140.758  1.00  0.00     0.017 C 
ATOM     13  C   UNL     1     165.479 156.647 138.942  1.00  0.00     0.012 C 
ATOM     14  C   UNL     1     163.076 156.255 139.439  1.00  0.00     0.012 C 
ATOM     15  C   UNL     1     161.604 159.307 139.682  1.00  0.00     0.012 C 
ENDROOT
TORSDOF 0
ENDMDL
MODEL 7
REMARK VINA RESULT:    -2.366     12.950     15.385
REMARK INTER + INTRA:          -2.366
REMARK INTER:                  -2.366
REMARK INTRA:                   0.000
REMARK UNBOUND:                 0.000
REMARK SMILES CC1=CC[C@@]2(C)CCCC(C)(C)[C@@]23C[C@@H]13
REMARK SMILES IDX 1 1 2 2 3 3 4 4 5 5 7 6 8 7 9 8 10 9 13 10 15 11 14 12 11 13
REMARK SMILES IDX 12 14 6 15
REMARK H PARENT
REMARK Flexibility Score: inf
ROOT
ATOM      1  C   UNL     1     163.913 162.101 140.780  1.00  0.00     0.039 C 
ATOM      2  C   UNL     1     164.659 160.801 140.671  1.00  0.00    -0.074 C 
ATOM      3  C   UNL     1     165.989 160.786 140.898  1.00  0.00    -0.027 C 
ATOM      4  C   UNL     1     166.799 159.517 140.843  1.00  0.00     0.034 C 
ATOM      5  C   UNL     1     166.267 158.538 139.753  1.00  0.00    -0.022 C 
ATOM      6  C   UNL     1     166.998 157.162 139.890  1.00  0.00     0.008 C 
ATOM      7  C   UNL     1     166.124 155.932 139.562  1.00  0.00     0.001 C 
ATOM      8  C   UNL     1     165.110 156.205 138.443  1.00  0.00     0.007 C 
ATOM      9  C   UNL     1     164.046 157.275 138.853  1.00  0.00    -0.029 C 
ATOM     10  C   UNL     1     164.707 158.314 139.864  1.00  0.00    -0.012 C 
ATOM     11  C   UNL     1     163.893 159.546 140.286  1.00  0.00     0.022 C 
ATOM     12  C   UNL     1     164.076 158.402 141.281  1.00  0.00     0.017 C 
ATOM     13  C   UNL     1     162.826 156.517 139.442  1.00  0.00     0.012 C 
ATOM     14  C   UNL     1     163.543 157.999 137.580  1.00  0.00     0.012 C 
ATOM     15  C   UNL     1     166.627 159.177 138.382  1.00  0.00     0.012 C 
ENDROOT
TORSDOF 0
ENDMDL
MODEL 8
REMARK VINA RESULT:    -2.332      1.266      4.359
REMARK INTER + INTRA:          -2.332
REMARK INTER:                  -2.332
REMARK INTRA:                   0.000
REMARK UNBOUND:                 0.000
REMARK SMILES CC1=CC[C@@]2(C)CCCC(C)(C)[C@@]23C[C@@H]13
REMARK SMILES IDX 1 1 2 2 3 3 4 4 5 5 7 6 8 7 9 8 10 9 13 10 15 11 14 12 11 13
REMARK SMILES IDX 12 14 6 15
REMARK H PARENT
REMARK Flexibility Score: inf
ROOT
ATOM      1  C   UNL     1     167.958 169.919 141.029  1.00  0.00     0.039 C 
ATOM      2  C   UNL     1     167.257 171.231 140.816  1.00  0.00    -0.074 C 
ATOM      3  C   UNL     1     165.918 171.293 140.973  1.00  0.00    -0.027 C 
ATOM      4  C   UNL     1     165.150 172.578 140.812  1.00  0.00     0.034 C 
ATOM      5  C   UNL     1     165.763 173.485 139.704  1.00  0.00    -0.022 C 
ATOM      6  C   UNL     1     165.067 174.885 139.732  1.00  0.00     0.008 C 
ATOM      7  C   UNL     1     165.992 176.073 139.388  1.00  0.00     0.001 C 
ATOM      8  C   UNL     1     167.053 175.715 138.338  1.00  0.00     0.007 C 
ATOM      9  C   UNL     1     168.063 174.640 138.856  1.00  0.00    -0.029 C 
ATOM     10  C   UNL     1     167.322 173.673 139.882  1.00  0.00    -0.012 C 
ATOM     11  C   UNL     1     168.077 172.444 140.408  1.00  0.00     0.022 C 
ATOM     12  C   UNL     1     167.879 173.642 141.333  1.00  0.00     0.017 C 
ATOM     13  C   UNL     1     169.273 175.395 139.468  1.00  0.00     0.012 C 
ATOM     14  C   UNL     1     168.607 173.838 137.649  1.00  0.00     0.012 C 
ATOM     15  C   UNL     1     165.454 172.786 138.350  1.00  0.00     0.012 C 
ENDROOT
TORSDOF 0
ENDMDL
MODEL 9
REMARK VINA RESULT:    -2.320     13.750     15.207
REMARK INTER + INTRA:          -2.320
REMARK INTER:                  -2.320
REMARK INTRA:                   0.000
REMARK UNBOUND:                 0.000
REMARK SMILES CC1=CC[C@@]2(C)CCCC(C)(C)[C@@]23C[C@@H]13
REMARK SMILES IDX 1 1 2 2 3 3 4 4 5 5 7 6 8 7 9 8 10 9 13 10 15 11 14 12 11 13
REMARK SMILES IDX 12 14 6 15
REMARK H PARENT
REMARK Flexibility Score: inf
ROOT
ATOM      1  C   UNL     1     159.754 160.175 139.808  1.00  0.00     0.039 C 
ATOM      2  C   UNL     1     161.197 160.166 139.387  1.00  0.00    -0.074 C 
ATOM      3  C   UNL     1     161.594 160.982 138.389  1.00  0.00    -0.027 C 
ATOM      4  C   UNL     1     163.029 161.055 137.936  1.00  0.00     0.034 C 
ATOM      5  C   UNL     1     163.737 159.670 138.026  1.00  0.00    -0.022 C 
ATOM      6  C   UNL     1     165.267 159.849 137.757  1.00  0.00     0.008 C 
ATOM      7  C   UNL     1     166.180 158.906 138.571  1.00  0.00     0.001 C 
ATOM      8  C   UNL     1     165.552 157.524 138.801  1.00  0.00     0.007 C 
ATOM      9  C   UNL     1     164.265 157.596 139.687  1.00  0.00    -0.029 C 
ATOM     10  C   UNL     1     163.531 158.986 139.436  1.00  0.00    -0.012 C 
ATOM     11  C   UNL     1     162.159 159.219 140.086  1.00  0.00     0.022 C 
ATOM     12  C   UNL     1     163.382 159.926 140.665  1.00  0.00     0.017 C 
ATOM     13  C   UNL     1     164.702 157.374 141.160  1.00  0.00     0.012 C 
ATOM     14  C   UNL     1     163.335 156.414 139.320  1.00  0.00     0.012 C 
ATOM     15  C   UNL     1     163.117 158.792 136.903  1.00  0.00     0.012 C 
ENDROOT
TORSDOF 0
ENDMDL
