MODEL 1
REMARK VINA RESULT:    -4.194      0.000      0.000
REMARK INTER + INTRA:          -6.778
REMARK INTER:                  -6.033
REMARK INTRA:                  -0.745
REMARK UNBOUND:                -0.745
REMARK SMILES O=C(CO)[C@H](O)[C@@H](O)[C@@H](O)CO
REMARK SMILES IDX 7 1 9 2 11 3 12 4 10 6 5 8 2 9 1 10 3 11 4 12 6 14 8 16
REMARK H PARENT 12 5 10 7 4 13 6 15 8 17
REMARK Flexibility Score: inf
ROOT
ATOM      1  C   UNL     1     -27.169 -11.957  21.284  1.00  0.00     0.181 C 
ENDROOT
BRANCH   1   2
ATOM      2  C   UNL     1     -26.039 -12.094  20.223  1.00  0.00     0.171 C 
BRANCH   2   3
ATOM      3  C   UNL     1     -26.550 -11.774  18.803  1.00  0.00     0.190 C 
BRANCH   3   4
ATOM      4  O   UNL     1     -25.611 -12.179  17.842  1.00  0.00    -0.394 OA
ATOM      5  H   UNL     1     -24.758 -12.338  18.324  1.00  0.00     0.210 HD
ENDBRANCH   3   4
ENDBRANCH   2   3
BRANCH   2   6
ATOM      6  O   UNL     1     -25.470 -13.379  20.244  1.00  0.00    -0.388 OA
ATOM      7  H   UNL     1     -25.129 -13.571  19.331  1.00  0.00     0.211 HD
ENDBRANCH   2   6
ENDBRANCH   1   2
BRANCH   1   8
ATOM      8  C   UNL     1     -28.283 -13.034  21.187  1.00  0.00     0.214 C 
BRANCH   8   9
ATOM      9  C   UNL     1     -29.554 -12.653  21.939  1.00  0.00     0.189 C 
ATOM     10  O   UNL     1     -29.665 -11.526  22.400  1.00  0.00    -0.294 OA
BRANCH   9  11
ATOM     11  C   UNL     1     -30.693 -13.619  22.154  1.00  0.00     0.234 C 
BRANCH  11  12
ATOM     12  O   UNL     1     -30.807 -14.530  21.095  1.00  0.00    -0.388 OA
ATOM     13  H   UNL     1     -30.082 -14.303  20.457  1.00  0.00     0.211 HD
ENDBRANCH  11  12
ENDBRANCH   9  11
ENDBRANCH   8   9
BRANCH   8  14
ATOM     14  O   UNL     1     -27.808 -14.309  21.553  1.00  0.00    -0.382 OA
ATOM     15  H   UNL     1     -28.462 -14.737  22.161  1.00  0.00     0.211 HD
ENDBRANCH   8  14
ENDBRANCH   1   8
BRANCH   1  16
ATOM     16  O   UNL     1     -26.612 -12.018  22.575  1.00  0.00    -0.387 OA
ATOM     17  H   UNL     1     -27.251 -12.508  23.154  1.00  0.00     0.211 HD
ENDBRANCH   1  16
TORSDOF 10
ENDMDL
MODEL 2
REMARK VINA RESULT:    -4.039      2.488      3.554
REMARK INTER + INTRA:          -6.555
REMARK INTER:                  -5.555
REMARK INTRA:                  -1.000
REMARK UNBOUND:                -0.745
REMARK SMILES O=C(CO)[C@H](O)[C@@H](O)[C@@H](O)CO
REMARK SMILES IDX 7 1 9 2 11 3 12 4 10 6 5 8 2 9 1 10 3 11 4 12 6 14 8 16
REMARK H PARENT 12 5 10 7 4 13 6 15 8 17
REMARK Flexibility Score: inf
ROOT
ATOM      1  C   UNL     1     -26.458 -10.942  19.017  1.00  0.00     0.181 C 
ENDROOT
BRANCH   1   2
ATOM      2  C   UNL     1     -25.585 -11.102  17.739  1.00  0.00     0.171 C 
BRANCH   2   3
ATOM      3  C   UNL     1     -25.442  -9.769  16.977  1.00  0.00     0.190 C 
BRANCH   3   4
ATOM      4  O   UNL     1     -24.340  -9.045  17.457  1.00  0.00    -0.394 OA
ATOM      5  H   UNL     1     -24.172  -9.360  18.383  1.00  0.00     0.210 HD
ENDBRANCH   3   4
ENDBRANCH   2   3
BRANCH   2   6
ATOM      6  O   UNL     1     -26.110 -12.085  16.882  1.00  0.00    -0.388 OA
ATOM      7  H   UNL     1     -25.881 -12.971  17.267  1.00  0.00     0.211 HD
ENDBRANCH   2   6
ENDBRANCH   1   2
BRANCH   1   8
ATOM      8  C   UNL     1     -26.531 -12.206  19.915  1.00  0.00     0.214 C 
BRANCH   8   9
ATOM      9  C   UNL     1     -26.557 -11.883  21.406  1.00  0.00     0.189 C 
ATOM     10  O   UNL     1     -27.491 -11.243  21.867  1.00  0.00    -0.294 OA
BRANCH   9  11
ATOM     11  C   UNL     1     -25.463 -12.313  22.351  1.00  0.00     0.234 C 
BRANCH  11  12
ATOM     12  O   UNL     1     -25.454 -13.702  22.536  1.00  0.00    -0.388 OA
ATOM     13  H   UNL     1     -24.509 -13.988  22.436  1.00  0.00     0.211 HD
ENDBRANCH  11  12
ENDBRANCH   9  11
ENDBRANCH   8   9
BRANCH   8  14
ATOM     14  O   UNL     1     -25.524 -13.136  19.588  1.00  0.00    -0.382 OA
ATOM     15  H   UNL     1     -25.029 -12.812  18.793  1.00  0.00     0.211 HD
ENDBRANCH   8  14
ENDBRANCH   1   8
BRANCH   1  16
ATOM     16  O   UNL     1     -25.963  -9.879  19.795  1.00  0.00    -0.387 OA
ATOM     17  H   UNL     1     -25.001  -9.769  19.574  1.00  0.00     0.211 HD
ENDBRANCH   1  16
TORSDOF 10
ENDMDL
MODEL 3
REMARK VINA RESULT:    -4.002      3.048      5.880
REMARK INTER + INTRA:          -6.502
REMARK INTER:                  -5.228
REMARK INTRA:                  -1.274
REMARK UNBOUND:                -0.745
REMARK SMILES O=C(CO)[C@H](O)[C@@H](O)[C@@H](O)CO
REMARK SMILES IDX 7 1 9 2 11 3 12 4 10 6 5 8 2 9 1 10 3 11 4 12 6 14 8 16
REMARK H PARENT 12 5 10 7 4 13 6 15 8 17
REMARK Flexibility Score: inf
ROOT
ATOM      1  C   UNL     1     -26.386 -11.271  17.714  1.00  0.00     0.181 C 
ENDROOT
BRANCH   1   2
ATOM      2  C   UNL     1     -26.366 -11.053  19.254  1.00  0.00     0.171 C 
BRANCH   2   3
ATOM      3  C   UNL     1     -26.559 -12.378  20.019  1.00  0.00     0.190 C 
BRANCH   3   4
ATOM      4  O   UNL     1     -25.437 -13.205  19.858  1.00  0.00    -0.394 OA
ATOM      5  H   UNL     1     -24.732 -12.852  20.460  1.00  0.00     0.210 HD
ENDBRANCH   3   4
ENDBRANCH   2   3
BRANCH   2   6
ATOM      6  O   UNL     1     -27.346 -10.128  19.653  1.00  0.00    -0.388 OA
ATOM      7  H   UNL     1     -27.604  -9.601  18.851  1.00  0.00     0.211 HD
ENDBRANCH   2   6
ENDBRANCH   1   2
BRANCH   1   8
ATOM      8  C   UNL     1     -26.431  -9.966  16.875  1.00  0.00     0.214 C 
BRANCH   8   9
ATOM      9  C   UNL     1     -25.326  -8.978  17.240  1.00  0.00     0.189 C 
ATOM     10  O   UNL     1     -24.157  -9.331  17.172  1.00  0.00    -0.294 OA
BRANCH   9  11
ATOM     11  C   UNL     1     -25.613  -7.570  17.699  1.00  0.00     0.234 C 
BRANCH  11  12
ATOM     12  O   UNL     1     -26.539  -7.545  18.749  1.00  0.00    -0.388 OA
ATOM     13  H   UNL     1     -27.436  -7.600  18.328  1.00  0.00     0.211 HD
ENDBRANCH  11  12
ENDBRANCH   9  11
ENDBRANCH   8   9
BRANCH   8  14
ATOM     14  O   UNL     1     -27.708  -9.372  16.903  1.00  0.00    -0.382 OA
ATOM     15  H   UNL     1     -27.808  -8.856  17.743  1.00  0.00     0.211 HD
ENDBRANCH   8  14
ENDBRANCH   1   8
BRANCH   1  16
ATOM     16  O   UNL     1     -25.247 -12.001  17.327  1.00  0.00    -0.387 OA
ATOM     17  H   UNL     1     -24.709 -11.422  16.727  1.00  0.00     0.211 HD
ENDBRANCH   1  16
TORSDOF 10
ENDMDL
MODEL 4
REMARK VINA RESULT:    -3.991      1.278      4.480
REMARK INTER + INTRA:          -6.486
REMARK INTER:                  -5.735
REMARK INTRA:                  -0.751
REMARK UNBOUND:                -0.745
REMARK SMILES O=C(CO)[C@H](O)[C@@H](O)[C@@H](O)CO
REMARK SMILES IDX 7 1 9 2 11 3 12 4 10 6 5 8 2 9 1 10 3 11 4 12 6 14 8 16
REMARK H PARENT 12 5 10 7 4 13 6 15 8 17
REMARK Flexibility Score: inf
ROOT
ATOM      1  C   UNL     1     -27.542 -11.935  20.886  1.00  0.00     0.181 C 
ENDROOT
BRANCH   1   2
ATOM      2  C   UNL     1     -28.195 -13.346  20.931  1.00  0.00     0.171 C 
BRANCH   2   3
ATOM      3  C   UNL     1     -29.631 -13.292  21.491  1.00  0.00     0.190 C 
BRANCH   3   4
ATOM      4  O   UNL     1     -30.477 -14.134  20.753  1.00  0.00    -0.394 OA
ATOM      5  H   UNL     1     -30.834 -13.594  20.001  1.00  0.00     0.210 HD
ENDBRANCH   3   4
ENDBRANCH   2   3
BRANCH   2   6
ATOM      6  O   UNL     1     -27.424 -14.243  21.691  1.00  0.00    -0.388 OA
ATOM      7  H   UNL     1     -27.613 -15.159  21.357  1.00  0.00     0.211 HD
ENDBRANCH   2   6
ENDBRANCH   1   2
BRANCH   1   8
ATOM      8  C   UNL     1     -26.182 -11.873  20.142  1.00  0.00     0.214 C 
BRANCH   8   9
ATOM      9  C   UNL     1     -26.199 -10.938  18.936  1.00  0.00     0.189 C 
ATOM     10  O   UNL     1     -26.200  -9.728  19.114  1.00  0.00    -0.294 OA
BRANCH   9  11
ATOM     11  C   UNL     1     -26.224 -11.442  17.516  1.00  0.00     0.234 C 
BRANCH  11  12
ATOM     12  O   UNL     1     -25.162 -12.319  17.257  1.00  0.00    -0.388 OA
ATOM     13  H   UNL     1     -24.509 -11.808  16.713  1.00  0.00     0.211 HD
ENDBRANCH  11  12
ENDBRANCH   9  11
ENDBRANCH   8   9
BRANCH   8  14
ATOM     14  O   UNL     1     -25.709 -13.159  19.813  1.00  0.00    -0.382 OA
ATOM     15  H   UNL     1     -26.220 -13.504  19.038  1.00  0.00     0.211 HD
ENDBRANCH   8  14
ENDBRANCH   1   8
BRANCH   1  16
ATOM     16  O   UNL     1     -28.423 -11.029  20.267  1.00  0.00    -0.387 OA
ATOM     17  H   UNL     1     -28.800 -11.477  19.465  1.00  0.00     0.211 HD
ENDBRANCH   1  16
TORSDOF 10
ENDMDL
MODEL 5
REMARK VINA RESULT:    -3.966      2.755      5.614
REMARK INTER + INTRA:          -6.451
REMARK INTER:                  -5.928
REMARK INTRA:                  -0.523
REMARK UNBOUND:                -0.745
REMARK SMILES O=C(CO)[C@H](O)[C@@H](O)[C@@H](O)CO
REMARK SMILES IDX 7 1 9 2 11 3 12 4 10 6 5 8 2 9 1 10 3 11 4 12 6 14 8 16
REMARK H PARENT 12 5 10 7 4 13 6 15 8 17
REMARK Flexibility Score: inf
ROOT
ATOM      1  C   UNL     1     -26.300 -10.869  19.375  1.00  0.00     0.181 C 
ENDROOT
BRANCH   1   2
ATOM      2  C   UNL     1     -26.388 -12.241  20.103  1.00  0.00     0.171 C 
BRANCH   2   3
ATOM      3  C   UNL     1     -26.143 -12.098  21.619  1.00  0.00     0.190 C 
BRANCH   3   4
ATOM      4  O   UNL     1     -26.139 -13.359  22.236  1.00  0.00    -0.394 OA
ATOM      5  H   UNL     1     -27.085 -13.587  22.429  1.00  0.00     0.210 HD
ENDBRANCH   3   4
ENDBRANCH   2   3
BRANCH   2   6
ATOM      6  O   UNL     1     -25.479 -13.166  19.561  1.00  0.00    -0.388 OA
ATOM      7  H   UNL     1     -24.584 -12.966  19.944  1.00  0.00     0.211 HD
ENDBRANCH   2   6
ENDBRANCH   1   2
BRANCH   1   8
ATOM      8  C   UNL     1     -25.664 -10.925  17.961  1.00  0.00     0.214 C 
BRANCH   8   9
ATOM      9  C   UNL     1     -25.663  -9.575  17.249  1.00  0.00     0.189 C 
ATOM     10  O   UNL     1     -26.727  -9.051  16.953  1.00  0.00    -0.294 OA
BRANCH   9  11
ATOM     11  C   UNL     1     -24.392  -8.853  16.877  1.00  0.00     0.234 C 
BRANCH  11  12
ATOM     12  O   UNL     1     -23.718  -8.374  18.008  1.00  0.00    -0.388 OA
ATOM     13  H   UNL     1     -23.029  -9.053  18.227  1.00  0.00     0.211 HD
ENDBRANCH  11  12
ENDBRANCH   9  11
ENDBRANCH   8   9
BRANCH   8  14
ATOM     14  O   UNL     1     -26.234 -11.944  17.173  1.00  0.00    -0.382 OA
ATOM     15  H   UNL     1     -27.014 -12.325  17.649  1.00  0.00     0.211 HD
ENDBRANCH   8  14
ENDBRANCH   1   8
BRANCH   1  16
ATOM     16  O   UNL     1     -27.589 -10.318  19.254  1.00  0.00    -0.387 OA
ATOM     17  H   UNL     1     -27.634  -9.525  19.850  1.00  0.00     0.211 HD
ENDBRANCH   1  16
TORSDOF 10
ENDMDL
MODEL 6
REMARK VINA RESULT:    -3.893     11.603     12.988
REMARK INTER + INTRA:          -6.346
REMARK INTER:                  -4.934
REMARK INTRA:                  -1.411
REMARK UNBOUND:                -0.745
REMARK SMILES O=C(CO)[C@H](O)[C@@H](O)[C@@H](O)CO
REMARK SMILES IDX 7 1 9 2 11 3 12 4 10 6 5 8 2 9 1 10 3 11 4 12 6 14 8 16
REMARK H PARENT 12 5 10 7 4 13 6 15 8 17
REMARK Flexibility Score: inf
ROOT
ATOM      1  C   UNL     1     -27.579 -11.748  32.386  1.00  0.00     0.181 C 
ENDROOT
BRANCH   1   2
ATOM      2  C   UNL     1     -27.381 -13.284  32.241  1.00  0.00     0.171 C 
BRANCH   2   3
ATOM      3  C   UNL     1     -26.337 -13.821  33.242  1.00  0.00     0.190 C 
BRANCH   3   4
ATOM      4  O   UNL     1     -26.835 -13.756  34.552  1.00  0.00    -0.394 OA
ATOM      5  H   UNL     1     -27.814 -13.610  34.479  1.00  0.00     0.210 HD
ENDBRANCH   3   4
ENDBRANCH   2   3
BRANCH   2   6
ATOM      6  O   UNL     1     -27.004 -13.630  30.932  1.00  0.00    -0.388 OA
ATOM      7  H   UNL     1     -26.131 -14.101  30.986  1.00  0.00     0.211 HD
ENDBRANCH   2   6
ENDBRANCH   1   2
BRANCH   1   8
ATOM      8  C   UNL     1     -28.835 -11.330  33.195  1.00  0.00     0.214 C 
BRANCH   8   9
ATOM      9  C   UNL     1     -28.613 -10.088  34.053  1.00  0.00     0.189 C 
ATOM     10  O   UNL     1     -28.522  -8.994  33.514  1.00  0.00    -0.294 OA
BRANCH   9  11
ATOM     11  C   UNL     1     -28.486 -10.147  35.554  1.00  0.00     0.234 C 
BRANCH  11  12
ATOM     12  O   UNL     1     -27.655 -11.198  35.963  1.00  0.00    -0.388 OA
ATOM     13  H   UNL     1     -27.701 -11.882  35.246  1.00  0.00     0.211 HD
ENDBRANCH  11  12
ENDBRANCH   9  11
ENDBRANCH   8   9
BRANCH   8  14
ATOM     14  O   UNL     1     -29.357 -12.406  33.940  1.00  0.00    -0.382 OA
ATOM     15  H   UNL     1     -30.344 -12.325  33.980  1.00  0.00     0.211 HD
ENDBRANCH   8  14
ENDBRANCH   1   8
BRANCH   1  16
ATOM     16  O   UNL     1     -26.449 -11.185  33.009  1.00  0.00    -0.387 OA
ATOM     17  H   UNL     1     -26.447 -11.486  33.955  1.00  0.00     0.211 HD
ENDBRANCH   1  16
TORSDOF 10
ENDMDL
MODEL 7
REMARK VINA RESULT:    -3.880      2.405      4.343
REMARK INTER + INTRA:          -6.326
REMARK INTER:                  -5.638
REMARK INTRA:                  -0.688
REMARK UNBOUND:                -0.745
REMARK SMILES O=C(CO)[C@H](O)[C@@H](O)[C@@H](O)CO
REMARK SMILES IDX 7 1 9 2 11 3 12 4 10 6 5 8 2 9 1 10 3 11 4 12 6 14 8 16
REMARK H PARENT 12 5 10 7 4 13 6 15 8 17
REMARK Flexibility Score: inf
ROOT
ATOM      1  C   UNL     1     -26.288 -13.011  20.705  1.00  0.00     0.181 C 
ENDROOT
BRANCH   1   2
ATOM      2  C   UNL     1     -25.663 -12.454  22.017  1.00  0.00     0.171 C 
BRANCH   2   3
ATOM      3  C   UNL     1     -24.807 -13.517  22.736  1.00  0.00     0.190 C 
BRANCH   3   4
ATOM      4  O   UNL     1     -23.627 -13.762  22.019  1.00  0.00    -0.394 OA
ATOM      5  H   UNL     1     -22.931 -13.164  22.398  1.00  0.00     0.210 HD
ENDBRANCH   3   4
ENDBRANCH   2   3
BRANCH   2   6
ATOM      6  O   UNL     1     -26.653 -11.972  22.891  1.00  0.00    -0.388 OA
ATOM      7  H   UNL     1     -27.375 -12.653  22.929  1.00  0.00     0.211 HD
ENDBRANCH   2   6
ENDBRANCH   1   2
BRANCH   1   8
ATOM      8  C   UNL     1     -27.151 -11.992  19.915  1.00  0.00     0.214 C 
BRANCH   8   9
ATOM      9  C   UNL     1     -26.322 -10.923  19.208  1.00  0.00     0.189 C 
ATOM     10  O   UNL     1     -25.889  -9.976  19.849  1.00  0.00    -0.294 OA
BRANCH   9  11
ATOM     11  C   UNL     1     -26.016 -10.975  17.732  1.00  0.00     0.234 C 
BRANCH  11  12
ATOM     12  O   UNL     1     -25.460 -12.206  17.361  1.00  0.00    -0.388 OA
ATOM     13  H   UNL     1     -24.492 -12.042  17.223  1.00  0.00     0.211 HD
ENDBRANCH  11  12
ENDBRANCH   9  11
ENDBRANCH   8   9
BRANCH   8  14
ATOM     14  O   UNL     1     -28.166 -11.435  20.717  1.00  0.00    -0.382 OA
ATOM     15  H   UNL     1     -27.761 -11.070  21.545  1.00  0.00     0.211 HD
ENDBRANCH   8  14
ENDBRANCH   1   8
BRANCH   1  16
ATOM     16  O   UNL     1     -25.265 -13.471  19.856  1.00  0.00    -0.387 OA
ATOM     17  H   UNL     1     -25.578 -13.358  18.921  1.00  0.00     0.211 HD
ENDBRANCH   1  16
TORSDOF 10
ENDMDL
MODEL 8
REMARK VINA RESULT:    -3.875      1.333      2.602
REMARK INTER + INTRA:          -6.319
REMARK INTER:                  -5.036
REMARK INTRA:                  -1.283
REMARK UNBOUND:                -0.745
REMARK SMILES O=C(CO)[C@H](O)[C@@H](O)[C@@H](O)CO
REMARK SMILES IDX 7 1 9 2 11 3 12 4 10 6 5 8 2 9 1 10 3 11 4 12 6 14 8 16
REMARK H PARENT 12 5 10 7 4 13 6 15 8 17
REMARK Flexibility Score: inf
ROOT
ATOM      1  C   UNL     1     -26.018 -11.792  20.127  1.00  0.00     0.181 C 
ENDROOT
BRANCH   1   2
ATOM      2  C   UNL     1     -26.792 -11.308  18.867  1.00  0.00     0.171 C 
BRANCH   2   3
ATOM      3  C   UNL     1     -25.843 -11.070  17.674  1.00  0.00     0.190 C 
BRANCH   3   4
ATOM      4  O   UNL     1     -25.345 -12.290  17.193  1.00  0.00    -0.394 OA
ATOM      5  H   UNL     1     -24.522 -12.081  16.679  1.00  0.00     0.210 HD
ENDBRANCH   3   4
ENDBRANCH   2   3
BRANCH   2   6
ATOM      6  O   UNL     1     -27.522 -10.137  19.134  1.00  0.00    -0.388 OA
ATOM      7  H   UNL     1     -27.591  -9.627  18.284  1.00  0.00     0.211 HD
ENDBRANCH   2   6
ENDBRANCH   1   2
BRANCH   1   8
ATOM      8  C   UNL     1     -26.844 -11.774  21.441  1.00  0.00     0.214 C 
BRANCH   8   9
ATOM      9  C   UNL     1     -28.060 -12.695  21.399  1.00  0.00     0.189 C 
ATOM     10  O   UNL     1     -27.904 -13.888  21.183  1.00  0.00    -0.294 OA
BRANCH   9  11
ATOM     11  C   UNL     1     -29.468 -12.193  21.603  1.00  0.00     0.234 C 
BRANCH  11  12
ATOM     12  O   UNL     1     -29.828 -11.251  20.631  1.00  0.00    -0.388 OA
ATOM     13  H   UNL     1     -30.634 -11.614  20.180  1.00  0.00     0.211 HD
ENDBRANCH  11  12
ENDBRANCH   9  11
ENDBRANCH   8   9
BRANCH   8  14
ATOM     14  O   UNL     1     -27.182 -10.462  21.827  1.00  0.00    -0.382 OA
ATOM     15  H   UNL     1     -28.113 -10.271  21.548  1.00  0.00     0.211 HD
ENDBRANCH   8  14
ENDBRANCH   1   8
BRANCH   1  16
ATOM     16  O   UNL     1     -25.554 -13.104  19.919  1.00  0.00    -0.387 OA
ATOM     17  H   UNL     1     -24.899 -13.307  20.637  1.00  0.00     0.211 HD
ENDBRANCH   1  16
TORSDOF 10
ENDMDL
MODEL 9
REMARK VINA RESULT:    -3.873      3.299      6.097
REMARK INTER + INTRA:          -6.316
REMARK INTER:                  -5.791
REMARK INTRA:                  -0.526
REMARK UNBOUND:                -0.745
REMARK SMILES O=C(CO)[C@H](O)[C@@H](O)[C@@H](O)CO
REMARK SMILES IDX 7 1 9 2 11 3 12 4 10 6 5 8 2 9 1 10 3 11 4 12 6 14 8 16
REMARK H PARENT 12 5 10 7 4 13 6 15 8 17
REMARK Flexibility Score: inf
ROOT
ATOM      1  C   UNL     1     -26.503 -10.026  18.168  1.00  0.00     0.181 C 
ENDROOT
BRANCH   1   2
ATOM      2  C   UNL     1     -26.502 -11.574  18.319  1.00  0.00     0.171 C 
BRANCH   2   3
ATOM      3  C   UNL     1     -26.324 -12.003  19.790  1.00  0.00     0.190 C 
BRANCH   3   4
ATOM      4  O   UNL     1     -25.500 -13.135  19.875  1.00  0.00    -0.394 OA
ATOM      5  H   UNL     1     -25.073 -13.246  18.986  1.00  0.00     0.210 HD
ENDBRANCH   3   4
ENDBRANCH   2   3
BRANCH   2   6
ATOM      6  O   UNL     1     -25.499 -12.164  17.529  1.00  0.00    -0.388 OA
ATOM      7  H   UNL     1     -25.906 -12.939  17.059  1.00  0.00     0.211 HD
ENDBRANCH   2   6
ENDBRANCH   1   2
BRANCH   1   8
ATOM      8  C   UNL     1     -25.103  -9.364  18.264  1.00  0.00     0.214 C 
BRANCH   8   9
ATOM      9  C   UNL     1     -25.153  -7.918  18.749  1.00  0.00     0.189 C 
ATOM     10  O   UNL     1     -25.660  -7.063  18.037  1.00  0.00    -0.294 OA
BRANCH   9  11
ATOM     11  C   UNL     1     -24.589  -7.486  20.079  1.00  0.00     0.234 C 
BRANCH  11  12
ATOM     12  O   UNL     1     -23.250  -7.873  20.224  1.00  0.00    -0.388 OA
ATOM     13  H   UNL     1     -22.827  -7.744  19.336  1.00  0.00     0.211 HD
ENDBRANCH  11  12
ENDBRANCH   9  11
ENDBRANCH   8   9
BRANCH   8  14
ATOM     14  O   UNL     1     -24.380  -9.499  17.062  1.00  0.00    -0.382 OA
ATOM     15  H   UNL     1     -24.718 -10.287  16.566  1.00  0.00     0.211 HD
ENDBRANCH   8  14
ENDBRANCH   1   8
BRANCH   1  16
ATOM     16  O   UNL     1     -27.071  -9.675  16.929  1.00  0.00    -0.387 OA
ATOM     17  H   UNL     1     -27.766 -10.350  16.716  1.00  0.00     0.211 HD
ENDBRANCH   1  16
TORSDOF 10
ENDMDL
