MODEL 1
REMARK VINA RESULT:    -4.724      0.000      0.000
REMARK INTER + INTRA:          -5.000
REMARK INTER:                  -5.000
REMARK INTRA:                   0.000
REMARK UNBOUND:                 0.000
REMARK SMILES O=c1ccc2cc(O)c(O)cc2o1
REMARK SMILES IDX 4 1 3 2 2 3 1 4 13 5 12 6 11 7 9 8 7 9 6 10 5 11 8 12 10 14
REMARK H PARENT 8 13 10 15
REMARK Flexibility Score: inf
ROOT
ATOM      1  C   UNL     1      74.715  37.633  18.249  1.00  0.00     0.019 A 
ATOM      2  C   UNL     1      73.774  36.674  17.875  1.00  0.00     0.094 A 
ATOM      3  C   UNL     1      72.753  36.340  18.772  1.00  0.00     0.336 A 
ATOM      4  O   UNL     1      71.894  35.476  18.453  1.00  0.00    -0.246 OA
ATOM      5  O   UNL     1      72.682  36.932  19.963  1.00  0.00    -0.423 OA
ATOM      6  C   UNL     1      73.559  37.852  20.357  1.00  0.00     0.142 A 
ATOM      7  C   UNL     1      73.434  38.438  21.621  1.00  0.00     0.098 A 
ATOM      8  C   UNL     1      74.355  39.409  22.042  1.00  0.00     0.161 A 
ATOM      9  C   UNL     1      75.406  39.793  21.196  1.00  0.00     0.158 A 
ATOM     10  C   UNL     1      75.536  39.208  19.928  1.00  0.00     0.062 A 
ATOM     11  C   UNL     1      74.616  38.238  19.506  1.00  0.00     0.022 A 
ENDROOT
BRANCH   9  12
ATOM     12  O   UNL     1      76.317  40.758  21.623  1.00  0.00    -0.504 OA
ATOM     13  H   UNL     1      76.042  41.504  22.252  1.00  0.00     0.293 HD
ENDBRANCH   9  12
BRANCH   8  14
ATOM     14  O   UNL     1      74.233  39.996  23.301  1.00  0.00    -0.504 OA
ATOM     15  H   UNL     1      73.635  39.597  24.015  1.00  0.00     0.293 HD
ENDBRANCH   8  14
TORSDOF 2
ENDMDL
MODEL 2
REMARK VINA RESULT:    -4.482      1.267      2.477
REMARK INTER + INTRA:          -4.744
REMARK INTER:                  -4.744
REMARK INTRA:                   0.000
REMARK UNBOUND:                 0.000
REMARK SMILES O=c1ccc2cc(O)c(O)cc2o1
REMARK SMILES IDX 4 1 3 2 2 3 1 4 13 5 12 6 11 7 9 8 7 9 6 10 5 11 8 12 10 14
REMARK H PARENT 8 13 10 15
REMARK Flexibility Score: inf
ROOT
ATOM      1  C   UNL     1      72.986  37.783  20.892  1.00  0.00     0.019 A 
ATOM      2  C   UNL     1      72.450  36.878  19.977  1.00  0.00     0.094 A 
ATOM      3  C   UNL     1      73.048  36.752  18.719  1.00  0.00     0.336 A 
ATOM      4  O   UNL     1      72.579  35.941  17.878  1.00  0.00    -0.246 OA
ATOM      5  O   UNL     1      74.114  37.485  18.402  1.00  0.00    -0.423 OA
ATOM      6  C   UNL     1      74.656  38.360  19.247  1.00  0.00     0.142 A 
ATOM      7  C   UNL     1      75.775  39.102  18.858  1.00  0.00     0.098 A 
ATOM      8  C   UNL     1      76.352  40.025  19.744  1.00  0.00     0.161 A 
ATOM      9  C   UNL     1      75.805  40.205  21.023  1.00  0.00     0.158 A 
ATOM     10  C   UNL     1      74.682  39.463  21.417  1.00  0.00     0.062 A 
ATOM     11  C   UNL     1      74.106  38.541  20.534  1.00  0.00     0.022 A 
ENDROOT
BRANCH   9  12
ATOM     12  O   UNL     1      76.384  41.125  21.897  1.00  0.00    -0.504 OA
ATOM     13  H   UNL     1      75.850  41.892  22.289  1.00  0.00     0.293 HD
ENDBRANCH   9  12
BRANCH   8  14
ATOM     14  O   UNL     1      77.468  40.767  19.360  1.00  0.00    -0.504 OA
ATOM     15  H   UNL     1      78.324  40.754  19.900  1.00  0.00     0.293 HD
ENDBRANCH   8  14
TORSDOF 2
ENDMDL
MODEL 3
REMARK VINA RESULT:    -4.466      3.160      4.201
REMARK INTER + INTRA:          -4.727
REMARK INTER:                  -4.727
REMARK INTRA:                   0.000
REMARK UNBOUND:                 0.000
REMARK SMILES O=c1ccc2cc(O)c(O)cc2o1
REMARK SMILES IDX 4 1 3 2 2 3 1 4 13 5 12 6 11 7 9 8 7 9 6 10 5 11 8 12 10 14
REMARK H PARENT 8 13 10 15
REMARK Flexibility Score: inf
ROOT
ATOM      1  C   UNL     1      74.435  40.845  18.621  1.00  0.00     0.019 A 
ATOM      2  C   UNL     1      75.604  41.043  17.887  1.00  0.00     0.094 A 
ATOM      3  C   UNL     1      76.838  40.949  18.539  1.00  0.00     0.336 A 
ATOM      4  O   UNL     1      77.905  41.125  17.893  1.00  0.00    -0.246 OA
ATOM      5  O   UNL     1      76.894  40.674  19.840  1.00  0.00    -0.423 OA
ATOM      6  C   UNL     1      75.802  40.479  20.577  1.00  0.00     0.142 A 
ATOM      7  C   UNL     1      75.923  40.193  21.941  1.00  0.00     0.098 A 
ATOM      8  C   UNL     1      74.777  39.985  22.722  1.00  0.00     0.161 A 
ATOM      9  C   UNL     1      73.505  40.064  22.136  1.00  0.00     0.158 A 
ATOM     10  C   UNL     1      73.378  40.350  20.769  1.00  0.00     0.062 A 
ATOM     11  C   UNL     1      74.522  40.557  19.987  1.00  0.00     0.022 A 
ENDROOT
BRANCH   9  12
ATOM     12  O   UNL     1      72.371  39.856  22.920  1.00  0.00    -0.504 OA
ATOM     13  H   UNL     1      72.416  39.873  23.932  1.00  0.00     0.293 HD
ENDBRANCH   9  12
BRANCH   8  14
ATOM     14  O   UNL     1      74.894  39.701  24.082  1.00  0.00    -0.504 OA
ATOM     15  H   UNL     1      75.787  39.469  24.499  1.00  0.00     0.293 HD
ENDBRANCH   8  14
TORSDOF 2
ENDMDL
MODEL 4
REMARK VINA RESULT:    -4.264      2.421      4.011
REMARK INTER + INTRA:          -4.513
REMARK INTER:                  -4.513
REMARK INTRA:                   0.000
REMARK UNBOUND:                 0.000
REMARK SMILES O=c1ccc2cc(O)c(O)cc2o1
REMARK SMILES IDX 4 1 3 2 2 3 1 4 13 5 12 6 11 7 9 8 7 9 6 10 5 11 8 12 10 14
REMARK H PARENT 8 13 10 15
REMARK Flexibility Score: inf
ROOT
ATOM      1  C   UNL     1      71.965  38.628  20.690  1.00  0.00     0.019 A 
ATOM      2  C   UNL     1      71.118  39.264  21.598  1.00  0.00     0.094 A 
ATOM      3  C   UNL     1      71.599  40.363  22.316  1.00  0.00     0.336 A 
ATOM      4  O   UNL     1      70.850  40.950  23.141  1.00  0.00    -0.246 OA
ATOM      5  O   UNL     1      72.844  40.796  22.134  1.00  0.00    -0.423 OA
ATOM      6  C   UNL     1      73.684  40.218  21.278  1.00  0.00     0.142 A 
ATOM      7  C   UNL     1      74.982  40.717  21.129  1.00  0.00     0.098 A 
ATOM      8  C   UNL     1      75.871  40.113  20.227  1.00  0.00     0.161 A 
ATOM      9  C   UNL     1      75.459  39.005  19.472  1.00  0.00     0.158 A 
ATOM     10  C   UNL     1      74.158  38.501  19.618  1.00  0.00     0.062 A 
ATOM     11  C   UNL     1      73.269  39.104  20.517  1.00  0.00     0.022 A 
ENDROOT
BRANCH   9  12
ATOM     12  O   UNL     1      76.349  38.411  18.578  1.00  0.00    -0.504 OA
ATOM     13  H   UNL     1      76.632  37.443  18.678  1.00  0.00     0.293 HD
ENDBRANCH   9  12
BRANCH   8  14
ATOM     14  O   UNL     1      77.165  40.608  20.076  1.00  0.00    -0.504 OA
ATOM     15  H   UNL     1      77.348  41.602  20.010  1.00  0.00     0.293 HD
ENDBRANCH   8  14
TORSDOF 2
ENDMDL
MODEL 5
REMARK VINA RESULT:    -4.230      3.300      4.563
REMARK INTER + INTRA:          -4.477
REMARK INTER:                  -4.477
REMARK INTRA:                   0.000
REMARK UNBOUND:                 0.000
REMARK SMILES O=c1ccc2cc(O)c(O)cc2o1
REMARK SMILES IDX 4 1 3 2 2 3 1 4 13 5 12 6 11 7 9 8 7 9 6 10 5 11 8 12 10 14
REMARK H PARENT 8 13 10 15
REMARK Flexibility Score: inf
ROOT
ATOM      1  C   UNL     1      70.896  40.342  22.688  1.00  0.00     0.019 A 
ATOM      2  C   UNL     1      69.632  40.731  22.245  1.00  0.00     0.094 A 
ATOM      3  C   UNL     1      69.349  40.681  20.876  1.00  0.00     0.336 A 
ATOM      4  O   UNL     1      68.213  41.029  20.456  1.00  0.00    -0.246 OA
ATOM      5  O   UNL     1      70.272  40.266  20.011  1.00  0.00    -0.423 OA
ATOM      6  C   UNL     1      71.489  39.886  20.392  1.00  0.00     0.142 A 
ATOM      7  C   UNL     1      72.418  39.459  19.438  1.00  0.00     0.098 A 
ATOM      8  C   UNL     1      73.702  39.056  19.834  1.00  0.00     0.161 A 
ATOM      9  C   UNL     1      74.058  39.081  21.190  1.00  0.00     0.158 A 
ATOM     10  C   UNL     1      73.130  39.508  22.151  1.00  0.00     0.062 A 
ATOM     11  C   UNL     1      71.847  39.910  21.758  1.00  0.00     0.022 A 
ENDROOT
BRANCH   9  12
ATOM     12  O   UNL     1      75.336  38.679  21.574  1.00  0.00    -0.504 OA
ATOM     13  H   UNL     1      75.811  39.104  22.362  1.00  0.00     0.293 HD
ENDBRANCH   9  12
BRANCH   8  14
ATOM     14  O   UNL     1      74.630  38.631  18.884  1.00  0.00    -0.504 OA
ATOM     15  H   UNL     1      75.579  38.389  19.142  1.00  0.00     0.293 HD
ENDBRANCH   8  14
TORSDOF 2
ENDMDL
MODEL 6
REMARK VINA RESULT:    -4.223      1.773      4.837
REMARK INTER + INTRA:          -4.469
REMARK INTER:                  -4.469
REMARK INTRA:                   0.000
REMARK UNBOUND:                 0.000
REMARK SMILES O=c1ccc2cc(O)c(O)cc2o1
REMARK SMILES IDX 4 1 3 2 2 3 1 4 13 5 12 6 11 7 9 8 7 9 6 10 5 11 8 12 10 14
REMARK H PARENT 8 13 10 15
REMARK Flexibility Score: inf
ROOT
ATOM      1  C   UNL     1      75.021  39.819  21.300  1.00  0.00     0.019 A 
ATOM      2  C   UNL     1      76.062  40.610  20.815  1.00  0.00     0.094 A 
ATOM      3  C   UNL     1      76.502  40.420  19.502  1.00  0.00     0.336 A 
ATOM      4  O   UNL     1      77.442  41.125  19.046  1.00  0.00    -0.246 OA
ATOM      5  O   UNL     1      75.935  39.498  18.727  1.00  0.00    -0.423 OA
ATOM      6  C   UNL     1      74.940  38.723  19.150  1.00  0.00     0.142 A 
ATOM      7  C   UNL     1      74.383  37.770  18.291  1.00  0.00     0.098 A 
ATOM      8  C   UNL     1      73.333  36.950  18.731  1.00  0.00     0.161 A 
ATOM      9  C   UNL     1      72.840  37.084  20.037  1.00  0.00     0.158 A 
ATOM     10  C   UNL     1      73.394  38.037  20.903  1.00  0.00     0.062 A 
ATOM     11  C   UNL     1      74.442  38.857  20.464  1.00  0.00     0.022 A 
ENDROOT
BRANCH   9  12
ATOM     12  O   UNL     1      71.796  36.265  20.466  1.00  0.00    -0.504 OA
ATOM     13  H   UNL     1      71.279  35.683  19.818  1.00  0.00     0.293 HD
ENDBRANCH   9  12
BRANCH   8  14
ATOM     14  O   UNL     1      72.777  36.000  17.876  1.00  0.00    -0.504 OA
ATOM     15  H   UNL     1      72.793  35.013  18.100  1.00  0.00     0.293 HD
ENDBRANCH   8  14
TORSDOF 2
ENDMDL
MODEL 7
REMARK VINA RESULT:    -4.119      2.668      3.904
REMARK INTER + INTRA:          -4.360
REMARK INTER:                  -4.360
REMARK INTRA:                   0.000
REMARK UNBOUND:                 0.000
REMARK SMILES O=c1ccc2cc(O)c(O)cc2o1
REMARK SMILES IDX 4 1 3 2 2 3 1 4 13 5 12 6 11 7 9 8 7 9 6 10 5 11 8 12 10 14
REMARK H PARENT 8 13 10 15
REMARK Flexibility Score: inf
ROOT
ATOM      1  C   UNL     1      74.914  39.285  21.327  1.00  0.00     0.019 A 
ATOM      2  C   UNL     1      75.643  39.005  20.172  1.00  0.00     0.094 A 
ATOM      3  C   UNL     1      74.976  38.969  18.942  1.00  0.00     0.336 A 
ATOM      4  O   UNL     1      75.617  38.717  17.888  1.00  0.00    -0.246 OA
ATOM      5  O   UNL     1      73.667  39.201  18.878  1.00  0.00    -0.423 OA
ATOM      6  C   UNL     1      72.936  39.472  19.956  1.00  0.00     0.142 A 
ATOM      7  C   UNL     1      71.563  39.706  19.827  1.00  0.00     0.098 A 
ATOM      8  C   UNL     1      70.787  39.993  20.960  1.00  0.00     0.161 A 
ATOM      9  C   UNL     1      71.386  40.045  22.226  1.00  0.00     0.158 A 
ATOM     10  C   UNL     1      72.763  39.811  22.361  1.00  0.00     0.062 A 
ATOM     11  C   UNL     1      73.539  39.525  21.231  1.00  0.00     0.022 A 
ENDROOT
BRANCH   9  12
ATOM     12  O   UNL     1      70.607  40.331  23.347  1.00  0.00    -0.504 OA
ATOM     13  H   UNL     1      70.363  41.283  23.593  1.00  0.00     0.293 HD
ENDBRANCH   9  12
BRANCH   8  14
ATOM     14  O   UNL     1      69.418  40.227  20.834  1.00  0.00    -0.504 OA
ATOM     15  H   UNL     1      68.881  39.831  20.072  1.00  0.00     0.293 HD
ENDBRANCH   8  14
TORSDOF 2
ENDMDL
MODEL 8
REMARK VINA RESULT:    -4.108      3.122      3.657
REMARK INTER + INTRA:          -4.349
REMARK INTER:                  -4.349
REMARK INTRA:                   0.000
REMARK UNBOUND:                 0.000
REMARK SMILES O=c1ccc2cc(O)c(O)cc2o1
REMARK SMILES IDX 4 1 3 2 2 3 1 4 13 5 12 6 11 7 9 8 7 9 6 10 5 11 8 12 10 14
REMARK H PARENT 8 13 10 15
REMARK Flexibility Score: inf
ROOT
ATOM      1  C   UNL     1      71.793  40.348  19.785  1.00  0.00     0.019 A 
ATOM      2  C   UNL     1      70.546  40.361  20.409  1.00  0.00     0.094 A 
ATOM      3  C   UNL     1      70.485  40.275  21.804  1.00  0.00     0.336 A 
ATOM      4  O   UNL     1      69.367  40.285  22.385  1.00  0.00    -0.246 OA
ATOM      5  O   UNL     1      71.600  40.184  22.524  1.00  0.00    -0.423 OA
ATOM      6  C   UNL     1      72.810  40.169  21.968  1.00  0.00     0.142 A 
ATOM      7  C   UNL     1      73.947  40.071  22.776  1.00  0.00     0.098 A 
ATOM      8  C   UNL     1      75.225  40.055  22.196  1.00  0.00     0.161 A 
ATOM      9  C   UNL     1      75.364  40.137  20.803  1.00  0.00     0.158 A 
ATOM     10  C   UNL     1      74.227  40.235  19.989  1.00  0.00     0.062 A 
ATOM     11  C   UNL     1      72.950  40.252  20.566  1.00  0.00     0.022 A 
ENDROOT
BRANCH   9  12
ATOM     12  O   UNL     1      76.638  40.120  20.236  1.00  0.00    -0.504 OA
ATOM     13  H   UNL     1      77.145  40.977  20.048  1.00  0.00     0.293 HD
ENDBRANCH   9  12
BRANCH   8  14
ATOM     14  O   UNL     1      76.361  39.958  22.999  1.00  0.00    -0.504 OA
ATOM     15  H   UNL     1      77.289  40.114  22.625  1.00  0.00     0.293 HD
ENDBRANCH   8  14
TORSDOF 2
ENDMDL
