MODEL 1
REMARK VINA RESULT:    -3.791      0.000      0.000
REMARK INTER + INTRA:          -4.519
REMARK INTER:                  -4.456
REMARK INTRA:                  -0.064
REMARK UNBOUND:                -0.064
REMARK SMILES O=C([O-])CCC(=O)[O-]
REMARK SMILES IDX 4 1 2 2 1 3 3 4 5 5 6 6 7 7 8 8
REMARK H PARENT
REMARK Flexibility Score: inf
ROOT
ATOM      1  C   UNL     1      15.848  15.610  38.240  1.00  0.00     0.059 C 
ENDROOT
BRANCH   1   2
ATOM      2  C   UNL     1      14.842  14.550  37.907  1.00  0.00     0.042 C 
ATOM      3  O   UNL     1      14.765  13.507  38.609  1.00  0.00    -0.550 OA
ATOM      4  O   UNL     1      13.965  14.732  36.847  1.00  0.00    -0.550 OA
ENDBRANCH   1   2
BRANCH   1   5
ATOM      5  C   UNL     1      16.452  16.230  36.975  1.00  0.00     0.059 C 
BRANCH   5   6
ATOM      6  C   UNL     1      16.513  17.725  37.068  1.00  0.00     0.042 C 
ATOM      7  O   UNL     1      16.097  18.313  38.101  1.00  0.00    -0.550 OA
ATOM      8  O   UNL     1      16.991  18.470  35.997  1.00  0.00    -0.550 OA
ENDBRANCH   5   6
ENDBRANCH   1   5
TORSDOF 3
ENDMDL
MODEL 2
REMARK VINA RESULT:    -3.780      0.165      4.000
REMARK INTER + INTRA:          -4.507
REMARK INTER:                  -4.440
REMARK INTRA:                  -0.068
REMARK UNBOUND:                -0.064
REMARK SMILES O=C([O-])CCC(=O)[O-]
REMARK SMILES IDX 4 1 2 2 1 3 3 4 5 5 6 6 7 7 8 8
REMARK H PARENT
REMARK Flexibility Score: inf
ROOT
ATOM      1  C   UNL     1      16.351  16.242  36.925  1.00  0.00     0.059 C 
ENDROOT
BRANCH   1   2
ATOM      2  C   UNL     1      16.334  17.736  37.038  1.00  0.00     0.042 C 
ATOM      3  O   UNL     1      16.111  18.285  38.149  1.00  0.00    -0.550 OA
ATOM      4  O   UNL     1      16.603  18.521  35.925  1.00  0.00    -0.550 OA
ENDBRANCH   1   2
BRANCH   1   5
ATOM      5  C   UNL     1      15.844  15.573  38.207  1.00  0.00     0.059 C 
BRANCH   5   6
ATOM      6  C   UNL     1      14.790  14.548  37.915  1.00  0.00     0.042 C 
ATOM      7  O   UNL     1      14.700  13.512  38.624  1.00  0.00    -0.550 OA
ATOM      8  O   UNL     1      13.934  14.719  36.833  1.00  0.00    -0.550 OA
ENDBRANCH   5   6
ENDBRANCH   1   5
TORSDOF 3
ENDMDL
MODEL 3
REMARK VINA RESULT:    -3.731      0.261      4.222
REMARK INTER + INTRA:          -4.449
REMARK INTER:                  -4.391
REMARK INTRA:                  -0.058
REMARK UNBOUND:                -0.064
REMARK SMILES O=C([O-])CCC(=O)[O-]
REMARK SMILES IDX 4 1 2 2 1 3 3 4 5 5 6 6 7 7 8 8
REMARK H PARENT
REMARK Flexibility Score: inf
ROOT
ATOM      1  C   UNL     1      16.576  16.126  36.902  1.00  0.00     0.059 C 
ENDROOT
BRANCH   1   2
ATOM      2  C   UNL     1      16.754  17.613  36.847  1.00  0.00     0.042 C 
ATOM      3  O   UNL     1      17.377  18.142  35.890  1.00  0.00    -0.550 OA
ATOM      4  O   UNL     1      16.195  18.416  37.832  1.00  0.00    -0.550 OA
ENDBRANCH   1   2
BRANCH   1   5
ATOM      5  C   UNL     1      15.798  15.697  38.150  1.00  0.00     0.059 C 
BRANCH   5   6
ATOM      6  C   UNL     1      14.808  14.616  37.839  1.00  0.00     0.042 C 
ATOM      7  O   UNL     1      13.984  14.762  36.899  1.00  0.00    -0.550 OA
ATOM      8  O   UNL     1      14.770  13.463  38.615  1.00  0.00    -0.550 OA
ENDBRANCH   5   6
ENDBRANCH   1   5
TORSDOF 3
ENDMDL
MODEL 4
REMARK VINA RESULT:    -3.638      1.500      1.885
REMARK INTER + INTRA:          -4.339
REMARK INTER:                  -4.219
REMARK INTRA:                  -0.120
REMARK UNBOUND:                -0.064
REMARK SMILES O=C([O-])CCC(=O)[O-]
REMARK SMILES IDX 4 1 2 2 1 3 3 4 5 5 6 6 7 7 8 8
REMARK H PARENT
REMARK Flexibility Score: inf
ROOT
ATOM      1  C   UNL     1      15.662  16.348  37.750  1.00  0.00     0.059 C 
ENDROOT
BRANCH   1   2
ATOM      2  C   UNL     1      14.889  15.071  37.618  1.00  0.00     0.042 C 
ATOM      3  O   UNL     1      15.188  14.073  38.325  1.00  0.00    -0.550 OA
ATOM      4  O   UNL     1      13.814  14.996  36.742  1.00  0.00    -0.550 OA
ENDBRANCH   1   2
BRANCH   1   5
ATOM      5  C   UNL     1      16.917  16.341  36.870  1.00  0.00     0.059 C 
BRANCH   5   6
ATOM      6  C   UNL     1      16.594  16.672  35.445  1.00  0.00     0.042 C 
ATOM      7  O   UNL     1      17.338  16.265  34.515  1.00  0.00    -0.550 OA
ATOM      8  O   UNL     1      15.492  17.466  35.147  1.00  0.00    -0.550 OA
ENDBRANCH   5   6
ENDBRANCH   1   5
TORSDOF 3
ENDMDL
MODEL 5
REMARK VINA RESULT:    -3.586      2.102      4.095
REMARK INTER + INTRA:          -4.278
REMARK INTER:                  -4.247
REMARK INTRA:                  -0.032
REMARK UNBOUND:                -0.064
REMARK SMILES O=C([O-])CCC(=O)[O-]
REMARK SMILES IDX 4 1 2 2 1 3 3 4 5 5 6 6 7 7 8 8
REMARK H PARENT
REMARK Flexibility Score: inf
ROOT
ATOM      1  C   UNL     1      17.273  16.281  36.273  1.00  0.00     0.059 C 
ENDROOT
BRANCH   1   2
ATOM      2  C   UNL     1      17.960  16.232  34.942  1.00  0.00     0.042 C 
ATOM      3  O   UNL     1      18.807  15.332  34.699  1.00  0.00    -0.550 OA
ATOM      4  O   UNL     1      17.636  17.155  33.957  1.00  0.00    -0.550 OA
ENDBRANCH   1   2
BRANCH   1   5
ATOM      5  C   UNL     1      15.750  16.355  36.117  1.00  0.00     0.059 C 
BRANCH   5   6
ATOM      6  C   UNL     1      15.051  15.473  37.107  1.00  0.00     0.042 C 
ATOM      7  O   UNL     1      13.928  14.976  36.831  1.00  0.00    -0.550 OA
ATOM      8  O   UNL     1      15.622  15.233  38.351  1.00  0.00    -0.550 OA
ENDBRANCH   5   6
ENDBRANCH   1   5
TORSDOF 3
ENDMDL
MODEL 6
REMARK VINA RESULT:    -3.575      1.609      2.392
REMARK INTER + INTRA:          -4.265
REMARK INTER:                  -4.188
REMARK INTRA:                  -0.077
REMARK UNBOUND:                -0.064
REMARK SMILES O=C([O-])CCC(=O)[O-]
REMARK SMILES IDX 4 1 2 2 1 3 3 4 5 5 6 6 7 7 8 8
REMARK H PARENT
REMARK Flexibility Score: inf
ROOT
ATOM      1  C   UNL     1      15.834  15.670  37.912  1.00  0.00     0.059 C 
ENDROOT
BRANCH   1   2
ATOM      2  C   UNL     1      14.744  14.643  37.862  1.00  0.00     0.042 C 
ATOM      3  O   UNL     1      13.953  14.606  36.883  1.00  0.00    -0.550 OA
ATOM      4  O   UNL     1      14.626  13.704  38.878  1.00  0.00    -0.550 OA
ENDBRANCH   1   2
BRANCH   1   5
ATOM      5  C   UNL     1      15.395  16.921  38.680  1.00  0.00     0.059 C 
BRANCH   5   6
ATOM      6  C   UNL     1      14.367  17.703  37.920  1.00  0.00     0.042 C 
ATOM      7  O   UNL     1      14.599  18.076  36.740  1.00  0.00    -0.550 OA
ATOM      8  O   UNL     1      13.169  18.054  38.530  1.00  0.00    -0.550 OA
ENDBRANCH   5   6
ENDBRANCH   1   5
TORSDOF 3
ENDMDL
MODEL 7
REMARK VINA RESULT:    -3.570      1.856      3.635
REMARK INTER + INTRA:          -4.260
REMARK INTER:                  -4.083
REMARK INTRA:                  -0.177
REMARK UNBOUND:                -0.064
REMARK SMILES O=C([O-])CCC(=O)[O-]
REMARK SMILES IDX 4 1 2 2 1 3 3 4 5 5 6 6 7 7 8 8
REMARK H PARENT
REMARK Flexibility Score: inf
ROOT
ATOM      1  C   UNL     1      15.906  18.116  37.514  1.00  0.00     0.059 C 
ENDROOT
BRANCH   1   2
ATOM      2  C   UNL     1      16.251  17.167  36.407  1.00  0.00     0.042 C 
ATOM      3  O   UNL     1      15.644  17.229  35.306  1.00  0.00    -0.550 OA
ATOM      4  O   UNL     1      17.272  16.240  36.579  1.00  0.00    -0.550 OA
ENDBRANCH   1   2
BRANCH   1   5
ATOM      5  C   UNL     1      15.424  17.372  38.764  1.00  0.00     0.059 C 
BRANCH   5   6
ATOM      6  C   UNL     1      14.272  16.464  38.457  1.00  0.00     0.042 C 
ATOM      7  O   UNL     1      13.140  16.945  38.189  1.00  0.00    -0.550 OA
ATOM      8  O   UNL     1      14.440  15.085  38.506  1.00  0.00    -0.550 OA
ENDBRANCH   5   6
ENDBRANCH   1   5
TORSDOF 3
ENDMDL
MODEL 8
REMARK VINA RESULT:    -3.559      2.185      2.541
REMARK INTER + INTRA:          -4.247
REMARK INTER:                  -4.107
REMARK INTRA:                  -0.140
REMARK UNBOUND:                -0.064
REMARK SMILES O=C([O-])CCC(=O)[O-]
REMARK SMILES IDX 4 1 2 2 1 3 3 4 5 5 6 6 7 7 8 8
REMARK H PARENT
REMARK Flexibility Score: inf
ROOT
ATOM      1  C   UNL     1      15.606  17.612  38.739  1.00  0.00     0.059 C 
ENDROOT
BRANCH   1   2
ATOM      2  C   UNL     1      14.189  17.132  38.651  1.00  0.00     0.042 C 
ATOM      3  O   UNL     1      13.933  15.900  38.680  1.00  0.00    -0.550 OA
ATOM      4  O   UNL     1      13.148  18.049  38.579  1.00  0.00    -0.550 OA
ENDBRANCH   1   2
BRANCH   1   5
ATOM      5  C   UNL     1      16.114  18.119  37.385  1.00  0.00     0.059 C 
BRANCH   5   6
ATOM      6  C   UNL     1      16.312  16.996  36.413  1.00  0.00     0.042 C 
ATOM      7  O   UNL     1      17.288  16.211  36.541  1.00  0.00    -0.550 OA
ATOM      8  O   UNL     1      15.440  16.840  35.342  1.00  0.00    -0.550 OA
ENDBRANCH   5   6
ENDBRANCH   1   5
TORSDOF 3
ENDMDL
MODEL 9
REMARK VINA RESULT:    -3.530      1.768      2.322
REMARK INTER + INTRA:          -4.213
REMARK INTER:                  -4.023
REMARK INTRA:                  -0.189
REMARK UNBOUND:                -0.064
REMARK SMILES O=C([O-])CCC(=O)[O-]
REMARK SMILES IDX 4 1 2 2 1 3 3 4 5 5 6 6 7 7 8 8
REMARK H PARENT
REMARK Flexibility Score: inf
ROOT
ATOM      1  C   UNL     1      14.522  14.969  37.265  1.00  0.00     0.059 C 
ENDROOT
BRANCH   1   2
ATOM      2  C   UNL     1      13.547  15.980  36.742  1.00  0.00     0.042 C 
ATOM      3  O   UNL     1      12.879  16.688  37.541  1.00  0.00    -0.550 OA
ATOM      4  O   UNL     1      13.407  16.167  35.373  1.00  0.00    -0.550 OA
ENDBRANCH   1   2
BRANCH   1   5
ATOM      5  C   UNL     1      15.662  15.635  38.042  1.00  0.00     0.059 C 
BRANCH   5   6
ATOM      6  C   UNL     1      16.447  16.571  37.175  1.00  0.00     0.042 C 
ATOM      7  O   UNL     1      17.129  16.125  36.215  1.00  0.00    -0.550 OA
ATOM      8  O   UNL     1      16.459  17.933  37.454  1.00  0.00    -0.550 OA
ENDBRANCH   5   6
ENDBRANCH   1   5
TORSDOF 3
ENDMDL
