MODEL 1
REMARK VINA RESULT:    -6.874      0.000      0.000
REMARK INTER + INTRA:          -7.476
REMARK INTER:                  -7.476
REMARK INTRA:                   0.000
REMARK UNBOUND:                 0.000
REMARK SMILES Cc1cc(O)c2c(c1)C(=O)c1cc(O)cc(O)c1C2=O
REMARK SMILES IDX 1 1 2 2 8 3 7 4 6 5 4 6 3 7 19 8 20 9 18 10 11 11 9 12 10 13
REMARK SMILES IDX 12 14 13 15 15 16 16 17 5 18 17 20 14 22
REMARK H PARENT 5 19 17 21 14 23
REMARK Flexibility Score: inf
ROOT
ATOM      1  C   UNL     1      15.029   8.507  10.003  1.00  0.00     0.044 C 
ATOM      2  C   UNL     1      15.665   9.496  10.936  1.00  0.00    -0.047 A 
ATOM      3  C   UNL     1      16.321  10.622  10.428  1.00  0.00     0.016 A 
ATOM      4  C   UNL     1      16.881  11.576  11.294  1.00  0.00     0.038 A 
ATOM      5  C   UNL     1      16.760  11.415  12.692  1.00  0.00     0.076 A 
ATOM      6  C   UNL     1      16.135  10.247  13.202  1.00  0.00     0.127 A 
ATOM      7  C   UNL     1      15.567   9.322  12.321  1.00  0.00     0.050 A 
ATOM      8  C   UNL     1      17.235  12.516  13.571  1.00  0.00     0.201 C 
ATOM      9  O   UNL     1      16.678  12.714  14.684  1.00  0.00    -0.288 OA
ATOM     10  C   UNL     1      18.229  13.493  13.057  1.00  0.00     0.076 A 
ATOM     11  C   UNL     1      18.347  13.651  11.657  1.00  0.00     0.041 A 
ATOM     12  C   UNL     1      17.602  12.750  10.747  1.00  0.00     0.194 C 
ATOM     13  O   UNL     1      17.602  12.968   9.504  1.00  0.00    -0.289 OA
ATOM     14  C   UNL     1      19.175  14.661  11.136  1.00  0.00     0.059 A 
ATOM     15  C   UNL     1      19.896  15.498  11.991  1.00  0.00     0.120 A 
ATOM     16  C   UNL     1      19.812  15.319  13.370  1.00  0.00     0.093 A 
ATOM     17  C   UNL     1      19.012  14.309  13.915  1.00  0.00     0.131 A 
ENDROOT
BRANCH   6  18
ATOM     18  O   UNL     1      16.083   9.952  14.567  1.00  0.00    -0.507 OA
ATOM     19  H   UNL     1      16.215  10.642  15.292  1.00  0.00     0.293 HD
ENDBRANCH   6  18
BRANCH  17  20
ATOM     20  O   UNL     1      19.051  14.131  15.299  1.00  0.00    -0.507 OA
ATOM     21  H   UNL     1      19.891  13.895  15.808  1.00  0.00     0.293 HD
ENDBRANCH  17  20
BRANCH  15  22
ATOM     22  O   UNL     1      20.707  16.508  11.478  1.00  0.00    -0.508 OA
ATOM     23  H   UNL     1      21.086  16.458  10.539  1.00  0.00     0.293 HD
ENDBRANCH  15  22
TORSDOF 3
ENDMDL
MODEL 2
REMARK VINA RESULT:    -6.762      1.930      3.064
REMARK INTER + INTRA:          -7.355
REMARK INTER:                  -7.355
REMARK INTRA:                   0.000
REMARK UNBOUND:                 0.000
REMARK SMILES Cc1cc(O)c2c(c1)C(=O)c1cc(O)cc(O)c1C2=O
REMARK SMILES IDX 1 1 2 2 8 3 7 4 6 5 4 6 3 7 19 8 20 9 18 10 11 11 9 12 10 13
REMARK SMILES IDX 12 14 13 15 15 16 16 17 5 18 17 20 14 22
REMARK H PARENT 5 19 17 21 14 23
REMARK Flexibility Score: inf
ROOT
ATOM      1  C   UNL     1      14.093   9.130  11.531  1.00  0.00     0.044 C 
ATOM      2  C   UNL     1      15.424   9.779  11.284  1.00  0.00    -0.047 A 
ATOM      3  C   UNL     1      15.733  11.004  11.885  1.00  0.00     0.016 A 
ATOM      4  C   UNL     1      16.992  11.597  11.694  1.00  0.00     0.038 A 
ATOM      5  C   UNL     1      17.968  10.941  10.911  1.00  0.00     0.076 A 
ATOM      6  C   UNL     1      17.633   9.722  10.266  1.00  0.00     0.127 A 
ATOM      7  C   UNL     1      16.381   9.141  10.487  1.00  0.00     0.050 A 
ATOM      8  C   UNL     1      19.333  11.527  10.854  1.00  0.00     0.201 C 
ATOM      9  O   UNL     1      20.332  10.775  10.697  1.00  0.00    -0.288 OA
ATOM     10  C   UNL     1      19.533  12.964  11.173  1.00  0.00     0.076 A 
ATOM     11  C   UNL     1      18.553  13.617  11.956  1.00  0.00     0.041 A 
ATOM     12  C   UNL     1      17.299  12.910  12.309  1.00  0.00     0.194 C 
ATOM     13  O   UNL     1      16.483  13.438  13.112  1.00  0.00    -0.289 OA
ATOM     14  C   UNL     1      18.773  14.934  12.394  1.00  0.00     0.059 A 
ATOM     15  C   UNL     1      19.945  15.611  12.046  1.00  0.00     0.120 A 
ATOM     16  C   UNL     1      20.894  14.985  11.240  1.00  0.00     0.093 A 
ATOM     17  C   UNL     1      20.691  13.681  10.775  1.00  0.00     0.131 A 
ENDROOT
BRANCH   6  18
ATOM     18  O   UNL     1      18.496   9.075   9.379  1.00  0.00    -0.507 OA
ATOM     19  H   UNL     1      19.477   9.299   9.289  1.00  0.00     0.293 HD
ENDBRANCH   6  18
BRANCH  17  20
ATOM     20  O   UNL     1      21.642  13.155   9.897  1.00  0.00    -0.507 OA
ATOM     21  H   UNL     1      21.440  12.908   8.939  1.00  0.00     0.293 HD
ENDBRANCH  17  20
BRANCH  15  22
ATOM     22  O   UNL     1      20.171  16.912  12.488  1.00  0.00    -0.508 OA
ATOM     23  H   UNL     1      19.563  17.677  12.220  1.00  0.00     0.293 HD
ENDBRANCH  15  22
TORSDOF 3
ENDMDL
MODEL 3
REMARK VINA RESULT:    -6.572      6.135     10.017
REMARK INTER + INTRA:          -7.148
REMARK INTER:                  -7.148
REMARK INTRA:                   0.000
REMARK UNBOUND:                 0.000
REMARK SMILES Cc1cc(O)c2c(c1)C(=O)c1cc(O)cc(O)c1C2=O
REMARK SMILES IDX 1 1 2 2 8 3 7 4 6 5 4 6 3 7 19 8 20 9 18 10 11 11 9 12 10 13
REMARK SMILES IDX 12 14 13 15 15 16 16 17 5 18 17 20 14 22
REMARK H PARENT 5 19 17 21 14 23
REMARK Flexibility Score: inf
ROOT
ATOM      1  C   UNL     1      21.765  24.121   7.416  1.00  0.00     0.044 C 
ATOM      2  C   UNL     1      20.752  23.174   7.991  1.00  0.00    -0.047 A 
ATOM      3  C   UNL     1      20.958  21.793   7.918  1.00  0.00     0.016 A 
ATOM      4  C   UNL     1      20.037  20.901   8.493  1.00  0.00     0.038 A 
ATOM      5  C   UNL     1      18.905  21.399   9.175  1.00  0.00     0.076 A 
ATOM      6  C   UNL     1      18.677  22.800   9.206  1.00  0.00     0.127 A 
ATOM      7  C   UNL     1      19.618  23.669   8.645  1.00  0.00     0.050 A 
ATOM      8  C   UNL     1      18.036  20.432   9.894  1.00  0.00     0.201 C 
ATOM      9  O   UNL     1      17.413  20.797  10.928  1.00  0.00    -0.288 OA
ATOM     10  C   UNL     1      18.052  18.998   9.508  1.00  0.00     0.076 A 
ATOM     11  C   UNL     1      19.186  18.503   8.825  1.00  0.00     0.041 A 
ATOM     12  C   UNL     1      20.247  19.437   8.383  1.00  0.00     0.194 C 
ATOM     13  O   UNL     1      21.318  18.988   7.890  1.00  0.00    -0.289 OA
ATOM     14  C   UNL     1      19.299  17.126   8.566  1.00  0.00     0.059 A 
ATOM     15  C   UNL     1      18.291  16.244   8.963  1.00  0.00     0.120 A 
ATOM     16  C   UNL     1      17.152  16.734   9.600  1.00  0.00     0.093 A 
ATOM     17  C   UNL     1      17.005  18.102   9.853  1.00  0.00     0.131 A 
ENDROOT
BRANCH   6  18
ATOM     18  O   UNL     1      17.522  23.366   9.751  1.00  0.00    -0.507 OA
ATOM     19  H   UNL     1      17.045  24.158   9.347  1.00  0.00     0.293 HD
ENDBRANCH   6  18
BRANCH  17  20
ATOM     20  O   UNL     1      15.798  18.528  10.411  1.00  0.00    -0.507 OA
ATOM     21  H   UNL     1      15.569  19.499  10.570  1.00  0.00     0.293 HD
ENDBRANCH  17  20
BRANCH  15  22
ATOM     22  O   UNL     1      18.406  14.877   8.718  1.00  0.00    -0.508 OA
ATOM     23  H   UNL     1      19.114  14.314   9.176  1.00  0.00     0.293 HD
ENDBRANCH  15  22
TORSDOF 3
ENDMDL
MODEL 4
REMARK VINA RESULT:    -6.553      1.911      2.062
REMARK INTER + INTRA:          -7.128
REMARK INTER:                  -7.128
REMARK INTRA:                   0.000
REMARK UNBOUND:                 0.000
REMARK SMILES Cc1cc(O)c2c(c1)C(=O)c1cc(O)cc(O)c1C2=O
REMARK SMILES IDX 1 1 2 2 8 3 7 4 6 5 4 6 3 7 19 8 20 9 18 10 11 11 9 12 10 13
REMARK SMILES IDX 12 14 13 15 15 16 16 17 5 18 17 20 14 22
REMARK H PARENT 5 19 17 21 14 23
REMARK Flexibility Score: inf
ROOT
ATOM      1  C   UNL     1      19.153   8.039  10.359  1.00  0.00     0.044 C 
ATOM      2  C   UNL     1      18.748   9.306  11.054  1.00  0.00    -0.047 A 
ATOM      3  C   UNL     1      19.394  10.510  10.758  1.00  0.00     0.016 A 
ATOM      4  C   UNL     1      18.993  11.708  11.372  1.00  0.00     0.038 A 
ATOM      5  C   UNL     1      17.908  11.707  12.277  1.00  0.00     0.076 A 
ATOM      6  C   UNL     1      17.286  10.476  12.609  1.00  0.00     0.127 A 
ATOM      7  C   UNL     1      17.690   9.299  11.970  1.00  0.00     0.050 A 
ATOM      8  C   UNL     1      17.420  13.013  12.790  1.00  0.00     0.201 C 
ATOM      9  O   UNL     1      16.204  13.153  13.093  1.00  0.00    -0.288 OA
ATOM     10  C   UNL     1      18.316  14.198  12.766  1.00  0.00     0.076 A 
ATOM     11  C   UNL     1      19.401  14.195  11.859  1.00  0.00     0.041 A 
ATOM     12  C   UNL     1      19.705  12.975  11.075  1.00  0.00     0.194 C 
ATOM     13  O   UNL     1      20.586  13.008  10.174  1.00  0.00    -0.289 OA
ATOM     14  C   UNL     1      20.188  15.350  11.708  1.00  0.00     0.059 A 
ATOM     15  C   UNL     1      19.918  16.496  12.461  1.00  0.00     0.120 A 
ATOM     16  C   UNL     1      18.875  16.488  13.385  1.00  0.00     0.093 A 
ATOM     17  C   UNL     1      18.088  15.346  13.569  1.00  0.00     0.131 A 
ENDROOT
BRANCH   6  18
ATOM     18  O   UNL     1      16.291  10.370  13.584  1.00  0.00    -0.507 OA
ATOM     19  H   UNL     1      15.988  11.143  14.159  1.00  0.00     0.293 HD
ENDBRANCH   6  18
BRANCH  17  20
ATOM     20  O   UNL     1      17.122  15.383  14.577  1.00  0.00    -0.507 OA
ATOM     21  H   UNL     1      17.156  14.804  15.404  1.00  0.00     0.293 HD
ENDBRANCH  17  20
BRANCH  15  22
ATOM     22  O   UNL     1      20.688  17.646  12.304  1.00  0.00    -0.508 OA
ATOM     23  H   UNL     1      20.852  18.283  13.075  1.00  0.00     0.293 HD
ENDBRANCH  15  22
TORSDOF 3
ENDMDL
MODEL 5
REMARK VINA RESULT:    -6.543      6.815     10.827
REMARK INTER + INTRA:          -7.117
REMARK INTER:                  -7.117
REMARK INTRA:                   0.000
REMARK UNBOUND:                 0.000
REMARK SMILES Cc1cc(O)c2c(c1)C(=O)c1cc(O)cc(O)c1C2=O
REMARK SMILES IDX 1 1 2 2 8 3 7 4 6 5 4 6 3 7 19 8 20 9 18 10 11 11 9 12 10 13
REMARK SMILES IDX 12 14 13 15 15 16 16 17 5 18 17 20 14 22
REMARK H PARENT 5 19 17 21 14 23
REMARK Flexibility Score: inf
ROOT
ATOM      1  C   UNL     1      18.009  26.125   8.137  1.00  0.00     0.044 C 
ATOM      2  C   UNL     1      18.586  24.770   8.427  1.00  0.00    -0.047 A 
ATOM      3  C   UNL     1      17.804  23.787   9.042  1.00  0.00     0.016 A 
ATOM      4  C   UNL     1      18.322  22.503   9.277  1.00  0.00     0.038 A 
ATOM      5  C   UNL     1      19.636  22.187   8.866  1.00  0.00     0.076 A 
ATOM      6  C   UNL     1      20.441  23.201   8.285  1.00  0.00     0.127 A 
ATOM      7  C   UNL     1      19.897  24.467   8.042  1.00  0.00     0.050 A 
ATOM      8  C   UNL     1      20.095  20.780   8.999  1.00  0.00     0.201 C 
ATOM      9  O   UNL     1      20.941  20.318   8.187  1.00  0.00    -0.288 OA
ATOM     10  C   UNL     1      19.419  19.871   9.960  1.00  0.00     0.076 A 
ATOM     11  C   UNL     1      18.105  20.191  10.369  1.00  0.00     0.041 A 
ATOM     12  C   UNL     1      17.496  21.478   9.959  1.00  0.00     0.194 C 
ATOM     13  O   UNL     1      16.282  21.710  10.211  1.00  0.00    -0.289 OA
ATOM     14  C   UNL     1      17.383  19.287  11.168  1.00  0.00     0.059 A 
ATOM     15  C   UNL     1      17.961  18.082  11.575  1.00  0.00     0.120 A 
ATOM     16  C   UNL     1      19.271  17.782  11.206  1.00  0.00     0.093 A 
ATOM     17  C   UNL     1      20.019  18.673  10.429  1.00  0.00     0.131 A 
ENDROOT
BRANCH   6  18
ATOM     18  O   UNL     1      21.787  23.007   7.964  1.00  0.00    -0.507 OA
ATOM     19  H   UNL     1      22.328  22.217   8.283  1.00  0.00     0.293 HD
ENDBRANCH   6  18
BRANCH  17  20
ATOM     20  O   UNL     1      21.353  18.347  10.178  1.00  0.00    -0.507 OA
ATOM     21  H   UNL     1      22.134  18.807  10.624  1.00  0.00     0.293 HD
ENDBRANCH  17  20
BRANCH  15  22
ATOM     22  O   UNL     1      17.243  17.178  12.355  1.00  0.00    -0.508 OA
ATOM     23  H   UNL     1      17.662  16.319  12.693  1.00  0.00     0.293 HD
ENDBRANCH  15  22
TORSDOF 3
ENDMDL
MODEL 6
REMARK VINA RESULT:    -6.532      5.763      7.828
REMARK INTER + INTRA:          -7.104
REMARK INTER:                  -7.104
REMARK INTRA:                   0.000
REMARK UNBOUND:                 0.000
REMARK SMILES Cc1cc(O)c2c(c1)C(=O)c1cc(O)cc(O)c1C2=O
REMARK SMILES IDX 1 1 2 2 8 3 7 4 6 5 4 6 3 7 19 8 20 9 18 10 11 11 9 12 10 13
REMARK SMILES IDX 12 14 13 15 15 16 16 17 5 18 17 20 14 22
REMARK H PARENT 5 19 17 21 14 23
REMARK Flexibility Score: inf
ROOT
ATOM      1  C   UNL     1      16.296  20.525   9.265  1.00  0.00     0.044 C 
ATOM      2  C   UNL     1      16.475  19.765  10.547  1.00  0.00    -0.047 A 
ATOM      3  C   UNL     1      16.563  20.447  11.765  1.00  0.00     0.016 A 
ATOM      4  C   UNL     1      16.687  19.741  12.973  1.00  0.00     0.038 A 
ATOM      5  C   UNL     1      16.698  18.329  12.966  1.00  0.00     0.076 A 
ATOM      6  C   UNL     1      16.656  17.643  11.724  1.00  0.00     0.127 A 
ATOM      7  C   UNL     1      16.512  18.366  10.536  1.00  0.00     0.050 A 
ATOM      8  C   UNL     1      16.682  17.619  14.272  1.00  0.00     0.201 C 
ATOM      9  O   UNL     1      16.135  16.488  14.364  1.00  0.00    -0.288 OA
ATOM     10  C   UNL     1      17.138  18.322  15.498  1.00  0.00     0.076 A 
ATOM     11  C   UNL     1      17.126  19.736  15.501  1.00  0.00     0.041 A 
ATOM     12  C   UNL     1      16.810  20.474  14.256  1.00  0.00     0.194 C 
ATOM     13  O   UNL     1      16.671  21.727  14.284  1.00  0.00    -0.289 OA
ATOM     14  C   UNL     1      17.418  20.434  16.686  1.00  0.00     0.059 A 
ATOM     15  C   UNL     1      17.737  19.743  17.857  1.00  0.00     0.120 A 
ATOM     16  C   UNL     1      17.789  18.350  17.847  1.00  0.00     0.093 A 
ATOM     17  C   UNL     1      17.522  17.631  16.677  1.00  0.00     0.131 A 
ENDROOT
BRANCH   6  18
ATOM     18  O   UNL     1      16.786  16.256  11.622  1.00  0.00    -0.507 OA
ATOM     19  H   UNL     1      16.135  15.669  11.121  1.00  0.00     0.293 HD
ENDBRANCH   6  18
BRANCH  17  20
ATOM     20  O   UNL     1      17.685  16.244  16.721  1.00  0.00    -0.507 OA
ATOM     21  H   UNL     1      17.501  15.687  17.544  1.00  0.00     0.293 HD
ENDBRANCH  17  20
BRANCH  15  22
ATOM     22  O   UNL     1      18.014  20.432  19.036  1.00  0.00    -0.508 OA
ATOM     23  H   UNL     1      17.305  20.574  19.746  1.00  0.00     0.293 HD
ENDBRANCH  15  22
TORSDOF 3
ENDMDL
MODEL 7
REMARK VINA RESULT:    -6.486      4.820      7.259
REMARK INTER + INTRA:          -7.055
REMARK INTER:                  -7.055
REMARK INTRA:                   0.000
REMARK UNBOUND:                 0.000
REMARK SMILES Cc1cc(O)c2c(c1)C(=O)c1cc(O)cc(O)c1C2=O
REMARK SMILES IDX 1 1 2 2 8 3 7 4 6 5 4 6 3 7 19 8 20 9 18 10 11 11 9 12 10 13
REMARK SMILES IDX 12 14 13 15 15 16 16 17 5 18 17 20 14 22
REMARK H PARENT 5 19 17 21 14 23
REMARK Flexibility Score: inf
ROOT
ATOM      1  C   UNL     1      18.423  14.430  14.873  1.00  0.00     0.044 C 
ATOM      2  C   UNL     1      18.742  15.392  13.765  1.00  0.00    -0.047 A 
ATOM      3  C   UNL     1      17.942  16.521  13.560  1.00  0.00     0.016 A 
ATOM      4  C   UNL     1      18.259  17.450  12.555  1.00  0.00     0.038 A 
ATOM      5  C   UNL     1      19.409  17.260  11.757  1.00  0.00     0.076 A 
ATOM      6  C   UNL     1      20.190  16.089  11.938  1.00  0.00     0.127 A 
ATOM      7  C   UNL     1      19.868  15.189  12.959  1.00  0.00     0.050 A 
ATOM      8  C   UNL     1      19.790  18.336  10.806  1.00  0.00     0.201 C 
ATOM      9  O   UNL     1      21.004  18.517  10.518  1.00  0.00    -0.288 OA
ATOM     10  C   UNL     1      18.769  19.312  10.349  1.00  0.00     0.076 A 
ATOM     11  C   UNL     1      17.618  19.499  11.149  1.00  0.00     0.041 A 
ATOM     12  C   UNL     1      17.387  18.627  12.324  1.00  0.00     0.194 C 
ATOM     13  O   UNL     1      16.434  18.872  13.114  1.00  0.00    -0.289 OA
ATOM     14  C   UNL     1      16.698  20.510  10.824  1.00  0.00     0.059 A 
ATOM     15  C   UNL     1      16.901  21.321   9.704  1.00  0.00     0.120 A 
ATOM     16  C   UNL     1      18.013  21.113   8.890  1.00  0.00     0.093 A 
ATOM     17  C   UNL     1      18.934  20.101   9.180  1.00  0.00     0.131 A 
ENDROOT
BRANCH   6  18
ATOM     18  O   UNL     1      21.269  15.765  11.112  1.00  0.00    -0.507 OA
ATOM     19  H   UNL     1      21.914  15.012  11.305  1.00  0.00     0.293 HD
ENDBRANCH   6  18
BRANCH  17  20
ATOM     20  O   UNL     1      19.972  19.893   8.268  1.00  0.00    -0.507 OA
ATOM     21  H   UNL     1      20.945  19.837   8.533  1.00  0.00     0.293 HD
ENDBRANCH  17  20
BRANCH  15  22
ATOM     22  O   UNL     1      15.997  22.332   9.386  1.00  0.00    -0.508 OA
ATOM     23  H   UNL     1      15.400  22.272   8.570  1.00  0.00     0.293 HD
ENDBRANCH  15  22
TORSDOF 3
ENDMDL
MODEL 8
REMARK VINA RESULT:    -6.463      5.922      9.905
REMARK INTER + INTRA:          -7.029
REMARK INTER:                  -7.029
REMARK INTRA:                   0.000
REMARK UNBOUND:                 0.000
REMARK SMILES Cc1cc(O)c2c(c1)C(=O)c1cc(O)cc(O)c1C2=O
REMARK SMILES IDX 1 1 2 2 8 3 7 4 6 5 4 6 3 7 19 8 20 9 18 10 11 11 9 12 10 13
REMARK SMILES IDX 12 14 13 15 15 16 16 17 5 18 17 20 14 22
REMARK H PARENT 5 19 17 21 14 23
REMARK Flexibility Score: inf
ROOT
ATOM      1  C   UNL     1      17.105  25.001   8.855  1.00  0.00     0.044 C 
ATOM      2  C   UNL     1      17.915  23.767   9.127  1.00  0.00    -0.047 A 
ATOM      3  C   UNL     1      17.299  22.616   9.629  1.00  0.00     0.016 A 
ATOM      4  C   UNL     1      18.042  21.443   9.845  1.00  0.00     0.038 A 
ATOM      5  C   UNL     1      19.418  21.412   9.529  1.00  0.00     0.076 A 
ATOM      6  C   UNL     1      20.048  22.596   9.065  1.00  0.00     0.127 A 
ATOM      7  C   UNL     1      19.284  23.746   8.837  1.00  0.00     0.050 A 
ATOM      8  C   UNL     1      20.134  20.114   9.632  1.00  0.00     0.201 C 
ATOM      9  O   UNL     1      21.111  19.875   8.872  1.00  0.00    -0.288 OA
ATOM     10  C   UNL     1      19.583  19.034  10.491  1.00  0.00     0.076 A 
ATOM     11  C   UNL     1      18.206  19.069  10.805  1.00  0.00     0.041 A 
ATOM     12  C   UNL     1      17.387  20.237  10.406  1.00  0.00     0.194 C 
ATOM     13  O   UNL     1      16.136  20.216  10.569  1.00  0.00    -0.289 OA
ATOM     14  C   UNL     1      17.620  17.994  11.497  1.00  0.00     0.059 A 
ATOM     15  C   UNL     1      18.393  16.900  11.893  1.00  0.00     0.120 A 
ATOM     16  C   UNL     1      19.760  16.882  11.621  1.00  0.00     0.093 A 
ATOM     17  C   UNL     1      20.372  17.946  10.950  1.00  0.00     0.131 A 
ENDROOT
BRANCH   6  18
ATOM     18  O   UNL     1      21.425  22.685   8.847  1.00  0.00    -0.507 OA
ATOM     19  H   UNL     1      22.084  21.981   9.147  1.00  0.00     0.293 HD
ENDBRANCH   6  18
BRANCH  17  20
ATOM     20  O   UNL     1      21.759  17.899  10.795  1.00  0.00    -0.507 OA
ATOM     21  H   UNL     1      22.238  18.205   9.960  1.00  0.00     0.293 HD
ENDBRANCH  17  20
BRANCH  15  22
ATOM     22  O   UNL     1      17.814  15.828  12.568  1.00  0.00    -0.508 OA
ATOM     23  H   UNL     1      18.213  15.463  13.425  1.00  0.00     0.293 HD
ENDBRANCH  15  22
TORSDOF 3
ENDMDL
MODEL 9
REMARK VINA RESULT:    -6.413      5.926      8.352
REMARK INTER + INTRA:          -6.975
REMARK INTER:                  -6.975
REMARK INTRA:                   0.000
REMARK UNBOUND:                 0.000
REMARK SMILES Cc1cc(O)c2c(c1)C(=O)c1cc(O)cc(O)c1C2=O
REMARK SMILES IDX 1 1 2 2 8 3 7 4 6 5 4 6 3 7 19 8 20 9 18 10 11 11 9 12 10 13
REMARK SMILES IDX 12 14 13 15 15 16 16 17 5 18 17 20 14 22
REMARK H PARENT 5 19 17 21 14 23
REMARK Flexibility Score: inf
ROOT
ATOM      1  C   UNL     1      18.411  14.547   9.371  1.00  0.00     0.044 C 
ATOM      2  C   UNL     1      18.226  16.036   9.399  1.00  0.00    -0.047 A 
ATOM      3  C   UNL     1      19.194  16.877   8.840  1.00  0.00     0.016 A 
ATOM      4  C   UNL     1      19.009  18.270   8.823  1.00  0.00     0.038 A 
ATOM      5  C   UNL     1      17.825  18.829   9.351  1.00  0.00     0.076 A 
ATOM      6  C   UNL     1      16.868  17.976   9.960  1.00  0.00     0.127 A 
ATOM      7  C   UNL     1      17.064  16.591   9.946  1.00  0.00     0.050 A 
ATOM      8  C   UNL     1      17.601  20.289   9.183  1.00  0.00     0.201 C 
ATOM      9  O   UNL     1      16.426  20.736   9.088  1.00  0.00    -0.288 OA
ATOM     10  C   UNL     1      18.756  21.189   8.936  1.00  0.00     0.076 A 
ATOM     11  C   UNL     1      19.940  20.625   8.407  1.00  0.00     0.041 A 
ATOM     12  C   UNL     1      20.054  19.155   8.256  1.00  0.00     0.194 C 
ATOM     13  O   UNL     1      21.053  18.658   7.667  1.00  0.00    -0.289 OA
ATOM     14  C   UNL     1      21.005  21.462   8.031  1.00  0.00     0.059 A 
ATOM     15  C   UNL     1      20.910  22.846   8.191  1.00  0.00     0.120 A 
ATOM     16  C   UNL     1      19.760  23.402   8.750  1.00  0.00     0.093 A 
ATOM     17  C   UNL     1      18.693  22.590   9.151  1.00  0.00     0.131 A 
ENDROOT
BRANCH   6  18
ATOM     18  O   UNL     1      15.731  18.458  10.613  1.00  0.00    -0.507 OA
ATOM     19  H   UNL     1      15.733  19.277  11.205  1.00  0.00     0.293 HD
ENDBRANCH   6  18
BRANCH  17  20
ATOM     20  O   UNL     1      17.615  23.210   9.786  1.00  0.00    -0.507 OA
ATOM     21  H   UNL     1      17.293  22.960  10.710  1.00  0.00     0.293 HD
ENDBRANCH  17  20
BRANCH  15  22
ATOM     22  O   UNL     1      21.958  23.680   7.808  1.00  0.00    -0.508 OA
ATOM     23  H   UNL     1      22.557  24.128   8.492  1.00  0.00     0.293 HD
ENDBRANCH  15  22
TORSDOF 3
ENDMDL
