MODEL 1
REMARK VINA RESULT:    -5.022      0.000      0.000
REMARK INTER + INTRA:          -7.018
REMARK INTER:                  -6.197
REMARK INTRA:                  -0.821
REMARK UNBOUND:                -0.821
REMARK SMILES CC(C)=CCC[C@@H](C)c1ccc(C)cc1
REMARK SMILES IDX 6 1 7 2 8 3 9 4 13 5 12 6 11 7 14 8 10 9 15 10 5 11 4 12
REMARK SMILES IDX 2 13 1 14 3 15
REMARK H PARENT
REMARK Flexibility Score: inf
ROOT
ATOM      1  C   UNL     1     -14.249  22.266  -7.797  1.00  0.00     0.012 C 
ENDROOT
BRANCH   1   2
ATOM      2  C   UNL     1     -13.840  23.650  -8.360  1.00  0.00     0.016 C 
ATOM      3  C   UNL     1     -14.457  24.805  -7.556  1.00  0.00     0.013 C 
BRANCH   2   4
ATOM      4  C   UNL     1     -12.328  23.788  -8.393  1.00  0.00    -0.045 A 
ATOM      5  C   UNL     1      -8.030  24.211  -8.450  1.00  0.00     0.044 C 
ATOM      6  C   UNL     1      -9.523  24.067  -8.461  1.00  0.00    -0.051 A 
ATOM      7  C   UNL     1     -10.110  22.797  -8.554  1.00  0.00     0.004 A 
ATOM      8  C   UNL     1     -10.342  25.194  -8.307  1.00  0.00     0.004 A 
ATOM      9  C   UNL     1     -11.500  22.658  -8.527  1.00  0.00     0.004 A 
ATOM     10  C   UNL     1     -11.734  25.057  -8.280  1.00  0.00     0.004 A 
ENDBRANCH   2   4
ENDBRANCH   1   2
BRANCH   1  11
ATOM     11  C   UNL     1     -15.158  21.464  -8.743  1.00  0.00     0.028 C 
BRANCH  11  12
ATOM     12  C   UNL     1     -16.612  21.597  -8.350  1.00  0.00    -0.028 C 
ATOM     13  C   UNL     1     -17.511  22.399  -8.963  1.00  0.00    -0.080 C 
ATOM     14  C   UNL     1     -17.136  23.285 -10.125  1.00  0.00     0.039 C 
ATOM     15  C   UNL     1     -18.932  22.397  -8.460  1.00  0.00     0.039 C 
ENDBRANCH  11  12
ENDBRANCH   1  11
TORSDOF 4
ENDMDL
MODEL 2
REMARK VINA RESULT:    -4.969     15.922     17.868
REMARK INTER + INTRA:          -6.952
REMARK INTER:                  -5.382
REMARK INTRA:                  -1.570
REMARK UNBOUND:                -0.821
REMARK SMILES CC(C)=CCC[C@@H](C)c1ccc(C)cc1
REMARK SMILES IDX 6 1 7 2 8 3 9 4 13 5 12 6 11 7 14 8 10 9 15 10 5 11 4 12
REMARK SMILES IDX 2 13 1 14 3 15
REMARK H PARENT
REMARK Flexibility Score: inf
ROOT
ATOM      1  C   UNL     1     -18.779  27.079   6.917  1.00  0.00     0.012 C 
ENDROOT
BRANCH   1   2
ATOM      2  C   UNL     1     -19.005  27.705   5.518  1.00  0.00     0.016 C 
ATOM      3  C   UNL     1     -19.400  26.651   4.472  1.00  0.00     0.013 C 
BRANCH   2   4
ATOM      4  C   UNL     1     -20.059  28.794   5.583  1.00  0.00    -0.045 A 
ATOM      5  C   UNL     1     -23.093  31.863   5.753  1.00  0.00     0.044 C 
ATOM      6  C   UNL     1     -22.020  30.818   5.683  1.00  0.00    -0.051 A 
ATOM      7  C   UNL     1     -21.159  30.615   6.770  1.00  0.00     0.004 A 
ATOM      8  C   UNL     1     -21.915  29.989   4.557  1.00  0.00     0.004 A 
ATOM      9  C   UNL     1     -20.182  29.617   6.719  1.00  0.00     0.004 A 
ATOM     10  C   UNL     1     -20.939  28.989   4.505  1.00  0.00     0.004 A 
ENDBRANCH   2   4
ENDBRANCH   1   2
BRANCH   1  11
ATOM     11  C   UNL     1     -19.748  25.929   7.238  1.00  0.00     0.028 C 
BRANCH  11  12
ATOM     12  C   UNL     1     -20.824  26.372   8.204  1.00  0.00    -0.028 C 
ATOM     13  C   UNL     1     -22.123  26.562   7.883  1.00  0.00    -0.080 C 
ATOM     14  C   UNL     1     -22.642  26.366   6.480  1.00  0.00     0.039 C 
ATOM     15  C   UNL     1     -23.075  26.984   8.973  1.00  0.00     0.039 C 
ENDBRANCH  11  12
ENDBRANCH   1  11
TORSDOF 4
ENDMDL
MODEL 3
REMARK VINA RESULT:    -4.812     16.139     17.970
REMARK INTER + INTRA:          -6.758
REMARK INTER:                  -5.207
REMARK INTRA:                  -1.551
REMARK UNBOUND:                -0.821
REMARK SMILES CC(C)=CCC[C@@H](C)c1ccc(C)cc1
REMARK SMILES IDX 6 1 7 2 8 3 9 4 13 5 12 6 11 7 14 8 10 9 15 10 5 11 4 12
REMARK SMILES IDX 2 13 1 14 3 15
REMARK H PARENT
REMARK Flexibility Score: inf
ROOT
ATOM      1  C   UNL     1      -7.013  20.777   6.623  1.00  0.00     0.012 C 
ENDROOT
BRANCH   1   2
ATOM      2  C   UNL     1      -7.139  20.163   5.207  1.00  0.00     0.016 C 
ATOM      3  C   UNL     1      -6.325  20.945   4.164  1.00  0.00     0.013 C 
BRANCH   2   4
ATOM      4  C   UNL     1      -6.711  18.706   5.216  1.00  0.00    -0.045 A 
ATOM      5  C   UNL     1      -5.448  14.576   5.245  1.00  0.00     0.044 C 
ATOM      6  C   UNL     1      -5.907  16.004   5.213  1.00  0.00    -0.051 A 
ATOM      7  C   UNL     1      -6.964  16.425   6.031  1.00  0.00     0.004 A 
ATOM      8  C   UNL     1      -5.236  16.943   4.416  1.00  0.00     0.004 A 
ATOM      9  C   UNL     1      -7.368  17.763   6.028  1.00  0.00     0.004 A 
ATOM     10  C   UNL     1      -5.638  18.282   4.413  1.00  0.00     0.004 A 
ENDBRANCH   2   4
ENDBRANCH   1   2
BRANCH   1  11
ATOM     11  C   UNL     1      -5.588  20.707   7.198  1.00  0.00     0.028 C 
BRANCH  11  12
ATOM     12  C   UNL     1      -5.538  19.835   8.433  1.00  0.00    -0.028 C 
ATOM     13  C   UNL     1      -4.718  18.773   8.600  1.00  0.00    -0.080 C 
ATOM     14  C   UNL     1      -3.756  18.324   7.527  1.00  0.00     0.039 C 
ATOM     15  C   UNL     1      -4.777  18.022   9.905  1.00  0.00     0.039 C 
ENDBRANCH  11  12
ENDBRANCH   1  11
TORSDOF 4
ENDMDL
MODEL 4
REMARK VINA RESULT:    -4.795     15.772     17.916
REMARK INTER + INTRA:          -6.737
REMARK INTER:                  -5.378
REMARK INTRA:                  -1.359
REMARK UNBOUND:                -0.821
REMARK SMILES CC(C)=CCC[C@@H](C)c1ccc(C)cc1
REMARK SMILES IDX 6 1 7 2 8 3 9 4 13 5 12 6 11 7 14 8 10 9 15 10 5 11 4 12
REMARK SMILES IDX 2 13 1 14 3 15
REMARK H PARENT
REMARK Flexibility Score: inf
ROOT
ATOM      1  C   UNL     1     -20.487  26.374   8.278  1.00  0.00     0.012 C 
ENDROOT
BRANCH   1   2
ATOM      2  C   UNL     1     -21.993  26.617   8.009  1.00  0.00     0.016 C 
ATOM      3  C   UNL     1     -22.767  26.931   9.299  1.00  0.00     0.013 C 
BRANCH   2   4
ATOM      4  C   UNL     1     -22.181  27.739   7.003  1.00  0.00    -0.045 A 
ATOM      5  C   UNL     1     -22.764  30.921   4.141  1.00  0.00     0.044 C 
ATOM      6  C   UNL     1     -22.536  29.808   5.120  1.00  0.00    -0.051 A 
ATOM      7  C   UNL     1     -21.791  30.034   6.286  1.00  0.00     0.004 A 
ATOM      8  C   UNL     1     -23.125  28.553   4.912  1.00  0.00     0.004 A 
ATOM      9  C   UNL     1     -21.608  29.007   7.217  1.00  0.00     0.004 A 
ATOM     10  C   UNL     1     -22.944  27.524   5.843  1.00  0.00     0.004 A 
ENDBRANCH   2   4
ENDBRANCH   1   2
BRANCH   1  11
ATOM     11  C   UNL     1     -19.742  25.753   7.085  1.00  0.00     0.028 C 
BRANCH  11  12
ATOM     12  C   UNL     1     -19.142  26.819   6.197  1.00  0.00    -0.028 C 
ATOM     13  C   UNL     1     -19.384  26.954   4.874  1.00  0.00    -0.080 C 
ATOM     14  C   UNL     1     -20.291  26.010   4.123  1.00  0.00     0.039 C 
ATOM     15  C   UNL     1     -18.721  28.089   4.137  1.00  0.00     0.039 C 
ENDBRANCH  11  12
ENDBRANCH   1  11
TORSDOF 4
ENDMDL
MODEL 5
REMARK VINA RESULT:    -4.772     16.444     18.245
REMARK INTER + INTRA:          -6.708
REMARK INTER:                  -5.157
REMARK INTRA:                  -1.551
REMARK UNBOUND:                -0.821
REMARK SMILES CC(C)=CCC[C@@H](C)c1ccc(C)cc1
REMARK SMILES IDX 6 1 7 2 8 3 9 4 13 5 12 6 11 7 14 8 10 9 15 10 5 11 4 12
REMARK SMILES IDX 2 13 1 14 3 15
REMARK H PARENT
REMARK Flexibility Score: inf
ROOT
ATOM      1  C   UNL     1      -5.109  16.298   7.701  1.00  0.00     0.012 C 
ENDROOT
BRANCH   1   2
ATOM      2  C   UNL     1      -6.311  16.363   6.727  1.00  0.00     0.016 C 
ATOM      3  C   UNL     1      -7.653  16.185   7.455  1.00  0.00     0.013 C 
BRANCH   2   4
ATOM      4  C   UNL     1      -6.306  17.672   5.959  1.00  0.00    -0.045 A 
ATOM      5  C   UNL     1      -6.313  21.418   3.809  1.00  0.00     0.044 C 
ATOM      6  C   UNL     1      -6.319  20.103   4.530  1.00  0.00    -0.051 A 
ATOM      7  C   UNL     1      -5.159  19.318   4.578  1.00  0.00     0.004 A 
ATOM      8  C   UNL     1      -7.464  19.682   5.220  1.00  0.00     0.004 A 
ATOM      9  C   UNL     1      -5.153  18.109   5.280  1.00  0.00     0.004 A 
ATOM     10  C   UNL     1      -7.460  18.474   5.924  1.00  0.00     0.004 A 
ENDBRANCH   2   4
ENDBRANCH   1   2
BRANCH   1  11
ATOM     11  C   UNL     1      -5.212  17.289   8.872  1.00  0.00     0.028 C 
BRANCH  11  12
ATOM     12  C   UNL     1      -4.285  18.468   8.676  1.00  0.00    -0.028 C 
ATOM     13  C   UNL     1      -4.674  19.762   8.627  1.00  0.00    -0.080 C 
ATOM     14  C   UNL     1      -6.122  20.170   8.747  1.00  0.00     0.039 C 
ATOM     15  C   UNL     1      -3.618  20.821   8.449  1.00  0.00     0.039 C 
ENDBRANCH  11  12
ENDBRANCH   1  11
TORSDOF 4
ENDMDL
MODEL 6
REMARK VINA RESULT:    -4.701      9.562     11.556
REMARK INTER + INTRA:          -6.620
REMARK INTER:                  -5.190
REMARK INTRA:                  -1.431
REMARK UNBOUND:                -0.821
REMARK SMILES CC(C)=CCC[C@@H](C)c1ccc(C)cc1
REMARK SMILES IDX 6 1 7 2 8 3 9 4 13 5 12 6 11 7 14 8 10 9 15 10 5 11 4 12
REMARK SMILES IDX 2 13 1 14 3 15
REMARK H PARENT
REMARK Flexibility Score: inf
ROOT
ATOM      1  C   UNL     1      -8.719  13.049  -2.978  1.00  0.00     0.012 C 
ENDROOT
BRANCH   1   2
ATOM      2  C   UNL     1      -9.071  14.404  -2.316  1.00  0.00     0.016 C 
ATOM      3  C   UNL     1      -8.854  14.376  -0.795  1.00  0.00     0.013 C 
BRANCH   2   4
ATOM      4  C   UNL     1      -8.262  15.529  -2.936  1.00  0.00    -0.045 A 
ATOM      5  C   UNL     1      -5.991  18.761  -4.685  1.00  0.00     0.044 C 
ATOM      6  C   UNL     1      -6.775  17.622  -4.103  1.00  0.00    -0.051 A 
ATOM      7  C   UNL     1      -6.132  16.642  -3.333  1.00  0.00     0.004 A 
ATOM      8  C   UNL     1      -8.166  17.567  -4.265  1.00  0.00     0.004 A 
ATOM      9  C   UNL     1      -6.867  15.600  -2.760  1.00  0.00     0.004 A 
ATOM     10  C   UNL     1      -8.903  16.525  -3.692  1.00  0.00     0.004 A 
ENDBRANCH   2   4
ENDBRANCH   1   2
BRANCH   1  11
ATOM     11  C   UNL     1      -8.798  13.077  -4.514  1.00  0.00     0.028 C 
BRANCH  11  12
ATOM     12  C   UNL     1      -7.435  12.875  -5.138  1.00  0.00    -0.028 C 
ATOM     13  C   UNL     1      -6.871  13.695  -6.052  1.00  0.00    -0.080 C 
ATOM     14  C   UNL     1      -7.577  14.923  -6.574  1.00  0.00     0.039 C 
ATOM     15  C   UNL     1      -5.492  13.362  -6.559  1.00  0.00     0.039 C 
ENDBRANCH  11  12
ENDBRANCH   1  11
TORSDOF 4
ENDMDL
MODEL 7
REMARK VINA RESULT:    -4.677      1.050      6.727
REMARK INTER + INTRA:          -6.591
REMARK INTER:                  -5.754
REMARK INTRA:                  -0.837
REMARK UNBOUND:                -0.821
REMARK SMILES CC(C)=CCC[C@@H](C)c1ccc(C)cc1
REMARK SMILES IDX 6 1 7 2 8 3 9 4 13 5 12 6 11 7 14 8 10 9 15 10 5 11 4 12
REMARK SMILES IDX 2 13 1 14 3 15
REMARK H PARENT
REMARK Flexibility Score: inf
ROOT
ATOM      1  C   UNL     1     -13.097  24.706  -8.045  1.00  0.00     0.012 C 
ENDROOT
BRANCH   1   2
ATOM      2  C   UNL     1     -13.410  23.272  -8.541  1.00  0.00     0.016 C 
ATOM      3  C   UNL     1     -12.716  22.201  -7.684  1.00  0.00     0.013 C 
BRANCH   2   4
ATOM      4  C   UNL     1     -14.908  23.030  -8.564  1.00  0.00    -0.045 A 
ATOM      5  C   UNL     1     -19.166  22.304  -8.598  1.00  0.00     0.044 C 
ATOM      6  C   UNL     1     -17.688  22.559  -8.617  1.00  0.00    -0.051 A 
ATOM      7  C   UNL     1     -17.195  23.866  -8.496  1.00  0.00     0.004 A 
ATOM      8  C   UNL     1     -16.788  21.487  -8.685  1.00  0.00     0.004 A 
ATOM      9  C   UNL     1     -15.817  24.101  -8.477  1.00  0.00     0.004 A 
ATOM     10  C   UNL     1     -15.409  21.720  -8.664  1.00  0.00     0.004 A 
ENDBRANCH   2   4
ENDBRANCH   1   2
BRANCH   1  11
ATOM     11  C   UNL     1     -12.075  25.449  -8.921  1.00  0.00     0.028 C 
BRANCH  11  12
ATOM     12  C   UNL     1     -10.669  25.273  -8.394  1.00  0.00    -0.028 C 
ATOM     13  C   UNL     1      -9.738  24.450  -8.925  1.00  0.00    -0.080 C 
ATOM     14  C   UNL     1     -10.026  23.580 -10.125  1.00  0.00     0.039 C 
ATOM     15  C   UNL     1      -8.372  24.409  -8.290  1.00  0.00     0.039 C 
ENDBRANCH  11  12
ENDBRANCH   1  11
TORSDOF 4
ENDMDL
MODEL 8
REMARK VINA RESULT:    -4.662     16.605     18.266
REMARK INTER + INTRA:          -6.573
REMARK INTER:                  -5.127
REMARK INTRA:                  -1.446
REMARK UNBOUND:                -0.821
REMARK SMILES CC(C)=CCC[C@@H](C)c1ccc(C)cc1
REMARK SMILES IDX 6 1 7 2 8 3 9 4 13 5 12 6 11 7 14 8 10 9 15 10 5 11 4 12
REMARK SMILES IDX 2 13 1 14 3 15
REMARK H PARENT
REMARK Flexibility Score: inf
ROOT
ATOM      1  C   UNL     1      -4.414  18.085   9.149  1.00  0.00     0.012 C 
ENDROOT
BRANCH   1   2
ATOM      2  C   UNL     1      -4.951  19.537   9.186  1.00  0.00     0.016 C 
ATOM      3  C   UNL     1      -3.997  20.486   9.928  1.00  0.00     0.013 C 
BRANCH   2   4
ATOM      4  C   UNL     1      -5.205  20.050   7.780  1.00  0.00    -0.045 A 
ATOM      5  C   UNL     1      -5.907  21.469   3.762  1.00  0.00     0.044 C 
ATOM      6  C   UNL     1      -5.655  21.005   5.166  1.00  0.00    -0.051 A 
ATOM      7  C   UNL     1      -6.689  21.025   6.113  1.00  0.00     0.004 A 
ATOM      8  C   UNL     1      -4.404  20.481   5.522  1.00  0.00     0.004 A 
ATOM      9  C   UNL     1      -6.465  20.558   7.411  1.00  0.00     0.004 A 
ATOM     10  C   UNL     1      -4.179  20.013   6.821  1.00  0.00     0.004 A 
ENDBRANCH   2   4
ENDBRANCH   1   2
BRANCH   1  11
ATOM     11  C   UNL     1      -5.456  17.057   8.679  1.00  0.00     0.028 C 
BRANCH  11  12
ATOM     12  C   UNL     1      -5.238  16.677   7.232  1.00  0.00    -0.028 C 
ATOM     13  C   UNL     1      -6.156  16.807   6.248  1.00  0.00    -0.080 C 
ATOM     14  C   UNL     1      -7.542  17.343   6.509  1.00  0.00     0.039 C 
ATOM     15  C   UNL     1      -5.769  16.401   4.850  1.00  0.00     0.039 C 
ENDBRANCH  11  12
ENDBRANCH   1  11
TORSDOF 4
ENDMDL
MODEL 9
REMARK VINA RESULT:    -4.613      7.014     10.332
REMARK INTER + INTRA:          -6.513
REMARK INTER:                  -4.976
REMARK INTRA:                  -1.537
REMARK UNBOUND:                -0.821
REMARK SMILES CC(C)=CCC[C@@H](C)c1ccc(C)cc1
REMARK SMILES IDX 6 1 7 2 8 3 9 4 13 5 12 6 11 7 14 8 10 9 15 10 5 11 4 12
REMARK SMILES IDX 2 13 1 14 3 15
REMARK H PARENT
REMARK Flexibility Score: inf
ROOT
ATOM      1  C   UNL     1      -6.397  15.855  -4.150  1.00  0.00     0.012 C 
ENDROOT
BRANCH   1   2
ATOM      2  C   UNL     1      -7.875  16.053  -4.567  1.00  0.00     0.016 C 
ATOM      3  C   UNL     1      -8.836  15.893  -3.379  1.00  0.00     0.013 C 
BRANCH   2   4
ATOM      4  C   UNL     1      -8.070  17.413  -5.214  1.00  0.00    -0.045 A 
ATOM      5  C   UNL     1      -8.628  21.300  -7.011  1.00  0.00     0.044 C 
ATOM      6  C   UNL     1      -8.454  19.938  -6.408  1.00  0.00    -0.051 A 
ATOM      7  C   UNL     1      -7.447  19.082  -6.874  1.00  0.00     0.004 A 
ATOM      8  C   UNL     1      -9.251  19.539  -5.326  1.00  0.00     0.004 A 
ATOM      9  C   UNL     1      -7.260  17.827  -6.288  1.00  0.00     0.004 A 
ATOM     10  C   UNL     1      -9.065  18.284  -4.737  1.00  0.00     0.004 A 
ENDBRANCH   2   4
ENDBRANCH   1   2
BRANCH   1  11
ATOM     11  C   UNL     1      -5.913  16.871  -3.102  1.00  0.00     0.028 C 
BRANCH  11  12
ATOM     12  C   UNL     1      -4.722  17.656  -3.608  1.00  0.00    -0.028 C 
ATOM     13  C   UNL     1      -4.691  18.997  -3.773  1.00  0.00    -0.080 C 
ATOM     14  C   UNL     1      -5.885  19.871  -3.480  1.00  0.00     0.039 C 
ATOM     15  C   UNL     1      -3.414  19.627  -4.266  1.00  0.00     0.039 C 
ENDBRANCH  11  12
ENDBRANCH   1  11
TORSDOF 4
ENDMDL
