MODEL 1
REMARK VINA RESULT:     8.347      0.000      0.000
REMARK INTER + INTRA:          14.364
REMARK INTER:                  15.178
REMARK INTRA:                  -0.814
REMARK UNBOUND:                -0.814
REMARK SMILES CCCCCCCCCCCCCC[C@H](C)C(=O)[O-]
REMARK SMILES IDX 9 1 10 2 11 3 12 4 13 5 14 6 15 7 16 8 17 9 18 10 19 11 8 12
REMARK SMILES IDX 7 13 6 14 5 15 4 16 3 17 2 18 1 19
REMARK H PARENT
REMARK Flexibility Score: inf
ROOT
ATOM      1  C   UNL     1      15.162  35.903  48.740  1.00  0.00     0.000 C 
ENDROOT
BRANCH   1   2
ATOM      2  C   UNL     1      15.177  35.037  50.016  1.00  0.00     0.000 C 
BRANCH   2   3
ATOM      3  C   UNL     1      15.200  33.514  49.775  1.00  0.00     0.000 C 
BRANCH   3   4
ATOM      4  C   UNL     1      15.643  32.673  50.984  1.00  0.00     0.000 C 
BRANCH   4   5
ATOM      5  C   UNL     1      15.555  31.160  50.723  1.00  0.00     0.001 C 
BRANCH   5   6
ATOM      6  C   UNL     1      14.100  30.644  50.766  1.00  0.00     0.009 C 
BRANCH   6   7
ATOM      7  C   UNL     1      13.981  29.113  50.582  1.00  0.00     0.032 C 
ATOM      8  C   UNL     1      13.064  28.731  49.414  1.00  0.00     0.014 C 
BRANCH   7   9
ATOM      9  C   UNL     1      13.467  28.489  51.851  1.00  0.00     0.044 C 
ATOM     10  O   UNL     1      13.044  29.216  52.787  1.00  0.00    -0.550 OA
ATOM     11  O   UNL     1      13.450  27.106  51.997  1.00  0.00    -0.550 OA
ENDBRANCH   7   9
ENDBRANCH   6   7
ENDBRANCH   5   6
ENDBRANCH   4   5
ENDBRANCH   3   4
ENDBRANCH   2   3
ENDBRANCH   1   2
BRANCH   1  12
ATOM     12  C   UNL     1      13.812  35.952  48.001  1.00  0.00     0.000 C 
BRANCH  12  13
ATOM     13  C   UNL     1      13.505  37.341  47.415  1.00  0.00    -0.000 C 
BRANCH  13  14
ATOM     14  C   UNL     1      14.538  38.399  47.835  1.00  0.00    -0.000 C 
BRANCH  14  15
ATOM     15  C   UNL     1      14.969  39.299  46.664  1.00  0.00    -0.000 C 
BRANCH  15  16
ATOM     16  C   UNL     1      16.306  38.866  46.036  1.00  0.00    -0.000 C 
BRANCH  16  17
ATOM     17  C   UNL     1      17.261  38.121  46.986  1.00  0.00    -0.000 C 
BRANCH  17  18
ATOM     18  C   UNL     1      18.696  38.034  46.447  1.00  0.00    -0.003 C 
ATOM     19  C   UNL     1      19.516  39.249  46.870  1.00  0.00     0.004 C 
ENDBRANCH  17  18
ENDBRANCH  16  17
ENDBRANCH  15  16
ENDBRANCH  14  15
ENDBRANCH  13  14
ENDBRANCH  12  13
ENDBRANCH   1  12
TORSDOF 14
ENDMDL
MODEL 2
REMARK VINA RESULT:     8.545      4.285      6.567
REMARK INTER + INTRA:          14.724
REMARK INTER:                  14.162
REMARK INTRA:                   0.562
REMARK UNBOUND:                -0.814
REMARK SMILES CCCCCCCCCCCCCC[C@H](C)C(=O)[O-]
REMARK SMILES IDX 9 1 10 2 11 3 12 4 13 5 14 6 15 7 16 8 17 9 18 10 19 11 8 12
REMARK SMILES IDX 7 13 6 14 5 15 4 16 3 17 2 18 1 19
REMARK H PARENT
REMARK Flexibility Score: inf
ROOT
ATOM      1  C   UNL     1      16.321  38.660  46.320  1.00  0.00     0.000 C 
ENDROOT
BRANCH   1   2
ATOM      2  C   UNL     1      15.909  39.439  47.586  1.00  0.00     0.000 C 
BRANCH   2   3
ATOM      3  C   UNL     1      14.475  40.006  47.568  1.00  0.00     0.000 C 
BRANCH   3   4
ATOM      4  C   UNL     1      13.652  39.650  46.318  1.00  0.00     0.000 C 
BRANCH   4   5
ATOM      5  C   UNL     1      13.071  38.227  46.371  1.00  0.00     0.001 C 
BRANCH   5   6
ATOM      6  C   UNL     1      13.357  37.529  47.718  1.00  0.00     0.009 C 
BRANCH   6   7
ATOM      7  C   UNL     1      13.906  36.092  47.567  1.00  0.00     0.032 C 
ATOM      8  C   UNL     1      12.795  35.035  47.571  1.00  0.00     0.014 C 
BRANCH   7   9
ATOM      9  C   UNL     1      14.882  35.802  48.675  1.00  0.00     0.044 C 
ATOM     10  O   UNL     1      15.596  36.726  49.146  1.00  0.00    -0.550 OA
ATOM     11  O   UNL     1      14.998  34.515  49.189  1.00  0.00    -0.550 OA
ENDBRANCH   7   9
ENDBRANCH   6   7
ENDBRANCH   5   6
ENDBRANCH   4   5
ENDBRANCH   3   4
ENDBRANCH   2   3
ENDBRANCH   1   2
BRANCH   1  12
ATOM     12  C   UNL     1      17.733  38.049  46.361  1.00  0.00     0.000 C 
BRANCH  12  13
ATOM     13  C   UNL     1      18.834  39.106  46.558  1.00  0.00    -0.000 C 
BRANCH  13  14
ATOM     14  C   UNL     1      20.171  38.488  46.997  1.00  0.00    -0.000 C 
BRANCH  14  15
ATOM     15  C   UNL     1      20.067  36.971  47.238  1.00  0.00    -0.000 C 
BRANCH  15  16
ATOM     16  C   UNL     1      19.537  36.205  46.013  1.00  0.00    -0.000 C 
BRANCH  16  17
ATOM     17  C   UNL     1      20.533  36.071  44.847  1.00  0.00    -0.000 C 
BRANCH  17  18
ATOM     18  C   UNL     1      20.864  34.611  44.505  1.00  0.00    -0.003 C 
ATOM     19  C   UNL     1      21.580  34.509  43.162  1.00  0.00     0.004 C 
ENDBRANCH  17  18
ENDBRANCH  16  17
ENDBRANCH  15  16
ENDBRANCH  14  15
ENDBRANCH  13  14
ENDBRANCH  12  13
ENDBRANCH   1  12
TORSDOF 14
ENDMDL
MODEL 3
REMARK VINA RESULT:     9.374      4.340      9.352
REMARK INTER + INTRA:          16.232
REMARK INTER:                  17.105
REMARK INTRA:                  -0.873
REMARK UNBOUND:                -0.814
REMARK SMILES CCCCCCCCCCCCCC[C@H](C)C(=O)[O-]
REMARK SMILES IDX 9 1 10 2 11 3 12 4 13 5 14 6 15 7 16 8 17 9 18 10 19 11 8 12
REMARK SMILES IDX 7 13 6 14 5 15 4 16 3 17 2 18 1 19
REMARK H PARENT
REMARK Flexibility Score: inf
ROOT
ATOM      1  C   UNL     1      15.181  36.181  48.588  1.00  0.00     0.000 C 
ENDROOT
BRANCH   1   2
ATOM      2  C   UNL     1      13.774  36.399  47.997  1.00  0.00     0.000 C 
BRANCH   2   3
ATOM      3  C   UNL     1      13.612  37.672  47.141  1.00  0.00     0.000 C 
BRANCH   3   4
ATOM      4  C   UNL     1      14.348  38.911  47.678  1.00  0.00     0.000 C 
BRANCH   4   5
ATOM      5  C   UNL     1      15.400  39.454  46.694  1.00  0.00     0.001 C 
BRANCH   5   6
ATOM      6  C   UNL     1      16.831  39.375  47.268  1.00  0.00     0.009 C 
BRANCH   6   7
ATOM      7  C   UNL     1      17.820  38.608  46.361  1.00  0.00     0.032 C 
ATOM      8  C   UNL     1      17.538  37.101  46.326  1.00  0.00     0.014 C 
BRANCH   7   9
ATOM      9  C   UNL     1      19.229  38.846  46.831  1.00  0.00     0.044 C 
ATOM     10  O   UNL     1      19.681  40.020  46.907  1.00  0.00    -0.550 OA
ATOM     11  O   UNL     1      20.041  37.776  47.189  1.00  0.00    -0.550 OA
ENDBRANCH   7   9
ENDBRANCH   6   7
ENDBRANCH   5   6
ENDBRANCH   4   5
ENDBRANCH   3   4
ENDBRANCH   2   3
ENDBRANCH   1   2
BRANCH   1  12
ATOM     12  C   UNL     1      15.225  35.333  49.872  1.00  0.00     0.000 C 
BRANCH  12  13
ATOM     13  C   UNL     1      15.248  33.821  49.586  1.00  0.00    -0.000 C 
BRANCH  13  14
ATOM     14  C   UNL     1      15.650  32.995  50.818  1.00  0.00    -0.000 C 
BRANCH  14  15
ATOM     15  C   UNL     1      15.743  31.490  50.513  1.00  0.00    -0.000 C 
BRANCH  15  16
ATOM     16  C   UNL     1      14.571  30.685  51.103  1.00  0.00    -0.000 C 
BRANCH  16  17
ATOM     17  C   UNL     1      13.576  30.129  50.068  1.00  0.00    -0.000 C 
BRANCH  17  18
ATOM     18  C   UNL     1      13.404  28.606  50.161  1.00  0.00    -0.003 C 
ATOM     19  C   UNL     1      12.728  28.052  48.911  1.00  0.00     0.004 C 
ENDBRANCH  17  18
ENDBRANCH  16  17
ENDBRANCH  15  16
ENDBRANCH  14  15
ENDBRANCH  13  14
ENDBRANCH  12  13
ENDBRANCH   1  12
TORSDOF 14
ENDMDL
MODEL 4
REMARK VINA RESULT:    10.003      5.790      8.213
REMARK INTER + INTRA:          17.376
REMARK INTER:                  18.101
REMARK INTRA:                  -0.725
REMARK UNBOUND:                -0.814
REMARK SMILES CCCCCCCCCCCCCC[C@H](C)C(=O)[O-]
REMARK SMILES IDX 9 1 10 2 11 3 12 4 13 5 14 6 15 7 16 8 17 9 18 10 19 11 8 12
REMARK SMILES IDX 7 13 6 14 5 15 4 16 3 17 2 18 1 19
REMARK H PARENT
REMARK Flexibility Score: inf
ROOT
ATOM      1  C   UNL     1      16.434  38.934  46.165  1.00  0.00     0.000 C 
ENDROOT
BRANCH   1   2
ATOM      2  C   UNL     1      17.659  37.998  46.167  1.00  0.00     0.000 C 
BRANCH   2   3
ATOM      3  C   UNL     1      18.956  38.617  46.726  1.00  0.00     0.000 C 
BRANCH   3   4
ATOM      4  C   UNL     1      20.083  37.611  47.014  1.00  0.00     0.000 C 
BRANCH   4   5
ATOM      5  C   UNL     1      19.858  36.250  46.333  1.00  0.00     0.001 C 
BRANCH   5   6
ATOM      6  C   UNL     1      20.503  36.185  44.931  1.00  0.00     0.009 C 
BRANCH   6   7
ATOM      7  C   UNL     1      20.517  34.765  44.321  1.00  0.00     0.032 C 
ATOM      8  C   UNL     1      20.747  33.675  45.376  1.00  0.00     0.014 C 
BRANCH   7   9
ATOM      9  C   UNL     1      21.584  34.677  43.265  1.00  0.00     0.044 C 
ATOM     10  O   UNL     1      22.417  33.733  43.285  1.00  0.00    -0.550 OA
ATOM     11  O   UNL     1      21.655  35.631  42.256  1.00  0.00    -0.550 OA
ENDBRANCH   7   9
ENDBRANCH   6   7
ENDBRANCH   5   6
ENDBRANCH   4   5
ENDBRANCH   3   4
ENDBRANCH   2   3
ENDBRANCH   1   2
BRANCH   1  12
ATOM     12  C   UNL     1      15.979  39.417  47.554  1.00  0.00     0.000 C 
BRANCH  12  13
ATOM     13  C   UNL     1      14.613  40.125  47.521  1.00  0.00    -0.000 C 
BRANCH  13  14
ATOM     14  C   UNL     1      13.832  39.836  46.229  1.00  0.00    -0.000 C 
BRANCH  14  15
ATOM     15  C   UNL     1      13.105  38.481  46.271  1.00  0.00    -0.000 C 
BRANCH  15  16
ATOM     16  C   UNL     1      13.323  37.725  47.594  1.00  0.00    -0.000 C 
BRANCH  16  17
ATOM     17  C   UNL     1      13.147  36.198  47.508  1.00  0.00    -0.000 C 
BRANCH  17  18
ATOM     18  C   UNL     1      14.090  35.432  48.448  1.00  0.00    -0.003 C 
ATOM     19  C   UNL     1      15.346  36.243  48.747  1.00  0.00     0.004 C 
ENDBRANCH  17  18
ENDBRANCH  16  17
ENDBRANCH  15  16
ENDBRANCH  14  15
ENDBRANCH  13  14
ENDBRANCH  12  13
ENDBRANCH   1  12
TORSDOF 14
ENDMDL
