MODEL 1
REMARK VINA RESULT:   -10.040      0.000      0.000
REMARK INTER + INTRA:         -14.006
REMARK INTER:                 -13.269
REMARK INTRA:                  -0.737
REMARK UNBOUND:                -0.737
REMARK SMILES CC[C@H](C=C[C@H](C)[C@@H]1CC[C@H]2C3=CC[C@H]4C[C@H](O)CC[C@@]4(C)[C@@H]3CC[C@]21C)C(C)C
REMARK SMILES IDX 6 1 7 2 5 3 4 4 3 5 2 6 1 7 28 8 29 9 30 10 8 11 9 12 26 13
REMARK SMILES IDX 10 14 11 15 25 16 27 17 12 18 24 19 23 20 13 21 21 22 14 23
REMARK SMILES IDX 15 24 20 25 22 26 16 27 19 28 17 29 18 30
REMARK H PARENT 18 31
REMARK Flexibility Score: inf
ROOT
ATOM      1  C   UNL     1     135.948 122.108 139.647  1.00  0.00     0.012 C 
ATOM      2  C   UNL     1     137.099 122.149 140.669  1.00  0.00     0.012 C 
ENDROOT
BRANCH   1   3
ATOM      3  C   UNL     1     135.739 120.655 139.267  1.00  0.00    -0.028 C 
ATOM      4  C   UNL     1     136.379 120.112 138.219  1.00  0.00    -0.027 C 
BRANCH   4   5
ATOM      5  C   UNL     1     136.286 118.632 137.903  1.00  0.00     0.014 C 
BRANCH   5   6
ATOM      6  C   UNL     1     136.281 118.444 136.364  1.00  0.00     0.004 C 
ATOM      7  C   UNL     1     135.305 117.369 135.884  1.00  0.00     0.004 C 
ENDBRANCH   5   6
BRANCH   5   8
ATOM      8  C   UNL     1     137.413 117.820 138.620  1.00  0.00    -0.011 C 
ATOM      9  C   UNL     1     138.453 118.750 139.263  1.00  0.00     0.008 C 
ATOM     10  C   UNL     1     138.118 116.800 137.708  1.00  0.00     0.008 C 
ENDBRANCH   5   8
ENDBRANCH   4   5
ENDBRANCH   1   3
BRANCH   1  11
ATOM     11  C   UNL     1     134.647 122.742 140.242  1.00  0.00     0.002 C 
ATOM     12  C   UNL     1     133.379 121.908 139.993  1.00  0.00     0.005 C 
ATOM     13  C   UNL     1     134.271 124.221 139.806  1.00  0.00    -0.023 C 
ATOM     14  C   UNL     1     132.228 122.881 140.152  1.00  0.00     0.009 C 
ATOM     15  C   UNL     1     132.744 124.129 139.468  1.00  0.00     0.021 C 
ATOM     16  C   UNL     1     134.604 125.211 140.989  1.00  0.00     0.008 C 
ATOM     17  C   UNL     1     134.987 124.722 138.522  1.00  0.00     0.012 C 
ATOM     18  C   UNL     1     131.972 125.391 139.793  1.00  0.00    -0.067 C 
ATOM     19  C   UNL     1     133.718 126.469 141.073  1.00  0.00     0.009 C 
ATOM     20  C   UNL     1     132.235 126.045 141.126  1.00  0.00     0.021 C 
ATOM     21  C   UNL     1     131.455 126.117 138.786  1.00  0.00    -0.027 C 
ATOM     22  C   UNL     1     131.143 127.137 141.534  1.00  0.00    -0.023 C 
ATOM     23  C   UNL     1     131.165 127.573 138.970  1.00  0.00     0.031 C 
ATOM     24  C   UNL     1     130.422 127.814 140.288  1.00  0.00     0.002 C 
ATOM     25  C   UNL     1     130.088 126.403 142.431  1.00  0.00     0.010 C 
ATOM     26  C   UNL     1     131.787 128.258 142.393  1.00  0.00     0.012 C 
ATOM     27  C   UNL     1     128.937 127.404 140.139  1.00  0.00     0.036 C 
ATOM     28  C   UNL     1     128.810 127.217 142.694  1.00  0.00     0.032 C 
ATOM     29  C   UNL     1     128.139 127.749 141.407  1.00  0.00     0.114 C 
BRANCH  29  30
ATOM     30  O   UNL     1     127.992 129.144 141.506  1.00  0.00    -0.393 OA
ATOM     31  H   UNL     1     128.865 129.511 141.802  1.00  0.00     0.210 HD
ENDBRANCH  29  30
ENDBRANCH   1  11
TORSDOF 6
ENDMDL
MODEL 2
REMARK VINA RESULT:    -9.934      1.139      1.823
REMARK INTER + INTRA:         -13.865
REMARK INTER:                 -13.049
REMARK INTRA:                  -0.816
REMARK UNBOUND:                -0.737
REMARK SMILES CC[C@H](C=C[C@H](C)[C@@H]1CC[C@H]2C3=CC[C@H]4C[C@H](O)CC[C@@]4(C)[C@@H]3CC[C@]21C)C(C)C
REMARK SMILES IDX 6 1 7 2 5 3 4 4 3 5 2 6 1 7 28 8 29 9 30 10 8 11 9 12 26 13
REMARK SMILES IDX 10 14 11 15 25 16 27 17 12 18 24 19 23 20 13 21 21 22 14 23
REMARK SMILES IDX 15 24 20 25 22 26 16 27 19 28 17 29 18 30
REMARK H PARENT 18 31
REMARK Flexibility Score: inf
ROOT
ATOM      1  C   UNL     1     136.955 121.354 139.710  1.00  0.00     0.012 C 
ATOM      2  C   UNL     1     137.842 120.653 140.755  1.00  0.00     0.012 C 
ENDROOT
BRANCH   1   3
ATOM      3  C   UNL     1     136.691 120.354 138.602  1.00  0.00    -0.028 C 
ATOM      4  C   UNL     1     137.574 119.383 138.316  1.00  0.00    -0.027 C 
BRANCH   4   5
ATOM      5  C   UNL     1     137.271 118.296 137.305  1.00  0.00     0.014 C 
BRANCH   5   6
ATOM      6  C   UNL     1     137.914 116.969 137.781  1.00  0.00     0.004 C 
ATOM      7  C   UNL     1     138.641 116.209 136.670  1.00  0.00     0.004 C 
ENDBRANCH   5   6
BRANCH   5   8
ATOM      8  C   UNL     1     135.735 118.176 137.035  1.00  0.00    -0.011 C 
ATOM      9  C   UNL     1     134.974 117.755 138.302  1.00  0.00     0.008 C 
ATOM     10  C   UNL     1     135.382 117.228 135.875  1.00  0.00     0.008 C 
ENDBRANCH   5   8
ENDBRANCH   4   5
ENDBRANCH   1   3
BRANCH   1  11
ATOM     11  C   UNL     1     135.624 121.865 140.356  1.00  0.00     0.002 C 
ATOM     12  C   UNL     1     134.411 120.958 140.081  1.00  0.00     0.005 C 
ATOM     13  C   UNL     1     135.140 123.335 140.006  1.00  0.00    -0.023 C 
ATOM     14  C   UNL     1     133.200 121.840 140.308  1.00  0.00     0.009 C 
ATOM     15  C   UNL     1     133.617 123.156 139.686  1.00  0.00     0.021 C 
ATOM     16  C   UNL     1     135.426 124.282 141.236  1.00  0.00     0.008 C 
ATOM     17  C   UNL     1     135.798 123.952 138.742  1.00  0.00     0.012 C 
ATOM     18  C   UNL     1     132.766 124.342 140.089  1.00  0.00    -0.067 C 
ATOM     19  C   UNL     1     134.457 125.469 141.400  1.00  0.00     0.009 C 
ATOM     20  C   UNL     1     133.008 124.941 141.452  1.00  0.00     0.021 C 
ATOM     21  C   UNL     1     132.183 125.083 139.129  1.00  0.00    -0.027 C 
ATOM     22  C   UNL     1     131.851 125.931 141.933  1.00  0.00    -0.023 C 
ATOM     23  C   UNL     1     131.797 126.503 139.397  1.00  0.00     0.031 C 
ATOM     24  C   UNL     1     131.064 126.622 140.735  1.00  0.00     0.002 C 
ATOM     25  C   UNL     1     130.865 125.079 142.803  1.00  0.00     0.010 C 
ATOM     26  C   UNL     1     132.431 127.047 142.843  1.00  0.00     0.012 C 
ATOM     27  C   UNL     1     129.607 126.118 140.585  1.00  0.00     0.036 C 
ATOM     28  C   UNL     1     129.539 125.788 143.128  1.00  0.00     0.032 C 
ATOM     29  C   UNL     1     128.810 126.339 141.882  1.00  0.00     0.114 C 
BRANCH  29  30
ATOM     30  O   UNL     1     128.569 127.714 142.057  1.00  0.00    -0.393 OA
ATOM     31  H   UNL     1     129.346 128.087 142.550  1.00  0.00     0.210 HD
ENDBRANCH  29  30
ENDBRANCH   1  11
TORSDOF 6
ENDMDL
MODEL 3
REMARK VINA RESULT:    -9.015      4.421      7.375
REMARK INTER + INTRA:         -12.650
REMARK INTER:                 -11.357
REMARK INTRA:                  -1.293
REMARK UNBOUND:                -0.737
REMARK SMILES CC[C@H](C=C[C@H](C)[C@@H]1CC[C@H]2C3=CC[C@H]4C[C@H](O)CC[C@@]4(C)[C@@H]3CC[C@]21C)C(C)C
REMARK SMILES IDX 6 1 7 2 5 3 4 4 3 5 2 6 1 7 28 8 29 9 30 10 8 11 9 12 26 13
REMARK SMILES IDX 10 14 11 15 25 16 27 17 12 18 24 19 23 20 13 21 21 22 14 23
REMARK SMILES IDX 15 24 20 25 22 26 16 27 19 28 17 29 18 30
REMARK H PARENT 18 31
REMARK Flexibility Score: inf
ROOT
ATOM      1  C   UNL     1     131.856 126.474 140.375  1.00  0.00     0.012 C 
ATOM      2  C   UNL     1     131.409 127.801 139.737  1.00  0.00     0.012 C 
ENDROOT
BRANCH   1   3
ATOM      3  C   UNL     1     132.408 125.604 139.263  1.00  0.00    -0.028 C 
ATOM      4  C   UNL     1     133.234 126.106 138.332  1.00  0.00    -0.027 C 
BRANCH   4   5
ATOM      5  C   UNL     1     133.899 125.227 137.292  1.00  0.00     0.014 C 
BRANCH   5   6
ATOM      6  C   UNL     1     133.905 125.969 135.931  1.00  0.00     0.004 C 
ATOM      7  C   UNL     1     133.443 127.424 136.028  1.00  0.00     0.004 C 
ENDBRANCH   5   6
BRANCH   5   8
ATOM      8  C   UNL     1     135.323 124.771 137.752  1.00  0.00    -0.011 C 
ATOM      9  C   UNL     1     135.243 123.641 138.790  1.00  0.00     0.008 C 
ATOM     10  C   UNL     1     136.194 125.918 138.297  1.00  0.00     0.008 C 
ENDBRANCH   5   8
ENDBRANCH   4   5
ENDBRANCH   1   3
BRANCH   1  11
ATOM     11  C   UNL     1     132.921 126.721 141.497  1.00  0.00     0.002 C 
ATOM     12  C   UNL     1     133.936 125.576 141.653  1.00  0.00     0.005 C 
ATOM     13  C   UNL     1     132.401 127.029 142.964  1.00  0.00    -0.023 C 
ATOM     14  C   UNL     1     134.505 125.741 143.049  1.00  0.00     0.009 C 
ATOM     15  C   UNL     1     133.286 126.106 143.869  1.00  0.00     0.021 C 
ATOM     16  C   UNL     1     132.573 128.569 143.263  1.00  0.00     0.008 C 
ATOM     17  C   UNL     1     130.923 126.634 143.226  1.00  0.00     0.012 C 
ATOM     18  C   UNL     1     133.597 126.702 145.227  1.00  0.00    -0.067 C 
ATOM     19  C   UNL     1     132.812 128.937 144.740  1.00  0.00     0.009 C 
ATOM     20  C   UNL     1     134.027 128.146 145.271  1.00  0.00     0.021 C 
ATOM     21  C   UNL     1     133.075 126.128 146.326  1.00  0.00    -0.027 C 
ATOM     22  C   UNL     1     134.670 128.583 146.667  1.00  0.00    -0.023 C 
ATOM     23  C   UNL     1     132.894 126.919 147.582  1.00  0.00     0.031 C 
ATOM     24  C   UNL     1     134.158 127.723 147.903  1.00  0.00     0.002 C 
ATOM     25  C   UNL     1     136.222 128.429 146.512  1.00  0.00     0.010 C 
ATOM     26  C   UNL     1     134.377 130.079 146.958  1.00  0.00     0.012 C 
ATOM     27  C   UNL     1     135.242 126.788 148.493  1.00  0.00     0.036 C 
ATOM     28  C   UNL     1     137.001 128.535 147.834  1.00  0.00     0.032 C 
ATOM     29  C   UNL     1     136.478 127.587 148.938  1.00  0.00     0.114 C 
BRANCH  29  30
ATOM     30  O   UNL     1     136.164 128.341 150.083  1.00  0.00    -0.393 OA
ATOM     31  H   UNL     1     135.520 127.807 150.617  1.00  0.00     0.210 HD
ENDBRANCH  29  30
ENDBRANCH   1  11
TORSDOF 6
ENDMDL
MODEL 4
REMARK VINA RESULT:    -8.608      2.341      5.047
REMARK INTER + INTRA:         -12.113
REMARK INTER:                 -10.745
REMARK INTRA:                  -1.368
REMARK UNBOUND:                -0.737
REMARK SMILES CC[C@H](C=C[C@H](C)[C@@H]1CC[C@H]2C3=CC[C@H]4C[C@H](O)CC[C@@]4(C)[C@@H]3CC[C@]21C)C(C)C
REMARK SMILES IDX 6 1 7 2 5 3 4 4 3 5 2 6 1 7 28 8 29 9 30 10 8 11 9 12 26 13
REMARK SMILES IDX 10 14 11 15 25 16 27 17 12 18 24 19 23 20 13 21 21 22 14 23
REMARK SMILES IDX 15 24 20 25 22 26 16 27 19 28 17 29 18 30
REMARK H PARENT 18 31
REMARK Flexibility Score: inf
ROOT
ATOM      1  C   UNL     1     133.378 125.660 137.711  1.00  0.00     0.012 C 
ATOM      2  C   UNL     1     133.741 126.028 136.261  1.00  0.00     0.012 C 
ENDROOT
BRANCH   1   3
ATOM      3  C   UNL     1     134.560 124.909 138.293  1.00  0.00    -0.028 C 
ATOM      4  C   UNL     1     134.389 123.765 138.975  1.00  0.00    -0.027 C 
BRANCH   4   5
ATOM      5  C   UNL     1     135.563 122.932 139.449  1.00  0.00     0.014 C 
BRANCH   5   6
ATOM      6  C   UNL     1     136.534 123.838 140.249  1.00  0.00     0.004 C 
ATOM      7  C   UNL     1     136.039 124.169 141.658  1.00  0.00     0.004 C 
ENDBRANCH   5   6
BRANCH   5   8
ATOM      8  C   UNL     1     135.089 121.676 140.251  1.00  0.00    -0.011 C 
ATOM      9  C   UNL     1     135.764 120.395 139.739  1.00  0.00     0.008 C 
ATOM     10  C   UNL     1     133.561 121.491 140.265  1.00  0.00     0.008 C 
ENDBRANCH   5   8
ENDBRANCH   4   5
ENDBRANCH   1   3
BRANCH   1  11
ATOM     11  C   UNL     1     133.039 126.939 138.547  1.00  0.00     0.002 C 
ATOM     12  C   UNL     1     134.125 127.322 139.566  1.00  0.00     0.005 C 
ATOM     13  C   UNL     1     131.674 126.963 139.355  1.00  0.00    -0.023 C 
ATOM     14  C   UNL     1     133.421 128.199 140.582  1.00  0.00     0.009 C 
ATOM     15  C   UNL     1     132.090 127.503 140.765  1.00  0.00     0.021 C 
ATOM     16  C   UNL     1     130.639 127.884 138.599  1.00  0.00     0.008 C 
ATOM     17  C   UNL     1     131.027 125.569 139.578  1.00  0.00     0.012 C 
ATOM     18  C   UNL     1     131.023 128.348 141.432  1.00  0.00    -0.067 C 
ATOM     19  C   UNL     1     129.600 128.590 139.492  1.00  0.00     0.009 C 
ATOM     20  C   UNL     1     130.333 129.391 140.590  1.00  0.00     0.021 C 
ATOM     21  C   UNL     1     130.422 127.882 142.542  1.00  0.00    -0.027 C 
ATOM     22  C   UNL     1     129.502 130.457 141.441  1.00  0.00    -0.023 C 
ATOM     23  C   UNL     1     129.063 128.371 142.931  1.00  0.00     0.031 C 
ATOM     24  C   UNL     1     128.991 129.898 142.839  1.00  0.00     0.002 C 
ATOM     25  C   UNL     1     130.448 131.686 141.666  1.00  0.00     0.010 C 
ATOM     26  C   UNL     1     128.272 130.956 140.636  1.00  0.00     0.012 C 
ATOM     27  C   UNL     1     129.710 130.533 144.055  1.00  0.00     0.036 C 
ATOM     28  C   UNL     1     129.928 132.700 142.698  1.00  0.00     0.032 C 
ATOM     29  C   UNL     1     129.548 132.063 144.055  1.00  0.00     0.114 C 
BRANCH  29  30
ATOM     30  O   UNL     1     128.217 132.395 144.365  1.00  0.00    -0.393 OA
ATOM     31  H   UNL     1     128.207 132.719 145.303  1.00  0.00     0.210 HD
ENDBRANCH  29  30
ENDBRANCH   1  11
TORSDOF 6
ENDMDL
MODEL 5
REMARK VINA RESULT:    -8.606      1.836      3.675
REMARK INTER + INTRA:         -12.111
REMARK INTER:                 -11.223
REMARK INTRA:                  -0.887
REMARK UNBOUND:                -0.737
REMARK SMILES CC[C@H](C=C[C@H](C)[C@@H]1CC[C@H]2C3=CC[C@H]4C[C@H](O)CC[C@@]4(C)[C@@H]3CC[C@]21C)C(C)C
REMARK SMILES IDX 6 1 7 2 5 3 4 4 3 5 2 6 1 7 28 8 29 9 30 10 8 11 9 12 26 13
REMARK SMILES IDX 10 14 11 15 25 16 27 17 12 18 24 19 23 20 13 21 21 22 14 23
REMARK SMILES IDX 15 24 20 25 22 26 16 27 19 28 17 29 18 30
REMARK H PARENT 18 31
REMARK Flexibility Score: inf
ROOT
ATOM      1  C   UNL     1     134.517 124.504 138.778  1.00  0.00     0.012 C 
ATOM      2  C   UNL     1     135.582 124.890 137.736  1.00  0.00     0.012 C 
ENDROOT
BRANCH   1   3
ATOM      3  C   UNL     1     135.161 123.522 139.737  1.00  0.00    -0.028 C 
ATOM      4  C   UNL     1     135.441 122.264 139.360  1.00  0.00    -0.027 C 
BRANCH   4   5
ATOM      5  C   UNL     1     136.203 121.310 140.257  1.00  0.00     0.014 C 
BRANCH   5   6
ATOM      6  C   UNL     1     135.191 120.460 141.067  1.00  0.00     0.004 C 
ATOM      7  C   UNL     1     133.766 120.515 140.512  1.00  0.00     0.004 C 
ENDBRANCH   5   6
BRANCH   5   8
ATOM      8  C   UNL     1     137.221 120.446 139.443  1.00  0.00    -0.011 C 
ATOM      9  C   UNL     1     136.531 119.708 138.285  1.00  0.00     0.008 C 
ATOM     10  C   UNL     1     138.011 119.443 140.303  1.00  0.00     0.008 C 
ENDBRANCH   5   8
ENDBRANCH   4   5
ENDBRANCH   1   3
BRANCH   1  11
ATOM     11  C   UNL     1     133.977 125.770 139.524  1.00  0.00     0.002 C 
ATOM     12  C   UNL     1     134.232 125.753 141.041  1.00  0.00     0.005 C 
ATOM     13  C   UNL     1     132.442 126.136 139.358  1.00  0.00    -0.023 C 
ATOM     14  C   UNL     1     133.228 126.730 141.621  1.00  0.00     0.009 C 
ATOM     15  C   UNL     1     131.975 126.440 140.822  1.00  0.00     0.021 C 
ATOM     16  C   UNL     1     132.305 127.366 138.377  1.00  0.00     0.008 C 
ATOM     17  C   UNL     1     131.551 124.979 138.831  1.00  0.00     0.012 C 
ATOM     18  C   UNL     1     130.909 127.513 140.911  1.00  0.00    -0.067 C 
ATOM     19  C   UNL     1     131.092 128.283 138.626  1.00  0.00     0.009 C 
ATOM     20  C   UNL     1     131.110 128.763 140.093  1.00  0.00     0.021 C 
ATOM     21  C   UNL     1     129.672 127.171 141.313  1.00  0.00    -0.027 C 
ATOM     22  C   UNL     1     130.148 129.967 140.513  1.00  0.00    -0.023 C 
ATOM     23  C   UNL     1     128.492 128.007 140.933  1.00  0.00     0.031 C 
ATOM     24  C   UNL     1     128.780 129.492 141.172  1.00  0.00     0.002 C 
ATOM     25  C   UNL     1     130.953 130.851 141.526  1.00  0.00     0.010 C 
ATOM     26  C   UNL     1     129.815 130.854 139.284  1.00  0.00     0.012 C 
ATOM     27  C   UNL     1     128.683 129.811 142.684  1.00  0.00     0.036 C 
ATOM     28  C   UNL     1     130.104 131.904 142.258  1.00  0.00     0.032 C 
ATOM     29  C   UNL     1     128.847 131.318 142.942  1.00  0.00     0.114 C 
BRANCH  29  30
ATOM     30  O   UNL     1     127.708 132.002 142.481  1.00  0.00    -0.393 OA
ATOM     31  H   UNL     1     128.002 132.908 142.205  1.00  0.00     0.210 HD
ENDBRANCH  29  30
ENDBRANCH   1  11
TORSDOF 6
ENDMDL
MODEL 6
REMARK VINA RESULT:    -8.587      3.028      8.725
REMARK INTER + INTRA:         -12.085
REMARK INTER:                 -11.306
REMARK INTRA:                  -0.779
REMARK UNBOUND:                -0.737
REMARK SMILES CC[C@H](C=C[C@H](C)[C@@H]1CC[C@H]2C3=CC[C@H]4C[C@H](O)CC[C@@]4(C)[C@@H]3CC[C@]21C)C(C)C
REMARK SMILES IDX 6 1 7 2 5 3 4 4 3 5 2 6 1 7 28 8 29 9 30 10 8 11 9 12 26 13
REMARK SMILES IDX 10 14 11 15 25 16 27 17 12 18 24 19 23 20 13 21 21 22 14 23
REMARK SMILES IDX 15 24 20 25 22 26 16 27 19 28 17 29 18 30
REMARK H PARENT 18 31
REMARK Flexibility Score: inf
ROOT
ATOM      1  C   UNL     1     133.923 127.883 139.768  1.00  0.00     0.012 C 
ATOM      2  C   UNL     1     133.674 128.896 138.636  1.00  0.00     0.012 C 
ENDROOT
BRANCH   1   3
ATOM      3  C   UNL     1     132.638 127.777 140.566  1.00  0.00    -0.028 C 
ATOM      4  C   UNL     1     131.445 127.691 139.956  1.00  0.00    -0.027 C 
BRANCH   4   5
ATOM      5  C   UNL     1     130.165 127.452 140.731  1.00  0.00     0.014 C 
BRANCH   5   6
ATOM      6  C   UNL     1     129.096 128.475 140.268  1.00  0.00     0.004 C 
ATOM      7  C   UNL     1     127.929 128.623 141.247  1.00  0.00     0.004 C 
ENDBRANCH   5   6
BRANCH   5   8
ATOM      8  C   UNL     1     129.690 125.966 140.609  1.00  0.00    -0.011 C 
ATOM      9  C   UNL     1     130.055 125.156 141.863  1.00  0.00     0.008 C 
ATOM     10  C   UNL     1     130.216 125.248 139.353  1.00  0.00     0.008 C 
ENDBRANCH   5   8
ENDBRANCH   4   5
ENDBRANCH   1   3
BRANCH   1  11
ATOM     11  C   UNL     1     134.361 126.494 139.192  1.00  0.00     0.002 C 
ATOM     12  C   UNL     1     133.506 126.015 138.006  1.00  0.00     0.005 C 
ATOM     13  C   UNL     1     134.429 125.261 140.189  1.00  0.00    -0.023 C 
ATOM     14  C   UNL     1     133.720 124.516 137.945  1.00  0.00     0.009 C 
ATOM     15  C   UNL     1     133.707 124.113 139.404  1.00  0.00     0.021 C 
ATOM     16  C   UNL     1     135.940 124.950 140.527  1.00  0.00     0.008 C 
ATOM     17  C   UNL     1     133.653 125.456 141.519  1.00  0.00     0.012 C 
ATOM     18  C   UNL     1     134.273 122.736 139.683  1.00  0.00    -0.067 C 
ATOM     19  C   UNL     1     136.260 123.477 140.846  1.00  0.00     0.009 C 
ATOM     20  C   UNL     1     135.774 122.587 139.683  1.00  0.00     0.021 C 
ATOM     21  C   UNL     1     133.514 121.839 140.339  1.00  0.00    -0.027 C 
ATOM     22  C   UNL     1     136.269 121.069 139.625  1.00  0.00    -0.023 C 
ATOM     23  C   UNL     1     134.149 120.712 141.089  1.00  0.00     0.031 C 
ATOM     24  C   UNL     1     135.228 120.034 140.238  1.00  0.00     0.002 C 
ATOM     25  C   UNL     1     136.528 120.739 138.115  1.00  0.00     0.010 C 
ATOM     26  C   UNL     1     137.617 120.907 140.376  1.00  0.00     0.012 C 
ATOM     27  C   UNL     1     134.565 119.125 139.174  1.00  0.00     0.036 C 
ATOM     28  C   UNL     1     136.744 119.245 137.825  1.00  0.00     0.032 C 
ATOM     29  C   UNL     1     135.624 118.338 138.384  1.00  0.00     0.114 C 
BRANCH  29  30
ATOM     30  O   UNL     1     136.196 117.356 139.214  1.00  0.00    -0.393 OA
ATOM     31  H   UNL     1     135.911 116.473 138.862  1.00  0.00     0.210 HD
ENDBRANCH  29  30
ENDBRANCH   1  11
TORSDOF 6
ENDMDL
MODEL 7
REMARK VINA RESULT:    -8.534      3.901      6.099
REMARK INTER + INTRA:         -12.016
REMARK INTER:                 -10.854
REMARK INTRA:                  -1.162
REMARK UNBOUND:                -0.737
REMARK SMILES CC[C@H](C=C[C@H](C)[C@@H]1CC[C@H]2C3=CC[C@H]4C[C@H](O)CC[C@@]4(C)[C@@H]3CC[C@]21C)C(C)C
REMARK SMILES IDX 6 1 7 2 5 3 4 4 3 5 2 6 1 7 28 8 29 9 30 10 8 11 9 12 26 13
REMARK SMILES IDX 10 14 11 15 25 16 27 17 12 18 24 19 23 20 13 21 21 22 14 23
REMARK SMILES IDX 15 24 20 25 22 26 16 27 19 28 17 29 18 30
REMARK H PARENT 18 31
REMARK Flexibility Score: inf
ROOT
ATOM      1  C   UNL     1     135.516 126.190 137.399  1.00  0.00     0.012 C 
ATOM      2  C   UNL     1     136.879 126.435 136.726  1.00  0.00     0.012 C 
ENDROOT
BRANCH   1   3
ATOM      3  C   UNL     1     135.750 125.238 138.555  1.00  0.00    -0.028 C 
ATOM      4  C   UNL     1     135.321 123.967 138.506  1.00  0.00    -0.027 C 
BRANCH   4   5
ATOM      5  C   UNL     1     135.660 122.965 139.592  1.00  0.00     0.014 C 
BRANCH   5   6
ATOM      6  C   UNL     1     136.705 123.592 140.550  1.00  0.00     0.004 C 
ATOM      7  C   UNL     1     136.100 124.126 141.849  1.00  0.00     0.004 C 
ENDBRANCH   5   6
BRANCH   5   8
ATOM      8  C   UNL     1     134.376 122.459 140.327  1.00  0.00    -0.011 C 
ATOM      9  C   UNL     1     134.306 120.924 140.343  1.00  0.00     0.008 C 
ATOM     10  C   UNL     1     133.067 123.034 139.755  1.00  0.00     0.008 C 
ENDBRANCH   5   8
ENDBRANCH   4   5
ENDBRANCH   1   3
BRANCH   1  11
ATOM     11  C   UNL     1     134.878 127.537 137.880  1.00  0.00     0.002 C 
ATOM     12  C   UNL     1     134.282 127.471 139.297  1.00  0.00     0.005 C 
ATOM     13  C   UNL     1     133.751 128.194 136.977  1.00  0.00    -0.023 C 
ATOM     14  C   UNL     1     133.299 128.623 139.365  1.00  0.00     0.009 C 
ATOM     15  C   UNL     1     132.635 128.582 138.005  1.00  0.00     0.021 C 
ATOM     16  C   UNL     1     134.361 129.427 136.202  1.00  0.00     0.008 C 
ATOM     17  C   UNL     1     133.101 127.232 135.946  1.00  0.00     0.012 C 
ATOM     18  C   UNL     1     131.878 129.841 137.635  1.00  0.00    -0.067 C 
ATOM     19  C   UNL     1     133.371 130.562 135.875  1.00  0.00     0.009 C 
ATOM     20  C   UNL     1     132.684 131.029 137.176  1.00  0.00     0.021 C 
ATOM     21  C   UNL     1     130.580 129.745 137.295  1.00  0.00    -0.027 C 
ATOM     22  C   UNL     1     131.859 132.396 137.155  1.00  0.00    -0.023 C 
ATOM     23  C   UNL     1     129.939 130.794 136.444  1.00  0.00     0.031 C 
ATOM     24  C   UNL     1     130.295 132.195 136.950  1.00  0.00     0.002 C 
ATOM     25  C   UNL     1     132.135 133.107 138.524  1.00  0.00     0.010 C 
ATOM     26  C   UNL     1     132.381 133.331 136.031  1.00  0.00     0.012 C 
ATOM     27  C   UNL     1     129.462 132.526 138.213  1.00  0.00     0.036 C 
ATOM     28  C   UNL     1     131.212 134.304 138.809  1.00  0.00     0.032 C 
ATOM     29  C   UNL     1     129.709 133.973 138.673  1.00  0.00     0.114 C 
BRANCH  29  30
ATOM     30  O   UNL     1     129.119 134.864 137.758  1.00  0.00    -0.393 OA
ATOM     31  H   UNL     1     128.140 134.842 137.917  1.00  0.00     0.210 HD
ENDBRANCH  29  30
ENDBRANCH   1  11
TORSDOF 6
ENDMDL
MODEL 8
REMARK VINA RESULT:    -8.423      4.298     10.342
REMARK INTER + INTRA:         -11.868
REMARK INTER:                 -10.497
REMARK INTRA:                  -1.371
REMARK UNBOUND:                -0.737
REMARK SMILES CC[C@H](C=C[C@H](C)[C@@H]1CC[C@H]2C3=CC[C@H]4C[C@H](O)CC[C@@]4(C)[C@@H]3CC[C@]21C)C(C)C
REMARK SMILES IDX 6 1 7 2 5 3 4 4 3 5 2 6 1 7 28 8 29 9 30 10 8 11 9 12 26 13
REMARK SMILES IDX 10 14 11 15 25 16 27 17 12 18 24 19 23 20 13 21 21 22 14 23
REMARK SMILES IDX 15 24 20 25 22 26 16 27 19 28 17 29 18 30
REMARK H PARENT 18 31
REMARK Flexibility Score: inf
ROOT
ATOM      1  C   UNL     1     129.387 131.130 139.519  1.00  0.00     0.012 C 
ATOM      2  C   UNL     1     128.459 131.488 140.694  1.00  0.00     0.012 C 
ENDROOT
BRANCH   1   3
ATOM      3  C   UNL     1     130.072 132.410 139.082  1.00  0.00    -0.028 C 
ATOM      4  C   UNL     1     130.279 132.680 137.783  1.00  0.00    -0.027 C 
BRANCH   4   5
ATOM      5  C   UNL     1     130.840 134.010 137.321  1.00  0.00     0.014 C 
BRANCH   5   6
ATOM      6  C   UNL     1     131.479 134.737 138.531  1.00  0.00     0.004 C 
ATOM      7  C   UNL     1     130.773 136.043 138.901  1.00  0.00     0.004 C 
ENDBRANCH   5   6
BRANCH   5   8
ATOM      8  C   UNL     1     131.826 133.830 136.119  1.00  0.00    -0.011 C 
ATOM      9  C   UNL     1     132.149 132.348 135.876  1.00  0.00     0.008 C 
ATOM     10  C   UNL     1     133.132 134.632 136.264  1.00  0.00     0.008 C 
ENDBRANCH   5   8
ENDBRANCH   4   5
ENDBRANCH   1   3
BRANCH   1  11
ATOM     11  C   UNL     1     130.424 130.034 139.936  1.00  0.00     0.002 C 
ATOM     12  C   UNL     1     131.800 130.597 140.329  1.00  0.00     0.005 C 
ATOM     13  C   UNL     1     130.724 128.862 138.909  1.00  0.00    -0.023 C 
ATOM     14  C   UNL     1     132.760 129.433 140.183  1.00  0.00     0.009 C 
ATOM     15  C   UNL     1     132.288 128.764 138.910  1.00  0.00     0.021 C 
ATOM     16  C   UNL     1     130.003 127.546 139.398  1.00  0.00     0.008 C 
ATOM     17  C   UNL     1     130.291 129.152 137.447  1.00  0.00     0.012 C 
ATOM     18  C   UNL     1     132.810 127.356 138.708  1.00  0.00    -0.067 C 
ATOM     19  C   UNL     1     130.694 126.225 139.008  1.00  0.00     0.009 C 
ATOM     20  C   UNL     1     132.157 126.251 139.499  1.00  0.00     0.021 C 
ATOM     21  C   UNL     1     133.471 127.062 137.574  1.00  0.00    -0.027 C 
ATOM     22  C   UNL     1     132.986 124.885 139.501  1.00  0.00    -0.023 C 
ATOM     23  C   UNL     1     133.541 125.652 137.080  1.00  0.00     0.031 C 
ATOM     24  C   UNL     1     133.907 124.696 138.218  1.00  0.00     0.002 C 
ATOM     25  C   UNL     1     133.866 124.897 140.798  1.00  0.00     0.010 C 
ATOM     26  C   UNL     1     132.029 123.667 139.598  1.00  0.00     0.012 C 
ATOM     27  C   UNL     1     135.421 124.800 138.528  1.00  0.00     0.036 C 
ATOM     28  C   UNL     1     134.940 123.798 140.840  1.00  0.00     0.032 C 
ATOM     29  C   UNL     1     135.841 123.764 139.584  1.00  0.00     0.114 C 
BRANCH  29  30
ATOM     30  O   UNL     1     135.801 122.475 139.021  1.00  0.00    -0.393 OA
ATOM     31  H   UNL     1     136.658 122.030 139.247  1.00  0.00     0.210 HD
ENDBRANCH  29  30
ENDBRANCH   1  11
TORSDOF 6
ENDMDL
MODEL 9
REMARK VINA RESULT:    -7.044      2.234      4.024
REMARK INTER + INTRA:         -10.046
REMARK INTER:                  -9.081
REMARK INTRA:                  -0.965
REMARK UNBOUND:                -0.737
REMARK SMILES CC[C@H](C=C[C@H](C)[C@@H]1CC[C@H]2C3=CC[C@H]4C[C@H](O)CC[C@@]4(C)[C@@H]3CC[C@]21C)C(C)C
REMARK SMILES IDX 6 1 7 2 5 3 4 4 3 5 2 6 1 7 28 8 29 9 30 10 8 11 9 12 26 13
REMARK SMILES IDX 10 14 11 15 25 16 27 17 12 18 24 19 23 20 13 21 21 22 14 23
REMARK SMILES IDX 15 24 20 25 22 26 16 27 19 28 17 29 18 30
REMARK H PARENT 18 31
REMARK Flexibility Score: inf
ROOT
ATOM      1  C   UNL     1     134.745 122.703 139.821  1.00  0.00     0.012 C 
ATOM      2  C   UNL     1     133.548 121.755 140.019  1.00  0.00     0.012 C 
ENDROOT
BRANCH   1   3
ATOM      3  C   UNL     1     135.847 121.902 139.157  1.00  0.00    -0.028 C 
ATOM      4  C   UNL     1     135.866 120.561 139.219  1.00  0.00    -0.027 C 
BRANCH   4   5
ATOM      5  C   UNL     1     136.882 119.738 138.453  1.00  0.00     0.014 C 
BRANCH   5   6
ATOM      6  C   UNL     1     138.205 119.692 139.259  1.00  0.00     0.004 C 
ATOM      7  C   UNL     1     137.996 119.603 140.772  1.00  0.00     0.004 C 
ENDBRANCH   5   6
BRANCH   5   8
ATOM      8  C   UNL     1     136.324 118.319 138.102  1.00  0.00    -0.011 C 
ATOM      9  C   UNL     1     136.052 118.180 136.596  1.00  0.00     0.008 C 
ATOM     10  C   UNL     1     135.063 117.935 138.897  1.00  0.00     0.008 C 
ENDBRANCH   5   8
ENDBRANCH   4   5
ENDBRANCH   1   3
BRANCH   1  11
ATOM     11  C   UNL     1     134.338 123.948 138.962  1.00  0.00     0.002 C 
ATOM     12  C   UNL     1     135.524 124.634 138.262  1.00  0.00     0.005 C 
ATOM     13  C   UNL     1     133.534 125.116 139.675  1.00  0.00    -0.023 C 
ATOM     14  C   UNL     1     135.039 126.035 137.948  1.00  0.00     0.009 C 
ATOM     15  C   UNL     1     134.268 126.414 139.194  1.00  0.00     0.021 C 
ATOM     16  C   UNL     1     132.019 125.043 139.240  1.00  0.00     0.008 C 
ATOM     17  C   UNL     1     133.608 125.103 141.225  1.00  0.00     0.012 C 
ATOM     18  C   UNL     1     133.350 127.607 139.029  1.00  0.00    -0.067 C 
ATOM     19  C   UNL     1     131.269 126.389 139.214  1.00  0.00     0.009 C 
ATOM     20  C   UNL     1     132.039 127.383 138.319  1.00  0.00     0.021 C 
ATOM     21  C   UNL     1     133.487 128.656 139.861  1.00  0.00    -0.027 C 
ATOM     22  C   UNL     1     131.309 128.734 137.876  1.00  0.00    -0.023 C 
ATOM     23  C   UNL     1     132.341 129.585 140.106  1.00  0.00     0.031 C 
ATOM     24  C   UNL     1     131.677 129.986 138.785  1.00  0.00     0.002 C 
ATOM     25  C   UNL     1     131.733 129.005 136.391  1.00  0.00     0.010 C 
ATOM     26  C   UNL     1     129.768 128.552 137.895  1.00  0.00     0.012 C 
ATOM     27  C   UNL     1     132.546 131.040 138.057  1.00  0.00     0.036 C 
ATOM     28  C   UNL     1     131.357 130.404 135.875  1.00  0.00     0.032 C 
ATOM     29  C   UNL     1     131.845 131.552 136.788  1.00  0.00     0.114 C 
BRANCH  29  30
ATOM     30  O   UNL     1     130.747 132.355 137.147  1.00  0.00    -0.393 OA
ATOM     31  H   UNL     1     130.324 132.667 136.306  1.00  0.00     0.210 HD
ENDBRANCH  29  30
ENDBRANCH   1  11
TORSDOF 6
ENDMDL
