MODEL 1
REMARK VINA RESULT:    -8.204      0.000      0.000
REMARK INTER + INTRA:         -10.894
REMARK INTER:                 -10.122
REMARK INTRA:                  -0.772
REMARK UNBOUND:                -0.772
REMARK SMILES CC(C)=CCC[C@@H](C)c1ccc(C)cc1
REMARK SMILES IDX 6 1 7 2 8 3 9 4 13 5 12 6 11 7 14 8 10 9 15 10 5 11 4 12
REMARK SMILES IDX 2 13 1 14 3 15
REMARK H PARENT
REMARK Flexibility Score: inf
ROOT
ATOM      1  C   UNL     1     101.548 101.179 101.004  1.00  0.00     0.012 C 
ENDROOT
BRANCH   1   2
ATOM      2  C   UNL     1     102.580 100.770 102.084  1.00  0.00     0.016 C 
ATOM      3  C   UNL     1     102.325 101.479 103.423  1.00  0.00     0.013 C 
BRANCH   2   4
ATOM      4  C   UNL     1     102.575  99.264 102.283  1.00  0.00    -0.045 A 
ATOM      5  C   UNL     1     102.556  94.988 102.892  1.00  0.00     0.044 C 
ATOM      6  C   UNL     1     102.544  96.469 102.656  1.00  0.00    -0.051 A 
ATOM      7  C   UNL     1     101.627  97.285 103.335  1.00  0.00     0.004 A 
ATOM      8  C   UNL     1     103.494  97.059 101.810  1.00  0.00     0.004 A 
ATOM      9  C   UNL     1     101.638  98.670 103.145  1.00  0.00     0.004 A 
ATOM     10  C   UNL     1     103.506  98.443 101.619  1.00  0.00     0.004 A 
ENDBRANCH   2   4
ENDBRANCH   1   2
BRANCH   1  11
ATOM     11  C   UNL     1     100.214 101.674 101.585  1.00  0.00     0.028 C 
BRANCH  11  12
ATOM     12  C   UNL     1      99.085 100.724 101.255  1.00  0.00    -0.028 C 
ATOM     13  C   UNL     1      98.268 100.833 100.184  1.00  0.00    -0.080 C 
ATOM     14  C   UNL     1      97.202  99.785  99.987  1.00  0.00     0.039 C 
ATOM     15  C   UNL     1      98.393 101.961  99.189  1.00  0.00     0.039 C 
ENDBRANCH  11  12
ENDBRANCH   1  11
TORSDOF 4
ENDMDL
MODEL 2
REMARK VINA RESULT:    -8.195      0.139      1.258
REMARK INTER + INTRA:         -10.883
REMARK INTER:                 -10.128
REMARK INTRA:                  -0.755
REMARK UNBOUND:                -0.772
REMARK SMILES CC(C)=CCC[C@@H](C)c1ccc(C)cc1
REMARK SMILES IDX 6 1 7 2 8 3 9 4 13 5 12 6 11 7 14 8 10 9 15 10 5 11 4 12
REMARK SMILES IDX 2 13 1 14 3 15
REMARK H PARENT
REMARK Flexibility Score: inf
ROOT
ATOM      1  C   UNL     1     101.576 101.098 101.017  1.00  0.00     0.012 C 
ENDROOT
BRANCH   1   2
ATOM      2  C   UNL     1     102.602 100.665 102.093  1.00  0.00     0.016 C 
ATOM      3  C   UNL     1     102.402 101.419 103.417  1.00  0.00     0.013 C 
BRANCH   2   4
ATOM      4  C   UNL     1     102.526  99.167 102.331  1.00  0.00    -0.045 A 
ATOM      5  C   UNL     1     102.317  94.898 102.963  1.00  0.00     0.044 C 
ATOM      6  C   UNL     1     102.408  96.383 102.768  1.00  0.00    -0.051 A 
ATOM      7  C   UNL     1     103.373  96.925 101.907  1.00  0.00     0.004 A 
ATOM      8  C   UNL     1     101.485  97.236 103.390  1.00  0.00     0.004 A 
ATOM      9  C   UNL     1     103.437  98.305 101.695  1.00  0.00     0.004 A 
ATOM     10  C   UNL     1     101.547  98.616 103.180  1.00  0.00     0.004 A 
ENDBRANCH   2   4
ENDBRANCH   1   2
BRANCH   1  11
ATOM     11  C   UNL     1     100.254 101.617 101.604  1.00  0.00     0.028 C 
BRANCH  11  12
ATOM     12  C   UNL     1      99.099 100.710 101.243  1.00  0.00    -0.028 C 
ATOM     13  C   UNL     1      98.309 100.854 100.156  1.00  0.00    -0.080 C 
ATOM     14  C   UNL     1      97.212  99.846  99.929  1.00  0.00     0.039 C 
ATOM     15  C   UNL     1      98.494 101.983  99.172  1.00  0.00     0.039 C 
ENDBRANCH  11  12
ENDBRANCH   1  11
TORSDOF 4
ENDMDL
MODEL 3
REMARK VINA RESULT:    -7.999      1.018      5.606
REMARK INTER + INTRA:         -10.642
REMARK INTER:                  -9.876
REMARK INTRA:                  -0.766
REMARK UNBOUND:                -0.772
REMARK SMILES CC(C)=CCC[C@@H](C)c1ccc(C)cc1
REMARK SMILES IDX 6 1 7 2 8 3 9 4 13 5 12 6 11 7 14 8 10 9 15 10 5 11 4 12
REMARK SMILES IDX 2 13 1 14 3 15
REMARK H PARENT
REMARK Flexibility Score: inf
ROOT
ATOM      1  C   UNL     1     103.350  99.513 101.807  1.00  0.00     0.012 C 
ENDROOT
BRANCH   1   2
ATOM      2  C   UNL     1     102.192 100.107 102.646  1.00  0.00     0.016 C 
ATOM      3  C   UNL     1     102.655 101.288 103.513  1.00  0.00     0.013 C 
BRANCH   2   4
ATOM      4  C   UNL     1     101.048 100.540 101.745  1.00  0.00    -0.045 A 
ATOM      5  C   UNL     1      97.815 101.807  99.176  1.00  0.00     0.044 C 
ATOM      6  C   UNL     1      98.938 101.340 100.054  1.00  0.00    -0.051 A 
ATOM      7  C   UNL     1     100.267 101.633  99.716  1.00  0.00     0.004 A 
ATOM      8  C   UNL     1      98.666 100.668 101.254  1.00  0.00     0.004 A 
ATOM      9  C   UNL     1     101.314 101.230 100.550  1.00  0.00     0.004 A 
ATOM     10  C   UNL     1      99.711 100.264 102.090  1.00  0.00     0.004 A 
ENDBRANCH   2   4
ENDBRANCH   1   2
BRANCH   1  11
ATOM     11  C   UNL     1     103.396  97.977 101.828  1.00  0.00     0.028 C 
BRANCH  11  12
ATOM     12  C   UNL     1     102.551  97.417 102.950  1.00  0.00    -0.028 C 
ATOM     13  C   UNL     1     102.362  96.102 103.197  1.00  0.00    -0.080 C 
ATOM     14  C   UNL     1     101.505  95.710 104.374  1.00  0.00     0.039 C 
ATOM     15  C   UNL     1     102.978  95.026 102.338  1.00  0.00     0.039 C 
ENDBRANCH  11  12
ENDBRANCH   1  11
TORSDOF 4
ENDMDL
MODEL 4
REMARK VINA RESULT:    -7.355      1.954      6.992
REMARK INTER + INTRA:          -9.846
REMARK INTER:                  -9.418
REMARK INTRA:                  -0.428
REMARK UNBOUND:                -0.772
REMARK SMILES CC(C)=CCC[C@@H](C)c1ccc(C)cc1
REMARK SMILES IDX 6 1 7 2 8 3 9 4 13 5 12 6 11 7 14 8 10 9 15 10 5 11 4 12
REMARK SMILES IDX 2 13 1 14 3 15
REMARK H PARENT
REMARK Flexibility Score: inf
ROOT
ATOM      1  C   UNL     1      99.982 101.744  99.741  1.00  0.00     0.012 C 
ENDROOT
BRANCH   1   2
ATOM      2  C   UNL     1      98.857 100.769 100.169  1.00  0.00     0.016 C 
ATOM      3  C   UNL     1      98.751 100.645 101.697  1.00  0.00     0.013 C 
BRANCH   2   4
ATOM      4  C   UNL     1      97.523 101.205  99.588  1.00  0.00    -0.045 A 
ATOM      5  C   UNL     1      93.744 102.486  97.935  1.00  0.00     0.044 C 
ATOM      6  C   UNL     1      95.057 102.018  98.489  1.00  0.00    -0.051 A 
ATOM      7  C   UNL     1      96.257 102.584  98.033  1.00  0.00     0.004 A 
ATOM      8  C   UNL     1      95.093 101.063  99.514  1.00  0.00     0.004 A 
ATOM      9  C   UNL     1      97.480 102.176  98.573  1.00  0.00     0.004 A 
ATOM     10  C   UNL     1      96.315 100.654 100.055  1.00  0.00     0.004 A 
ENDBRANCH   2   4
ENDBRANCH   1   2
BRANCH   1  11
ATOM     11  C   UNL     1     101.108 101.875 100.779  1.00  0.00     0.028 C 
BRANCH  11  12
ATOM     12  C   UNL     1     101.906 100.594 100.887  1.00  0.00    -0.028 C 
ATOM     13  C   UNL     1     102.588 100.196 101.983  1.00  0.00    -0.080 C 
ATOM     14  C   UNL     1     103.316  98.877 101.934  1.00  0.00     0.039 C 
ATOM     15  C   UNL     1     102.641 101.025 103.243  1.00  0.00     0.039 C 
ENDBRANCH  11  12
ENDBRANCH   1  11
TORSDOF 4
ENDMDL
MODEL 5
REMARK VINA RESULT:    -7.226      2.785      4.760
REMARK INTER + INTRA:          -9.687
REMARK INTER:                  -9.055
REMARK INTRA:                  -0.632
REMARK UNBOUND:                -0.772
REMARK SMILES CC(C)=CCC[C@@H](C)c1ccc(C)cc1
REMARK SMILES IDX 6 1 7 2 8 3 9 4 13 5 12 6 11 7 14 8 10 9 15 10 5 11 4 12
REMARK SMILES IDX 2 13 1 14 3 15
REMARK H PARENT
REMARK Flexibility Score: inf
ROOT
ATOM      1  C   UNL     1      98.210 102.123  98.526  1.00  0.00     0.012 C 
ENDROOT
BRANCH   1   2
ATOM      2  C   UNL     1      97.909 101.365  99.842  1.00  0.00     0.016 C 
ATOM      3  C   UNL     1      97.355  99.956  99.583  1.00  0.00     0.013 C 
BRANCH   2   4
ATOM      4  C   UNL     1      99.155 101.284 100.708  1.00  0.00    -0.045 A 
ATOM      5  C   UNL     1     102.673 101.064 103.205  1.00  0.00     0.044 C 
ATOM      6  C   UNL     1     101.459 101.113 102.325  1.00  0.00    -0.051 A 
ATOM      7  C   UNL     1     100.226 100.638 102.796  1.00  0.00     0.004 A 
ATOM      8  C   UNL     1     101.530 101.697 101.053  1.00  0.00     0.004 A 
ATOM      9  C   UNL     1      99.085 100.716 101.992  1.00  0.00     0.004 A 
ATOM     10  C   UNL     1     100.390 101.776 100.247  1.00  0.00     0.004 A 
ENDBRANCH   2   4
ENDBRANCH   1   2
BRANCH   1  11
ATOM     11  C   UNL     1      97.373 103.400  98.348  1.00  0.00     0.028 C 
BRANCH  11  12
ATOM     12  C   UNL     1      95.897 103.117  98.520  1.00  0.00    -0.028 C 
ATOM     13  C   UNL     1      95.142 102.390  97.668  1.00  0.00    -0.080 C 
ATOM     14  C   UNL     1      93.686 102.183  97.999  1.00  0.00     0.039 C 
ATOM     15  C   UNL     1      95.709 101.785  96.407  1.00  0.00     0.039 C 
ENDBRANCH  11  12
ENDBRANCH   1  11
TORSDOF 4
ENDMDL
MODEL 6
REMARK VINA RESULT:    -7.214      1.211      6.037
REMARK INTER + INTRA:          -9.673
REMARK INTER:                  -8.945
REMARK INTRA:                  -0.728
REMARK UNBOUND:                -0.772
REMARK SMILES CC(C)=CCC[C@@H](C)c1ccc(C)cc1
REMARK SMILES IDX 6 1 7 2 8 3 9 4 13 5 12 6 11 7 14 8 10 9 15 10 5 11 4 12
REMARK SMILES IDX 2 13 1 14 3 15
REMARK H PARENT
REMARK Flexibility Score: inf
ROOT
ATOM      1  C   UNL     1     100.108 100.933 102.231  1.00  0.00     0.012 C 
ENDROOT
BRANCH   1   2
ATOM      2  C   UNL     1      99.938 101.786 100.950  1.00  0.00     0.016 C 
ATOM      3  C   UNL     1     101.149 101.665 100.012  1.00  0.00     0.013 C 
BRANCH   2   4
ATOM      4  C   UNL     1      98.668 101.397 100.213  1.00  0.00    -0.045 A 
ATOM      5  C   UNL     1      95.068 100.248  98.122  1.00  0.00     0.044 C 
ATOM      6  C   UNL     1      96.301 100.665  98.866  1.00  0.00    -0.051 A 
ATOM      7  C   UNL     1      96.769  99.899  99.944  1.00  0.00     0.004 A 
ATOM      8  C   UNL     1      97.035 101.784  98.449  1.00  0.00     0.004 A 
ATOM      9  C   UNL     1      97.938 100.265 100.616  1.00  0.00     0.004 A 
ATOM     10  C   UNL     1      98.205 102.152  99.120  1.00  0.00     0.004 A 
ENDBRANCH   2   4
ENDBRANCH   1   2
BRANCH   1  11
ATOM     11  C   UNL     1     101.560 100.854 102.728  1.00  0.00     0.028 C 
BRANCH  11  12
ATOM     12  C   UNL     1     101.888  99.473 103.249  1.00  0.00    -0.028 C 
ATOM     13  C   UNL     1     102.558  98.523 102.560  1.00  0.00    -0.080 C 
ATOM     14  C   UNL     1     102.824  97.201 103.236  1.00  0.00     0.039 C 
ATOM     15  C   UNL     1     103.044  98.745 101.149  1.00  0.00     0.039 C 
ENDBRANCH  11  12
ENDBRANCH   1  11
TORSDOF 4
ENDMDL
MODEL 7
REMARK VINA RESULT:    -7.173      1.839      3.035
REMARK INTER + INTRA:          -9.623
REMARK INTER:                  -9.218
REMARK INTRA:                  -0.404
REMARK UNBOUND:                -0.772
REMARK SMILES CC(C)=CCC[C@@H](C)c1ccc(C)cc1
REMARK SMILES IDX 6 1 7 2 8 3 9 4 13 5 12 6 11 7 14 8 10 9 15 10 5 11 4 12
REMARK SMILES IDX 2 13 1 14 3 15
REMARK H PARENT
REMARK Flexibility Score: inf
ROOT
ATOM      1  C   UNL     1      99.015 101.042  99.861  1.00  0.00     0.012 C 
ENDROOT
BRANCH   1   2
ATOM      2  C   UNL     1     100.454 101.422 100.291  1.00  0.00     0.016 C 
ATOM      3  C   UNL     1     100.488 102.729 101.098  1.00  0.00     0.013 C 
BRANCH   2   4
ATOM      4  C   UNL     1     101.085 100.298 101.094  1.00  0.00    -0.045 A 
ATOM      5  C   UNL     1     102.888  97.077 103.338  1.00  0.00     0.044 C 
ATOM      6  C   UNL     1     102.279  98.216 102.575  1.00  0.00    -0.051 A 
ATOM      7  C   UNL     1     102.831  98.622 101.352  1.00  0.00     0.004 A 
ATOM      8  C   UNL     1     101.112  98.838 103.042  1.00  0.00     0.004 A 
ATOM      9  C   UNL     1     102.244  99.658 100.620  1.00  0.00     0.004 A 
ATOM     10  C   UNL     1     100.524  99.874 102.313  1.00  0.00     0.004 A 
ENDBRANCH   2   4
ENDBRANCH   1   2
BRANCH   1  11
ATOM     11  C   UNL     1      98.338 102.104  98.979  1.00  0.00     0.028 C 
BRANCH  11  12
ATOM     12  C   UNL     1      96.920 101.708  98.635  1.00  0.00    -0.028 C 
ATOM     13  C   UNL     1      96.083 102.425  97.853  1.00  0.00    -0.080 C 
ATOM     14  C   UNL     1      94.704 101.876  97.589  1.00  0.00     0.039 C 
ATOM     15  C   UNL     1      96.485 103.745  97.242  1.00  0.00     0.039 C 
ENDBRANCH  11  12
ENDBRANCH   1  11
TORSDOF 4
ENDMDL
MODEL 8
REMARK VINA RESULT:    -7.066      2.419      4.641
REMARK INTER + INTRA:          -9.490
REMARK INTER:                  -8.815
REMARK INTRA:                  -0.675
REMARK UNBOUND:                -0.772
REMARK SMILES CC(C)=CCC[C@@H](C)c1ccc(C)cc1
REMARK SMILES IDX 6 1 7 2 8 3 9 4 13 5 12 6 11 7 14 8 10 9 15 10 5 11 4 12
REMARK SMILES IDX 2 13 1 14 3 15
REMARK H PARENT
REMARK Flexibility Score: inf
ROOT
ATOM      1  C   UNL     1      97.765 100.067  99.843  1.00  0.00     0.012 C 
ENDROOT
BRANCH   1   2
ATOM      2  C   UNL     1      98.895 101.042  99.429  1.00  0.00     0.016 C 
ATOM      3  C   UNL     1      98.359 102.449  99.125  1.00  0.00     0.013 C 
BRANCH   2   4
ATOM      4  C   UNL     1      99.961 101.112 100.509  1.00  0.00    -0.045 A 
ATOM      5  C   UNL     1     102.991 101.267 103.584  1.00  0.00     0.044 C 
ATOM      6  C   UNL     1     101.955 101.232 102.499  1.00  0.00    -0.051 A 
ATOM      7  C   UNL     1     101.976 100.213 101.536  1.00  0.00     0.004 A 
ATOM      8  C   UNL     1     100.919 102.176 102.478  1.00  0.00     0.004 A 
ATOM      9  C   UNL     1     100.991 100.156 100.545  1.00  0.00     0.004 A 
ATOM     10  C   UNL     1      99.934 102.122 101.489  1.00  0.00     0.004 A 
ENDBRANCH   2   4
ENDBRANCH   1   2
BRANCH   1  11
ATOM     11  C   UNL     1      96.353 100.618  99.584  1.00  0.00     0.028 C 
BRANCH  11  12
ATOM     12  C   UNL     1      95.755 100.029  98.326  1.00  0.00    -0.028 C 
ATOM     13  C   UNL     1      95.230 100.744  97.308  1.00  0.00    -0.080 C 
ATOM     14  C   UNL     1      94.693 100.000  96.111  1.00  0.00     0.039 C 
ATOM     15  C   UNL     1      95.167 102.251  97.333  1.00  0.00     0.039 C 
ENDBRANCH  11  12
ENDBRANCH   1  11
TORSDOF 4
ENDMDL
MODEL 9
REMARK VINA RESULT:    -6.621      2.413      6.568
REMARK INTER + INTRA:          -8.941
REMARK INTER:                  -8.137
REMARK INTRA:                  -0.804
REMARK UNBOUND:                -0.772
REMARK SMILES CC(C)=CCC[C@@H](C)c1ccc(C)cc1
REMARK SMILES IDX 6 1 7 2 8 3 9 4 13 5 12 6 11 7 14 8 10 9 15 10 5 11 4 12
REMARK SMILES IDX 2 13 1 14 3 15
REMARK H PARENT
REMARK Flexibility Score: inf
ROOT
ATOM      1  C   UNL     1      99.737  99.926 100.958  1.00  0.00     0.012 C 
ENDROOT
BRANCH   1   2
ATOM      2  C   UNL     1      99.546 101.338 100.351  1.00  0.00     0.016 C 
ATOM      3  C   UNL     1     100.739 101.757  99.479  1.00  0.00     0.013 C 
BRANCH   2   4
ATOM      4  C   UNL     1      98.261 101.403  99.544  1.00  0.00    -0.045 A 
ATOM      5  C   UNL     1      94.610 101.545  97.240  1.00  0.00     0.044 C 
ATOM      6  C   UNL     1      95.865 101.513  98.062  1.00  0.00    -0.051 A 
ATOM      7  C   UNL     1      96.098 100.457  98.954  1.00  0.00     0.004 A 
ATOM      8  C   UNL     1      96.846 102.501  97.894  1.00  0.00     0.004 A 
ATOM      9  C   UNL     1      97.283 100.406  99.694  1.00  0.00     0.004 A 
ATOM     10  C   UNL     1      98.031 102.452  98.633  1.00  0.00     0.004 A 
ENDBRANCH   2   4
ENDBRANCH   1   2
BRANCH   1  11
ATOM     11  C   UNL     1      99.920  99.933 102.484  1.00  0.00     0.028 C 
BRANCH  11  12
ATOM     12  C   UNL     1     101.379 100.060 102.861  1.00  0.00    -0.028 C 
ATOM     13  C   UNL     1     101.998 101.216 103.187  1.00  0.00    -0.080 C 
ATOM     14  C   UNL     1     103.457 101.166 103.562  1.00  0.00     0.039 C 
ATOM     15  C   UNL     1     101.277 102.542 103.187  1.00  0.00     0.039 C 
ENDBRANCH  11  12
ENDBRANCH   1  11
TORSDOF 4
ENDMDL
