MODEL 1
REMARK VINA RESULT:    -4.063      0.000      0.000
REMARK INTER + INTRA:          -4.420
REMARK INTER:                  -4.420
REMARK INTRA:                   0.000
REMARK UNBOUND:                 0.000
REMARK SMILES [NH3+]CC(=O)[O-]
REMARK SMILES IDX 2 1 1 2 3 6 4 7 5 8
REMARK H PARENT 1 3 1 4 1 5
REMARK Flexibility Score: inf
ROOT
ATOM      1  C   UNL     1      -0.676   1.559  -1.954  1.00  0.00     0.312 C 
ENDROOT
BRANCH   1   2
ATOM      2  N   UNL     1      -0.834   0.325  -1.188  1.00  0.00    -0.353 N 
ATOM      3  H   UNL     1      -0.958   0.546  -0.173  1.00  0.00     0.344 HD
ATOM      4  H   UNL     1      -1.680  -0.185  -1.530  1.00  0.00     0.344 HD
ATOM      5  H   UNL     1       0.005  -0.287  -1.317  1.00  0.00     0.344 HD
ENDBRANCH   1   2
BRANCH   1   6
ATOM      6  C   UNL     1       0.765   1.958  -2.023  1.00  0.00     0.096 C 
ATOM      7  O   UNL     1       1.258   2.709  -1.140  1.00  0.00    -0.544 OA
ATOM      8  O   UNL     1       1.577   1.460  -3.033  1.00  0.00    -0.544 OA
ENDBRANCH   1   6
TORSDOF 2
ENDMDL
MODEL 2
REMARK VINA RESULT:    -4.038      0.784      1.577
REMARK INTER + INTRA:          -4.392
REMARK INTER:                  -4.392
REMARK INTRA:                   0.000
REMARK UNBOUND:                 0.000
REMARK SMILES [NH3+]CC(=O)[O-]
REMARK SMILES IDX 2 1 1 2 3 6 4 7 5 8
REMARK H PARENT 1 3 1 4 1 5
REMARK Flexibility Score: inf
ROOT
ATOM      1  C   UNL     1      -1.174   1.497  -1.281  1.00  0.00     0.312 C 
ENDROOT
BRANCH   1   2
ATOM      2  N   UNL     1      -1.226   0.099  -0.857  1.00  0.00    -0.353 N 
ATOM      3  H   UNL     1      -1.181  -0.531  -1.692  1.00  0.00     0.344 HD
ATOM      4  H   UNL     1      -0.409  -0.101  -0.237  1.00  0.00     0.344 HD
ATOM      5  H   UNL     1      -2.108  -0.082  -0.325  1.00  0.00     0.344 HD
ENDBRANCH   1   2
BRANCH   1   6
ATOM      6  C   UNL     1       0.127   1.797  -1.956  1.00  0.00     0.096 C 
ATOM      7  O   UNL     1       0.341   1.392  -3.129  1.00  0.00    -0.544 OA
ATOM      8  O   UNL     1       1.084   2.568  -1.309  1.00  0.00    -0.544 OA
ENDBRANCH   1   6
TORSDOF 2
ENDMDL
MODEL 3
REMARK VINA RESULT:    -3.901      1.695      1.808
REMARK INTER + INTRA:          -4.243
REMARK INTER:                  -4.243
REMARK INTRA:                   0.000
REMARK UNBOUND:                 0.000
REMARK SMILES [NH3+]CC(=O)[O-]
REMARK SMILES IDX 2 1 1 2 3 6 4 7 5 8
REMARK H PARENT 1 3 1 4 1 5
REMARK Flexibility Score: inf
ROOT
ATOM      1  C   UNL     1      -0.403   2.008  -3.103  1.00  0.00     0.312 C 
ENDROOT
BRANCH   1   2
ATOM      2  N   UNL     1      -1.857   1.936  -2.980  1.00  0.00    -0.353 N 
ATOM      3  H   UNL     1      -2.309   2.282  -3.859  1.00  0.00     0.344 HD
ATOM      4  H   UNL     1      -2.140   0.942  -2.822  1.00  0.00     0.344 HD
ATOM      5  H   UNL     1      -2.177   2.512  -2.168  1.00  0.00     0.344 HD
ENDBRANCH   1   2
BRANCH   1   6
ATOM      6  C   UNL     1       0.252   1.789  -1.775  1.00  0.00     0.096 C 
ATOM      7  O   UNL     1      -0.382   1.233  -0.840  1.00  0.00    -0.544 OA
ATOM      8  O   UNL     1       1.578   2.154  -1.586  1.00  0.00    -0.544 OA
ENDBRANCH   1   6
TORSDOF 2
ENDMDL
MODEL 4
REMARK VINA RESULT:    -3.850      2.974      3.115
REMARK INTER + INTRA:          -4.187
REMARK INTER:                  -4.187
REMARK INTRA:                   0.000
REMARK UNBOUND:                 0.000
REMARK SMILES [NH3+]CC(=O)[O-]
REMARK SMILES IDX 2 1 1 2 3 6 4 7 5 8
REMARK H PARENT 1 3 1 4 1 5
REMARK Flexibility Score: inf
ROOT
ATOM      1  C   UNL     1       2.170   3.734  -3.846  1.00  0.00     0.312 C 
ENDROOT
BRANCH   1   2
ATOM      2  N   UNL     1       0.849   4.266  -3.517  1.00  0.00    -0.353 N 
ATOM      3  H   UNL     1       0.607   4.036  -2.526  1.00  0.00     0.344 HD
ATOM      4  H   UNL     1       0.860   5.305  -3.632  1.00  0.00     0.344 HD
ATOM      5  H   UNL     1       0.130   3.862  -4.160  1.00  0.00     0.344 HD
ENDBRANCH   1   2
BRANCH   1   6
ATOM      6  C   UNL     1       2.496   2.556  -2.982  1.00  0.00     0.096 C 
ATOM      7  O   UNL     1       2.087   2.511  -1.792  1.00  0.00    -0.544 OA
ATOM      8  O   UNL     1       3.208   1.486  -3.506  1.00  0.00    -0.544 OA
ENDBRANCH   1   6
TORSDOF 2
ENDMDL
MODEL 5
REMARK VINA RESULT:    -3.846      3.001      3.435
REMARK INTER + INTRA:          -4.183
REMARK INTER:                  -4.183
REMARK INTRA:                   0.000
REMARK UNBOUND:                 0.000
REMARK SMILES [NH3+]CC(=O)[O-]
REMARK SMILES IDX 2 1 1 2 3 6 4 7 5 8
REMARK H PARENT 1 3 1 4 1 5
REMARK Flexibility Score: inf
ROOT
ATOM      1  C   UNL     1       2.172   3.820  -3.861  1.00  0.00     0.312 C 
ENDROOT
BRANCH   1   2
ATOM      2  N   UNL     1       0.823   4.302  -3.573  1.00  0.00    -0.353 N 
ATOM      3  H   UNL     1       0.249   4.306  -4.448  1.00  0.00     0.344 HD
ATOM      4  H   UNL     1       0.373   3.667  -2.875  1.00  0.00     0.344 HD
ATOM      5  H   UNL     1       0.865   5.268  -3.173  1.00  0.00     0.344 HD
ENDBRANCH   1   2
BRANCH   1   6
ATOM      6  C   UNL     1       2.501   2.631  -3.013  1.00  0.00     0.096 C 
ATOM      7  O   UNL     1       3.248   1.721  -3.461  1.00  0.00    -0.544 OA
ATOM      8  O   UNL     1       2.024   2.552  -1.712  1.00  0.00    -0.544 OA
ENDBRANCH   1   6
TORSDOF 2
ENDMDL
MODEL 6
REMARK VINA RESULT:    -3.786      1.922      1.972
REMARK INTER + INTRA:          -4.118
REMARK INTER:                  -4.118
REMARK INTRA:                   0.000
REMARK UNBOUND:                 0.000
REMARK SMILES [NH3+]CC(=O)[O-]
REMARK SMILES IDX 2 1 1 2 3 6 4 7 5 8
REMARK H PARENT 1 3 1 4 1 5
REMARK Flexibility Score: inf
ROOT
ATOM      1  C   UNL     1       0.274   3.220  -2.749  1.00  0.00     0.312 C 
ENDROOT
BRANCH   1   2
ATOM      2  N   UNL     1      -0.378   3.792  -1.573  1.00  0.00    -0.353 N 
ATOM      3  H   UNL     1      -0.084   3.274  -0.713  1.00  0.00     0.344 HD
ATOM      4  H   UNL     1      -0.096   4.794  -1.478  1.00  0.00     0.344 HD
ATOM      5  H   UNL     1      -1.418   3.741  -1.679  1.00  0.00     0.344 HD
ENDBRANCH   1   2
BRANCH   1   6
ATOM      6  C   UNL     1       1.045   1.991  -2.382  1.00  0.00     0.096 C 
ATOM      7  O   UNL     1       0.721   1.320  -1.366  1.00  0.00    -0.544 OA
ATOM      8  O   UNL     1       2.088   1.557  -3.189  1.00  0.00    -0.544 OA
ENDBRANCH   1   6
TORSDOF 2
ENDMDL
MODEL 7
REMARK VINA RESULT:    -3.647      4.113      4.497
REMARK INTER + INTRA:          -3.967
REMARK INTER:                  -3.967
REMARK INTRA:                   0.000
REMARK UNBOUND:                 0.000
REMARK SMILES [NH3+]CC(=O)[O-]
REMARK SMILES IDX 2 1 1 2 3 6 4 7 5 8
REMARK H PARENT 1 3 1 4 1 5
REMARK Flexibility Score: inf
ROOT
ATOM      1  C   UNL     1      -2.146   1.256  -0.834  1.00  0.00     0.312 C 
ENDROOT
BRANCH   1   2
ATOM      2  N   UNL     1      -1.222   0.124  -0.852  1.00  0.00    -0.353 N 
ATOM      3  H   UNL     1      -0.477   0.280  -1.569  1.00  0.00     0.344 HD
ATOM      4  H   UNL     1      -0.774   0.032   0.088  1.00  0.00     0.344 HD
ATOM      5  H   UNL     1      -1.741  -0.759  -1.067  1.00  0.00     0.344 HD
ENDBRANCH   1   2
BRANCH   1   6
ATOM      6  C   UNL     1      -3.215   1.050   0.192  1.00  0.00     0.096 C 
ATOM      7  O   UNL     1      -3.071   0.182   1.093  1.00  0.00    -0.544 OA
ATOM      8  O   UNL     1      -4.350   1.851   0.185  1.00  0.00    -0.544 OA
ENDBRANCH   1   6
TORSDOF 2
ENDMDL
MODEL 8
REMARK VINA RESULT:    -3.586      2.826      3.185
REMARK INTER + INTRA:          -3.900
REMARK INTER:                  -3.900
REMARK INTRA:                   0.000
REMARK UNBOUND:                 0.000
REMARK SMILES [NH3+]CC(=O)[O-]
REMARK SMILES IDX 2 1 1 2 3 6 4 7 5 8
REMARK H PARENT 1 3 1 4 1 5
REMARK Flexibility Score: inf
ROOT
ATOM      1  C   UNL     1      -0.677   1.993  -2.105  1.00  0.00     0.312 C 
ENDROOT
BRANCH   1   2
ATOM      2  N   UNL     1       0.006   0.701  -2.079  1.00  0.00    -0.353 N 
ATOM      3  H   UNL     1       0.022   0.284  -3.038  1.00  0.00     0.344 HD
ATOM      4  H   UNL     1       0.990   0.841  -1.754  1.00  0.00     0.344 HD
ATOM      5  H   UNL     1      -0.479   0.051  -1.418  1.00  0.00     0.344 HD
ENDBRANCH   1   2
BRANCH   1   6
ATOM      6  C   UNL     1      -1.939   1.940  -1.301  1.00  0.00     0.096 C 
ATOM      7  O   UNL     1      -2.342   0.845  -0.826  1.00  0.00    -0.544 OA
ATOM      8  O   UNL     1      -2.643   3.106  -1.035  1.00  0.00    -0.544 OA
ENDBRANCH   1   6
TORSDOF 2
ENDMDL
MODEL 9
REMARK VINA RESULT:    -3.507      2.365      2.568
REMARK INTER + INTRA:          -3.814
REMARK INTER:                  -3.814
REMARK INTRA:                   0.000
REMARK UNBOUND:                 0.000
REMARK SMILES [NH3+]CC(=O)[O-]
REMARK SMILES IDX 2 1 1 2 3 6 4 7 5 8
REMARK H PARENT 1 3 1 4 1 5
REMARK Flexibility Score: inf
ROOT
ATOM      1  C   UNL     1      -1.422   2.769  -1.623  1.00  0.00     0.312 C 
ENDROOT
BRANCH   1   2
ATOM      2  N   UNL     1      -2.666   2.908  -0.867  1.00  0.00    -0.353 N 
ATOM      3  H   UNL     1      -2.950   3.914  -0.827  1.00  0.00     0.344 HD
ATOM      4  H   UNL     1      -3.419   2.362  -1.343  1.00  0.00     0.344 HD
ATOM      5  H   UNL     1      -2.540   2.537   0.103  1.00  0.00     0.344 HD
ENDBRANCH   1   2
BRANCH   1   6
ATOM      6  C   UNL     1      -0.737   1.482  -1.281  1.00  0.00     0.096 C 
ATOM      7  O   UNL     1       0.516   1.391  -1.364  1.00  0.00    -0.544 OA
ATOM      8  O   UNL     1      -1.478   0.401  -0.822  1.00  0.00    -0.544 OA
ENDBRANCH   1   6
TORSDOF 2
ENDMDL
