MODEL 1
REMARK VINA RESULT:    -3.936      0.000      0.000
REMARK INTER + INTRA:          -9.492
REMARK INTER:                  -7.156
REMARK INTRA:                  -2.335
REMARK UNBOUND:                -2.335
REMARK SMILES CCCCCCCCCCCCCC[C@@H](C)C(=O)[O-]
REMARK SMILES IDX 9 1 10 2 11 3 12 4 13 5 14 6 15 7 16 8 17 9 18 10 19 11 8 12
REMARK SMILES IDX 7 13 6 14 5 15 4 16 3 17 2 18 1 19
REMARK H PARENT
REMARK Flexibility Score: inf
ROOT
ATOM      1  C   UNL     1      21.861 -14.172   2.394  1.00  0.00     0.000 C 
ENDROOT
BRANCH   1   2
ATOM      2  C   UNL     1      21.698 -15.698   2.292  1.00  0.00     0.000 C 
BRANCH   2   3
ATOM      3  C   UNL     1      22.770 -16.461   3.088  1.00  0.00     0.000 C 
BRANCH   3   4
ATOM      4  C   UNL     1      23.723 -15.522   3.850  1.00  0.00     0.000 C 
BRANCH   4   5
ATOM      5  C   UNL     1      23.569 -15.636   5.376  1.00  0.00     0.001 C 
BRANCH   5   6
ATOM      6  C   UNL     1      23.096 -14.321   6.022  1.00  0.00     0.009 C 
BRANCH   6   7
ATOM      7  C   UNL     1      21.628 -14.388   6.500  1.00  0.00     0.032 C 
ATOM      8  C   UNL     1      21.001 -15.770   6.272  1.00  0.00     0.014 C 
BRANCH   7   9
ATOM      9  C   UNL     1      21.548 -14.030   7.960  1.00  0.00     0.044 C 
ATOM     10  O   UNL     1      21.318 -12.843   8.316  1.00  0.00    -0.550 OA
ATOM     11  O   UNL     1      21.728 -15.011   8.926  1.00  0.00    -0.550 OA
ENDBRANCH   7   9
ENDBRANCH   6   7
ENDBRANCH   5   6
ENDBRANCH   4   5
ENDBRANCH   3   4
ENDBRANCH   2   3
ENDBRANCH   1   2
BRANCH   1  12
ATOM     12  C   UNL     1      21.923 -13.492   1.017  1.00  0.00     0.000 C 
BRANCH  12  13
ATOM     13  C   UNL     1      23.119 -12.540   0.877  1.00  0.00    -0.000 C 
BRANCH  13  14
ATOM     14  C   UNL     1      24.444 -13.310   0.920  1.00  0.00    -0.000 C 
BRANCH  14  15
ATOM     15  C   UNL     1      25.455 -12.621   1.844  1.00  0.00    -0.000 C 
BRANCH  15  16
ATOM     16  C   UNL     1      24.739 -11.824   2.945  1.00  0.00    -0.000 C 
BRANCH  16  17
ATOM     17  C   UNL     1      25.382 -12.015   4.327  1.00  0.00    -0.000 C 
BRANCH  17  18
ATOM     18  C   UNL     1      26.720 -12.766   4.259  1.00  0.00    -0.003 C 
ATOM     19  C   UNL     1      27.667 -12.304   5.365  1.00  0.00     0.004 C 
ENDBRANCH  17  18
ENDBRANCH  16  17
ENDBRANCH  15  16
ENDBRANCH  14  15
ENDBRANCH  13  14
ENDBRANCH  12  13
ENDBRANCH   1  12
TORSDOF 14
ENDMDL
MODEL 2
REMARK VINA RESULT:    -3.753      1.854      2.947
REMARK INTER + INTRA:          -9.160
REMARK INTER:                  -7.519
REMARK INTRA:                  -1.641
REMARK UNBOUND:                -2.335
REMARK SMILES CCCCCCCCCCCCCC[C@@H](C)C(=O)[O-]
REMARK SMILES IDX 9 1 10 2 11 3 12 4 13 5 14 6 15 7 16 8 17 9 18 10 19 11 8 12
REMARK SMILES IDX 7 13 6 14 5 15 4 16 3 17 2 18 1 19
REMARK H PARENT
REMARK Flexibility Score: inf
ROOT
ATOM      1  C   UNL     1      24.073 -13.185   1.280  1.00  0.00     0.000 C 
ENDROOT
BRANCH   1   2
ATOM      2  C   UNL     1      22.600 -13.416   0.901  1.00  0.00     0.000 C 
BRANCH   2   3
ATOM      3  C   UNL     1      21.763 -13.945   2.078  1.00  0.00     0.000 C 
BRANCH   3   4
ATOM      4  C   UNL     1      21.764 -15.482   2.162  1.00  0.00     0.000 C 
BRANCH   4   5
ATOM      5  C   UNL     1      22.159 -15.997   3.557  1.00  0.00     0.001 C 
BRANCH   5   6
ATOM      6  C   UNL     1      21.805 -15.000   4.676  1.00  0.00     0.009 C 
BRANCH   6   7
ATOM      7  C   UNL     1      21.219 -15.694   5.926  1.00  0.00     0.032 C 
ATOM      8  C   UNL     1      21.729 -17.133   6.090  1.00  0.00     0.014 C 
BRANCH   7   9
ATOM      9  C   UNL     1      21.550 -14.896   7.158  1.00  0.00     0.044 C 
ATOM     10  O   UNL     1      21.578 -13.636   7.116  1.00  0.00    -0.550 OA
ATOM     11  O   UNL     1      21.828 -15.547   8.353  1.00  0.00    -0.550 OA
ENDBRANCH   7   9
ENDBRANCH   6   7
ENDBRANCH   5   6
ENDBRANCH   4   5
ENDBRANCH   3   4
ENDBRANCH   2   3
ENDBRANCH   1   2
BRANCH   1  12
ATOM     12  C   UNL     1      24.243 -12.101   2.356  1.00  0.00     0.000 C 
BRANCH  12  13
ATOM     13  C   UNL     1      25.380 -12.412   3.340  1.00  0.00    -0.000 C 
BRANCH  13  14
ATOM     14  C   UNL     1      24.968 -13.511   4.327  1.00  0.00    -0.000 C 
BRANCH  14  15
ATOM     15  C   UNL     1      25.018 -13.003   5.772  1.00  0.00    -0.000 C 
BRANCH  15  16
ATOM     16  C   UNL     1      26.073 -11.897   5.930  1.00  0.00    -0.000 C 
BRANCH  16  17
ATOM     17  C   UNL     1      25.687 -10.858   6.994  1.00  0.00    -0.000 C 
BRANCH  17  18
ATOM     18  C   UNL     1      24.559 -11.345   7.916  1.00  0.00    -0.003 C 
ATOM     19  C   UNL     1      23.918 -10.179   8.664  1.00  0.00     0.004 C 
ENDBRANCH  17  18
ENDBRANCH  16  17
ENDBRANCH  15  16
ENDBRANCH  14  15
ENDBRANCH  13  14
ENDBRANCH  12  13
ENDBRANCH   1  12
TORSDOF 14
ENDMDL
MODEL 3
REMARK VINA RESULT:    -3.725      1.927      4.771
REMARK INTER + INTRA:          -9.108
REMARK INTER:                  -7.041
REMARK INTRA:                  -2.067
REMARK UNBOUND:                -2.335
REMARK SMILES CCCCCCCCCCCCCC[C@@H](C)C(=O)[O-]
REMARK SMILES IDX 9 1 10 2 11 3 12 4 13 5 14 6 15 7 16 8 17 9 18 10 19 11 8 12
REMARK SMILES IDX 7 13 6 14 5 15 4 16 3 17 2 18 1 19
REMARK H PARENT
REMARK Flexibility Score: inf
ROOT
ATOM      1  C   UNL     1      21.609 -14.214   1.267  1.00  0.00     0.000 C 
ENDROOT
BRANCH   1   2
ATOM      2  C   UNL     1      23.087 -13.893   0.985  1.00  0.00     0.000 C 
BRANCH   2   3
ATOM      3  C   UNL     1      23.396 -12.390   1.087  1.00  0.00     0.000 C 
BRANCH   3   4
ATOM      4  C   UNL     1      24.197 -12.035   2.353  1.00  0.00     0.000 C 
BRANCH   4   5
ATOM      5  C   UNL     1      24.790 -13.274   3.044  1.00  0.00     0.001 C 
BRANCH   5   6
ATOM      6  C   UNL     1      24.442 -13.338   4.542  1.00  0.00     0.009 C 
BRANCH   6   7
ATOM      7  C   UNL     1      25.661 -13.049   5.447  1.00  0.00     0.032 C 
ATOM      8  C   UNL     1      26.979 -13.017   4.663  1.00  0.00     0.014 C 
BRANCH   7   9
ATOM      9  C   UNL     1      25.466 -11.740   6.165  1.00  0.00     0.044 C 
ATOM     10  O   UNL     1      25.172 -11.720   7.391  1.00  0.00    -0.550 OA
ATOM     11  O   UNL     1      25.611 -10.543   5.477  1.00  0.00    -0.550 OA
ENDBRANCH   7   9
ENDBRANCH   6   7
ENDBRANCH   5   6
ENDBRANCH   4   5
ENDBRANCH   3   4
ENDBRANCH   2   3
ENDBRANCH   1   2
BRANCH   1  12
ATOM     12  C   UNL     1      21.430 -15.515   2.066  1.00  0.00     0.000 C 
BRANCH  12  13
ATOM     13  C   UNL     1      22.766 -16.181   2.425  1.00  0.00    -0.000 C 
BRANCH  13  14
ATOM     14  C   UNL     1      22.778 -16.637   3.888  1.00  0.00    -0.000 C 
BRANCH  14  15
ATOM     15  C   UNL     1      21.548 -16.114   4.640  1.00  0.00    -0.000 C 
BRANCH  15  16
ATOM     16  C   UNL     1      21.898 -15.766   6.093  1.00  0.00    -0.000 C 
BRANCH  16  17
ATOM     17  C   UNL     1      21.480 -14.338   6.478  1.00  0.00    -0.000 C 
BRANCH  17  18
ATOM     18  C   UNL     1      22.292 -13.780   7.656  1.00  0.00    -0.003 C 
ATOM     19  C   UNL     1      21.467 -12.789   8.473  1.00  0.00     0.004 C 
ENDBRANCH  17  18
ENDBRANCH  16  17
ENDBRANCH  15  16
ENDBRANCH  14  15
ENDBRANCH  13  14
ENDBRANCH  12  13
ENDBRANCH   1  12
TORSDOF 14
ENDMDL
MODEL 4
REMARK VINA RESULT:    -3.717      2.041      4.619
REMARK INTER + INTRA:          -9.095
REMARK INTER:                  -6.894
REMARK INTRA:                  -2.201
REMARK UNBOUND:                -2.335
REMARK SMILES CCCCCCCCCCCCCC[C@@H](C)C(=O)[O-]
REMARK SMILES IDX 9 1 10 2 11 3 12 4 13 5 14 6 15 7 16 8 17 9 18 10 19 11 8 12
REMARK SMILES IDX 7 13 6 14 5 15 4 16 3 17 2 18 1 19
REMARK H PARENT
REMARK Flexibility Score: inf
ROOT
ATOM      1  C   UNL     1      23.045 -13.145   1.016  1.00  0.00     0.000 C 
ENDROOT
BRANCH   1   2
ATOM      2  C   UNL     1      24.252 -12.735   1.878  1.00  0.00     0.000 C 
BRANCH   2   3
ATOM      3  C   UNL     1      25.128 -13.934   2.278  1.00  0.00     0.000 C 
BRANCH   3   4
ATOM      4  C   UNL     1      25.382 -14.002   3.795  1.00  0.00     0.000 C 
BRANCH   4   5
ATOM      5  C   UNL     1      24.639 -12.899   4.568  1.00  0.00     0.001 C 
BRANCH   5   6
ATOM      6  C   UNL     1      24.949 -12.924   6.076  1.00  0.00     0.009 C 
BRANCH   6   7
ATOM      7  C   UNL     1      25.876 -11.767   6.511  1.00  0.00     0.032 C 
ATOM      8  C   UNL     1      26.513 -11.046   5.315  1.00  0.00     0.014 C 
BRANCH   7   9
ATOM      9  C   UNL     1      25.106 -10.780   7.346  1.00  0.00     0.044 C 
ATOM     10  O   UNL     1      24.452 -11.166   8.353  1.00  0.00    -0.550 OA
ATOM     11  O   UNL     1      25.113  -9.433   7.010  1.00  0.00    -0.550 OA
ENDBRANCH   7   9
ENDBRANCH   6   7
ENDBRANCH   5   6
ENDBRANCH   4   5
ENDBRANCH   3   4
ENDBRANCH   2   3
ENDBRANCH   1   2
BRANCH   1  12
ATOM     12  C   UNL     1      21.882 -13.699   1.854  1.00  0.00     0.000 C 
BRANCH  12  13
ATOM     13  C   UNL     1      21.534 -15.153   1.502  1.00  0.00    -0.000 C 
BRANCH  13  14
ATOM     14  C   UNL     1      21.810 -16.086   2.687  1.00  0.00    -0.000 C 
BRANCH  14  15
ATOM     15  C   UNL     1      21.896 -15.301   4.001  1.00  0.00    -0.000 C 
BRANCH  15  16
ATOM     16  C   UNL     1      22.313 -16.216   5.162  1.00  0.00    -0.000 C 
BRANCH  16  17
ATOM     17  C   UNL     1      21.815 -15.709   6.524  1.00  0.00    -0.000 C 
BRANCH  17  18
ATOM     18  C   UNL     1      21.510 -14.203   6.520  1.00  0.00    -0.003 C 
ATOM     19  C   UNL     1      21.695 -13.602   7.911  1.00  0.00     0.004 C 
ENDBRANCH  17  18
ENDBRANCH  16  17
ENDBRANCH  15  16
ENDBRANCH  14  15
ENDBRANCH  13  14
ENDBRANCH  12  13
ENDBRANCH   1  12
TORSDOF 14
ENDMDL
MODEL 5
REMARK VINA RESULT:    -3.712      2.169      3.176
REMARK INTER + INTRA:          -9.085
REMARK INTER:                  -7.086
REMARK INTRA:                  -1.999
REMARK UNBOUND:                -2.335
REMARK SMILES CCCCCCCCCCCCCC[C@@H](C)C(=O)[O-]
REMARK SMILES IDX 9 1 10 2 11 3 12 4 13 5 14 6 15 7 16 8 17 9 18 10 19 11 8 12
REMARK SMILES IDX 7 13 6 14 5 15 4 16 3 17 2 18 1 19
REMARK H PARENT
REMARK Flexibility Score: inf
ROOT
ATOM      1  C   UNL     1      23.286 -12.817   1.667  1.00  0.00     0.000 C 
ENDROOT
BRANCH   1   2
ATOM      2  C   UNL     1      22.024 -13.618   1.302  1.00  0.00     0.000 C 
BRANCH   2   3
ATOM      3  C   UNL     1      22.273 -15.135   1.275  1.00  0.00     0.000 C 
BRANCH   3   4
ATOM      4  C   UNL     1      21.417 -15.894   2.305  1.00  0.00     0.000 C 
BRANCH   4   5
ATOM      5  C   UNL     1      22.150 -16.107   3.640  1.00  0.00     0.001 C 
BRANCH   5   6
ATOM      6  C   UNL     1      21.716 -15.098   4.719  1.00  0.00     0.009 C 
BRANCH   6   7
ATOM      7  C   UNL     1      22.898 -14.614   5.589  1.00  0.00     0.032 C 
ATOM      8  C   UNL     1      22.434 -13.989   6.911  1.00  0.00     0.014 C 
BRANCH   7   9
ATOM      9  C   UNL     1      23.831 -15.761   5.870  1.00  0.00     0.044 C 
ATOM     10  O   UNL     1      25.013 -15.746   5.433  1.00  0.00    -0.550 OA
ATOM     11  O   UNL     1      23.390 -16.846   6.616  1.00  0.00    -0.550 OA
ENDBRANCH   7   9
ENDBRANCH   6   7
ENDBRANCH   5   6
ENDBRANCH   4   5
ENDBRANCH   3   4
ENDBRANCH   2   3
ENDBRANCH   1   2
BRANCH   1  12
ATOM     12  C   UNL     1      24.434 -13.716   2.153  1.00  0.00     0.000 C 
BRANCH  12  13
ATOM     13  C   UNL     1      25.315 -13.035   3.212  1.00  0.00    -0.000 C 
BRANCH  13  14
ATOM     14  C   UNL     1      24.975 -11.545   3.335  1.00  0.00    -0.000 C 
BRANCH  14  15
ATOM     15  C   UNL     1      25.590 -10.941   4.602  1.00  0.00    -0.000 C 
BRANCH  15  16
ATOM     16  C   UNL     1      26.053 -12.042   5.568  1.00  0.00    -0.000 C 
BRANCH  16  17
ATOM     17  C   UNL     1      25.341 -11.976   6.928  1.00  0.00    -0.000 C 
BRANCH  17  18
ATOM     18  C   UNL     1      25.267 -10.548   7.488  1.00  0.00    -0.003 C 
ATOM     19  C   UNL     1      24.082 -10.392   8.439  1.00  0.00     0.004 C 
ENDBRANCH  17  18
ENDBRANCH  16  17
ENDBRANCH  15  16
ENDBRANCH  14  15
ENDBRANCH  13  14
ENDBRANCH  12  13
ENDBRANCH   1  12
TORSDOF 14
ENDMDL
MODEL 6
REMARK VINA RESULT:    -3.659     10.483     13.376
REMARK INTER + INTRA:          -8.988
REMARK INTER:                  -7.150
REMARK INTRA:                  -1.838
REMARK UNBOUND:                -2.335
REMARK SMILES CCCCCCCCCCCCCC[C@@H](C)C(=O)[O-]
REMARK SMILES IDX 9 1 10 2 11 3 12 4 13 5 14 6 15 7 16 8 17 9 18 10 19 11 8 12
REMARK SMILES IDX 7 13 6 14 5 15 4 16 3 17 2 18 1 19
REMARK H PARENT
REMARK Flexibility Score: inf
ROOT
ATOM      1  C   UNL     1      29.588  -3.717  10.699  1.00  0.00     0.000 C 
ENDROOT
BRANCH   1   2
ATOM      2  C   UNL     1      29.210  -3.196   9.302  1.00  0.00     0.000 C 
BRANCH   2   3
ATOM      3  C   UNL     1      27.694  -3.236   9.046  1.00  0.00     0.000 C 
BRANCH   3   4
ATOM      4  C   UNL     1      27.342  -3.105   7.553  1.00  0.00     0.000 C 
BRANCH   4   5
ATOM      5  C   UNL     1      26.597  -4.337   7.011  1.00  0.00     0.001 C 
BRANCH   5   6
ATOM      6  C   UNL     1      25.088  -4.295   7.315  1.00  0.00     0.009 C 
BRANCH   6   7
ATOM      7  C   UNL     1      24.336  -5.524   6.757  1.00  0.00     0.032 C 
ATOM      8  C   UNL     1      25.290  -6.614   6.250  1.00  0.00     0.014 C 
BRANCH   7   9
ATOM      9  C   UNL     1      23.432  -6.096   7.816  1.00  0.00     0.044 C 
ATOM     10  O   UNL     1      23.322  -7.344   7.958  1.00  0.00    -0.550 OA
ATOM     11  O   UNL     1      22.711  -5.247   8.645  1.00  0.00    -0.550 OA
ENDBRANCH   7   9
ENDBRANCH   6   7
ENDBRANCH   5   6
ENDBRANCH   4   5
ENDBRANCH   3   4
ENDBRANCH   2   3
ENDBRANCH   1   2
BRANCH   1  12
ATOM     12  C   UNL     1      28.846  -2.978  11.825  1.00  0.00     0.000 C 
BRANCH  12  13
ATOM     13  C   UNL     1      29.705  -1.893  12.491  1.00  0.00    -0.000 C 
BRANCH  13  14
ATOM     14  C   UNL     1      29.321  -0.499  11.984  1.00  0.00    -0.000 C 
BRANCH  14  15
ATOM     15  C   UNL     1      27.803  -0.371  11.815  1.00  0.00    -0.000 C 
BRANCH  15  16
ATOM     16  C   UNL     1      27.448   0.179  10.425  1.00  0.00    -0.000 C 
BRANCH  16  17
ATOM     17  C   UNL     1      25.962  -0.003  10.077  1.00  0.00    -0.000 C 
BRANCH  17  18
ATOM     18  C   UNL     1      25.192  -0.776  11.158  1.00  0.00    -0.003 C 
ATOM     19  C   UNL     1      24.602  -2.066  10.595  1.00  0.00     0.004 C 
ENDBRANCH  17  18
ENDBRANCH  16  17
ENDBRANCH  15  16
ENDBRANCH  14  15
ENDBRANCH  13  14
ENDBRANCH  12  13
ENDBRANCH   1  12
TORSDOF 14
ENDMDL
MODEL 7
REMARK VINA RESULT:    -3.646     11.110     13.998
REMARK INTER + INTRA:          -8.965
REMARK INTER:                  -7.106
REMARK INTRA:                  -1.860
REMARK UNBOUND:                -2.335
REMARK SMILES CCCCCCCCCCCCCC[C@@H](C)C(=O)[O-]
REMARK SMILES IDX 9 1 10 2 11 3 12 4 13 5 14 6 15 7 16 8 17 9 18 10 19 11 8 12
REMARK SMILES IDX 7 13 6 14 5 15 4 16 3 17 2 18 1 19
REMARK H PARENT
REMARK Flexibility Score: inf
ROOT
ATOM      1  C   UNL     1      28.816  -2.928  11.527  1.00  0.00     0.000 C 
ENDROOT
BRANCH   1   2
ATOM      2  C   UNL     1      29.496  -1.797  12.317  1.00  0.00     0.000 C 
BRANCH   2   3
ATOM      3  C   UNL     1      28.647  -0.515  12.365  1.00  0.00     0.000 C 
BRANCH   3   4
ATOM      4  C   UNL     1      27.995  -0.186  11.009  1.00  0.00     0.000 C 
BRANCH   4   5
ATOM      5  C   UNL     1      26.466  -0.355  11.033  1.00  0.00     0.001 C 
BRANCH   5   6
ATOM      6  C   UNL     1      25.849  -0.346   9.623  1.00  0.00     0.009 C 
BRANCH   6   7
ATOM      7  C   UNL     1      24.704  -1.370   9.469  1.00  0.00     0.032 C 
ATOM      8  C   UNL     1      24.754  -2.470  10.538  1.00  0.00     0.014 C 
BRANCH   7   9
ATOM      9  C   UNL     1      23.375  -0.667   9.528  1.00  0.00     0.044 C 
ATOM     10  O   UNL     1      23.319   0.589   9.630  1.00  0.00    -0.550 OA
ATOM     11  O   UNL     1      22.197  -1.401   9.473  1.00  0.00    -0.550 OA
ENDBRANCH   7   9
ENDBRANCH   6   7
ENDBRANCH   5   6
ENDBRANCH   4   5
ENDBRANCH   3   4
ENDBRANCH   2   3
ENDBRANCH   1   2
BRANCH   1  12
ATOM     12  C   UNL     1      29.743  -3.547  10.468  1.00  0.00     0.000 C 
BRANCH  12  13
ATOM     13  C   UNL     1      29.340  -3.173   9.034  1.00  0.00    -0.000 C 
BRANCH  13  14
ATOM     14  C   UNL     1      27.850  -3.439   8.794  1.00  0.00    -0.000 C 
BRANCH  14  15
ATOM     15  C   UNL     1      27.646  -4.587   7.798  1.00  0.00    -0.000 C 
BRANCH  15  16
ATOM     16  C   UNL     1      26.572  -4.230   6.760  1.00  0.00    -0.000 C 
BRANCH  16  17
ATOM     17  C   UNL     1      25.145  -4.367   7.313  1.00  0.00    -0.000 C 
BRANCH  17  18
ATOM     18  C   UNL     1      24.495  -5.710   6.947  1.00  0.00    -0.003 C 
ATOM     19  C   UNL     1      23.316  -6.018   7.867  1.00  0.00     0.004 C 
ENDBRANCH  17  18
ENDBRANCH  16  17
ENDBRANCH  15  16
ENDBRANCH  14  15
ENDBRANCH  13  14
ENDBRANCH  12  13
ENDBRANCH   1  12
TORSDOF 14
ENDMDL
MODEL 8
REMARK VINA RESULT:    -3.645      1.525      2.105
REMARK INTER + INTRA:          -8.963
REMARK INTER:                  -7.011
REMARK INTRA:                  -1.952
REMARK UNBOUND:                -2.335
REMARK SMILES CCCCCCCCCCCCCC[C@@H](C)C(=O)[O-]
REMARK SMILES IDX 9 1 10 2 11 3 12 4 13 5 14 6 15 7 16 8 17 9 18 10 19 11 8 12
REMARK SMILES IDX 7 13 6 14 5 15 4 16 3 17 2 18 1 19
REMARK H PARENT
REMARK Flexibility Score: inf
ROOT
ATOM      1  C   UNL     1      22.007 -13.616   1.086  1.00  0.00     0.000 C 
ENDROOT
BRANCH   1   2
ATOM      2  C   UNL     1      21.543 -14.979   1.629  1.00  0.00     0.000 C 
BRANCH   2   3
ATOM      3  C   UNL     1      22.687 -15.778   2.275  1.00  0.00     0.000 C 
BRANCH   3   4
ATOM      4  C   UNL     1      22.477 -15.998   3.784  1.00  0.00     0.000 C 
BRANCH   4   5
ATOM      5  C   UNL     1      22.181 -14.690   4.536  1.00  0.00     0.001 C 
BRANCH   5   6
ATOM      6  C   UNL     1      21.292 -14.908   5.774  1.00  0.00     0.009 C 
BRANCH   6   7
ATOM      7  C   UNL     1      22.083 -14.814   7.098  1.00  0.00     0.032 C 
ATOM      8  C   UNL     1      21.598 -13.665   7.991  1.00  0.00     0.014 C 
BRANCH   7   9
ATOM      9  C   UNL     1      21.983 -16.116   7.848  1.00  0.00     0.044 C 
ATOM     10  O   UNL     1      21.881 -16.124   9.105  1.00  0.00    -0.550 OA
ATOM     11  O   UNL     1      22.003 -17.319   7.155  1.00  0.00    -0.550 OA
ENDBRANCH   7   9
ENDBRANCH   6   7
ENDBRANCH   5   6
ENDBRANCH   4   5
ENDBRANCH   3   4
ENDBRANCH   2   3
ENDBRANCH   1   2
BRANCH   1  12
ATOM     12  C   UNL     1      23.535 -13.528   0.940  1.00  0.00     0.000 C 
BRANCH  12  13
ATOM     13  C   UNL     1      24.094 -12.161   1.360  1.00  0.00    -0.000 C 
BRANCH  13  14
ATOM     14  C   UNL     1      24.394 -12.127   2.863  1.00  0.00    -0.000 C 
BRANCH  14  15
ATOM     15  C   UNL     1      25.819 -12.611   3.154  1.00  0.00    -0.000 C 
BRANCH  15  16
ATOM     16  C   UNL     1      25.826 -13.658   4.276  1.00  0.00    -0.000 C 
BRANCH  16  17
ATOM     17  C   UNL     1      25.053 -13.197   5.522  1.00  0.00    -0.000 C 
BRANCH  17  18
ATOM     18  C   UNL     1      25.712 -11.997   6.217  1.00  0.00    -0.003 C 
ATOM     19  C   UNL     1      25.017 -11.677   7.538  1.00  0.00     0.004 C 
ENDBRANCH  17  18
ENDBRANCH  16  17
ENDBRANCH  15  16
ENDBRANCH  14  15
ENDBRANCH  13  14
ENDBRANCH  12  13
ENDBRANCH   1  12
TORSDOF 14
ENDMDL
MODEL 9
REMARK VINA RESULT:    -3.616      9.613     12.363
REMARK INTER + INTRA:          -8.910
REMARK INTER:                  -7.220
REMARK INTRA:                  -1.690
REMARK UNBOUND:                -2.335
REMARK SMILES CCCCCCCCCCCCCC[C@@H](C)C(=O)[O-]
REMARK SMILES IDX 9 1 10 2 11 3 12 4 13 5 14 6 15 7 16 8 17 9 18 10 19 11 8 12
REMARK SMILES IDX 7 13 6 14 5 15 4 16 3 17 2 18 1 19
REMARK H PARENT
REMARK Flexibility Score: inf
ROOT
ATOM      1  C   UNL     1      29.660  -4.962   9.499  1.00  0.00     0.000 C 
ENDROOT
BRANCH   1   2
ATOM      2  C   UNL     1      29.469  -3.860  10.555  1.00  0.00     0.000 C 
BRANCH   2   3
ATOM      3  C   UNL     1      29.098  -2.503   9.933  1.00  0.00     0.000 C 
BRANCH   3   4
ATOM      4  C   UNL     1      27.785  -1.931  10.499  1.00  0.00     0.000 C 
BRANCH   4   5
ATOM      5  C   UNL     1      26.567  -2.272   9.625  1.00  0.00     0.001 C 
BRANCH   5   6
ATOM      6  C   UNL     1      25.267  -2.387  10.442  1.00  0.00     0.009 C 
BRANCH   6   7
ATOM      7  C   UNL     1      24.006  -2.417   9.551  1.00  0.00     0.032 C 
ATOM      8  C   UNL     1      23.062  -3.573   9.910  1.00  0.00     0.014 C 
BRANCH   7   9
ATOM      9  C   UNL     1      23.269  -1.109   9.661  1.00  0.00     0.044 C 
ATOM     10  O   UNL     1      22.022  -1.061   9.485  1.00  0.00    -0.550 OA
ATOM     11  O   UNL     1      23.964   0.055   9.959  1.00  0.00    -0.550 OA
ENDBRANCH   7   9
ENDBRANCH   6   7
ENDBRANCH   5   6
ENDBRANCH   4   5
ENDBRANCH   3   4
ENDBRANCH   2   3
ENDBRANCH   1   2
BRANCH   1  12
ATOM     12  C   UNL     1      28.644  -4.861   8.350  1.00  0.00     0.000 C 
BRANCH  12  13
ATOM     13  C   UNL     1      28.345  -6.220   7.699  1.00  0.00    -0.000 C 
BRANCH  13  14
ATOM     14  C   UNL     1      27.168  -6.114   6.722  1.00  0.00    -0.000 C 
BRANCH  14  15
ATOM     15  C   UNL     1      26.497  -4.738   6.811  1.00  0.00    -0.000 C 
BRANCH  15  16
ATOM     16  C   UNL     1      24.976  -4.878   6.968  1.00  0.00    -0.000 C 
BRANCH  16  17
ATOM     17  C   UNL     1      24.475  -6.296   6.655  1.00  0.00    -0.000 C 
BRANCH  17  18
ATOM     18  C   UNL     1      23.458  -6.806   7.687  1.00  0.00    -0.003 C 
ATOM     19  C   UNL     1      23.733  -8.261   8.057  1.00  0.00     0.004 C 
ENDBRANCH  17  18
ENDBRANCH  16  17
ENDBRANCH  15  16
ENDBRANCH  14  15
ENDBRANCH  13  14
ENDBRANCH  12  13
ENDBRANCH   1  12
TORSDOF 14
ENDMDL
