MODEL 1
REMARK VINA RESULT:    -4.340      0.000      0.000
REMARK INTER + INTRA:          -8.497
REMARK INTER:                  -6.877
REMARK INTRA:                  -1.620
REMARK UNBOUND:                -1.620
REMARK SMILES CCCCCCCCCCCC(=O)[O-]
REMARK SMILES IDX 7 1 8 2 9 3 10 4 11 5 12 6 13 7 14 8 6 9 5 10 4 11 3 12 2 13
REMARK SMILES IDX 1 14
REMARK H PARENT
REMARK Flexibility Score: inf
ROOT
ATOM      1  C   UNL     1     159.735 161.041 148.081  1.00  0.00     0.000 C 
ENDROOT
BRANCH   1   2
ATOM      2  C   UNL     1     161.067 161.021 148.848  1.00  0.00     0.000 C 
BRANCH   2   3
ATOM      3  C   UNL     1     160.876 160.869 150.364  1.00  0.00     0.000 C 
BRANCH   3   4
ATOM      4  C   UNL     1     159.441 161.232 150.775  1.00  0.00     0.006 C 
BRANCH   4   5
ATOM      5  C   UNL     1     158.863 160.248 151.800  1.00  0.00     0.053 C 
BRANCH   5   6
ATOM      6  C   UNL     1     158.870 160.821 153.184  1.00  0.00     0.041 C 
ATOM      7  O   UNL     1     159.656 160.367 154.055  1.00  0.00    -0.550 OA
ATOM      8  O   UNL     1     157.984 161.837 153.519  1.00  0.00    -0.550 OA
ENDBRANCH   5   6
ENDBRANCH   4   5
ENDBRANCH   3   4
ENDBRANCH   2   3
ENDBRANCH   1   2
BRANCH   1   9
ATOM      9  C   UNL     1     159.660 159.957 146.996  1.00  0.00     0.000 C 
BRANCH   9  10
ATOM     10  C   UNL     1     159.774 158.556 147.610  1.00  0.00    -0.000 C 
BRANCH  10  11
ATOM     11  C   UNL     1     158.587 158.260 148.533  1.00  0.00    -0.000 C 
BRANCH  11  12
ATOM     12  C   UNL     1     158.964 157.217 149.597  1.00  0.00    -0.000 C 
BRANCH  12  13
ATOM     13  C   UNL     1     160.477 157.167 149.863  1.00  0.00    -0.003 C 
ATOM     14  C   UNL     1     160.816 157.175 151.354  1.00  0.00     0.004 C 
ENDBRANCH  12  13
ENDBRANCH  11  12
ENDBRANCH  10  11
ENDBRANCH   9  10
ENDBRANCH   1   9
TORSDOF 10
ENDMDL
MODEL 2
REMARK VINA RESULT:    -4.309      1.431      3.413
REMARK INTER + INTRA:          -8.447
REMARK INTER:                  -6.875
REMARK INTRA:                  -1.573
REMARK UNBOUND:                -1.620
REMARK SMILES CCCCCCCCCCCC(=O)[O-]
REMARK SMILES IDX 7 1 8 2 9 3 10 4 11 5 12 6 13 7 14 8 6 9 5 10 4 11 3 12 2 13
REMARK SMILES IDX 1 14
REMARK H PARENT
REMARK Flexibility Score: inf
ROOT
ATOM      1  C   UNL     1     159.492 157.950 148.486  1.00  0.00     0.000 C 
ENDROOT
BRANCH   1   2
ATOM      2  C   UNL     1     158.287 158.199 149.408  1.00  0.00     0.000 C 
BRANCH   2   3
ATOM      3  C   UNL     1     158.703 158.629 150.823  1.00  0.00     0.000 C 
BRANCH   3   4
ATOM      4  C   UNL     1     160.232 158.620 150.972  1.00  0.00     0.006 C 
BRANCH   4   5
ATOM      5  C   UNL     1     160.735 159.760 151.868  1.00  0.00     0.053 C 
BRANCH   5   6
ATOM      6  C   UNL     1     160.311 159.573 153.292  1.00  0.00     0.041 C 
ATOM      7  O   UNL     1     160.792 158.634 153.979  1.00  0.00    -0.550 OA
ATOM      8  O   UNL     1     159.360 160.417 153.851  1.00  0.00    -0.550 OA
ENDBRANCH   5   6
ENDBRANCH   4   5
ENDBRANCH   3   4
ENDBRANCH   2   3
ENDBRANCH   1   2
BRANCH   1   9
ATOM      9  C   UNL     1     159.521 158.900 147.280  1.00  0.00     0.000 C 
BRANCH   9  10
ATOM     10  C   UNL     1     159.110 160.320 147.690  1.00  0.00    -0.000 C 
BRANCH  10  11
ATOM     11  C   UNL     1     160.338 161.226 147.845  1.00  0.00    -0.000 C 
BRANCH  11  12
ATOM     12  C   UNL     1     160.192 162.145 149.068  1.00  0.00    -0.000 C 
BRANCH  12  13
ATOM     13  C   UNL     1     158.800 162.055 149.711  1.00  0.00    -0.003 C 
ATOM     14  C   UNL     1     158.759 162.647 151.119  1.00  0.00     0.004 C 
ENDBRANCH  12  13
ENDBRANCH  11  12
ENDBRANCH  10  11
ENDBRANCH   9  10
ENDBRANCH   1   9
TORSDOF 10
ENDMDL
MODEL 3
REMARK VINA RESULT:    -4.305      0.990      3.199
REMARK INTER + INTRA:          -8.442
REMARK INTER:                  -7.153
REMARK INTRA:                  -1.289
REMARK UNBOUND:                -1.620
REMARK SMILES CCCCCCCCCCCC(=O)[O-]
REMARK SMILES IDX 7 1 8 2 9 3 10 4 11 5 12 6 13 7 14 8 6 9 5 10 4 11 3 12 2 13
REMARK SMILES IDX 1 14
REMARK H PARENT
REMARK Flexibility Score: inf
ROOT
ATOM      1  C   UNL     1     159.571 156.910 149.133  1.00  0.00     0.000 C 
ENDROOT
BRANCH   1   2
ATOM      2  C   UNL     1     160.752 157.449 149.955  1.00  0.00     0.000 C 
BRANCH   2   3
ATOM      3  C   UNL     1     160.422 157.579 151.450  1.00  0.00     0.000 C 
BRANCH   3   4
ATOM      4  C   UNL     1     160.504 159.044 151.904  1.00  0.00     0.006 C 
BRANCH   4   5
ATOM      5  C   UNL     1     159.214 159.819 151.605  1.00  0.00     0.053 C 
BRANCH   5   6
ATOM      6  C   UNL     1     159.004 160.941 152.574  1.00  0.00     0.041 C 
ATOM      7  O   UNL     1     158.804 162.111 152.156  1.00  0.00    -0.550 OA
ATOM      8  O   UNL     1     159.062 160.699 153.941  1.00  0.00    -0.550 OA
ENDBRANCH   5   6
ENDBRANCH   4   5
ENDBRANCH   3   4
ENDBRANCH   2   3
ENDBRANCH   1   2
BRANCH   1   9
ATOM      9  C   UNL     1     158.945 157.979 148.225  1.00  0.00     0.000 C 
BRANCH   9  10
ATOM     10  C   UNL     1     160.012 158.947 147.698  1.00  0.00    -0.000 C 
BRANCH  10  11
ATOM     11  C   UNL     1     159.427 160.347 147.480  1.00  0.00    -0.000 C 
BRANCH  11  12
ATOM     12  C   UNL     1     160.449 161.434 147.851  1.00  0.00    -0.000 C 
BRANCH  12  13
ATOM     13  C   UNL     1     161.349 161.020 149.026  1.00  0.00    -0.003 C 
ATOM     14  C   UNL     1     161.937 162.218 149.771  1.00  0.00     0.004 C 
ENDBRANCH  12  13
ENDBRANCH  11  12
ENDBRANCH  10  11
ENDBRANCH   9  10
ENDBRANCH   1   9
TORSDOF 10
ENDMDL
MODEL 4
REMARK VINA RESULT:    -4.287      1.600      2.270
REMARK INTER + INTRA:          -8.413
REMARK INTER:                  -6.978
REMARK INTRA:                  -1.435
REMARK UNBOUND:                -1.620
REMARK SMILES CCCCCCCCCCCC(=O)[O-]
REMARK SMILES IDX 7 1 8 2 9 3 10 4 11 5 12 6 13 7 14 8 6 9 5 10 4 11 3 12 2 13
REMARK SMILES IDX 1 14
REMARK H PARENT
REMARK Flexibility Score: inf
ROOT
ATOM      1  C   UNL     1     160.597 161.921 148.157  1.00  0.00     0.000 C 
ENDROOT
BRANCH   1   2
ATOM      2  C   UNL     1     160.628 162.213 149.665  1.00  0.00     0.000 C 
BRANCH   2   3
ATOM      3  C   UNL     1     159.291 161.908 150.356  1.00  0.00     0.000 C 
BRANCH   3   4
ATOM      4  C   UNL     1     159.505 161.050 151.612  1.00  0.00     0.006 C 
BRANCH   4   5
ATOM      5  C   UNL     1     160.638 160.031 151.433  1.00  0.00     0.053 C 
BRANCH   5   6
ATOM      6  C   UNL     1     160.432 158.818 152.287  1.00  0.00     0.041 C 
ATOM      7  O   UNL     1     160.520 157.667 151.786  1.00  0.00    -0.550 OA
ATOM      8  O   UNL     1     160.110 158.960 153.630  1.00  0.00    -0.550 OA
ENDBRANCH   5   6
ENDBRANCH   4   5
ENDBRANCH   3   4
ENDBRANCH   2   3
ENDBRANCH   1   2
BRANCH   1   9
ATOM      9  C   UNL     1     159.684 160.738 147.802  1.00  0.00     0.000 C 
BRANCH   9  10
ATOM     10  C   UNL     1     160.483 159.431 147.721  1.00  0.00    -0.000 C 
BRANCH  10  11
ATOM     11  C   UNL     1     159.613 158.228 148.105  1.00  0.00    -0.000 C 
BRANCH  11  12
ATOM     12  C   UNL     1     158.362 158.678 148.876  1.00  0.00    -0.000 C 
BRANCH  12  13
ATOM     13  C   UNL     1     157.668 157.515 149.603  1.00  0.00    -0.003 C 
ATOM     14  C   UNL     1     158.210 156.148 149.187  1.00  0.00     0.004 C 
ENDBRANCH  12  13
ENDBRANCH  11  12
ENDBRANCH  10  11
ENDBRANCH   9  10
ENDBRANCH   1   9
TORSDOF 10
ENDMDL
MODEL 5
REMARK VINA RESULT:    -4.282      1.749      4.009
REMARK INTER + INTRA:          -8.406
REMARK INTER:                  -7.065
REMARK INTRA:                  -1.341
REMARK UNBOUND:                -1.620
REMARK SMILES CCCCCCCCCCCC(=O)[O-]
REMARK SMILES IDX 7 1 8 2 9 3 10 4 11 5 12 6 13 7 14 8 6 9 5 10 4 11 3 12 2 13
REMARK SMILES IDX 1 14
REMARK H PARENT
REMARK Flexibility Score: inf
ROOT
ATOM      1  C   UNL     1     159.632 160.102 147.136  1.00  0.00     0.000 C 
ENDROOT
BRANCH   1   2
ATOM      2  C   UNL     1     159.586 158.801 147.951  1.00  0.00     0.000 C 
BRANCH   2   3
ATOM      3  C   UNL     1     158.381 158.740 148.903  1.00  0.00     0.000 C 
BRANCH   3   4
ATOM      4  C   UNL     1     158.744 158.002 150.200  1.00  0.00     0.006 C 
BRANCH   4   5
ATOM      5  C   UNL     1     160.082 157.258 150.091  1.00  0.00     0.053 C 
BRANCH   5   6
ATOM      6  C   UNL     1     160.754 157.128 151.422  1.00  0.00     0.041 C 
ATOM      7  O   UNL     1     161.494 156.139 151.666  1.00  0.00    -0.550 OA
ATOM      8  O   UNL     1     160.537 158.083 152.407  1.00  0.00    -0.550 OA
ENDBRANCH   5   6
ENDBRANCH   4   5
ENDBRANCH   3   4
ENDBRANCH   2   3
ENDBRANCH   1   2
BRANCH   1   9
ATOM      9  C   UNL     1     160.345 161.242 147.879  1.00  0.00     0.000 C 
BRANCH   9  10
ATOM     10  C   UNL     1     161.236 160.693 149.000  1.00  0.00    -0.000 C 
BRANCH  10  11
ATOM     11  C   UNL     1     160.800 161.234 150.367  1.00  0.00    -0.000 C 
BRANCH  11  12
ATOM     12  C   UNL     1     159.701 162.297 150.211  1.00  0.00    -0.000 C 
BRANCH  12  13
ATOM     13  C   UNL     1     158.791 162.389 151.446  1.00  0.00    -0.003 C 
ATOM     14  C   UNL     1     158.948 161.196 152.388  1.00  0.00     0.004 C 
ENDBRANCH  12  13
ENDBRANCH  11  12
ENDBRANCH  10  11
ENDBRANCH   9  10
ENDBRANCH   1   9
TORSDOF 10
ENDMDL
MODEL 6
REMARK VINA RESULT:    -4.252      2.660      4.082
REMARK INTER + INTRA:          -8.359
REMARK INTER:                  -6.975
REMARK INTRA:                  -1.384
REMARK UNBOUND:                -1.620
REMARK SMILES CCCCCCCCCCCC(=O)[O-]
REMARK SMILES IDX 7 1 8 2 9 3 10 4 11 5 12 6 13 7 14 8 6 9 5 10 4 11 3 12 2 13
REMARK SMILES IDX 1 14
REMARK H PARENT
REMARK Flexibility Score: inf
ROOT
ATOM      1  C   UNL     1     159.653 158.939 151.630  1.00  0.00     0.000 C 
ENDROOT
BRANCH   1   2
ATOM      2  C   UNL     1     160.475 160.203 151.336  1.00  0.00     0.000 C 
BRANCH   2   3
ATOM      3  C   UNL     1     159.640 161.313 150.680  1.00  0.00     0.000 C 
BRANCH   3   4
ATOM      4  C   UNL     1     160.545 162.341 149.983  1.00  0.00     0.006 C 
BRANCH   4   5
ATOM      5  C   UNL     1     161.918 161.757 149.625  1.00  0.00     0.053 C 
BRANCH   5   6
ATOM      6  C   UNL     1     163.021 162.736 149.885  1.00  0.00     0.041 C 
ATOM      7  O   UNL     1     164.132 162.339 150.322  1.00  0.00    -0.550 OA
ATOM      8  O   UNL     1     162.810 164.093 149.674  1.00  0.00    -0.550 OA
ENDBRANCH   5   6
ENDBRANCH   4   5
ENDBRANCH   3   4
ENDBRANCH   2   3
ENDBRANCH   1   2
BRANCH   1   9
ATOM      9  C   UNL     1     160.465 157.648 151.447  1.00  0.00     0.000 C 
BRANCH   9  10
ATOM     10  C   UNL     1     160.712 157.360 149.961  1.00  0.00    -0.000 C 
BRANCH  10  11
ATOM     11  C   UNL     1     159.411 156.958 149.254  1.00  0.00    -0.000 C 
BRANCH  11  12
ATOM     12  C   UNL     1     159.160 157.841 148.021  1.00  0.00    -0.000 C 
BRANCH  12  13
ATOM     13  C   UNL     1     160.284 158.863 147.789  1.00  0.00    -0.003 C 
ATOM     14  C   UNL     1     159.812 160.097 147.021  1.00  0.00     0.004 C 
ENDBRANCH  12  13
ENDBRANCH  11  12
ENDBRANCH  10  11
ENDBRANCH   9  10
ENDBRANCH   1   9
TORSDOF 10
ENDMDL
MODEL 7
REMARK VINA RESULT:    -4.246      2.472      3.972
REMARK INTER + INTRA:          -8.349
REMARK INTER:                  -6.863
REMARK INTRA:                  -1.486
REMARK UNBOUND:                -1.620
REMARK SMILES CCCCCCCCCCCC(=O)[O-]
REMARK SMILES IDX 7 1 8 2 9 3 10 4 11 5 12 6 13 7 14 8 6 9 5 10 4 11 3 12 2 13
REMARK SMILES IDX 1 14
REMARK H PARENT
REMARK Flexibility Score: inf
ROOT
ATOM      1  C   UNL     1     159.591 158.528 148.017  1.00  0.00     0.000 C 
ENDROOT
BRANCH   1   2
ATOM      2  C   UNL     1     158.568 159.560 148.518  1.00  0.00     0.000 C 
BRANCH   2   3
ATOM      3  C   UNL     1     159.165 160.969 148.654  1.00  0.00     0.000 C 
BRANCH   3   4
ATOM      4  C   UNL     1     160.677 160.952 148.386  1.00  0.00     0.006 C 
BRANCH   4   5
ATOM      5  C   UNL     1     161.494 161.275 149.644  1.00  0.00     0.053 C 
BRANCH   5   6
ATOM      6  C   UNL     1     162.103 162.641 149.573  1.00  0.00     0.041 C 
ATOM      7  O   UNL     1     161.415 163.625 149.195  1.00  0.00    -0.550 OA
ATOM      8  O   UNL     1     163.443 162.823 149.894  1.00  0.00    -0.550 OA
ENDBRANCH   5   6
ENDBRANCH   4   5
ENDBRANCH   3   4
ENDBRANCH   2   3
ENDBRANCH   1   2
BRANCH   1   9
ATOM      9  C   UNL     1     159.662 157.282 148.912  1.00  0.00     0.000 C 
BRANCH   9  10
ATOM     10  C   UNL     1     160.826 157.384 149.905  1.00  0.00    -0.000 C 
BRANCH  10  11
ATOM     11  C   UNL     1     160.314 157.479 151.347  1.00  0.00    -0.000 C 
BRANCH  11  12
ATOM     12  C   UNL     1     160.384 158.925 151.861  1.00  0.00    -0.000 C 
BRANCH  12  13
ATOM     13  C   UNL     1     158.994 159.523 152.133  1.00  0.00    -0.003 C 
ATOM     14  C   UNL     1     159.051 160.997 152.531  1.00  0.00     0.004 C 
ENDBRANCH  12  13
ENDBRANCH  11  12
ENDBRANCH  10  11
ENDBRANCH   9  10
ENDBRANCH   1   9
TORSDOF 10
ENDMDL
MODEL 8
REMARK VINA RESULT:    -4.210      2.587      4.134
REMARK INTER + INTRA:          -8.291
REMARK INTER:                  -6.927
REMARK INTRA:                  -1.364
REMARK UNBOUND:                -1.620
REMARK SMILES CCCCCCCCCCCC(=O)[O-]
REMARK SMILES IDX 7 1 8 2 9 3 10 4 11 5 12 6 13 7 14 8 6 9 5 10 4 11 3 12 2 13
REMARK SMILES IDX 1 14
REMARK H PARENT
REMARK Flexibility Score: inf
ROOT
ATOM      1  C   UNL     1     161.006 160.699 148.827  1.00  0.00     0.000 C 
ENDROOT
BRANCH   1   2
ATOM      2  C   UNL     1     160.015 160.755 147.655  1.00  0.00     0.000 C 
BRANCH   2   3
ATOM      3  C   UNL     1     159.745 159.373 147.040  1.00  0.00     0.000 C 
BRANCH   3   4
ATOM      4  C   UNL     1     159.591 158.307 148.134  1.00  0.00     0.006 C 
BRANCH   4   5
ATOM      5  C   UNL     1     158.242 158.408 148.858  1.00  0.00     0.053 C 
BRANCH   5   6
ATOM      6  C   UNL     1     157.751 157.066 149.305  1.00  0.00     0.041 C 
ATOM      7  O   UNL     1     158.394 156.025 149.012  1.00  0.00    -0.550 OA
ATOM      8  O   UNL     1     156.564 156.962 150.019  1.00  0.00    -0.550 OA
ENDBRANCH   5   6
ENDBRANCH   4   5
ENDBRANCH   3   4
ENDBRANCH   2   3
ENDBRANCH   1   2
BRANCH   1   9
ATOM      9  C   UNL     1     160.748 161.792 149.874  1.00  0.00     0.000 C 
BRANCH   9  10
ATOM     10  C   UNL     1     159.294 161.753 150.363  1.00  0.00    -0.000 C 
BRANCH  10  11
ATOM     11  C   UNL     1     159.223 161.408 151.855  1.00  0.00    -0.000 C 
BRANCH  11  12
ATOM     12  C   UNL     1     158.989 159.903 152.061  1.00  0.00    -0.000 C 
BRANCH  12  13
ATOM     13  C   UNL     1     160.252 159.170 152.539  1.00  0.00    -0.003 C 
ATOM     14  C   UNL     1     160.542 157.904 151.733  1.00  0.00     0.004 C 
ENDBRANCH  12  13
ENDBRANCH  11  12
ENDBRANCH  10  11
ENDBRANCH   9  10
ENDBRANCH   1   9
TORSDOF 10
ENDMDL
MODEL 9
REMARK VINA RESULT:    -4.182      2.941      4.993
REMARK INTER + INTRA:          -8.246
REMARK INTER:                  -6.929
REMARK INTRA:                  -1.317
REMARK UNBOUND:                -1.620
REMARK SMILES CCCCCCCCCCCC(=O)[O-]
REMARK SMILES IDX 7 1 8 2 9 3 10 4 11 5 12 6 13 7 14 8 6 9 5 10 4 11 3 12 2 13
REMARK SMILES IDX 1 14
REMARK H PARENT
REMARK Flexibility Score: inf
ROOT
ATOM      1  C   UNL     1     158.875 159.895 151.779  1.00  0.00     0.000 C 
ENDROOT
BRANCH   1   2
ATOM      2  C   UNL     1     160.016 158.893 151.543  1.00  0.00     0.000 C 
BRANCH   2   3
ATOM      3  C   UNL     1     159.654 157.816 150.509  1.00  0.00     0.000 C 
BRANCH   3   4
ATOM      4  C   UNL     1     158.190 157.952 150.064  1.00  0.00     0.006 C 
BRANCH   4   5
ATOM      5  C   UNL     1     157.687 156.701 149.332  1.00  0.00     0.053 C 
BRANCH   5   6
ATOM      6  C   UNL     1     156.393 156.208 149.904  1.00  0.00     0.041 C 
ATOM      7  O   UNL     1     155.541 157.024 150.343  1.00  0.00    -0.550 OA
ATOM      8  O   UNL     1     156.143 154.844 149.982  1.00  0.00    -0.550 OA
ENDBRANCH   5   6
ENDBRANCH   4   5
ENDBRANCH   3   4
ENDBRANCH   2   3
ENDBRANCH   1   2
BRANCH   1   9
ATOM      9  C   UNL     1     159.345 161.355 151.706  1.00  0.00     0.000 C 
BRANCH   9  10
ATOM     10  C   UNL     1     158.856 162.026 150.416  1.00  0.00    -0.000 C 
BRANCH  10  11
ATOM     11  C   UNL     1     160.036 162.517 149.569  1.00  0.00    -0.000 C 
BRANCH  11  12
ATOM     12  C   UNL     1     160.482 161.438 148.570  1.00  0.00    -0.000 C 
BRANCH  12  13
ATOM     13  C   UNL     1     159.296 160.712 147.916  1.00  0.00    -0.003 C 
ATOM     14  C   UNL     1     159.734 159.619 146.943  1.00  0.00     0.004 C 
ENDBRANCH  12  13
ENDBRANCH  11  12
ENDBRANCH  10  11
ENDBRANCH   9  10
ENDBRANCH   1   9
TORSDOF 10
ENDMDL
