MODEL 1
REMARK VINA RESULT:    -2.423      0.000      0.000
REMARK INTER + INTRA:          -3.943
REMARK INTER:                  -3.415
REMARK INTRA:                  -0.528
REMARK UNBOUND:                -0.528
REMARK SMILES CCCCCCCCC=O
REMARK SMILES IDX 5 1 4 2 3 3 2 4 1 5 6 6 7 7 8 8 9 9 10 10
REMARK H PARENT
REMARK Flexibility Score: inf
ROOT
ATOM      1  C   UNL     1     107.365 110.065 103.875  1.00  0.00     0.000 C 
ENDROOT
BRANCH   1   2
ATOM      2  C   UNL     1     108.880 109.801 103.885  1.00  0.00    -0.000 C 
BRANCH   2   3
ATOM      3  C   UNL     1     109.288 108.718 104.900  1.00  0.00    -0.000 C 
BRANCH   3   4
ATOM      4  C   UNL     1     108.151 108.364 105.870  1.00  0.00    -0.003 C 
ATOM      5  C   UNL     1     107.756 106.889 105.802  1.00  0.00     0.004 C 
ENDBRANCH   3   4
ENDBRANCH   2   3
ENDBRANCH   1   2
BRANCH   1   6
ATOM      6  C   UNL     1     107.029 111.566 103.875  1.00  0.00     0.000 C 
BRANCH   6   7
ATOM      7  C   UNL     1     107.740 112.342 104.999  1.00  0.00     0.008 C 
BRANCH   7   8
ATOM      8  C   UNL     1     107.222 112.011 106.409  1.00  0.00     0.072 C 
BRANCH   8   9
ATOM      9  C   UNL     1     106.394 113.124 106.980  1.00  0.00     0.224 C 
ATOM     10  O   UNL     1     106.903 113.960 107.709  1.00  0.00    -0.303 OA
ENDBRANCH   8   9
ENDBRANCH   7   8
ENDBRANCH   6   7
ENDBRANCH   1   6
TORSDOF 7
ENDMDL
MODEL 2
REMARK VINA RESULT:    -2.402      3.889      5.615
REMARK INTER + INTRA:          -3.912
REMARK INTER:                  -3.141
REMARK INTRA:                  -0.772
REMARK UNBOUND:                -0.528
REMARK SMILES CCCCCCCCC=O
REMARK SMILES IDX 5 1 4 2 3 3 2 4 1 5 6 6 7 7 8 8 9 9 10 10
REMARK H PARENT
REMARK Flexibility Score: inf
ROOT
ATOM      1  C   UNL     1     111.419 108.451 107.598  1.00  0.00     0.000 C 
ENDROOT
BRANCH   1   2
ATOM      2  C   UNL     1     112.543 108.838 106.623  1.00  0.00    -0.000 C 
BRANCH   2   3
ATOM      3  C   UNL     1     112.902 107.701 105.650  1.00  0.00    -0.000 C 
BRANCH   3   4
ATOM      4  C   UNL     1     113.326 108.222 104.268  1.00  0.00    -0.003 C 
ATOM      5  C   UNL     1     112.739 109.598 103.951  1.00  0.00     0.004 C 
ENDBRANCH   3   4
ENDBRANCH   2   3
ENDBRANCH   1   2
BRANCH   1   6
ATOM      6  C   UNL     1     110.101 108.121 106.878  1.00  0.00     0.000 C 
BRANCH   6   7
ATOM      7  C   UNL     1     109.597 109.273 105.989  1.00  0.00     0.008 C 
BRANCH   7   8
ATOM      8  C   UNL     1     108.915 108.807 104.692  1.00  0.00     0.072 C 
BRANCH   8   9
ATOM      9  C   UNL     1     109.433 107.477 104.229  1.00  0.00     0.224 C 
ATOM     10  O   UNL     1     108.658 106.603 103.876  1.00  0.00    -0.303 OA
ENDBRANCH   8   9
ENDBRANCH   7   8
ENDBRANCH   6   7
ENDBRANCH   1   6
TORSDOF 7
ENDMDL
MODEL 3
REMARK VINA RESULT:    -2.350      3.995      4.962
REMARK INTER + INTRA:          -3.839
REMARK INTER:                  -3.296
REMARK INTRA:                  -0.543
REMARK UNBOUND:                -0.528
REMARK SMILES CCCCCCCCC=O
REMARK SMILES IDX 5 1 4 2 3 3 2 4 1 5 6 6 7 7 8 8 9 9 10 10
REMARK H PARENT
REMARK Flexibility Score: inf
ROOT
ATOM      1  C   UNL     1     109.785 108.967 104.324  1.00  0.00     0.000 C 
ENDROOT
BRANCH   1   2
ATOM      2  C   UNL     1     111.316 109.092 104.260  1.00  0.00    -0.000 C 
BRANCH   2   3
ATOM      3  C   UNL     1     112.031 107.740 104.427  1.00  0.00    -0.000 C 
BRANCH   3   4
ATOM      4  C   UNL     1     113.034 107.745 105.591  1.00  0.00    -0.003 C 
ATOM      5  C   UNL     1     112.610 108.670 106.731  1.00  0.00     0.004 C 
ENDBRANCH   3   4
ENDBRANCH   2   3
ENDBRANCH   1   2
BRANCH   1   6
ATOM      6  C   UNL     1     109.291 107.567 103.923  1.00  0.00     0.000 C 
BRANCH   6   7
ATOM      7  C   UNL     1     108.315 106.957 104.946  1.00  0.00     0.008 C 
BRANCH   7   8
ATOM      8  C   UNL     1     108.537 107.446 106.387  1.00  0.00     0.072 C 
BRANCH   8   9
ATOM      9  C   UNL     1     107.396 107.077 107.289  1.00  0.00     0.224 C 
ATOM     10  O   UNL     1     106.626 106.185 106.975  1.00  0.00    -0.303 OA
ENDBRANCH   8   9
ENDBRANCH   7   8
ENDBRANCH   6   7
ENDBRANCH   1   6
TORSDOF 7
ENDMDL
MODEL 4
REMARK VINA RESULT:    -2.349      5.225      6.606
REMARK INTER + INTRA:          -3.839
REMARK INTER:                  -3.304
REMARK INTRA:                  -0.535
REMARK UNBOUND:                -0.528
REMARK SMILES CCCCCCCCC=O
REMARK SMILES IDX 5 1 4 2 3 3 2 4 1 5 6 6 7 7 8 8 9 9 10 10
REMARK H PARENT
REMARK Flexibility Score: inf
ROOT
ATOM      1  C   UNL     1     111.744 110.935 104.493  1.00  0.00     0.000 C 
ENDROOT
BRANCH   1   2
ATOM      2  C   UNL     1     112.248 112.359 104.204  1.00  0.00    -0.000 C 
BRANCH   2   3
ATOM      3  C   UNL     1     112.250 113.254 105.455  1.00  0.00    -0.000 C 
BRANCH   3   4
ATOM      4  C   UNL     1     111.649 112.552 106.682  1.00  0.00    -0.003 C 
ATOM      5  C   UNL     1     112.647 112.419 107.832  1.00  0.00     0.004 C 
ENDBRANCH   3   4
ENDBRANCH   2   3
ENDBRANCH   1   2
BRANCH   1   6
ATOM      6  C   UNL     1     112.646 109.854 103.875  1.00  0.00     0.000 C 
BRANCH   6   7
ATOM      7  C   UNL     1     112.836 108.632 104.793  1.00  0.00     0.008 C 
BRANCH   7   8
ATOM      8  C   UNL     1     112.493 108.901 106.268  1.00  0.00     0.072 C 
BRANCH   8   9
ATOM      9  C   UNL     1     112.899 107.764 107.158  1.00  0.00     0.224 C 
ATOM     10  O   UNL     1     113.734 106.956 106.784  1.00  0.00    -0.303 OA
ENDBRANCH   8   9
ENDBRANCH   7   8
ENDBRANCH   6   7
ENDBRANCH   1   6
TORSDOF 7
ENDMDL
MODEL 5
REMARK VINA RESULT:    -2.326      2.126      3.140
REMARK INTER + INTRA:          -3.806
REMARK INTER:                  -3.002
REMARK INTRA:                  -0.804
REMARK UNBOUND:                -0.528
REMARK SMILES CCCCCCCCC=O
REMARK SMILES IDX 5 1 4 2 3 3 2 4 1 5 6 6 7 7 8 8 9 9 10 10
REMARK H PARENT
REMARK Flexibility Score: inf
ROOT
ATOM      1  C   UNL     1     108.663 108.911 107.320  1.00  0.00     0.000 C 
ENDROOT
BRANCH   1   2
ATOM      2  C   UNL     1     109.158 107.746 106.447  1.00  0.00    -0.000 C 
BRANCH   2   3
ATOM      3  C   UNL     1     108.189 107.410 105.300  1.00  0.00    -0.000 C 
BRANCH   3   4
ATOM      4  C   UNL     1     108.895 107.331 103.938  1.00  0.00    -0.003 C 
ATOM      5  C   UNL     1     110.206 108.118 103.907  1.00  0.00     0.004 C 
ENDBRANCH   3   4
ENDBRANCH   2   3
ENDBRANCH   1   2
BRANCH   1   6
ATOM      6  C   UNL     1     107.927 109.988 106.505  1.00  0.00     0.000 C 
BRANCH   6   7
ATOM      7  C   UNL     1     108.876 111.043 105.908  1.00  0.00     0.008 C 
BRANCH   7   8
ATOM      8  C   UNL     1     108.586 111.382 104.436  1.00  0.00     0.072 C 
BRANCH   8   9
ATOM      9  C   UNL     1     107.190 111.007 104.036  1.00  0.00     0.224 C 
ATOM     10  O   UNL     1     106.341 111.869 103.880  1.00  0.00    -0.303 OA
ENDBRANCH   8   9
ENDBRANCH   7   8
ENDBRANCH   6   7
ENDBRANCH   1   6
TORSDOF 7
ENDMDL
MODEL 6
REMARK VINA RESULT:    -2.305      4.338      5.902
REMARK INTER + INTRA:          -3.777
REMARK INTER:                  -3.308
REMARK INTRA:                  -0.469
REMARK UNBOUND:                -0.528
REMARK SMILES CCCCCCCCC=O
REMARK SMILES IDX 5 1 4 2 3 3 2 4 1 5 6 6 7 7 8 8 9 9 10 10
REMARK H PARENT
REMARK Flexibility Score: inf
ROOT
ATOM      1  C   UNL     1     112.375 109.346 104.761  1.00  0.00     0.000 C 
ENDROOT
BRANCH   1   2
ATOM      2  C   UNL     1     112.513 110.609 103.894  1.00  0.00    -0.000 C 
BRANCH   2   3
ATOM      3  C   UNL     1     111.437 111.664 104.205  1.00  0.00    -0.000 C 
BRANCH   3   4
ATOM      4  C   UNL     1     112.038 112.995 104.680  1.00  0.00    -0.003 C 
ATOM      5  C   UNL     1     112.356 112.998 106.176  1.00  0.00     0.004 C 
ENDBRANCH   3   4
ENDBRANCH   2   3
ENDBRANCH   1   2
BRANCH   1   6
ATOM      6  C   UNL     1     111.127 109.382 105.659  1.00  0.00     0.000 C 
BRANCH   6   7
ATOM      7  C   UNL     1     110.217 108.154 105.473  1.00  0.00     0.008 C 
BRANCH   7   8
ATOM      8  C   UNL     1     109.835 107.878 104.008  1.00  0.00     0.072 C 
BRANCH   8   9
ATOM      9  C   UNL     1     108.424 107.385 103.877  1.00  0.00     0.224 C 
ATOM     10  O   UNL     1     108.125 106.263 104.250  1.00  0.00    -0.303 OA
ENDBRANCH   8   9
ENDBRANCH   7   8
ENDBRANCH   6   7
ENDBRANCH   1   6
TORSDOF 7
ENDMDL
MODEL 7
REMARK VINA RESULT:    -0.874      5.182      6.842
REMARK INTER + INTRA:          -1.759
REMARK INTER:                  -1.259
REMARK INTRA:                  -0.500
REMARK UNBOUND:                -0.528
REMARK SMILES CCCCCCCCC=O
REMARK SMILES IDX 5 1 4 2 3 3 2 4 1 5 6 6 7 7 8 8 9 9 10 10
REMARK H PARENT
REMARK Flexibility Score: inf
ROOT
ATOM      1  C   UNL     1     112.858 108.226 104.800  1.00  0.00     0.000 C 
ENDROOT
BRANCH   1   2
ATOM      2  C   UNL     1     111.818 107.571 103.875  1.00  0.00    -0.000 C 
BRANCH   2   3
ATOM      3  C   UNL     1     110.471 108.314 103.875  1.00  0.00    -0.000 C 
BRANCH   3   4
ATOM      4  C   UNL     1     109.277 107.368 104.075  1.00  0.00    -0.003 C 
ATOM      5  C   UNL     1     108.696 107.442 105.487  1.00  0.00     0.004 C 
ENDBRANCH   3   4
ENDBRANCH   2   3
ENDBRANCH   1   2
BRANCH   1   6
ATOM      6  C   UNL     1     112.261 108.647 106.153  1.00  0.00     0.000 C 
BRANCH   6   7
ATOM      7  C   UNL     1     112.461 107.589 107.254  1.00  0.00     0.008 C 
BRANCH   7   8
ATOM      8  C   UNL     1     113.639 106.634 106.994  1.00  0.00     0.072 C 
BRANCH   8   9
ATOM      9  C   UNL     1     113.861 105.689 108.138  1.00  0.00     0.224 C 
ATOM     10  O   UNL     1     113.755 104.484 107.972  1.00  0.00    -0.303 OA
ENDBRANCH   8   9
ENDBRANCH   7   8
ENDBRANCH   6   7
ENDBRANCH   1   6
TORSDOF 7
ENDMDL
