MODEL 1
REMARK VINA RESULT:    -5.239      0.000      0.000
REMARK INTER + INTRA:          -7.789
REMARK INTER:                  -7.383
REMARK INTRA:                  -0.406
REMARK UNBOUND:                -0.406
REMARK SMILES C=CCCCCCCC(=O)[O-]
REMARK SMILES IDX 6 1 7 2 8 3 9 4 10 5 11 6 5 7 4 8 3 9 2 10 1 11
REMARK H PARENT
REMARK Flexibility Score: inf
ROOT
ATOM      1  C   UNL     1     129.721 127.294 124.236  1.00  0.00     0.000 C 
ENDROOT
BRANCH   1   2
ATOM      2  C   UNL     1     130.874 126.275 124.303  1.00  0.00     0.006 C 
BRANCH   2   3
ATOM      3  C   UNL     1     130.844 125.423 125.579  1.00  0.00     0.053 C 
BRANCH   3   4
ATOM      4  C   UNL     1     131.231 126.247 126.765  1.00  0.00     0.041 C 
ATOM      5  O   UNL     1     130.435 126.382 127.731  1.00  0.00    -0.550 OA
ATOM      6  O   UNL     1     132.492 126.828 126.826  1.00  0.00    -0.550 OA
ENDBRANCH   3   4
ENDBRANCH   2   3
ENDBRANCH   1   2
BRANCH   1   7
ATOM      7  C   UNL     1     128.330 126.690 123.962  1.00  0.00     0.000 C 
BRANCH   7   8
ATOM      8  C   UNL     1     127.792 126.890 122.531  1.00  0.00     0.004 C 
BRANCH   8   9
ATOM      9  C   UNL     1     128.056 128.293 121.958  1.00  0.00     0.027 C 
BRANCH   9  10
ATOM     10  C   UNL     1     126.795 129.110 121.861  1.00  0.00    -0.035 C 
ATOM     11  C   UNL     1     125.607 128.621 122.233  1.00  0.00     0.004 C 
ENDBRANCH   9  10
ENDBRANCH   8   9
ENDBRANCH   7   8
ENDBRANCH   1   7
TORSDOF 7
ENDMDL
MODEL 2
REMARK VINA RESULT:    -5.167      1.452      1.623
REMARK INTER + INTRA:          -7.687
REMARK INTER:                  -7.259
REMARK INTRA:                  -0.429
REMARK UNBOUND:                -0.406
REMARK SMILES C=CCCCCCCC(=O)[O-]
REMARK SMILES IDX 6 1 7 2 8 3 9 4 10 5 11 6 5 7 4 8 3 9 2 10 1 11
REMARK H PARENT
REMARK Flexibility Score: inf
ROOT
ATOM      1  C   UNL     1     129.364 128.569 124.852  1.00  0.00     0.000 C 
ENDROOT
BRANCH   1   2
ATOM      2  C   UNL     1     129.106 127.370 125.784  1.00  0.00     0.006 C 
BRANCH   2   3
ATOM      3  C   UNL     1     129.931 127.430 127.076  1.00  0.00     0.053 C 
BRANCH   3   4
ATOM      4  C   UNL     1     131.355 127.062 126.803  1.00  0.00     0.041 C 
ATOM      5  O   UNL     1     131.628 126.135 125.996  1.00  0.00    -0.550 OA
ATOM      6  O   UNL     1     132.384 127.776 127.404  1.00  0.00    -0.550 OA
ENDBRANCH   3   4
ENDBRANCH   2   3
ENDBRANCH   1   2
BRANCH   1   7
ATOM      7  C   UNL     1     129.160 128.288 123.351  1.00  0.00     0.000 C 
BRANCH   7   8
ATOM      8  C   UNL     1     128.360 127.012 123.021  1.00  0.00     0.004 C 
BRANCH   8   9
ATOM      9  C   UNL     1     127.150 127.257 122.103  1.00  0.00     0.027 C 
BRANCH   9  10
ATOM     10  C   UNL     1     126.928 128.722 121.840  1.00  0.00    -0.035 C 
ATOM     11  C   UNL     1     125.730 129.294 122.000  1.00  0.00     0.004 C 
ENDBRANCH   9  10
ENDBRANCH   8   9
ENDBRANCH   7   8
ENDBRANCH   1   7
TORSDOF 7
ENDMDL
MODEL 3
REMARK VINA RESULT:    -5.042      3.235      5.904
REMARK INTER + INTRA:          -7.511
REMARK INTER:                  -7.107
REMARK INTRA:                  -0.404
REMARK UNBOUND:                -0.406
REMARK SMILES C=CCCCCCCC(=O)[O-]
REMARK SMILES IDX 6 1 7 2 8 3 9 4 10 5 11 6 5 7 4 8 3 9 2 10 1 11
REMARK H PARENT
REMARK Flexibility Score: inf
ROOT
ATOM      1  C   UNL     1     129.836 127.211 124.121  1.00  0.00     0.000 C 
ENDROOT
BRANCH   1   2
ATOM      2  C   UNL     1     128.327 126.907 124.161  1.00  0.00     0.006 C 
BRANCH   2   3
ATOM      3  C   UNL     1     127.722 126.702 122.766  1.00  0.00     0.053 C 
BRANCH   3   4
ATOM      4  C   UNL     1     127.121 127.977 122.265  1.00  0.00     0.041 C 
ATOM      5  O   UNL     1     127.792 128.751 121.534  1.00  0.00    -0.550 OA
ATOM      6  O   UNL     1     125.801 128.288 122.568  1.00  0.00    -0.550 OA
ENDBRANCH   3   4
ENDBRANCH   2   3
ENDBRANCH   1   2
BRANCH   1   7
ATOM      7  C   UNL     1     130.752 126.022 124.470  1.00  0.00     0.000 C 
BRANCH   7   8
ATOM      8  C   UNL     1     131.752 126.273 125.616  1.00  0.00     0.004 C 
BRANCH   8   9
ATOM      9  C   UNL     1     131.317 125.674 126.965  1.00  0.00     0.027 C 
BRANCH   9  10
ATOM     10  C   UNL     1     130.137 124.750 126.818  1.00  0.00    -0.035 C 
ATOM     11  C   UNL     1     130.230 123.441 127.068  1.00  0.00     0.004 C 
ENDBRANCH   9  10
ENDBRANCH   8   9
ENDBRANCH   7   8
ENDBRANCH   1   7
TORSDOF 7
ENDMDL
MODEL 4
REMARK VINA RESULT:    -4.905      3.095      5.616
REMARK INTER + INTRA:          -7.318
REMARK INTER:                  -6.770
REMARK INTRA:                  -0.548
REMARK UNBOUND:                -0.406
REMARK SMILES C=CCCCCCCC(=O)[O-]
REMARK SMILES IDX 6 1 7 2 8 3 9 4 10 5 11 6 5 7 4 8 3 9 2 10 1 11
REMARK H PARENT
REMARK Flexibility Score: inf
ROOT
ATOM      1  C   UNL     1     129.372 128.179 125.109  1.00  0.00     0.000 C 
ENDROOT
BRANCH   1   2
ATOM      2  C   UNL     1     129.586 127.152 123.981  1.00  0.00     0.006 C 
BRANCH   2   3
ATOM      3  C   UNL     1     128.270 126.672 123.354  1.00  0.00     0.053 C 
BRANCH   3   4
ATOM      4  C   UNL     1     127.621 127.783 122.591  1.00  0.00     0.041 C 
ATOM      5  O   UNL     1     126.415 128.078 122.804  1.00  0.00    -0.550 OA
ATOM      6  O   UNL     1     128.360 128.525 121.679  1.00  0.00    -0.550 OA
ENDBRANCH   3   4
ENDBRANCH   2   3
ENDBRANCH   1   2
BRANCH   1   7
ATOM      7  C   UNL     1     129.715 127.676 126.525  1.00  0.00     0.000 C 
BRANCH   7   8
ATOM      8  C   UNL     1     131.206 127.380 126.778  1.00  0.00     0.004 C 
BRANCH   8   9
ATOM      9  C   UNL     1     131.521 125.886 126.962  1.00  0.00     0.027 C 
BRANCH   9  10
ATOM     10  C   UNL     1     130.276 125.068 127.178  1.00  0.00    -0.035 C 
ATOM     11  C   UNL     1     130.259 123.745 126.993  1.00  0.00     0.004 C 
ENDBRANCH   9  10
ENDBRANCH   8   9
ENDBRANCH   7   8
ENDBRANCH   1   7
TORSDOF 7
ENDMDL
MODEL 5
REMARK VINA RESULT:    -4.828      1.506      1.750
REMARK INTER + INTRA:          -7.210
REMARK INTER:                  -6.956
REMARK INTRA:                  -0.254
REMARK UNBOUND:                -0.406
REMARK SMILES C=CCCCCCCC(=O)[O-]
REMARK SMILES IDX 6 1 7 2 8 3 9 4 10 5 11 6 5 7 4 8 3 9 2 10 1 11
REMARK H PARENT
REMARK Flexibility Score: inf
ROOT
ATOM      1  C   UNL     1     130.213 126.566 124.621  1.00  0.00     0.000 C 
ENDROOT
BRANCH   1   2
ATOM      2  C   UNL     1     130.665 126.817 126.072  1.00  0.00     0.006 C 
BRANCH   2   3
ATOM      3  C   UNL     1     131.235 125.562 126.746  1.00  0.00     0.053 C 
BRANCH   3   4
ATOM      4  C   UNL     1     130.134 124.609 127.088  1.00  0.00     0.041 C 
ATOM      5  O   UNL     1     129.139 125.000 127.751  1.00  0.00    -0.550 OA
ATOM      6  O   UNL     1     130.185 123.297 126.632  1.00  0.00    -0.550 OA
ENDBRANCH   3   4
ENDBRANCH   2   3
ENDBRANCH   1   2
BRANCH   1   7
ATOM      7  C   UNL     1     128.689 126.459 124.419  1.00  0.00     0.000 C 
BRANCH   7   8
ATOM      8  C   UNL     1     128.178 126.865 123.023  1.00  0.00     0.004 C 
BRANCH   8   9
ATOM      9  C   UNL     1     128.125 128.385 122.797  1.00  0.00     0.027 C 
BRANCH   9  10
ATOM     10  C   UNL     1     127.157 128.761 121.707  1.00  0.00    -0.035 C 
ATOM     11  C   UNL     1     125.947 129.259 121.979  1.00  0.00     0.004 C 
ENDBRANCH   9  10
ENDBRANCH   8   9
ENDBRANCH   7   8
ENDBRANCH   1   7
TORSDOF 7
ENDMDL
MODEL 6
REMARK VINA RESULT:    -4.828      3.566      6.095
REMARK INTER + INTRA:          -7.210
REMARK INTER:                  -6.883
REMARK INTRA:                  -0.327
REMARK UNBOUND:                -0.406
REMARK SMILES C=CCCCCCCC(=O)[O-]
REMARK SMILES IDX 6 1 7 2 8 3 9 4 10 5 11 6 5 7 4 8 3 9 2 10 1 11
REMARK H PARENT
REMARK Flexibility Score: inf
ROOT
ATOM      1  C   UNL     1     128.121 127.199 123.995  1.00  0.00     0.000 C 
ENDROOT
BRANCH   1   2
ATOM      2  C   UNL     1     127.655 127.075 122.532  1.00  0.00     0.006 C 
BRANCH   2   3
ATOM      3  C   UNL     1     127.562 128.431 121.819  1.00  0.00     0.053 C 
BRANCH   3   4
ATOM      4  C   UNL     1     126.180 128.990 121.941  1.00  0.00     0.041 C 
ATOM      5  O   UNL     1     125.212 128.234 122.216  1.00  0.00    -0.550 OA
ATOM      6  O   UNL     1     125.968 130.355 121.796  1.00  0.00    -0.550 OA
ENDBRANCH   3   4
ENDBRANCH   2   3
ENDBRANCH   1   2
BRANCH   1   7
ATOM      7  C   UNL     1     129.627 127.464 124.182  1.00  0.00     0.000 C 
BRANCH   7   8
ATOM      8  C   UNL     1     130.550 126.261 123.903  1.00  0.00     0.004 C 
BRANCH   8   9
ATOM      9  C   UNL     1     131.087 125.581 125.174  1.00  0.00     0.027 C 
BRANCH   9  10
ATOM     10  C   UNL     1     131.398 126.578 126.259  1.00  0.00    -0.035 C 
ATOM     11  C   UNL     1     132.594 126.621 126.855  1.00  0.00     0.004 C 
ENDBRANCH   9  10
ENDBRANCH   8   9
ENDBRANCH   7   8
ENDBRANCH   1   7
TORSDOF 7
ENDMDL
MODEL 7
REMARK VINA RESULT:    -4.753      4.131      5.519
REMARK INTER + INTRA:          -7.104
REMARK INTER:                  -6.738
REMARK INTRA:                  -0.366
REMARK UNBOUND:                -0.406
REMARK SMILES C=CCCCCCCC(=O)[O-]
REMARK SMILES IDX 6 1 7 2 8 3 9 4 10 5 11 6 5 7 4 8 3 9 2 10 1 11
REMARK H PARENT
REMARK Flexibility Score: inf
ROOT
ATOM      1  C   UNL     1     128.772 123.813 127.441  1.00  0.00     0.000 C 
ENDROOT
BRANCH   1   2
ATOM      2  C   UNL     1     130.092 123.928 126.656  1.00  0.00     0.006 C 
BRANCH   2   3
ATOM      3  C   UNL     1     130.989 125.066 127.159  1.00  0.00     0.053 C 
BRANCH   3   4
ATOM      4  C   UNL     1     131.250 126.048 126.061  1.00  0.00     0.041 C 
ATOM      5  O   UNL     1     131.346 127.277 126.318  1.00  0.00    -0.550 OA
ATOM      6  O   UNL     1     131.436 125.601 124.759  1.00  0.00    -0.550 OA
ENDBRANCH   3   4
ENDBRANCH   2   3
ENDBRANCH   1   2
BRANCH   1   7
ATOM      7  C   UNL     1     128.296 125.115 128.114  1.00  0.00     0.000 C 
BRANCH   7   8
ATOM      8  C   UNL     1     127.514 124.932 129.429  1.00  0.00     0.004 C 
BRANCH   8   9
ATOM      9  C   UNL     1     126.434 123.838 129.363  1.00  0.00     0.027 C 
BRANCH   9  10
ATOM     10  C   UNL     1     125.109 124.380 128.898  1.00  0.00    -0.035 C 
ATOM     11  C   UNL     1     124.559 125.468 129.447  1.00  0.00     0.004 C 
ENDBRANCH   9  10
ENDBRANCH   8   9
ENDBRANCH   7   8
ENDBRANCH   1   7
TORSDOF 7
ENDMDL
MODEL 8
REMARK VINA RESULT:    -4.688      2.754      5.093
REMARK INTER + INTRA:          -7.012
REMARK INTER:                  -6.527
REMARK INTRA:                  -0.486
REMARK UNBOUND:                -0.406
REMARK SMILES C=CCCCCCCC(=O)[O-]
REMARK SMILES IDX 6 1 7 2 8 3 9 4 10 5 11 6 5 7 4 8 3 9 2 10 1 11
REMARK H PARENT
REMARK Flexibility Score: inf
ROOT
ATOM      1  C   UNL     1     131.257 125.645 124.466  1.00  0.00     0.000 C 
ENDROOT
BRANCH   1   2
ATOM      2  C   UNL     1     130.193 126.543 123.808  1.00  0.00     0.006 C 
BRANCH   2   3
ATOM      3  C   UNL     1     129.018 126.860 124.743  1.00  0.00     0.053 C 
BRANCH   3   4
ATOM      4  C   UNL     1     129.127 128.259 125.260  1.00  0.00     0.041 C 
ATOM      5  O   UNL     1     129.248 129.223 124.460  1.00  0.00    -0.550 OA
ATOM      6  O   UNL     1     129.045 128.503 126.625  1.00  0.00    -0.550 OA
ENDBRANCH   3   4
ENDBRANCH   2   3
ENDBRANCH   1   2
BRANCH   1   7
ATOM      7  C   UNL     1     132.170 126.352 125.486  1.00  0.00     0.000 C 
BRANCH   7   8
ATOM      8  C   UNL     1     132.141 125.772 126.914  1.00  0.00     0.004 C 
BRANCH   8   9
ATOM      9  C   UNL     1     130.729 125.425 127.416  1.00  0.00     0.027 C 
BRANCH   9  10
ATOM     10  C   UNL     1     130.391 123.975 127.195  1.00  0.00    -0.035 C 
ATOM     11  C   UNL     1     129.211 123.594 126.694  1.00  0.00     0.004 C 
ENDBRANCH   9  10
ENDBRANCH   8   9
ENDBRANCH   7   8
ENDBRANCH   1   7
TORSDOF 7
ENDMDL
MODEL 9
REMARK VINA RESULT:    -4.578      3.413      5.553
REMARK INTER + INTRA:          -6.857
REMARK INTER:                  -6.486
REMARK INTRA:                  -0.372
REMARK UNBOUND:                -0.406
REMARK SMILES C=CCCCCCCC(=O)[O-]
REMARK SMILES IDX 6 1 7 2 8 3 9 4 10 5 11 6 5 7 4 8 3 9 2 10 1 11
REMARK H PARENT
REMARK Flexibility Score: inf
ROOT
ATOM      1  C   UNL     1     130.945 125.487 126.682  1.00  0.00     0.000 C 
ENDROOT
BRANCH   1   2
ATOM      2  C   UNL     1     130.623 126.065 125.291  1.00  0.00     0.006 C 
BRANCH   2   3
ATOM      3  C   UNL     1     129.614 127.220 125.343  1.00  0.00     0.053 C 
BRANCH   3   4
ATOM      4  C   UNL     1     129.026 127.461 123.990  1.00  0.00     0.041 C 
ATOM      5  O   UNL     1     129.509 128.347 123.236  1.00  0.00    -0.550 OA
ATOM      6  O   UNL     1     127.973 126.674 123.540  1.00  0.00    -0.550 OA
ENDBRANCH   3   4
ENDBRANCH   2   3
ENDBRANCH   1   2
BRANCH   1   7
ATOM      7  C   UNL     1     130.386 124.075 126.948  1.00  0.00     0.000 C 
BRANCH   7   8
ATOM      8  C   UNL     1     128.923 124.024 127.431  1.00  0.00     0.004 C 
BRANCH   8   9
ATOM      9  C   UNL     1     128.481 125.275 128.210  1.00  0.00     0.027 C 
BRANCH   9  10
ATOM     10  C   UNL     1     127.469 124.947 129.276  1.00  0.00    -0.035 C 
ATOM     11  C   UNL     1     126.981 123.713 129.429  1.00  0.00     0.004 C 
ENDBRANCH   9  10
ENDBRANCH   8   9
ENDBRANCH   7   8
ENDBRANCH   1   7
TORSDOF 7
ENDMDL
