MODEL 1
REMARK VINA RESULT:     2.446      0.000      0.000
REMARK INTER + INTRA:           2.966
REMARK INTER:                   3.019
REMARK INTRA:                  -0.052
REMARK UNBOUND:                -0.052
REMARK SMILES CCCCCC(=O)[O-]
REMARK SMILES IDX 4 1 5 2 6 3 7 4 8 5 3 6 2 7 1 8
REMARK H PARENT
REMARK Flexibility Score: inf
ROOT
ATOM      1  C   UNL     1      -9.541  -0.487 -17.117  1.00  0.00     0.006 C 
ENDROOT
BRANCH   1   2
ATOM      2  C   UNL     1     -10.704  -0.915 -18.025  1.00  0.00     0.053 C 
BRANCH   2   3
ATOM      3  C   UNL     1     -12.028  -0.461 -17.491  1.00  0.00     0.041 C 
ATOM      4  O   UNL     1     -12.896  -1.305 -17.147  1.00  0.00    -0.550 OA
ATOM      5  O   UNL     1     -12.314   0.896 -17.405  1.00  0.00    -0.550 OA
ENDBRANCH   2   3
ENDBRANCH   1   2
BRANCH   1   6
ATOM      6  C   UNL     1      -8.223  -1.238 -17.379  1.00  0.00     0.000 C 
BRANCH   6   7
ATOM      7  C   UNL     1      -7.037  -0.647 -16.603  1.00  0.00    -0.003 C 
ATOM      8  C   UNL     1      -6.892  -1.308 -15.235  1.00  0.00     0.004 C 
ENDBRANCH   6   7
ENDBRANCH   1   6
TORSDOF 4
ENDMDL
MODEL 2
REMARK VINA RESULT:     2.460      0.146      1.152
REMARK INTER + INTRA:           2.983
REMARK INTER:                   3.038
REMARK INTRA:                  -0.055
REMARK UNBOUND:                -0.052
REMARK SMILES CCCCCC(=O)[O-]
REMARK SMILES IDX 4 1 5 2 6 3 7 4 8 5 3 6 2 7 1 8
REMARK H PARENT
REMARK Flexibility Score: inf
ROOT
ATOM      1  C   UNL     1      -9.478  -0.517 -17.109  1.00  0.00     0.006 C 
ENDROOT
BRANCH   1   2
ATOM      2  C   UNL     1     -10.623  -0.971 -18.028  1.00  0.00     0.053 C 
BRANCH   2   3
ATOM      3  C   UNL     1     -11.951  -0.457 -17.565  1.00  0.00     0.041 C 
ATOM      4  O   UNL     1     -12.169   0.782 -17.513  1.00  0.00    -0.550 OA
ATOM      5  O   UNL     1     -12.938  -1.346 -17.158  1.00  0.00    -0.550 OA
ENDBRANCH   2   3
ENDBRANCH   1   2
BRANCH   1   6
ATOM      6  C   UNL     1      -8.166  -1.300 -17.297  1.00  0.00     0.000 C 
BRANCH   6   7
ATOM      7  C   UNL     1      -7.008  -0.726 -16.468  1.00  0.00    -0.003 C 
ATOM      8  C   UNL     1      -7.029  -1.272 -15.043  1.00  0.00     0.004 C 
ENDBRANCH   6   7
ENDBRANCH   1   6
TORSDOF 4
ENDMDL
MODEL 3
REMARK VINA RESULT:     2.690      2.988      4.767
REMARK INTER + INTRA:           3.266
REMARK INTER:                   3.328
REMARK INTRA:                  -0.062
REMARK UNBOUND:                -0.052
REMARK SMILES CCCCCC(=O)[O-]
REMARK SMILES IDX 4 1 5 2 6 3 7 4 8 5 3 6 2 7 1 8
REMARK H PARENT
REMARK Flexibility Score: inf
ROOT
ATOM      1  C   UNL     1      -9.972  -0.561 -17.148  1.00  0.00     0.006 C 
ENDROOT
BRANCH   1   2
ATOM      2  C   UNL     1      -8.779  -1.527 -17.221  1.00  0.00     0.053 C 
BRANCH   2   3
ATOM      3  C   UNL     1      -7.533  -0.923 -16.651  1.00  0.00     0.041 C 
ATOM      4  O   UNL     1      -6.876  -0.078 -17.316  1.00  0.00    -0.550 OA
ATOM      5  O   UNL     1      -7.078  -1.317 -15.399  1.00  0.00    -0.550 OA
ENDBRANCH   2   3
ENDBRANCH   1   2
BRANCH   1   6
ATOM      6  C   UNL     1     -11.196  -1.002 -17.971  1.00  0.00     0.000 C 
BRANCH   6   7
ATOM      7  C   UNL     1     -12.510  -0.408 -17.446  1.00  0.00    -0.003 C 
ATOM      8  C   UNL     1     -12.457   1.117 -17.431  1.00  0.00     0.004 C 
ENDBRANCH   6   7
ENDBRANCH   1   6
TORSDOF 4
ENDMDL
MODEL 4
REMARK VINA RESULT:     5.191      3.626      4.540
REMARK INTER + INTRA:           6.353
REMARK INTER:                   6.450
REMARK INTRA:                  -0.098
REMARK UNBOUND:                -0.052
REMARK SMILES CCCCCC(=O)[O-]
REMARK SMILES IDX 4 1 5 2 6 3 7 4 8 5 3 6 2 7 1 8
REMARK H PARENT
REMARK Flexibility Score: inf
ROOT
ATOM      1  C   UNL     1     -11.956  -0.144 -17.789  1.00  0.00     0.006 C 
ENDROOT
BRANCH   1   2
ATOM      2  C   UNL     1     -13.004   0.961 -17.591  1.00  0.00     0.053 C 
BRANCH   2   3
ATOM      3  C   UNL     1     -12.393   2.328 -17.638  1.00  0.00     0.041 C 
ATOM      4  O   UNL     1     -11.454   2.630 -16.855  1.00  0.00    -0.550 OA
ATOM      5  O   UNL     1     -12.883   3.279 -18.523  1.00  0.00    -0.550 OA
ENDBRANCH   2   3
ENDBRANCH   1   2
BRANCH   1   6
ATOM      6  C   UNL     1     -12.402  -1.535 -17.302  1.00  0.00     0.000 C 
BRANCH   6   7
ATOM      7  C   UNL     1     -13.665  -1.482 -16.430  1.00  0.00    -0.003 C 
ATOM      8  C   UNL     1     -14.067  -2.877 -15.960  1.00  0.00     0.004 C 
ENDBRANCH   6   7
ENDBRANCH   1   6
TORSDOF 4
ENDMDL
MODEL 5
REMARK VINA RESULT:     5.243      3.329      4.590
REMARK INTER + INTRA:           6.416
REMARK INTER:                   6.512
REMARK INTRA:                  -0.096
REMARK UNBOUND:                -0.052
REMARK SMILES CCCCCC(=O)[O-]
REMARK SMILES IDX 4 1 5 2 6 3 7 4 8 5 3 6 2 7 1 8
REMARK H PARENT
REMARK Flexibility Score: inf
ROOT
ATOM      1  C   UNL     1     -13.001   1.606 -18.026  1.00  0.00     0.006 C 
ENDROOT
BRANCH   1   2
ATOM      2  C   UNL     1     -12.108   0.699 -17.165  1.00  0.00     0.053 C 
BRANCH   2   3
ATOM      3  C   UNL     1     -12.012  -0.687 -17.725  1.00  0.00     0.041 C 
ATOM      4  O   UNL     1     -12.757  -1.602 -17.286  1.00  0.00    -0.550 OA
ATOM      5  O   UNL     1     -11.075  -0.976 -18.710  1.00  0.00    -0.550 OA
ENDBRANCH   2   3
ENDBRANCH   1   2
BRANCH   1   6
ATOM      6  C   UNL     1     -12.661   3.104 -17.930  1.00  0.00     0.000 C 
BRANCH   6   7
ATOM      7  C   UNL     1     -11.625   3.410 -16.839  1.00  0.00    -0.003 C 
ATOM      8  C   UNL     1     -11.693   4.873 -16.410  1.00  0.00     0.004 C 
ENDBRANCH   6   7
ENDBRANCH   1   6
TORSDOF 4
ENDMDL
MODEL 6
REMARK VINA RESULT:     5.318      3.826      4.458
REMARK INTER + INTRA:           6.510
REMARK INTER:                   6.627
REMARK INTRA:                  -0.117
REMARK UNBOUND:                -0.052
REMARK SMILES CCCCCC(=O)[O-]
REMARK SMILES IDX 4 1 5 2 6 3 7 4 8 5 3 6 2 7 1 8
REMARK H PARENT
REMARK Flexibility Score: inf
ROOT
ATOM      1  C   UNL     1     -12.690   0.759 -17.615  1.00  0.00     0.006 C 
ENDROOT
BRANCH   1   2
ATOM      2  C   UNL     1     -11.733   1.785 -16.987  1.00  0.00     0.053 C 
BRANCH   2   3
ATOM      3  C   UNL     1     -12.116   3.192 -17.331  1.00  0.00     0.041 C 
ATOM      4  O   UNL     1     -12.908   3.419 -18.283  1.00  0.00    -0.550 OA
ATOM      5  O   UNL     1     -11.573   4.254 -16.619  1.00  0.00    -0.550 OA
ENDBRANCH   2   3
ENDBRANCH   1   2
BRANCH   1   6
ATOM      6  C   UNL     1     -11.986  -0.416 -18.318  1.00  0.00     0.000 C 
BRANCH   6   7
ATOM      7  C   UNL     1     -12.125  -1.738 -17.549  1.00  0.00    -0.003 C 
ATOM      8  C   UNL     1     -13.400  -1.754 -16.710  1.00  0.00     0.004 C 
ENDBRANCH   6   7
ENDBRANCH   1   6
TORSDOF 4
ENDMDL
