MODEL 1
REMARK VINA RESULT:    -6.356      0.000      0.000
REMARK INTER + INTRA:          -7.482
REMARK INTER:                  -7.842
REMARK INTRA:                   0.360
REMARK UNBOUND:                 0.360
REMARK SMILES O=c1c(O)c(-c2cc(O)c(O)c(O)c2)oc2cc(O)cc(O)c12
REMARK SMILES IDX 5 1 3 2 2 3 1 4 23 5 21 6 20 7 18 8 17 9 16 10 15 11 6 12
REMARK SMILES IDX 7 13 8 14 14 15 10 16 12 17 9 18 11 20 13 22 4 24 22 26
REMARK SMILES IDX 19 28
REMARK H PARENT 9 19 11 21 13 23 4 25 22 27 19 29
REMARK Flexibility Score: inf
ROOT
ATOM      1  C   UNL     1     122.030 129.450 121.992  1.00  0.00     0.180 A 
ATOM      2  C   UNL     1     123.131 130.150 122.516  1.00  0.00     0.208 A 
ATOM      3  C   UNL     1     122.964 130.902 123.691  1.00  0.00     0.238 A 
ATOM      4  O   UNL     1     123.939 131.569 124.125  1.00  0.00    -0.285 OA
ATOM      5  C   UNL     1     121.703 130.932 124.334  1.00  0.00     0.111 A 
ATOM      6  C   UNL     1     121.431 131.628 125.551  1.00  0.00     0.134 A 
ATOM      7  C   UNL     1     120.117 131.696 126.028  1.00  0.00     0.093 A 
ATOM      8  C   UNL     1     119.077 131.040 125.371  1.00  0.00     0.123 A 
ATOM      9  C   UNL     1     119.342 130.307 124.212  1.00  0.00     0.094 A 
ATOM     10  C   UNL     1     120.637 130.251 123.692  1.00  0.00     0.146 A 
ATOM     11  O   UNL     1     120.845 129.551 122.583  1.00  0.00    -0.452 OA
ENDROOT
BRANCH   1  12
ATOM     12  C   UNL     1     122.135 128.617 120.774  1.00  0.00     0.029 A 
ATOM     13  C   UNL     1     120.965 128.184 120.131  1.00  0.00     0.062 A 
ATOM     14  C   UNL     1     121.036 127.376 118.987  1.00  0.00     0.162 A 
ATOM     15  C   UNL     1     123.382 128.201 120.276  1.00  0.00     0.062 A 
ATOM     16  C   UNL     1     122.283 126.982 118.484  1.00  0.00     0.200 A 
ATOM     17  C   UNL     1     123.460 127.392 119.134  1.00  0.00     0.162 A 
BRANCH  14  18
ATOM     18  O   UNL     1     119.871 126.962 118.344  1.00  0.00    -0.504 OA
ATOM     19  H   UNL     1     119.271 127.618 117.857  1.00  0.00     0.293 HD
ENDBRANCH  14  18
BRANCH  16  20
ATOM     20  O   UNL     1     122.335 126.181 117.344  1.00  0.00    -0.502 OA
ATOM     21  H   UNL     1     123.199 125.765 117.017  1.00  0.00     0.293 HD
ENDBRANCH  16  20
BRANCH  17  22
ATOM     22  O   UNL     1     124.702 126.990 118.646  1.00  0.00    -0.504 OA
ATOM     23  H   UNL     1     124.849 126.063 118.265  1.00  0.00     0.293 HD
ENDBRANCH  17  22
ENDBRANCH   1  12
BRANCH   2  24
ATOM     24  O   UNL     1     124.361 130.125 121.853  1.00  0.00    -0.502 OA
ATOM     25  H   UNL     1     124.515 130.603 120.974  1.00  0.00     0.293 HD
ENDBRANCH   2  24
BRANCH   6  26
ATOM     26  O   UNL     1     122.412 132.240 126.336  1.00  0.00    -0.507 OA
ATOM     27  H   UNL     1     122.811 131.842 127.173  1.00  0.00     0.293 HD
ENDBRANCH   6  26
BRANCH   8  28
ATOM     28  O   UNL     1     117.783 131.116 125.882  1.00  0.00    -0.508 OA
ATOM     29  H   UNL     1     117.591 130.956 126.864  1.00  0.00     0.293 HD
ENDBRANCH   8  28
TORSDOF 7
ENDMDL
MODEL 2
REMARK VINA RESULT:    -6.180      1.425      2.083
REMARK INTER + INTRA:          -7.265
REMARK INTER:                  -6.908
REMARK INTRA:                  -0.358
REMARK UNBOUND:                 0.360
REMARK SMILES O=c1c(O)c(-c2cc(O)c(O)c(O)c2)oc2cc(O)cc(O)c12
REMARK SMILES IDX 5 1 3 2 2 3 1 4 23 5 21 6 20 7 18 8 17 9 16 10 15 11 6 12
REMARK SMILES IDX 7 13 8 14 14 15 10 16 12 17 9 18 11 20 13 22 4 24 22 26
REMARK SMILES IDX 19 28
REMARK H PARENT 9 19 11 21 13 23 4 25 22 27 19 29
REMARK Flexibility Score: inf
ROOT
ATOM      1  C   UNL     1     121.460 128.670 121.619  1.00  0.00     0.180 A 
ATOM      2  C   UNL     1     122.706 129.319 121.670  1.00  0.00     0.208 A 
ATOM      3  C   UNL     1     122.943 130.260 122.684  1.00  0.00     0.238 A 
ATOM      4  O   UNL     1     124.040 130.877 122.692  1.00  0.00    -0.285 OA
ATOM      5  C   UNL     1     121.937 130.529 123.644  1.00  0.00     0.111 A 
ATOM      6  C   UNL     1     122.083 131.433 124.740  1.00  0.00     0.134 A 
ATOM      7  C   UNL     1     120.979 131.719 125.551  1.00  0.00     0.093 A 
ATOM      8  C   UNL     1     119.753 131.086 125.349  1.00  0.00     0.123 A 
ATOM      9  C   UNL     1     119.616 130.155 124.317  1.00  0.00     0.094 A 
ATOM     10  C   UNL     1     120.689 129.876 123.469  1.00  0.00     0.146 A 
ATOM     11  O   UNL     1     120.515 128.991 122.494  1.00  0.00    -0.452 OA
ENDROOT
BRANCH   1  12
ATOM     12  C   UNL     1     121.146 127.649 120.594  1.00  0.00     0.029 A 
ATOM     13  C   UNL     1     121.465 126.304 120.839  1.00  0.00     0.062 A 
ATOM     14  C   UNL     1     121.197 125.321 119.877  1.00  0.00     0.162 A 
ATOM     15  C   UNL     1     120.585 128.003 119.355  1.00  0.00     0.062 A 
ATOM     16  C   UNL     1     120.619 125.678 118.652  1.00  0.00     0.200 A 
ATOM     17  C   UNL     1     120.316 127.024 118.388  1.00  0.00     0.162 A 
BRANCH  14  18
ATOM     18  O   UNL     1     121.503 123.985 120.131  1.00  0.00    -0.504 OA
ATOM     19  H   UNL     1     122.461 123.655 120.154  1.00  0.00     0.293 HD
ENDBRANCH  14  18
BRANCH  16  20
ATOM     20  O   UNL     1     120.356 124.685 117.707  1.00  0.00    -0.502 OA
ATOM     21  H   UNL     1     119.717 124.832 116.936  1.00  0.00     0.293 HD
ENDBRANCH  16  20
BRANCH  17  22
ATOM     22  O   UNL     1     119.754 127.386 117.165  1.00  0.00    -0.504 OA
ATOM     23  H   UNL     1     118.774 127.226 116.962  1.00  0.00     0.293 HD
ENDBRANCH  17  22
ENDBRANCH   1  12
BRANCH   2  24
ATOM     24  O   UNL     1     123.677 129.055 120.699  1.00  0.00    -0.502 OA
ATOM     25  H   UNL     1     123.661 129.485 119.782  1.00  0.00     0.293 HD
ENDBRANCH   2  24
BRANCH   6  26
ATOM     26  O   UNL     1     123.288 132.051 125.086  1.00  0.00    -0.507 OA
ATOM     27  H   UNL     1     124.034 131.608 125.603  1.00  0.00     0.293 HD
ENDBRANCH   6  26
BRANCH   8  28
ATOM     28  O   UNL     1     118.679 131.383 126.185  1.00  0.00    -0.508 OA
ATOM     29  H   UNL     1     118.803 131.510 127.183  1.00  0.00     0.293 HD
ENDBRANCH   8  28
TORSDOF 7
ENDMDL
MODEL 3
REMARK VINA RESULT:    -6.156     10.466     12.064
REMARK INTER + INTRA:          -7.235
REMARK INTER:                  -6.902
REMARK INTRA:                  -0.333
REMARK UNBOUND:                 0.360
REMARK SMILES O=c1c(O)c(-c2cc(O)c(O)c(O)c2)oc2cc(O)cc(O)c12
REMARK SMILES IDX 5 1 3 2 2 3 1 4 23 5 21 6 20 7 18 8 17 9 16 10 15 11 6 12
REMARK SMILES IDX 7 13 8 14 14 15 10 16 12 17 9 18 11 20 13 22 4 24 22 26
REMARK SMILES IDX 19 28
REMARK H PARENT 9 19 11 21 13 23 4 25 22 27 19 29
REMARK Flexibility Score: inf
ROOT
ATOM      1  C   UNL     1     124.864 119.944 117.536  1.00  0.00     0.180 A 
ATOM      2  C   UNL     1     125.848 120.894 117.213  1.00  0.00     0.208 A 
ATOM      3  C   UNL     1     127.084 120.848 117.877  1.00  0.00     0.238 A 
ATOM      4  O   UNL     1     127.940 121.735 117.622  1.00  0.00    -0.285 OA
ATOM      5  C   UNL     1     127.326 119.844 118.845  1.00  0.00     0.111 A 
ATOM      6  C   UNL     1     128.556 119.678 119.551  1.00  0.00     0.134 A 
ATOM      7  C   UNL     1     128.640 118.732 120.579  1.00  0.00     0.093 A 
ATOM      8  C   UNL     1     127.563 117.902 120.884  1.00  0.00     0.123 A 
ATOM      9  C   UNL     1     126.374 118.014 120.160  1.00  0.00     0.094 A 
ATOM     10  C   UNL     1     126.248 118.973 119.153  1.00  0.00     0.146 A 
ATOM     11  O   UNL     1     125.098 119.055 118.494  1.00  0.00    -0.452 OA
ENDROOT
BRANCH   1  12
ATOM     12  C   UNL     1     123.547 119.912 116.861  1.00  0.00     0.029 A 
ATOM     13  C   UNL     1     122.523 120.763 117.305  1.00  0.00     0.062 A 
ATOM     14  C   UNL     1     121.260 120.738 116.697  1.00  0.00     0.162 A 
ATOM     15  C   UNL     1     123.280 119.008 115.819  1.00  0.00     0.062 A 
ATOM     16  C   UNL     1     121.007 119.848 115.645  1.00  0.00     0.200 A 
ATOM     17  C   UNL     1     122.018 118.977 115.207  1.00  0.00     0.162 A 
BRANCH  14  18
ATOM     18  O   UNL     1     120.251 121.596 117.132  1.00  0.00    -0.504 OA
ATOM     19  H   UNL     1     119.332 121.250 117.382  1.00  0.00     0.293 HD
ENDBRANCH  14  18
BRANCH  16  20
ATOM     20  O   UNL     1     119.746 119.839 115.049  1.00  0.00    -0.502 OA
ATOM     21  H   UNL     1     119.507 120.458 114.283  1.00  0.00     0.293 HD
ENDBRANCH  16  20
BRANCH  17  22
ATOM     22  O   UNL     1     121.767 118.079 114.171  1.00  0.00    -0.504 OA
ATOM     23  H   UNL     1     121.005 118.221 113.518  1.00  0.00     0.293 HD
ENDBRANCH  17  22
ENDBRANCH   1  12
BRANCH   2  24
ATOM     24  O   UNL     1     125.580 121.890 116.270  1.00  0.00    -0.502 OA
ATOM     25  H   UNL     1     124.889 121.776 115.538  1.00  0.00     0.293 HD
ENDBRANCH   2  24
BRANCH   6  26
ATOM     26  O   UNL     1     129.722 120.394 119.264  1.00  0.00    -0.507 OA
ATOM     27  H   UNL     1     129.922 120.838 118.380  1.00  0.00     0.293 HD
ENDBRANCH   6  26
BRANCH   8  28
ATOM     28  O   UNL     1     127.686 116.961 121.904  1.00  0.00    -0.508 OA
ATOM     29  H   UNL     1     128.549 116.449 122.051  1.00  0.00     0.293 HD
ENDBRANCH   8  28
TORSDOF 7
ENDMDL
MODEL 4
REMARK VINA RESULT:    -6.154      1.179      6.812
REMARK INTER + INTRA:          -7.232
REMARK INTER:                  -7.525
REMARK INTRA:                   0.293
REMARK UNBOUND:                 0.360
REMARK SMILES O=c1c(O)c(-c2cc(O)c(O)c(O)c2)oc2cc(O)cc(O)c12
REMARK SMILES IDX 5 1 3 2 2 3 1 4 23 5 21 6 20 7 18 8 17 9 16 10 15 11 6 12
REMARK SMILES IDX 7 13 8 14 14 15 10 16 12 17 9 18 11 20 13 22 4 24 22 26
REMARK SMILES IDX 19 28
REMARK H PARENT 9 19 11 21 13 23 4 25 22 27 19 29
REMARK Flexibility Score: inf
ROOT
ATOM      1  C   UNL     1     121.455 129.392 122.887  1.00  0.00     0.180 A 
ATOM      2  C   UNL     1     122.768 128.899 122.790  1.00  0.00     0.208 A 
ATOM      3  C   UNL     1     123.158 128.227 121.620  1.00  0.00     0.238 A 
ATOM      4  O   UNL     1     124.318 127.741 121.561  1.00  0.00    -0.285 OA
ATOM      5  C   UNL     1     122.236 128.070 120.558  1.00  0.00     0.111 A 
ATOM      6  C   UNL     1     122.536 127.441 119.311  1.00  0.00     0.134 A 
ATOM      7  C   UNL     1     121.511 127.226 118.382  1.00  0.00     0.093 A 
ATOM      8  C   UNL     1     120.213 127.673 118.625  1.00  0.00     0.123 A 
ATOM      9  C   UNL     1     119.922 128.342 119.815  1.00  0.00     0.094 A 
ATOM     10  C   UNL     1     120.915 128.540 120.777  1.00  0.00     0.146 A 
ATOM     11  O   UNL     1     120.595 129.171 121.900  1.00  0.00    -0.452 OA
ENDROOT
BRANCH   1  12
ATOM     12  C   UNL     1     120.978 130.132 124.077  1.00  0.00     0.029 A 
ATOM     13  C   UNL     1     119.600 130.226 124.325  1.00  0.00     0.062 A 
ATOM     14  C   UNL     1     119.121 130.939 125.433  1.00  0.00     0.162 A 
ATOM     15  C   UNL     1     121.873 130.792 124.936  1.00  0.00     0.062 A 
ATOM     16  C   UNL     1     120.020 131.577 126.297  1.00  0.00     0.200 A 
ATOM     17  C   UNL     1     121.401 131.508 126.045  1.00  0.00     0.162 A 
BRANCH  14  18
ATOM     18  O   UNL     1     117.752 131.016 125.683  1.00  0.00    -0.504 OA
ATOM     19  H   UNL     1     117.338 130.590 126.504  1.00  0.00     0.293 HD
ENDBRANCH  14  18
BRANCH  16  20
ATOM     20  O   UNL     1     119.527 132.280 127.397  1.00  0.00    -0.502 OA
ATOM     21  H   UNL     1     119.746 133.256 127.555  1.00  0.00     0.293 HD
ENDBRANCH  16  20
BRANCH  17  22
ATOM     22  O   UNL     1     122.299 132.154 126.893  1.00  0.00    -0.504 OA
ATOM     23  H   UNL     1     122.059 133.021 127.361  1.00  0.00     0.293 HD
ENDBRANCH  17  22
ENDBRANCH   1  12
BRANCH   2  24
ATOM     24  O   UNL     1     123.655 129.045 123.860  1.00  0.00    -0.502 OA
ATOM     25  H   UNL     1     124.617 129.336 123.733  1.00  0.00     0.293 HD
ENDBRANCH   2  24
BRANCH   6  26
ATOM     26  O   UNL     1     123.819 127.039 118.929  1.00  0.00    -0.507 OA
ATOM     27  H   UNL     1     124.676 127.389 119.332  1.00  0.00     0.293 HD
ENDBRANCH   6  26
BRANCH   8  28
ATOM     28  O   UNL     1     119.221 127.455 117.672  1.00  0.00    -0.508 OA
ATOM     29  H   UNL     1     118.242 127.619 117.878  1.00  0.00     0.293 HD
ENDBRANCH   8  28
TORSDOF 7
ENDMDL
MODEL 5
REMARK VINA RESULT:    -5.996      2.118      7.318
REMARK INTER + INTRA:          -7.038
REMARK INTER:                  -6.791
REMARK INTRA:                  -0.247
REMARK UNBOUND:                 0.360
REMARK SMILES O=c1c(O)c(-c2cc(O)c(O)c(O)c2)oc2cc(O)cc(O)c12
REMARK SMILES IDX 5 1 3 2 2 3 1 4 23 5 21 6 20 7 18 8 17 9 16 10 15 11 6 12
REMARK SMILES IDX 7 13 8 14 14 15 10 16 12 17 9 18 11 20 13 22 4 24 22 26
REMARK SMILES IDX 19 28
REMARK H PARENT 9 19 11 21 13 23 4 25 22 27 19 29
REMARK Flexibility Score: inf
ROOT
ATOM      1  C   UNL     1     121.147 128.324 123.335  1.00  0.00     0.180 A 
ATOM      2  C   UNL     1     121.489 126.997 123.646  1.00  0.00     0.208 A 
ATOM      3  C   UNL     1     121.498 126.037 122.622  1.00  0.00     0.238 A 
ATOM      4  O   UNL     1     121.752 124.840 122.917  1.00  0.00    -0.285 OA
ATOM      5  C   UNL     1     121.180 126.420 121.296  1.00  0.00     0.111 A 
ATOM      6  C   UNL     1     121.197 125.539 120.172  1.00  0.00     0.134 A 
ATOM      7  C   UNL     1     120.740 125.996 118.930  1.00  0.00     0.093 A 
ATOM      8  C   UNL     1     120.329 127.316 118.755  1.00  0.00     0.123 A 
ATOM      9  C   UNL     1     120.365 128.202 119.833  1.00  0.00     0.094 A 
ATOM     10  C   UNL     1     120.782 127.767 121.093  1.00  0.00     0.146 A 
ATOM     11  O   UNL     1     120.791 128.638 122.095  1.00  0.00    -0.452 OA
ENDROOT
BRANCH   1  12
ATOM     12  C   UNL     1     121.140 129.396 124.356  1.00  0.00     0.029 A 
ATOM     13  C   UNL     1     122.354 129.833 124.907  1.00  0.00     0.062 A 
ATOM     14  C   UNL     1     122.373 130.831 125.891  1.00  0.00     0.162 A 
ATOM     15  C   UNL     1     119.937 129.948 124.829  1.00  0.00     0.062 A 
ATOM     16  C   UNL     1     121.172 131.392 126.343  1.00  0.00     0.200 A 
ATOM     17  C   UNL     1     119.949 130.946 125.814  1.00  0.00     0.162 A 
BRANCH  14  18
ATOM     18  O   UNL     1     123.584 131.272 126.424  1.00  0.00    -0.504 OA
ATOM     19  H   UNL     1     123.647 131.630 127.370  1.00  0.00     0.293 HD
ENDBRANCH  14  18
BRANCH  16  20
ATOM     20  O   UNL     1     121.210 132.387 127.320  1.00  0.00    -0.502 OA
ATOM     21  H   UNL     1     122.020 132.980 127.454  1.00  0.00     0.293 HD
ENDBRANCH  16  20
BRANCH  17  22
ATOM     22  O   UNL     1     118.750 131.491 126.271  1.00  0.00    -0.504 OA
ATOM     23  H   UNL     1     118.183 132.094 125.686  1.00  0.00     0.293 HD
ENDBRANCH  17  22
ENDBRANCH   1  12
BRANCH   2  24
ATOM     24  O   UNL     1     121.777 126.636 124.966  1.00  0.00    -0.502 OA
ATOM     25  H   UNL     1     121.463 127.180 125.760  1.00  0.00     0.293 HD
ENDBRANCH   2  24
BRANCH   6  26
ATOM     26  O   UNL     1     121.676 124.227 120.217  1.00  0.00    -0.507 OA
ATOM     27  H   UNL     1     121.329 123.509 120.836  1.00  0.00     0.293 HD
ENDBRANCH   6  26
BRANCH   8  28
ATOM     28  O   UNL     1     119.894 127.741 117.501  1.00  0.00    -0.508 OA
ATOM     29  H   UNL     1     119.673 128.712 117.318  1.00  0.00     0.293 HD
ENDBRANCH   8  28
TORSDOF 7
ENDMDL
MODEL 6
REMARK VINA RESULT:    -5.926      9.576     12.480
REMARK INTER + INTRA:          -6.951
REMARK INTER:                  -6.590
REMARK INTRA:                  -0.362
REMARK UNBOUND:                 0.360
REMARK SMILES O=c1c(O)c(-c2cc(O)c(O)c(O)c2)oc2cc(O)cc(O)c12
REMARK SMILES IDX 5 1 3 2 2 3 1 4 23 5 21 6 20 7 18 8 17 9 16 10 15 11 6 12
REMARK SMILES IDX 7 13 8 14 14 15 10 16 12 17 9 18 11 20 13 22 4 24 22 26
REMARK SMILES IDX 19 28
REMARK H PARENT 9 19 11 21 13 23 4 25 22 27 19 29
REMARK Flexibility Score: inf
ROOT
ATOM      1  C   UNL     1     126.226 118.894 121.935  1.00  0.00     0.180 A 
ATOM      2  C   UNL     1     127.370 118.357 121.319  1.00  0.00     0.208 A 
ATOM      3  C   UNL     1     128.128 119.171 120.462  1.00  0.00     0.238 A 
ATOM      4  O   UNL     1     129.120 118.669 119.871  1.00  0.00    -0.285 OA
ATOM      5  C   UNL     1     127.740 120.515 120.243  1.00  0.00     0.111 A 
ATOM      6  C   UNL     1     128.456 121.442 119.425  1.00  0.00     0.134 A 
ATOM      7  C   UNL     1     127.910 122.707 119.177  1.00  0.00     0.093 A 
ATOM      8  C   UNL     1     126.711 123.103 119.766  1.00  0.00     0.123 A 
ATOM      9  C   UNL     1     126.033 122.227 120.615  1.00  0.00     0.094 A 
ATOM     10  C   UNL     1     126.533 120.945 120.854  1.00  0.00     0.146 A 
ATOM     11  O   UNL     1     125.853 120.137 121.659  1.00  0.00    -0.452 OA
ENDROOT
BRANCH   1  12
ATOM     12  C   UNL     1     125.393 118.105 122.871  1.00  0.00     0.029 A 
ATOM     13  C   UNL     1     124.220 117.493 122.402  1.00  0.00     0.062 A 
ATOM     14  C   UNL     1     123.402 116.759 123.273  1.00  0.00     0.162 A 
ATOM     15  C   UNL     1     125.720 118.003 124.234  1.00  0.00     0.062 A 
ATOM     16  C   UNL     1     123.745 116.643 124.626  1.00  0.00     0.200 A 
ATOM     17  C   UNL     1     124.905 117.271 125.110  1.00  0.00     0.162 A 
BRANCH  14  18
ATOM     18  O   UNL     1     122.246 116.141 122.799  1.00  0.00    -0.504 OA
ATOM     19  H   UNL     1     121.399 116.103 123.355  1.00  0.00     0.293 HD
ENDBRANCH  14  18
BRANCH  16  20
ATOM     20  O   UNL     1     122.921 115.906 125.477  1.00  0.00    -0.502 OA
ATOM     21  H   UNL     1     122.048 115.501 125.163  1.00  0.00     0.293 HD
ENDBRANCH  16  20
BRANCH  17  22
ATOM     22  O   UNL     1     125.243 117.171 126.458  1.00  0.00    -0.504 OA
ATOM     23  H   UNL     1     126.208 117.136 126.764  1.00  0.00     0.293 HD
ENDBRANCH  17  22
ENDBRANCH   1  12
BRANCH   2  24
ATOM     24  O   UNL     1     127.722 117.021 121.532  1.00  0.00    -0.502 OA
ATOM     25  H   UNL     1     127.137 116.380 122.053  1.00  0.00     0.293 HD
ENDBRANCH   2  24
BRANCH   6  26
ATOM     26  O   UNL     1     129.708 121.180 118.862  1.00  0.00    -0.507 OA
ATOM     27  H   UNL     1     130.586 121.244 119.356  1.00  0.00     0.293 HD
ENDBRANCH   6  26
BRANCH   8  28
ATOM     28  O   UNL     1     126.205 124.376 119.508  1.00  0.00    -0.508 OA
ATOM     29  H   UNL     1     125.415 124.746 120.024  1.00  0.00     0.293 HD
ENDBRANCH   8  28
TORSDOF 7
ENDMDL
MODEL 7
REMARK VINA RESULT:    -5.899     10.595     12.767
REMARK INTER + INTRA:          -6.919
REMARK INTER:                  -6.554
REMARK INTRA:                  -0.365
REMARK UNBOUND:                 0.360
REMARK SMILES O=c1c(O)c(-c2cc(O)c(O)c(O)c2)oc2cc(O)cc(O)c12
REMARK SMILES IDX 5 1 3 2 2 3 1 4 23 5 21 6 20 7 18 8 17 9 16 10 15 11 6 12
REMARK SMILES IDX 7 13 8 14 14 15 10 16 12 17 9 18 11 20 13 22 4 24 22 26
REMARK SMILES IDX 19 28
REMARK H PARENT 9 19 11 21 13 23 4 25 22 27 19 29
REMARK Flexibility Score: inf
ROOT
ATOM      1  C   UNL     1     125.377 119.809 118.289  1.00  0.00     0.180 A 
ATOM      2  C   UNL     1     125.937 120.971 117.730  1.00  0.00     0.208 A 
ATOM      3  C   UNL     1     125.476 121.416 116.480  1.00  0.00     0.238 A 
ATOM      4  O   UNL     1     126.019 122.426 115.960  1.00  0.00    -0.285 OA
ATOM      5  C   UNL     1     124.451 120.702 115.813  1.00  0.00     0.111 A 
ATOM      6  C   UNL     1     123.880 121.084 114.561  1.00  0.00     0.134 A 
ATOM      7  C   UNL     1     122.964 120.233 113.932  1.00  0.00     0.093 A 
ATOM      8  C   UNL     1     122.549 119.048 114.536  1.00  0.00     0.123 A 
ATOM      9  C   UNL     1     123.056 118.693 115.788  1.00  0.00     0.094 A 
ATOM     10  C   UNL     1     123.999 119.504 116.424  1.00  0.00     0.146 A 
ATOM     11  O   UNL     1     124.464 119.126 117.609  1.00  0.00    -0.452 OA
ENDROOT
BRANCH   1  12
ATOM     12  C   UNL     1     125.793 119.293 119.613  1.00  0.00     0.029 A 
ATOM     13  C   UNL     1     126.820 118.340 119.691  1.00  0.00     0.062 A 
ATOM     14  C   UNL     1     127.218 117.820 120.931  1.00  0.00     0.162 A 
ATOM     15  C   UNL     1     125.142 119.695 120.792  1.00  0.00     0.062 A 
ATOM     16  C   UNL     1     126.579 118.241 122.105  1.00  0.00     0.200 A 
ATOM     17  C   UNL     1     125.535 119.178 122.035  1.00  0.00     0.162 A 
BRANCH  14  18
ATOM     18  O   UNL     1     128.249 116.885 121.004  1.00  0.00    -0.504 OA
ATOM     19  H   UNL     1     128.698 116.525 120.170  1.00  0.00     0.293 HD
ENDBRANCH  14  18
BRANCH  16  20
ATOM     20  O   UNL     1     126.990 117.715 123.330  1.00  0.00    -0.502 OA
ATOM     21  H   UNL     1     126.869 116.737 123.564  1.00  0.00     0.293 HD
ENDBRANCH  16  20
BRANCH  17  22
ATOM     22  O   UNL     1     124.886 119.588 123.199  1.00  0.00    -0.504 OA
ATOM     23  H   UNL     1     124.611 118.927 123.916  1.00  0.00     0.293 HD
ENDBRANCH  17  22
ENDBRANCH   1  12
BRANCH   2  24
ATOM     24  O   UNL     1     126.962 121.648 118.395  1.00  0.00    -0.502 OA
ATOM     25  H   UNL     1     127.901 121.275 118.472  1.00  0.00     0.293 HD
ENDBRANCH   2  24
BRANCH   6  26
ATOM     26  O   UNL     1     124.156 122.292 113.914  1.00  0.00    -0.507 OA
ATOM     27  H   UNL     1     125.009 122.821 114.022  1.00  0.00     0.293 HD
ENDBRANCH   6  26
BRANCH   8  28
ATOM     28  O   UNL     1     121.624 118.232 113.888  1.00  0.00    -0.508 OA
ATOM     29  H   UNL     1     121.824 117.259 113.688  1.00  0.00     0.293 HD
ENDBRANCH   8  28
TORSDOF 7
ENDMDL
MODEL 8
REMARK VINA RESULT:    -5.861      2.443      3.518
REMARK INTER + INTRA:          -6.871
REMARK INTER:                  -6.691
REMARK INTRA:                  -0.181
REMARK UNBOUND:                 0.360
REMARK SMILES O=c1c(O)c(-c2cc(O)c(O)c(O)c2)oc2cc(O)cc(O)c12
REMARK SMILES IDX 5 1 3 2 2 3 1 4 23 5 21 6 20 7 18 8 17 9 16 10 15 11 6 12
REMARK SMILES IDX 7 13 8 14 14 15 10 16 12 17 9 18 11 20 13 22 4 24 22 26
REMARK SMILES IDX 19 28
REMARK H PARENT 9 19 11 21 13 23 4 25 22 27 19 29
REMARK Flexibility Score: inf
ROOT
ATOM      1  C   UNL     1     121.247 127.937 121.699  1.00  0.00     0.180 A 
ATOM      2  C   UNL     1     120.584 129.147 121.967  1.00  0.00     0.208 A 
ATOM      3  C   UNL     1     120.273 129.474 123.297  1.00  0.00     0.238 A 
ATOM      4  O   UNL     1     119.632 130.534 123.525  1.00  0.00    -0.285 OA
ATOM      5  C   UNL     1     120.641 128.594 124.343  1.00  0.00     0.111 A 
ATOM      6  C   UNL     1     120.412 128.842 125.730  1.00  0.00     0.134 A 
ATOM      7  C   UNL     1     120.701 127.844 126.667  1.00  0.00     0.093 A 
ATOM      8  C   UNL     1     121.270 126.633 126.278  1.00  0.00     0.123 A 
ATOM      9  C   UNL     1     121.554 126.402 124.930  1.00  0.00     0.094 A 
ATOM     10  C   UNL     1     121.244 127.365 123.967  1.00  0.00     0.146 A 
ATOM     11  O   UNL     1     121.521 127.103 122.695  1.00  0.00    -0.452 OA
ENDROOT
BRANCH   1  12
ATOM     12  C   UNL     1     121.631 127.536 120.327  1.00  0.00     0.029 A 
ATOM     13  C   UNL     1     122.989 127.452 119.987  1.00  0.00     0.062 A 
ATOM     14  C   UNL     1     123.379 127.095 118.688  1.00  0.00     0.162 A 
ATOM     15  C   UNL     1     120.662 127.293 119.338  1.00  0.00     0.062 A 
ATOM     16  C   UNL     1     122.408 126.833 117.713  1.00  0.00     0.200 A 
ATOM     17  C   UNL     1     121.045 126.937 118.037  1.00  0.00     0.162 A 
BRANCH  14  18
ATOM     18  O   UNL     1     124.730 126.998 118.360  1.00  0.00    -0.504 OA
ATOM     19  H   UNL     1     125.172 126.102 118.191  1.00  0.00     0.293 HD
ENDBRANCH  14  18
BRANCH  16  20
ATOM     20  O   UNL     1     122.814 126.477 116.427  1.00  0.00    -0.502 OA
ATOM     21  H   UNL     1     123.710 126.760 116.046  1.00  0.00     0.293 HD
ENDBRANCH  16  20
BRANCH  17  22
ATOM     22  O   UNL     1     120.076 126.692 117.066  1.00  0.00    -0.504 OA
ATOM     23  H   UNL     1     119.235 126.167 117.274  1.00  0.00     0.293 HD
ENDBRANCH  17  22
ENDBRANCH   1  12
BRANCH   2  24
ATOM     24  O   UNL     1     120.210 129.992 120.918  1.00  0.00    -0.502 OA
ATOM     25  H   UNL     1     120.041 129.651 119.979  1.00  0.00     0.293 HD
ENDBRANCH   2  24
BRANCH   6  26
ATOM     26  O   UNL     1     119.931 130.054 126.236  1.00  0.00    -0.507 OA
ATOM     27  H   UNL     1     119.766 130.883 125.685  1.00  0.00     0.293 HD
ENDBRANCH   6  26
BRANCH   8  28
ATOM     28  O   UNL     1     121.559 125.667 127.240  1.00  0.00    -0.508 OA
ATOM     29  H   UNL     1     122.143 125.875 128.041  1.00  0.00     0.293 HD
ENDBRANCH   8  28
TORSDOF 7
ENDMDL
MODEL 9
REMARK VINA RESULT:    -5.826      1.421      2.159
REMARK INTER + INTRA:          -6.827
REMARK INTER:                  -6.483
REMARK INTRA:                  -0.345
REMARK UNBOUND:                 0.360
REMARK SMILES O=c1c(O)c(-c2cc(O)c(O)c(O)c2)oc2cc(O)cc(O)c12
REMARK SMILES IDX 5 1 3 2 2 3 1 4 23 5 21 6 20 7 18 8 17 9 16 10 15 11 6 12
REMARK SMILES IDX 7 13 8 14 14 15 10 16 12 17 9 18 11 20 13 22 4 24 22 26
REMARK SMILES IDX 19 28
REMARK H PARENT 9 19 11 21 13 23 4 25 22 27 19 29
REMARK Flexibility Score: inf
ROOT
ATOM      1  C   UNL     1     123.035 128.919 122.323  1.00  0.00     0.180 A 
ATOM      2  C   UNL     1     123.934 129.932 122.699  1.00  0.00     0.208 A 
ATOM      3  C   UNL     1     123.518 130.902 123.624  1.00  0.00     0.238 A 
ATOM      4  O   UNL     1     124.309 131.838 123.916  1.00  0.00    -0.285 OA
ATOM      5  C   UNL     1     122.214 130.840 124.172  1.00  0.00     0.111 A 
ATOM      6  C   UNL     1     121.699 131.748 125.147  1.00  0.00     0.134 A 
ATOM      7  C   UNL     1     120.353 131.669 125.521  1.00  0.00     0.093 A 
ATOM      8  C   UNL     1     119.519 130.677 125.008  1.00  0.00     0.123 A 
ATOM      9  C   UNL     1     120.027 129.747 124.098  1.00  0.00     0.094 A 
ATOM     10  C   UNL     1     121.357 129.822 123.678  1.00  0.00     0.146 A 
ATOM     11  O   UNL     1     121.798 128.925 122.804  1.00  0.00    -0.452 OA
ENDROOT
BRANCH   1  12
ATOM     12  C   UNL     1     123.409 127.847 121.373  1.00  0.00     0.029 A 
ATOM     13  C   UNL     1     124.122 126.730 121.838  1.00  0.00     0.062 A 
ATOM     14  C   UNL     1     124.507 125.711 120.955  1.00  0.00     0.162 A 
ATOM     15  C   UNL     1     123.117 127.948 120.002  1.00  0.00     0.062 A 
ATOM     16  C   UNL     1     124.194 125.809 119.593  1.00  0.00     0.200 A 
ATOM     17  C   UNL     1     123.500 126.933 119.114  1.00  0.00     0.162 A 
BRANCH  14  18
ATOM     18  O   UNL     1     125.201 124.598 121.425  1.00  0.00    -0.504 OA
ATOM     19  H   UNL     1     125.844 124.085 120.833  1.00  0.00     0.293 HD
ENDBRANCH  14  18
BRANCH  16  20
ATOM     20  O   UNL     1     124.582 124.784 118.730  1.00  0.00    -0.502 OA
ATOM     21  H   UNL     1     125.252 124.932 117.985  1.00  0.00     0.293 HD
ENDBRANCH  16  20
BRANCH  17  22
ATOM     22  O   UNL     1     123.199 127.041 117.757  1.00  0.00    -0.504 OA
ATOM     23  H   UNL     1     123.072 127.942 117.311  1.00  0.00     0.293 HD
ENDBRANCH  17  22
ENDBRANCH   1  12
BRANCH   2  24
ATOM     24  O   UNL     1     125.209 129.987 122.130  1.00  0.00    -0.502 OA
ATOM     25  H   UNL     1     125.645 129.185 121.691  1.00  0.00     0.293 HD
ENDBRANCH   2  24
BRANCH   6  26
ATOM     26  O   UNL     1     122.471 132.718 125.792  1.00  0.00    -0.507 OA
ATOM     27  H   UNL     1     123.463 132.646 125.962  1.00  0.00     0.293 HD
ENDBRANCH   6  26
BRANCH   8  28
ATOM     28  O   UNL     1     118.188 130.619 125.414  1.00  0.00    -0.508 OA
ATOM     29  H   UNL     1     117.723 131.421 125.823  1.00  0.00     0.293 HD
ENDBRANCH   8  28
TORSDOF 7
ENDMDL
