MODEL 1
REMARK VINA RESULT:    -3.866      0.000      0.000
REMARK INTER + INTRA:          -5.322
REMARK INTER:                  -5.222
REMARK INTRA:                  -0.100
REMARK UNBOUND:                -0.100
REMARK SMILES CCCCCCC=CC(=O)[O-]
REMARK SMILES IDX 5 1 6 2 7 3 8 4 9 5 10 6 11 7 4 8 3 9 2 10 1 11
REMARK H PARENT
REMARK Flexibility Score: inf
ROOT
ATOM      1  C   UNL     1     -21.398   1.868   7.304  1.00  0.00     0.004 C 
ENDROOT
BRANCH   1   2
ATOM      2  C   UNL     1     -20.360   0.788   6.965  1.00  0.00     0.027 C 
BRANCH   2   3
ATOM      3  C   UNL     1     -21.021  -0.457   6.439  1.00  0.00    -0.025 C 
ATOM      4  C   UNL     1     -21.132  -1.626   7.092  1.00  0.00     0.020 C 
BRANCH   4   5
ATOM      5  C   UNL     1     -20.665  -1.921   8.463  1.00  0.00     0.064 C 
ATOM      6  O   UNL     1     -20.923  -1.163   9.435  1.00  0.00    -0.545 OA
ATOM      7  O   UNL     1     -19.938  -3.081   8.688  1.00  0.00    -0.545 OA
ENDBRANCH   4   5
ENDBRANCH   2   3
ENDBRANCH   1   2
BRANCH   1   8
ATOM      8  C   UNL     1     -21.856   1.748   8.764  1.00  0.00     0.000 C 
BRANCH   8   9
ATOM      9  C   UNL     1     -22.437   3.061   9.314  1.00  0.00    -0.000 C 
BRANCH   9  10
ATOM     10  C   UNL     1     -22.448   4.185   8.267  1.00  0.00    -0.003 C 
ATOM     11  C   UNL     1     -22.028   5.515   8.887  1.00  0.00     0.004 C 
ENDBRANCH   9  10
ENDBRANCH   8   9
ENDBRANCH   1   8
TORSDOF 6
ENDMDL
MODEL 2
REMARK VINA RESULT:    -3.781      2.144      5.744
REMARK INTER + INTRA:          -5.208
REMARK INTER:                  -5.024
REMARK INTRA:                  -0.184
REMARK UNBOUND:                -0.100
REMARK SMILES CCCCCCC=CC(=O)[O-]
REMARK SMILES IDX 5 1 6 2 7 3 8 4 9 5 10 6 11 7 4 8 3 9 2 10 1 11
REMARK H PARENT
REMARK Flexibility Score: inf
ROOT
ATOM      1  C   UNL     1     -20.831  -1.896   7.119  1.00  0.00     0.004 C 
ENDROOT
BRANCH   1   2
ATOM      2  C   UNL     1     -21.794  -0.756   6.762  1.00  0.00     0.027 C 
BRANCH   2   3
ATOM      3  C   UNL     1     -21.049   0.520   6.479  1.00  0.00    -0.025 C 
ATOM      4  C   UNL     1     -21.052   1.622   7.247  1.00  0.00     0.020 C 
BRANCH   4   5
ATOM      5  C   UNL     1     -21.750   1.798   8.537  1.00  0.00     0.064 C 
ATOM      6  O   UNL     1     -21.655   0.959   9.470  1.00  0.00    -0.545 OA
ATOM      7  O   UNL     1     -22.518   2.938   8.733  1.00  0.00    -0.545 OA
ENDBRANCH   4   5
ENDBRANCH   2   3
ENDBRANCH   1   2
BRANCH   1   8
ATOM      8  C   UNL     1     -20.657  -2.010   8.641  1.00  0.00     0.000 C 
BRANCH   8   9
ATOM      9  C   UNL     1     -20.000  -3.333   9.065  1.00  0.00    -0.000 C 
BRANCH   9  10
ATOM     10  C   UNL     1     -19.829  -4.310   7.892  1.00  0.00    -0.003 C 
ATOM     11  C   UNL     1     -20.462  -5.662   8.209  1.00  0.00     0.004 C 
ENDBRANCH   9  10
ENDBRANCH   8   9
ENDBRANCH   1   8
TORSDOF 6
ENDMDL
MODEL 3
REMARK VINA RESULT:    -3.720      3.284      5.064
REMARK INTER + INTRA:          -5.125
REMARK INTER:                  -4.902
REMARK INTRA:                  -0.223
REMARK UNBOUND:                -0.100
REMARK SMILES CCCCCCC=CC(=O)[O-]
REMARK SMILES IDX 5 1 6 2 7 3 8 4 9 5 10 6 11 7 4 8 3 9 2 10 1 11
REMARK H PARENT
REMARK Flexibility Score: inf
ROOT
ATOM      1  C   UNL     1     -20.617  -2.050   9.520  1.00  0.00     0.004 C 
ENDROOT
BRANCH   1   2
ATOM      2  C   UNL     1     -20.305  -1.613  10.958  1.00  0.00     0.027 C 
BRANCH   2   3
ATOM      3  C   UNL     1     -21.197  -2.315  11.947  1.00  0.00    -0.025 C 
ATOM      4  C   UNL     1     -21.642  -1.806  13.107  1.00  0.00     0.020 C 
BRANCH   4   5
ATOM      5  C   UNL     1     -21.384  -0.449  13.634  1.00  0.00     0.064 C 
ATOM      6  O   UNL     1     -20.729  -0.256  14.691  1.00  0.00    -0.545 OA
ATOM      7  O   UNL     1     -21.860   0.646  12.927  1.00  0.00    -0.545 OA
ENDBRANCH   4   5
ENDBRANCH   2   3
ENDBRANCH   1   2
BRANCH   1   8
ATOM      8  C   UNL     1     -21.063  -0.853   8.669  1.00  0.00     0.000 C 
BRANCH   8   9
ATOM      9  C   UNL     1     -21.109  -1.177   7.167  1.00  0.00    -0.000 C 
BRANCH   9  10
ATOM     10  C   UNL     1     -21.098   0.084   6.290  1.00  0.00    -0.003 C 
ATOM     11  C   UNL     1     -21.030   1.346   7.145  1.00  0.00     0.004 C 
ENDBRANCH   9  10
ENDBRANCH   8   9
ENDBRANCH   1   8
TORSDOF 6
ENDMDL
MODEL 4
REMARK VINA RESULT:    -3.634      3.082      4.945
REMARK INTER + INTRA:          -5.009
REMARK INTER:                  -4.755
REMARK INTRA:                  -0.254
REMARK UNBOUND:                -0.100
REMARK SMILES CCCCCCC=CC(=O)[O-]
REMARK SMILES IDX 5 1 6 2 7 3 8 4 9 5 10 6 11 7 4 8 3 9 2 10 1 11
REMARK H PARENT
REMARK Flexibility Score: inf
ROOT
ATOM      1  C   UNL     1     -22.042   1.772   9.597  1.00  0.00     0.004 C 
ENDROOT
BRANCH   1   2
ATOM      2  C   UNL     1     -22.513   1.151  10.920  1.00  0.00     0.027 C 
BRANCH   2   3
ATOM      3  C   UNL     1     -21.741   1.704  12.087  1.00  0.00    -0.025 C 
ATOM      4  C   UNL     1     -21.418   1.036  13.206  1.00  0.00     0.020 C 
BRANCH   4   5
ATOM      5  C   UNL     1     -21.718  -0.380  13.508  1.00  0.00     0.064 C 
ATOM      6  O   UNL     1     -22.545  -0.714  14.396  1.00  0.00    -0.545 OA
ATOM      7  O   UNL     1     -21.083  -1.371  12.773  1.00  0.00    -0.545 OA
ENDBRANCH   4   5
ENDBRANCH   2   3
ENDBRANCH   1   2
BRANCH   1   8
ATOM      8  C   UNL     1     -21.369   0.717   8.706  1.00  0.00     0.000 C 
BRANCH   8   9
ATOM      9  C   UNL     1     -21.113   1.223   7.278  1.00  0.00    -0.000 C 
BRANCH   9  10
ATOM     10  C   UNL     1     -21.177   0.099   6.233  1.00  0.00    -0.003 C 
ATOM     11  C   UNL     1     -21.076  -1.272   6.895  1.00  0.00     0.004 C 
ENDBRANCH   9  10
ENDBRANCH   8   9
ENDBRANCH   1   8
TORSDOF 6
ENDMDL
MODEL 5
REMARK VINA RESULT:    -3.504      2.149      4.884
REMARK INTER + INTRA:          -4.834
REMARK INTER:                  -4.926
REMARK INTRA:                   0.093
REMARK UNBOUND:                -0.100
REMARK SMILES CCCCCCC=CC(=O)[O-]
REMARK SMILES IDX 5 1 6 2 7 3 8 4 9 5 10 6 11 7 4 8 3 9 2 10 1 11
REMARK H PARENT
REMARK Flexibility Score: inf
ROOT
ATOM      1  C   UNL     1     -20.656  -1.860   6.920  1.00  0.00     0.004 C 
ENDROOT
BRANCH   1   2
ATOM      2  C   UNL     1     -21.685  -0.728   7.051  1.00  0.00     0.027 C 
BRANCH   2   3
ATOM      3  C   UNL     1     -21.116   0.583   6.578  1.00  0.00    -0.025 C 
ATOM      4  C   UNL     1     -21.218   1.761   7.216  1.00  0.00     0.020 C 
BRANCH   4   5
ATOM      5  C   UNL     1     -21.869   2.008   8.519  1.00  0.00     0.064 C 
ATOM      6  O   UNL     1     -21.826   1.170   9.458  1.00  0.00    -0.545 OA
ATOM      7  O   UNL     1     -22.531   3.211   8.720  1.00  0.00    -0.545 OA
ENDBRANCH   4   5
ENDBRANCH   2   3
ENDBRANCH   1   2
BRANCH   1   8
ATOM      8  C   UNL     1     -20.455  -2.575   8.264  1.00  0.00     0.000 C 
BRANCH   8   9
ATOM      9  C   UNL     1     -20.835  -1.697   9.466  1.00  0.00    -0.000 C 
BRANCH   9  10
ATOM     10  C   UNL     1     -20.106  -2.110  10.753  1.00  0.00    -0.003 C 
ATOM     11  C   UNL     1     -20.950  -1.799  11.986  1.00  0.00     0.004 C 
ENDBRANCH   9  10
ENDBRANCH   8   9
ENDBRANCH   1   8
TORSDOF 6
ENDMDL
MODEL 6
REMARK VINA RESULT:    -3.463      1.256      2.023
REMARK INTER + INTRA:          -4.777
REMARK INTER:                  -4.842
REMARK INTRA:                   0.064
REMARK UNBOUND:                -0.100
REMARK SMILES CCCCCCC=CC(=O)[O-]
REMARK SMILES IDX 5 1 6 2 7 3 8 4 9 5 10 6 11 7 4 8 3 9 2 10 1 11
REMARK H PARENT
REMARK Flexibility Score: inf
ROOT
ATOM      1  C   UNL     1     -21.388   1.971   7.130  1.00  0.00     0.004 C 
ENDROOT
BRANCH   1   2
ATOM      2  C   UNL     1     -20.502   0.726   7.274  1.00  0.00     0.027 C 
BRANCH   2   3
ATOM      3  C   UNL     1     -21.098  -0.453   6.553  1.00  0.00    -0.025 C 
ATOM      4  C   UNL     1     -21.137  -1.717   7.006  1.00  0.00     0.020 C 
BRANCH   4   5
ATOM      5  C   UNL     1     -20.641  -2.204   8.311  1.00  0.00     0.064 C 
ATOM      6  O   UNL     1     -20.847  -1.575   9.382  1.00  0.00    -0.545 OA
ATOM      7  O   UNL     1     -19.945  -3.404   8.358  1.00  0.00    -0.545 OA
ENDBRANCH   4   5
ENDBRANCH   2   3
ENDBRANCH   1   2
BRANCH   1   8
ATOM      8  C   UNL     1     -22.047   2.332   8.469  1.00  0.00     0.000 C 
BRANCH   8   9
ATOM      9  C   UNL     1     -21.747   1.306   9.574  1.00  0.00    -0.000 C 
BRANCH   9  10
ATOM     10  C   UNL     1     -22.623   1.506  10.819  1.00  0.00    -0.003 C 
ATOM     11  C   UNL     1     -21.780   1.492  12.091  1.00  0.00     0.004 C 
ENDBRANCH   9  10
ENDBRANCH   8   9
ENDBRANCH   1   8
TORSDOF 6
ENDMDL
MODEL 7
REMARK VINA RESULT:    -3.195      1.167      2.083
REMARK INTER + INTRA:          -4.416
REMARK INTER:                  -4.437
REMARK INTRA:                   0.021
REMARK UNBOUND:                -0.100
REMARK SMILES CCCCCCC=CC(=O)[O-]
REMARK SMILES IDX 5 1 6 2 7 3 8 4 9 5 10 6 11 7 4 8 3 9 2 10 1 11
REMARK H PARENT
REMARK Flexibility Score: inf
ROOT
ATOM      1  C   UNL     1     -20.703  -0.088   6.216  1.00  0.00     0.004 C 
ENDROOT
BRANCH   1   2
ATOM      2  C   UNL     1     -21.524  -1.099   7.029  1.00  0.00     0.027 C 
BRANCH   2   3
ATOM      3  C   UNL     1     -20.653  -2.199   7.572  1.00  0.00    -0.025 C 
ATOM      4  C   UNL     1     -20.317  -2.375   8.861  1.00  0.00     0.020 C 
BRANCH   4   5
ATOM      5  C   UNL     1     -20.758  -1.556  10.009  1.00  0.00     0.064 C 
ATOM      6  O   UNL     1     -21.177  -0.377   9.869  1.00  0.00    -0.545 OA
ATOM      7  O   UNL     1     -20.730  -2.113  11.280  1.00  0.00    -0.545 OA
ENDBRANCH   4   5
ENDBRANCH   2   3
ENDBRANCH   1   2
BRANCH   1   8
ATOM      8  C   UNL     1     -20.452   1.192   7.027  1.00  0.00     0.000 C 
BRANCH   8   9
ATOM      9  C   UNL     1     -21.696   2.091   7.116  1.00  0.00    -0.000 C 
BRANCH   9  10
ATOM     10  C   UNL     1     -21.954   2.602   8.541  1.00  0.00    -0.003 C 
ATOM     11  C   UNL     1     -22.390   4.064   8.529  1.00  0.00     0.004 C 
ENDBRANCH   9  10
ENDBRANCH   8   9
ENDBRANCH   1   8
TORSDOF 6
ENDMDL
MODEL 8
REMARK VINA RESULT:    -2.986      1.784      4.796
REMARK INTER + INTRA:          -4.133
REMARK INTER:                  -4.347
REMARK INTRA:                   0.214
REMARK UNBOUND:                -0.100
REMARK SMILES CCCCCCC=CC(=O)[O-]
REMARK SMILES IDX 5 1 6 2 7 3 8 4 9 5 10 6 11 7 4 8 3 9 2 10 1 11
REMARK H PARENT
REMARK Flexibility Score: inf
ROOT
ATOM      1  C   UNL     1     -21.443   0.528   6.338  1.00  0.00     0.004 C 
ENDROOT
BRANCH   1   2
ATOM      2  C   UNL     1     -20.789   1.525   7.305  1.00  0.00     0.027 C 
BRANCH   2   3
ATOM      3  C   UNL     1     -21.812   2.443   7.917  1.00  0.00    -0.025 C 
ATOM      4  C   UNL     1     -22.304   2.356   9.163  1.00  0.00     0.020 C 
BRANCH   4   5
ATOM      5  C   UNL     1     -21.921   1.373  10.198  1.00  0.00     0.064 C 
ATOM      6  O   UNL     1     -21.530   0.212   9.907  1.00  0.00    -0.545 OA
ATOM      7  O   UNL     1     -21.974   1.750  11.533  1.00  0.00    -0.545 OA
ENDBRANCH   4   5
ENDBRANCH   2   3
ENDBRANCH   1   2
BRANCH   1   8
ATOM      8  C   UNL     1     -20.645  -0.783   6.280  1.00  0.00     0.000 C 
BRANCH   8   9
ATOM      9  C   UNL     1     -21.258  -1.890   7.153  1.00  0.00    -0.000 C 
BRANCH   9  10
ATOM     10  C   UNL     1     -20.201  -2.659   7.959  1.00  0.00    -0.003 C 
ATOM     11  C   UNL     1     -20.406  -2.465   9.459  1.00  0.00     0.004 C 
ENDBRANCH   9  10
ENDBRANCH   8   9
ENDBRANCH   1   8
TORSDOF 6
ENDMDL
MODEL 9
REMARK VINA RESULT:    -2.880      3.428      4.878
REMARK INTER + INTRA:          -3.991
REMARK INTER:                  -3.887
REMARK INTRA:                  -0.104
REMARK UNBOUND:                -0.100
REMARK SMILES CCCCCCC=CC(=O)[O-]
REMARK SMILES IDX 5 1 6 2 7 3 8 4 9 5 10 6 11 7 4 8 3 9 2 10 1 11
REMARK H PARENT
REMARK Flexibility Score: inf
ROOT
ATOM      1  C   UNL     1     -20.621  -2.223  10.145  1.00  0.00     0.004 C 
ENDROOT
BRANCH   1   2
ATOM      2  C   UNL     1     -20.972  -1.159   9.095  1.00  0.00     0.027 C 
BRANCH   2   3
ATOM      3  C   UNL     1     -20.841  -1.707   7.700  1.00  0.00    -0.025 C 
ATOM      4  C   UNL     1     -20.884  -0.990   6.565  1.00  0.00     0.020 C 
BRANCH   4   5
ATOM      5  C   UNL     1     -21.030   0.476   6.450  1.00  0.00     0.064 C 
ATOM      6  O   UNL     1     -20.267   1.274   7.054  1.00  0.00    -0.545 OA
ATOM      7  O   UNL     1     -22.028   0.989   5.632  1.00  0.00    -0.545 OA
ENDBRANCH   4   5
ENDBRANCH   2   3
ENDBRANCH   1   2
BRANCH   1   8
ATOM      8  C   UNL     1     -20.291  -1.571  11.496  1.00  0.00     0.000 C 
BRANCH   8   9
ATOM      9  C   UNL     1     -21.404  -1.766  12.537  1.00  0.00    -0.000 C 
BRANCH   9  10
ATOM     10  C   UNL     1     -21.773  -0.461  13.258  1.00  0.00    -0.003 C 
ATOM     11  C   UNL     1     -21.124  -0.395  14.638  1.00  0.00     0.004 C 
ENDBRANCH   9  10
ENDBRANCH   8   9
ENDBRANCH   1   8
TORSDOF 6
ENDMDL
