MODEL 1
REMARK VINA RESULT:    -2.178      0.000      0.000
REMARK INTER + INTRA:          -5.362
REMARK INTER:                  -4.216
REMARK INTRA:                  -1.146
REMARK UNBOUND:                -1.146
REMARK SMILES CCCCCCCCCCCCCCCCCC(=O)[O-]
REMARK SMILES IDX 10 1 11 2 12 3 13 4 14 5 15 6 16 7 17 8 18 9 19 10 20 11
REMARK SMILES IDX 9 12 8 13 7 14 6 15 5 16 4 17 3 18 2 19 1 20
REMARK H PARENT
REMARK Flexibility Score: inf
ROOT
ATOM      1  C   UNL     1     -12.411  -9.611  -9.881  1.00  0.00     0.000 C 
ENDROOT
BRANCH   1   2
ATOM      2  C   UNL     1     -13.089 -10.962  -9.599  1.00  0.00     0.000 C 
BRANCH   2   3
ATOM      3  C   UNL     1     -13.059 -11.900 -10.816  1.00  0.00     0.000 C 
BRANCH   3   4
ATOM      4  C   UNL     1     -14.450 -12.491 -11.089  1.00  0.00     0.000 C 
BRANCH   4   5
ATOM      5  C   UNL     1     -15.476 -12.118 -10.006  1.00  0.00     0.000 C 
BRANCH   5   6
ATOM      6  C   UNL     1     -16.587 -11.199 -10.533  1.00  0.00     0.000 C 
BRANCH   6   7
ATOM      7  C   UNL     1     -17.971 -11.744 -10.159  1.00  0.00     0.006 C 
BRANCH   7   8
ATOM      8  C   UNL     1     -18.623 -10.892  -9.068  1.00  0.00     0.053 C 
BRANCH   8   9
ATOM      9  C   UNL     1     -19.794 -11.607  -8.474  1.00  0.00     0.041 C 
ATOM     10  O   UNL     1     -20.677 -12.107  -9.222  1.00  0.00    -0.550 OA
ATOM     11  O   UNL     1     -19.937 -11.685  -7.095  1.00  0.00    -0.550 OA
ENDBRANCH   8   9
ENDBRANCH   7   8
ENDBRANCH   6   7
ENDBRANCH   5   6
ENDBRANCH   4   5
ENDBRANCH   3   4
ENDBRANCH   2   3
ENDBRANCH   1   2
BRANCH   1  12
ATOM     12  C   UNL     1     -12.060  -9.425 -11.366  1.00  0.00     0.000 C 
BRANCH  12  13
ATOM     13  C   UNL     1     -12.686  -8.154 -11.963  1.00  0.00    -0.000 C 
BRANCH  13  14
ATOM     14  C   UNL     1     -14.204  -8.075 -11.719  1.00  0.00    -0.000 C 
BRANCH  14  15
ATOM     15  C   UNL     1     -14.786  -6.697 -12.070  1.00  0.00    -0.000 C 
BRANCH  15  16
ATOM     16  C   UNL     1     -14.378  -5.609 -11.061  1.00  0.00    -0.000 C 
BRANCH  16  17
ATOM     17  C   UNL     1     -15.432  -4.484 -10.961  1.00  0.00    -0.000 C 
BRANCH  17  18
ATOM     18  C   UNL     1     -16.443  -4.480 -12.119  1.00  0.00    -0.000 C 
BRANCH  18  19
ATOM     19  C   UNL     1     -17.775  -5.147 -11.753  1.00  0.00    -0.003 C 
ATOM     20  C   UNL     1     -18.938  -4.170 -11.896  1.00  0.00     0.004 C 
ENDBRANCH  18  19
ENDBRANCH  17  18
ENDBRANCH  16  17
ENDBRANCH  15  16
ENDBRANCH  14  15
ENDBRANCH  13  14
ENDBRANCH  12  13
ENDBRANCH   1  12
TORSDOF 16
ENDMDL
MODEL 2
REMARK VINA RESULT:    -2.133      3.600      7.351
REMARK INTER + INTRA:          -5.275
REMARK INTER:                  -4.126
REMARK INTRA:                  -1.149
REMARK UNBOUND:                -1.146
REMARK SMILES CCCCCCCCCCCCCCCCCC(=O)[O-]
REMARK SMILES IDX 10 1 11 2 12 3 13 4 14 5 15 6 16 7 17 8 18 9 19 10 20 11
REMARK SMILES IDX 9 12 8 13 7 14 6 15 5 16 4 17 3 18 2 19 1 20
REMARK H PARENT
REMARK Flexibility Score: inf
ROOT
ATOM      1  C   UNL     1     -15.517 -10.763 -10.305  1.00  0.00     0.000 C 
ENDROOT
BRANCH   1   2
ATOM      2  C   UNL     1     -14.608 -11.201 -11.465  1.00  0.00     0.000 C 
BRANCH   2   3
ATOM      3  C   UNL     1     -13.162 -10.710 -11.297  1.00  0.00     0.000 C 
BRANCH   3   4
ATOM      4  C   UNL     1     -13.117  -9.388 -10.518  1.00  0.00     0.000 C 
BRANCH   4   5
ATOM      5  C   UNL     1     -12.931  -8.167 -11.433  1.00  0.00     0.000 C 
BRANCH   5   6
ATOM      6  C   UNL     1     -14.235  -7.740 -12.124  1.00  0.00     0.000 C 
BRANCH   6   7
ATOM      7  C   UNL     1     -14.765  -6.428 -11.530  1.00  0.00     0.006 C 
BRANCH   7   8
ATOM      8  C   UNL     1     -13.992  -5.225 -12.075  1.00  0.00     0.053 C 
BRANCH   8   9
ATOM      9  C   UNL     1     -14.669  -3.949 -11.686  1.00  0.00     0.041 C 
ATOM     10  O   UNL     1     -13.993  -2.986 -11.234  1.00  0.00    -0.550 OA
ATOM     11  O   UNL     1     -16.050  -3.837 -11.779  1.00  0.00    -0.550 OA
ENDBRANCH   8   9
ENDBRANCH   7   8
ENDBRANCH   6   7
ENDBRANCH   5   6
ENDBRANCH   4   5
ENDBRANCH   3   4
ENDBRANCH   2   3
ENDBRANCH   1   2
BRANCH   1  12
ATOM     12  C   UNL     1     -16.893 -11.450 -10.341  1.00  0.00     0.000 C 
BRANCH  12  13
ATOM     13  C   UNL     1     -17.514 -11.450 -11.747  1.00  0.00    -0.000 C 
BRANCH  13  14
ATOM     14  C   UNL     1     -18.940 -12.030 -11.760  1.00  0.00    -0.000 C 
BRANCH  14  15
ATOM     15  C   UNL     1     -19.367 -12.573 -10.388  1.00  0.00    -0.000 C 
BRANCH  15  16
ATOM     16  C   UNL     1     -20.862 -12.341 -10.100  1.00  0.00    -0.000 C 
BRANCH  16  17
ATOM     17  C   UNL     1     -21.084 -11.296  -8.985  1.00  0.00    -0.000 C 
BRANCH  17  18
ATOM     18  C   UNL     1     -19.847 -11.062  -8.101  1.00  0.00    -0.000 C 
BRANCH  18  19
ATOM     19  C   UNL     1     -19.658 -12.152  -7.039  1.00  0.00    -0.003 C 
ATOM     20  C   UNL     1     -20.830 -12.177  -6.061  1.00  0.00     0.004 C 
ENDBRANCH  18  19
ENDBRANCH  17  18
ENDBRANCH  16  17
ENDBRANCH  15  16
ENDBRANCH  14  15
ENDBRANCH  13  14
ENDBRANCH  12  13
ENDBRANCH   1  12
TORSDOF 16
ENDMDL
MODEL 3
REMARK VINA RESULT:    -0.773      4.148      7.299
REMARK INTER + INTRA:          -2.642
REMARK INTER:                  -1.808
REMARK INTRA:                  -0.834
REMARK UNBOUND:                -1.146
REMARK SMILES CCCCCCCCCCCCCCCCCC(=O)[O-]
REMARK SMILES IDX 10 1 11 2 12 3 13 4 14 5 15 6 16 7 17 8 18 9 19 10 20 11
REMARK SMILES IDX 9 12 8 13 7 14 6 15 5 16 4 17 3 18 2 19 1 20
REMARK H PARENT
REMARK Flexibility Score: inf
ROOT
ATOM      1  C   UNL     1     -11.788  -9.472 -10.399  1.00  0.00     0.000 C 
ENDROOT
BRANCH   1   2
ATOM      2  C   UNL     1     -12.678 -10.646  -9.959  1.00  0.00     0.000 C 
BRANCH   2   3
ATOM      3  C   UNL     1     -12.946 -11.641 -11.099  1.00  0.00     0.000 C 
BRANCH   3   4
ATOM      4  C   UNL     1     -14.408 -11.566 -11.563  1.00  0.00     0.000 C 
BRANCH   4   5
ATOM      5  C   UNL     1     -15.343 -10.993 -10.485  1.00  0.00     0.000 C 
BRANCH   5   6
ATOM      6  C   UNL     1     -16.825 -11.272 -10.777  1.00  0.00     0.000 C 
BRANCH   6   7
ATOM      7  C   UNL     1     -17.698 -10.904  -9.570  1.00  0.00     0.006 C 
BRANCH   7   8
ATOM      8  C   UNL     1     -18.385 -12.142  -8.989  1.00  0.00     0.053 C 
BRANCH   8   9
ATOM      9  C   UNL     1     -19.426 -11.744  -7.992  1.00  0.00     0.041 C 
ATOM     10  O   UNL     1     -20.327 -12.558  -7.657  1.00  0.00    -0.550 OA
ATOM     11  O   UNL     1     -19.430 -10.458  -7.466  1.00  0.00    -0.550 OA
ENDBRANCH   8   9
ENDBRANCH   7   8
ENDBRANCH   6   7
ENDBRANCH   5   6
ENDBRANCH   4   5
ENDBRANCH   3   4
ENDBRANCH   2   3
ENDBRANCH   1   2
BRANCH   1  12
ATOM     12  C   UNL     1     -11.317  -9.602 -11.857  1.00  0.00     0.000 C 
BRANCH  12  13
ATOM     13  C   UNL     1      -9.798  -9.418 -12.003  1.00  0.00    -0.000 C 
BRANCH  13  14
ATOM     14  C   UNL     1      -9.048 -10.760 -12.082  1.00  0.00    -0.000 C 
BRANCH  14  15
ATOM     15  C   UNL     1      -7.523 -10.581 -12.125  1.00  0.00    -0.000 C 
BRANCH  15  16
ATOM     16  C   UNL     1      -6.769 -11.923 -12.096  1.00  0.00    -0.000 C 
BRANCH  16  17
ATOM     17  C   UNL     1      -5.668 -11.949 -11.014  1.00  0.00    -0.000 C 
BRANCH  17  18
ATOM     18  C   UNL     1      -5.032 -10.575 -10.747  1.00  0.00    -0.000 C 
BRANCH  18  19
ATOM     19  C   UNL     1      -3.513 -10.648 -10.549  1.00  0.00    -0.003 C 
ATOM     20  C   UNL     1      -2.837  -9.351 -10.987  1.00  0.00     0.004 C 
ENDBRANCH  18  19
ENDBRANCH  17  18
ENDBRANCH  16  17
ENDBRANCH  15  16
ENDBRANCH  14  15
ENDBRANCH  13  14
ENDBRANCH  12  13
ENDBRANCH   1  12
TORSDOF 16
ENDMDL
MODEL 4
REMARK VINA RESULT:    -0.371      3.944      7.011
REMARK INTER + INTRA:          -1.863
REMARK INTER:                  -1.396
REMARK INTRA:                  -0.467
REMARK UNBOUND:                -1.146
REMARK SMILES CCCCCCCCCCCCCCCCCC(=O)[O-]
REMARK SMILES IDX 10 1 11 2 12 3 13 4 14 5 15 6 16 7 17 8 18 9 19 10 20 11
REMARK SMILES IDX 9 12 8 13 7 14 6 15 5 16 4 17 3 18 2 19 1 20
REMARK H PARENT
REMARK Flexibility Score: inf
ROOT
ATOM      1  C   UNL     1     -16.153 -10.845  -9.592  1.00  0.00     0.000 C 
ENDROOT
BRANCH   1   2
ATOM      2  C   UNL     1     -15.983 -10.162 -10.959  1.00  0.00     0.000 C 
BRANCH   2   3
ATOM      3  C   UNL     1     -15.902 -11.171 -12.115  1.00  0.00     0.000 C 
BRANCH   3   4
ATOM      4  C   UNL     1     -15.222 -12.472 -11.662  1.00  0.00     0.000 C 
BRANCH   4   5
ATOM      5  C   UNL     1     -13.759 -12.569 -12.125  1.00  0.00     0.000 C 
BRANCH   5   6
ATOM      6  C   UNL     1     -12.784 -11.893 -11.150  1.00  0.00     0.000 C 
BRANCH   6   7
ATOM      7  C   UNL     1     -11.681 -11.146 -11.911  1.00  0.00     0.006 C 
BRANCH   7   8
ATOM      8  C   UNL     1     -11.380  -9.794 -11.258  1.00  0.00     0.053 C 
BRANCH   8   9
ATOM      9  C   UNL     1     -12.649  -9.101 -10.881  1.00  0.00     0.041 C 
ATOM     10  O   UNL     1     -13.103  -9.203  -9.710  1.00  0.00    -0.550 OA
ATOM     11  O   UNL     1     -13.357  -8.378 -11.832  1.00  0.00    -0.550 OA
ENDBRANCH   8   9
ENDBRANCH   7   8
ENDBRANCH   6   7
ENDBRANCH   5   6
ENDBRANCH   4   5
ENDBRANCH   3   4
ENDBRANCH   2   3
ENDBRANCH   1   2
BRANCH   1  12
ATOM     12  C   UNL     1     -17.493 -11.589  -9.466  1.00  0.00     0.000 C 
BRANCH  12  13
ATOM     13  C   UNL     1     -18.547 -11.074 -10.460  1.00  0.00    -0.000 C 
BRANCH  13  14
ATOM     14  C   UNL     1     -19.907 -11.774 -10.290  1.00  0.00    -0.000 C 
BRANCH  14  15
ATOM     15  C   UNL     1     -19.788 -13.123  -9.565  1.00  0.00    -0.000 C 
BRANCH  15  16
ATOM     16  C   UNL     1     -19.971 -12.994  -8.042  1.00  0.00    -0.000 C 
BRANCH  16  17
ATOM     17  C   UNL     1     -21.124 -12.035  -7.674  1.00  0.00    -0.000 C 
BRANCH  17  18
ATOM     18  C   UNL     1     -21.005 -11.440  -6.260  1.00  0.00    -0.000 C 
BRANCH  18  19
ATOM     19  C   UNL     1     -21.017  -9.907  -6.254  1.00  0.00    -0.003 C 
ATOM     20  C   UNL     1     -21.053  -9.351  -7.675  1.00  0.00     0.004 C 
ENDBRANCH  18  19
ENDBRANCH  17  18
ENDBRANCH  16  17
ENDBRANCH  15  16
ENDBRANCH  14  15
ENDBRANCH  13  14
ENDBRANCH  12  13
ENDBRANCH   1  12
TORSDOF 16
ENDMDL
MODEL 5
REMARK VINA RESULT:    -0.285      1.227      2.093
REMARK INTER + INTRA:          -1.697
REMARK INTER:                  -0.557
REMARK INTRA:                  -1.140
REMARK UNBOUND:                -1.146
REMARK SMILES CCCCCCCCCCCCCCCCCC(=O)[O-]
REMARK SMILES IDX 10 1 11 2 12 3 13 4 14 5 15 6 16 7 17 8 18 9 19 10 20 11
REMARK SMILES IDX 9 12 8 13 7 14 6 15 5 16 4 17 3 18 2 19 1 20
REMARK H PARENT
REMARK Flexibility Score: inf
ROOT
ATOM      1  C   UNL     1     -12.202  -8.604  -9.952  1.00  0.00     0.000 C 
ENDROOT
BRANCH   1   2
ATOM      2  C   UNL     1     -12.393  -9.926  -9.191  1.00  0.00     0.000 C 
BRANCH   2   3
ATOM      3  C   UNL     1     -12.284 -11.154 -10.107  1.00  0.00     0.000 C 
BRANCH   3   4
ATOM      4  C   UNL     1     -13.542 -12.030 -10.004  1.00  0.00     0.000 C 
BRANCH   4   5
ATOM      5  C   UNL     1     -14.427 -11.947 -11.258  1.00  0.00     0.000 C 
BRANCH   5   6
ATOM      6  C   UNL     1     -15.880 -12.363 -10.987  1.00  0.00     0.000 C 
BRANCH   6   7
ATOM      7  C   UNL     1     -16.510 -11.477  -9.905  1.00  0.00     0.006 C 
BRANCH   7   8
ATOM      8  C   UNL     1     -17.671 -12.195  -9.211  1.00  0.00     0.053 C 
BRANCH   8   9
ATOM      9  C   UNL     1     -18.550 -11.211  -8.508  1.00  0.00     0.041 C 
ATOM     10  O   UNL     1     -19.721 -11.533  -8.174  1.00  0.00    -0.550 OA
ATOM     11  O   UNL     1     -18.094  -9.922  -8.261  1.00  0.00    -0.550 OA
ENDBRANCH   8   9
ENDBRANCH   7   8
ENDBRANCH   6   7
ENDBRANCH   5   6
ENDBRANCH   4   5
ENDBRANCH   3   4
ENDBRANCH   2   3
ENDBRANCH   1   2
BRANCH   1  12
ATOM     12  C   UNL     1     -12.600  -8.713 -11.433  1.00  0.00     0.000 C 
BRANCH  12  13
ATOM     13  C   UNL     1     -13.463  -7.528 -11.899  1.00  0.00    -0.000 C 
BRANCH  13  14
ATOM     14  C   UNL     1     -14.821  -7.471 -11.177  1.00  0.00    -0.000 C 
BRANCH  14  15
ATOM     15  C   UNL     1     -16.003  -7.725 -12.125  1.00  0.00    -0.000 C 
BRANCH  15  16
ATOM     16  C   UNL     1     -17.122  -6.680 -11.968  1.00  0.00    -0.000 C 
BRANCH  16  17
ATOM     17  C   UNL     1     -16.596  -5.236 -12.125  1.00  0.00    -0.000 C 
BRANCH  17  18
ATOM     18  C   UNL     1     -15.879  -4.702 -10.874  1.00  0.00    -0.000 C 
BRANCH  18  19
ATOM     19  C   UNL     1     -15.020  -3.464 -11.161  1.00  0.00    -0.003 C 
ATOM     20  C   UNL     1     -13.616  -3.860 -11.611  1.00  0.00     0.004 C 
ENDBRANCH  18  19
ENDBRANCH  17  18
ENDBRANCH  16  17
ENDBRANCH  15  16
ENDBRANCH  14  15
ENDBRANCH  13  14
ENDBRANCH  12  13
ENDBRANCH   1  12
TORSDOF 16
ENDMDL
MODEL 6
REMARK VINA RESULT:    -0.102     11.244     14.711
REMARK INTER + INTRA:          -1.343
REMARK INTER:                  -1.831
REMARK INTRA:                   0.487
REMARK UNBOUND:                -1.146
REMARK SMILES CCCCCCCCCCCCCCCCCC(=O)[O-]
REMARK SMILES IDX 10 1 11 2 12 3 13 4 14 5 15 6 16 7 17 8 18 9 19 10 20 11
REMARK SMILES IDX 9 12 8 13 7 14 6 15 5 16 4 17 3 18 2 19 1 20
REMARK H PARENT
REMARK Flexibility Score: inf
ROOT
ATOM      1  C   UNL     1      -1.818  -8.949  -8.615  1.00  0.00     0.000 C 
ENDROOT
BRANCH   1   2
ATOM      2  C   UNL     1      -1.228  -9.315  -9.986  1.00  0.00     0.000 C 
BRANCH   2   3
ATOM      3  C   UNL     1      -2.074  -8.783 -11.152  1.00  0.00     0.000 C 
BRANCH   3   4
ATOM      4  C   UNL     1      -2.699  -9.938 -11.950  1.00  0.00     0.000 C 
BRANCH   4   5
ATOM      5  C   UNL     1      -2.037 -11.292 -11.650  1.00  0.00     0.000 C 
BRANCH   5   6
ATOM      6  C   UNL     1      -2.983 -12.479 -11.884  1.00  0.00     0.000 C 
BRANCH   6   7
ATOM      7  C   UNL     1      -3.985 -12.617 -10.731  1.00  0.00     0.006 C 
BRANCH   7   8
ATOM      8  C   UNL     1      -5.407 -12.825 -11.258  1.00  0.00     0.053 C 
BRANCH   8   9
ATOM      9  C   UNL     1      -6.173 -11.541 -11.218  1.00  0.00     0.041 C 
ATOM     10  O   UNL     1      -7.174 -11.377 -11.965  1.00  0.00    -0.550 OA
ATOM     11  O   UNL     1      -5.756 -10.507 -10.389  1.00  0.00    -0.550 OA
ENDBRANCH   8   9
ENDBRANCH   7   8
ENDBRANCH   6   7
ENDBRANCH   5   6
ENDBRANCH   4   5
ENDBRANCH   3   4
ENDBRANCH   2   3
ENDBRANCH   1   2
BRANCH   1  12
ATOM     12  C   UNL     1      -0.886  -8.042  -7.794  1.00  0.00     0.000 C 
BRANCH  12  13
ATOM     13  C   UNL     1      -0.991  -8.303  -6.283  1.00  0.00    -0.000 C 
BRANCH  13  14
ATOM     14  C   UNL     1      -0.878  -9.798  -5.936  1.00  0.00    -0.000 C 
BRANCH  14  15
ATOM     15  C   UNL     1      -0.950 -10.699  -7.178  1.00  0.00    -0.000 C 
BRANCH  15  16
ATOM     16  C   UNL     1      -1.779 -11.973  -6.937  1.00  0.00    -0.000 C 
BRANCH  16  17
ATOM     17  C   UNL     1      -0.927 -13.120  -6.349  1.00  0.00    -0.000 C 
BRANCH  17  18
ATOM     18  C   UNL     1      -0.876 -13.125  -4.812  1.00  0.00    -0.000 C 
BRANCH  18  19
ATOM     19  C   UNL     1      -2.265 -13.045  -4.167  1.00  0.00    -0.003 C 
ATOM     20  C   UNL     1      -2.166 -12.665  -2.692  1.00  0.00     0.004 C 
ENDBRANCH  18  19
ENDBRANCH  17  18
ENDBRANCH  16  17
ENDBRANCH  15  16
ENDBRANCH  14  15
ENDBRANCH  13  14
ENDBRANCH  12  13
ENDBRANCH   1  12
TORSDOF 16
ENDMDL
