MODEL 1
REMARK VINA RESULT:    -3.774      0.000      0.000
REMARK INTER + INTRA:          -5.960
REMARK INTER:                  -5.539
REMARK INTRA:                  -0.421
REMARK UNBOUND:                -0.421
REMARK SMILES O=C([O-])CCCCCCCC(=O)[O-]
REMARK SMILES IDX 7 1 6 2 5 3 4 4 2 5 1 6 3 7 8 8 9 9 10 10 11 11 12 12 13 13
REMARK H PARENT
REMARK Flexibility Score: inf
ROOT
ATOM      1  C   UNL     1      19.914  14.312 -15.586  1.00  0.00     0.000 C 
ENDROOT
BRANCH   1   2
ATOM      2  C   UNL     1      19.304  12.906 -15.538  1.00  0.00     0.000 C 
BRANCH   2   3
ATOM      3  C   UNL     1      18.539  12.593 -16.833  1.00  0.00     0.006 C 
BRANCH   3   4
ATOM      4  C   UNL     1      18.174  11.109 -16.948  1.00  0.00     0.053 C 
BRANCH   4   5
ATOM      5  C   UNL     1      19.391  10.234 -16.923  1.00  0.00     0.041 C 
ATOM      6  O   UNL     1      19.441   9.240 -16.152  1.00  0.00    -0.550 OA
ATOM      7  O   UNL     1      20.456  10.498 -17.775  1.00  0.00    -0.550 OA
ENDBRANCH   4   5
ENDBRANCH   3   4
ENDBRANCH   2   3
ENDBRANCH   1   2
BRANCH   1   8
ATOM      8  C   UNL     1      21.252  14.305 -16.336  1.00  0.00     0.000 C 
BRANCH   8   9
ATOM      9  C   UNL     1      21.774  15.735 -16.543  1.00  0.00     0.006 C 
BRANCH   9  10
ATOM     10  C   UNL     1      20.676  16.689 -17.030  1.00  0.00     0.053 C 
BRANCH  10  11
ATOM     11  C   UNL     1      20.696  16.846 -18.521  1.00  0.00     0.041 C 
ATOM     12  O   UNL     1      21.791  16.873 -19.140  1.00  0.00    -0.550 OA
ATOM     13  O   UNL     1      19.503  16.927 -19.228  1.00  0.00    -0.550 OA
ENDBRANCH  10  11
ENDBRANCH   9  10
ENDBRANCH   8   9
ENDBRANCH   1   8
TORSDOF 8
ENDMDL
MODEL 2
REMARK VINA RESULT:    -3.735      0.229      6.022
REMARK INTER + INTRA:          -5.902
REMARK INTER:                  -5.535
REMARK INTRA:                  -0.367
REMARK UNBOUND:                -0.421
REMARK SMILES O=C([O-])CCCCCCCC(=O)[O-]
REMARK SMILES IDX 7 1 6 2 5 3 4 4 2 5 1 6 3 7 8 8 9 9 10 10 11 11 12 12 13 13
REMARK H PARENT
REMARK Flexibility Score: inf
ROOT
ATOM      1  C   UNL     1      19.904  14.298 -15.870  1.00  0.00     0.000 C 
ENDROOT
BRANCH   1   2
ATOM      2  C   UNL     1      21.375  14.248 -16.299  1.00  0.00     0.000 C 
BRANCH   2   3
ATOM      3  C   UNL     1      21.910  15.657 -16.597  1.00  0.00     0.006 C 
BRANCH   3   4
ATOM      4  C   UNL     1      20.799  16.619 -17.036  1.00  0.00     0.053 C 
BRANCH   4   5
ATOM      5  C   UNL     1      20.785  16.810 -18.522  1.00  0.00     0.041 C 
ATOM      6  O   UNL     1      21.866  16.881 -19.163  1.00  0.00    -0.550 OA
ATOM      7  O   UNL     1      19.576  16.876 -19.204  1.00  0.00    -0.550 OA
ENDBRANCH   4   5
ENDBRANCH   3   4
ENDBRANCH   2   3
ENDBRANCH   1   2
BRANCH   1   8
ATOM      8  C   UNL     1      19.354  12.887 -15.626  1.00  0.00     0.000 C 
BRANCH   8   9
ATOM      9  C   UNL     1      18.622  12.359 -16.869  1.00  0.00     0.006 C 
BRANCH   9  10
ATOM     10  C   UNL     1      18.224  10.884 -16.726  1.00  0.00     0.053 C 
BRANCH  10  11
ATOM     11  C   UNL     1      19.398   9.971 -16.910  1.00  0.00     0.041 C 
ATOM     12  O   UNL     1      20.307  10.264 -17.730  1.00  0.00    -0.550 OA
ATOM     13  O   UNL     1      19.505   8.813 -16.150  1.00  0.00    -0.550 OA
ENDBRANCH  10  11
ENDBRANCH   9  10
ENDBRANCH   8   9
ENDBRANCH   1   8
TORSDOF 8
ENDMDL
MODEL 3
REMARK VINA RESULT:    -3.701      1.655      6.559
REMARK INTER + INTRA:          -5.853
REMARK INTER:                  -5.524
REMARK INTRA:                  -0.329
REMARK UNBOUND:                -0.421
REMARK SMILES O=C([O-])CCCCCCCC(=O)[O-]
REMARK SMILES IDX 7 1 6 2 5 3 4 4 2 5 1 6 3 7 8 8 9 9 10 10 11 11 12 12 13 13
REMARK H PARENT
REMARK Flexibility Score: inf
ROOT
ATOM      1  C   UNL     1      18.627  12.728 -16.828  1.00  0.00     0.000 C 
ENDROOT
BRANCH   1   2
ATOM      2  C   UNL     1      19.521  13.012 -15.615  1.00  0.00     0.000 C 
BRANCH   2   3
ATOM      3  C   UNL     1      19.884  14.502 -15.536  1.00  0.00     0.006 C 
BRANCH   3   4
ATOM      4  C   UNL     1      19.972  15.154 -16.921  1.00  0.00     0.053 C 
BRANCH   4   5
ATOM      5  C   UNL     1      21.146  16.080 -17.026  1.00  0.00     0.041 C 
ATOM      6  O   UNL     1      21.002  17.234 -17.509  1.00  0.00    -0.550 OA
ATOM      7  O   UNL     1      22.393  15.681 -16.559  1.00  0.00    -0.550 OA
ENDBRANCH   4   5
ENDBRANCH   3   4
ENDBRANCH   2   3
ENDBRANCH   1   2
BRANCH   1   8
ATOM      8  C   UNL     1      18.261  11.241 -16.905  1.00  0.00     0.000 C 
BRANCH   8   9
ATOM      9  C   UNL     1      19.509  10.358 -16.750  1.00  0.00     0.006 C 
BRANCH   9  10
ATOM     10  C   UNL     1      19.157   8.920 -16.348  1.00  0.00     0.053 C 
BRANCH  10  11
ATOM     11  C   UNL     1      20.021   7.918 -17.052  1.00  0.00     0.041 C 
ATOM     12  O   UNL     1      19.693   6.703 -17.072  1.00  0.00    -0.550 OA
ATOM     13  O   UNL     1      21.169   8.332 -17.715  1.00  0.00    -0.550 OA
ENDBRANCH  10  11
ENDBRANCH   9  10
ENDBRANCH   8   9
ENDBRANCH   1   8
TORSDOF 8
ENDMDL
MODEL 4
REMARK VINA RESULT:    -3.701      2.486      7.127
REMARK INTER + INTRA:          -5.852
REMARK INTER:                  -5.578
REMARK INTRA:                  -0.274
REMARK UNBOUND:                -0.421
REMARK SMILES O=C([O-])CCCCCCCC(=O)[O-]
REMARK SMILES IDX 7 1 6 2 5 3 4 4 2 5 1 6 3 7 8 8 9 9 10 10 11 11 12 12 13 13
REMARK H PARENT
REMARK Flexibility Score: inf
ROOT
ATOM      1  C   UNL     1      18.339  10.927 -17.197  1.00  0.00     0.000 C 
ENDROOT
BRANCH   1   2
ATOM      2  C   UNL     1      18.467  12.410 -16.831  1.00  0.00     0.000 C 
BRANCH   2   3
ATOM      3  C   UNL     1      19.706  12.658 -15.958  1.00  0.00     0.006 C 
BRANCH   3   4
ATOM      4  C   UNL     1      19.760  14.091 -15.417  1.00  0.00     0.053 C 
BRANCH   4   5
ATOM      5  C   UNL     1      20.828  14.900 -16.088  1.00  0.00     0.041 C 
ATOM      6  O   UNL     1      20.735  16.154 -16.142  1.00  0.00    -0.550 OA
ATOM      7  O   UNL     1      21.944  14.269 -16.627  1.00  0.00    -0.550 OA
ENDBRANCH   4   5
ENDBRANCH   3   4
ENDBRANCH   2   3
ENDBRANCH   1   2
BRANCH   1   8
ATOM      8  C   UNL     1      19.491  10.111 -16.597  1.00  0.00     0.000 C 
BRANCH   8   9
ATOM      9  C   UNL     1      19.059   8.660 -16.334  1.00  0.00     0.006 C 
BRANCH   9  10
ATOM     10  C   UNL     1      19.951   7.648 -17.062  1.00  0.00     0.053 C 
BRANCH  10  11
ATOM     11  C   UNL     1      19.236   6.354 -17.312  1.00  0.00     0.041 C 
ATOM     12  O   UNL     1      19.875   5.270 -17.324  1.00  0.00    -0.550 OA
ATOM     13  O   UNL     1      17.860   6.345 -17.497  1.00  0.00    -0.550 OA
ENDBRANCH  10  11
ENDBRANCH   9  10
ENDBRANCH   8   9
ENDBRANCH   1   8
TORSDOF 8
ENDMDL
MODEL 5
REMARK VINA RESULT:    -3.682      1.660      2.740
REMARK INTER + INTRA:          -5.824
REMARK INTER:                  -5.330
REMARK INTRA:                  -0.494
REMARK UNBOUND:                -0.421
REMARK SMILES O=C([O-])CCCCCCCC(=O)[O-]
REMARK SMILES IDX 7 1 6 2 5 3 4 4 2 5 1 6 3 7 8 8 9 9 10 10 11 11 12 12 13 13
REMARK H PARENT
REMARK Flexibility Score: inf
ROOT
ATOM      1  C   UNL     1      22.052  15.350 -16.722  1.00  0.00     0.000 C 
ENDROOT
BRANCH   1   2
ATOM      2  C   UNL     1      21.436  13.990 -16.374  1.00  0.00     0.000 C 
BRANCH   2   3
ATOM      3  C   UNL     1      20.039  14.159 -15.760  1.00  0.00     0.006 C 
BRANCH   3   4
ATOM      4  C   UNL     1      19.309  12.820 -15.597  1.00  0.00     0.053 C 
BRANCH   4   5
ATOM      5  C   UNL     1      18.440  12.514 -16.779  1.00  0.00     0.041 C 
ATOM      6  O   UNL     1      18.141  13.421 -17.599  1.00  0.00    -0.550 OA
ATOM      7  O   UNL     1      17.987  11.218 -16.993  1.00  0.00    -0.550 OA
ENDBRANCH   4   5
ENDBRANCH   3   4
ENDBRANCH   2   3
ENDBRANCH   1   2
BRANCH   1   8
ATOM      8  C   UNL     1      20.984  16.450 -16.737  1.00  0.00     0.000 C 
BRANCH   8   9
ATOM      9  C   UNL     1      20.883  17.100 -18.125  1.00  0.00     0.006 C 
BRANCH   9  10
ATOM     10  C   UNL     1      19.770  16.478 -18.978  1.00  0.00     0.053 C 
BRANCH  10  11
ATOM     11  C   UNL     1      19.684  17.114 -20.332  1.00  0.00     0.041 C 
ATOM     12  O   UNL     1      18.595  17.600 -20.736  1.00  0.00    -0.550 OA
ATOM     13  O   UNL     1      20.815  17.200 -21.133  1.00  0.00    -0.550 OA
ENDBRANCH  10  11
ENDBRANCH   9  10
ENDBRANCH   8   9
ENDBRANCH   1   8
TORSDOF 8
ENDMDL
MODEL 6
REMARK VINA RESULT:    -3.656      1.644      5.615
REMARK INTER + INTRA:          -5.787
REMARK INTER:                  -5.309
REMARK INTRA:                  -0.478
REMARK UNBOUND:                -0.421
REMARK SMILES O=C([O-])CCCCCCCC(=O)[O-]
REMARK SMILES IDX 7 1 6 2 5 3 4 4 2 5 1 6 3 7 8 8 9 9 10 10 11 11 12 12 13 13
REMARK H PARENT
REMARK Flexibility Score: inf
ROOT
ATOM      1  C   UNL     1      22.033  15.294 -16.614  1.00  0.00     0.000 C 
ENDROOT
BRANCH   1   2
ATOM      2  C   UNL     1      20.963  16.391 -16.592  1.00  0.00     0.000 C 
BRANCH   2   3
ATOM      3  C   UNL     1      20.907  17.133 -17.936  1.00  0.00     0.006 C 
BRANCH   3   4
ATOM      4  C   UNL     1      19.787  16.609 -18.843  1.00  0.00     0.053 C 
BRANCH   4   5
ATOM      5  C   UNL     1      19.953  17.076 -20.257  1.00  0.00     0.041 C 
ATOM      6  O   UNL     1      21.057  16.934 -20.847  1.00  0.00    -0.550 OA
ATOM      7  O   UNL     1      18.879  17.639 -20.936  1.00  0.00    -0.550 OA
ENDBRANCH   4   5
ENDBRANCH   3   4
ENDBRANCH   2   3
ENDBRANCH   1   2
BRANCH   1   8
ATOM      8  C   UNL     1      21.407  13.910 -16.410  1.00  0.00     0.000 C 
BRANCH   8   9
ATOM      9  C   UNL     1      20.026  14.022 -15.746  1.00  0.00     0.006 C 
BRANCH   9  10
ATOM     10  C   UNL     1      19.280  12.682 -15.727  1.00  0.00     0.053 C 
BRANCH  10  11
ATOM     11  C   UNL     1      18.402  12.517 -16.930  1.00  0.00     0.041 C 
ATOM     12  O   UNL     1      18.258  13.466 -17.744  1.00  0.00    -0.550 OA
ATOM     13  O   UNL     1      17.771  11.303 -17.170  1.00  0.00    -0.550 OA
ENDBRANCH  10  11
ENDBRANCH   9  10
ENDBRANCH   8   9
ENDBRANCH   1   8
TORSDOF 8
ENDMDL
MODEL 7
REMARK VINA RESULT:    -3.641      1.842      2.818
REMARK INTER + INTRA:          -5.765
REMARK INTER:                  -5.371
REMARK INTRA:                  -0.394
REMARK UNBOUND:                -0.421
REMARK SMILES O=C([O-])CCCCCCCC(=O)[O-]
REMARK SMILES IDX 7 1 6 2 5 3 4 4 2 5 1 6 3 7 8 8 9 9 10 10 11 11 12 12 13 13
REMARK H PARENT
REMARK Flexibility Score: inf
ROOT
ATOM      1  C   UNL     1      18.406  12.505 -16.883  1.00  0.00     0.000 C 
ENDROOT
BRANCH   1   2
ATOM      2  C   UNL     1      18.181  11.006 -17.109  1.00  0.00     0.000 C 
BRANCH   2   3
ATOM      3  C   UNL     1      19.460  10.207 -16.814  1.00  0.00     0.006 C 
BRANCH   3   4
ATOM      4  C   UNL     1      19.158   8.793 -16.302  1.00  0.00     0.053 C 
BRANCH   4   5
ATOM      5  C   UNL     1      19.451   7.752 -17.340  1.00  0.00     0.041 C 
ATOM      6  O   UNL     1      18.840   7.765 -18.441  1.00  0.00    -0.550 OA
ATOM      7  O   UNL     1      20.422   6.787 -17.103  1.00  0.00    -0.550 OA
ENDBRANCH   4   5
ENDBRANCH   3   4
ENDBRANCH   2   3
ENDBRANCH   1   2
BRANCH   1   8
ATOM      8  C   UNL     1      19.151  12.758 -15.567  1.00  0.00     0.000 C 
BRANCH   8   9
ATOM      9  C   UNL     1      19.920  14.088 -15.616  1.00  0.00     0.006 C 
BRANCH   9  10
ATOM     10  C   UNL     1      21.160  14.008 -16.515  1.00  0.00     0.053 C 
BRANCH  10  11
ATOM     11  C   UNL     1      21.818  15.345 -16.677  1.00  0.00     0.041 C 
ATOM     12  O   UNL     1      23.070  15.426 -16.782  1.00  0.00    -0.550 OA
ATOM     13  O   UNL     1      21.045  16.497 -16.745  1.00  0.00    -0.550 OA
ENDBRANCH  10  11
ENDBRANCH   9  10
ENDBRANCH   8   9
ENDBRANCH   1   8
TORSDOF 8
ENDMDL
MODEL 8
REMARK VINA RESULT:    -3.582      2.931      4.524
REMARK INTER + INTRA:          -5.678
REMARK INTER:                  -5.183
REMARK INTRA:                  -0.495
REMARK UNBOUND:                -0.421
REMARK SMILES O=C([O-])CCCCCCCC(=O)[O-]
REMARK SMILES IDX 7 1 6 2 5 3 4 4 2 5 1 6 3 7 8 8 9 9 10 10 11 11 12 12 13 13
REMARK H PARENT
REMARK Flexibility Score: inf
ROOT
ATOM      1  C   UNL     1      18.798   9.946 -18.106  1.00  0.00     0.000 C 
ENDROOT
BRANCH   1   2
ATOM      2  C   UNL     1      19.269   9.793 -16.656  1.00  0.00     0.000 C 
BRANCH   2   3
ATOM      3  C   UNL     1      19.622   8.331 -16.343  1.00  0.00     0.006 C 
BRANCH   3   4
ATOM      4  C   UNL     1      19.700   7.468 -17.608  1.00  0.00     0.053 C 
BRANCH   4   5
ATOM      5  C   UNL     1      18.873   6.224 -17.484  1.00  0.00     0.041 C 
ATOM      6  O   UNL     1      17.620   6.283 -17.588  1.00  0.00    -0.550 OA
ATOM      7  O   UNL     1      19.489   4.995 -17.285  1.00  0.00    -0.550 OA
ENDBRANCH   4   5
ENDBRANCH   3   4
ENDBRANCH   2   3
ENDBRANCH   1   2
BRANCH   1   8
ATOM      8  C   UNL     1      18.001  11.243 -18.292  1.00  0.00     0.000 C 
BRANCH   8   9
ATOM      9  C   UNL     1      17.951  12.050 -16.986  1.00  0.00     0.006 C 
BRANCH   9  10
ATOM     10  C   UNL     1      18.614  13.426 -17.128  1.00  0.00     0.053 C 
BRANCH  10  11
ATOM     11  C   UNL     1      19.802  13.567 -16.225  1.00  0.00     0.041 C 
ATOM     12  O   UNL     1      20.817  12.842 -16.396  1.00  0.00    -0.550 OA
ATOM     13  O   UNL     1      19.801  14.523 -15.217  1.00  0.00    -0.550 OA
ENDBRANCH  10  11
ENDBRANCH   9  10
ENDBRANCH   8   9
ENDBRANCH   1   8
TORSDOF 8
ENDMDL
MODEL 9
REMARK VINA RESULT:    -3.565      2.005      4.609
REMARK INTER + INTRA:          -5.652
REMARK INTER:                  -4.833
REMARK INTRA:                  -0.819
REMARK UNBOUND:                -0.421
REMARK SMILES O=C([O-])CCCCCCCC(=O)[O-]
REMARK SMILES IDX 7 1 6 2 5 3 4 4 2 5 1 6 3 7 8 8 9 9 10 10 11 11 12 12 13 13
REMARK H PARENT
REMARK Flexibility Score: inf
ROOT
ATOM      1  C   UNL     1      20.710  16.139 -16.369  1.00  0.00     0.000 C 
ENDROOT
BRANCH   1   2
ATOM      2  C   UNL     1      20.782  17.053 -17.599  1.00  0.00     0.000 C 
BRANCH   2   3
ATOM      3  C   UNL     1      19.832  16.566 -18.703  1.00  0.00     0.006 C 
BRANCH   3   4
ATOM      4  C   UNL     1      20.567  15.788 -19.801  1.00  0.00     0.053 C 
BRANCH   4   5
ATOM      5  C   UNL     1      20.164  14.345 -19.826  1.00  0.00     0.041 C 
ATOM      6  O   UNL     1      21.012  13.445 -19.591  1.00  0.00    -0.550 OA
ATOM      7  O   UNL     1      18.842  13.996 -20.076  1.00  0.00    -0.550 OA
ENDBRANCH   4   5
ENDBRANCH   3   4
ENDBRANCH   2   3
ENDBRANCH   1   2
BRANCH   1   8
ATOM      8  C   UNL     1      21.817  15.078 -16.406  1.00  0.00     0.000 C 
BRANCH   8   9
ATOM      9  C   UNL     1      21.237  13.671 -16.194  1.00  0.00     0.006 C 
BRANCH   9  10
ATOM     10  C   UNL     1      19.725  13.698 -15.939  1.00  0.00     0.053 C 
BRANCH  10  11
ATOM     11  C   UNL     1      19.052  12.462 -16.454  1.00  0.00     0.041 C 
ATOM     12  O   UNL     1      19.547  11.329 -16.224  1.00  0.00    -0.550 OA
ATOM     13  O   UNL     1      17.859  12.563 -17.158  1.00  0.00    -0.550 OA
ENDBRANCH  10  11
ENDBRANCH   9  10
ENDBRANCH   8   9
ENDBRANCH   1   8
TORSDOF 8
ENDMDL
