MODEL 1
REMARK VINA RESULT:    -4.277      0.000      0.000
REMARK INTER + INTRA:           1.421
REMARK INTER:                  -5.777
REMARK INTRA:                   7.198
REMARK UNBOUND:                 7.198
REMARK SMILES O=c1c(-c2ccc(O)cc2)coc2c([C@H]3O[C@@H](CO)[C@@H](O)[C@@H](O)[C@H]3O)c(O)ccc12
REMARK SMILES IDX 3 1 11 2 12 3 13 4 30 5 2 6 1 7 29 8 28 9 26 10 14 11 4 12
REMARK SMILES IDX 5 13 6 14 7 15 10 16 9 17 8 18 15 20 24 21 16 22 22 23 17 24
REMARK SMILES IDX 20 25 25 26 23 28 18 30 19 31 21 33 27 35
REMARK H PARENT 8 19 25 27 23 29 19 32 21 34 27 36
REMARK Flexibility Score: inf
ROOT
ATOM      1  C   UNL     1      27.638  35.943  20.881  1.00  0.00     0.065 A 
ATOM      2  C   UNL     1      28.667  35.915  19.261  1.00  0.00     0.208 A 
ATOM      3  O   UNL     1      28.788  37.392  18.423  1.00  0.00    -0.463 OA
ATOM      4  C   UNL     1      27.995  38.934  18.784  1.00  0.00     0.147 A 
ATOM      5  C   UNL     1      27.178  39.157  19.812  1.00  0.00     0.066 A 
ATOM      6  C   UNL     1      26.692  37.734  21.186  1.00  0.00     0.200 A 
ATOM      7  O   UNL     1      26.997  36.571  21.305  1.00  0.00    -0.288 OA
ATOM      8  C   UNL     1      28.313  39.779  18.248  1.00  0.00     0.020 A 
ATOM      9  C   UNL     1      28.052  41.312  18.288  1.00  0.00     0.047 A 
ATOM     10  C   UNL     1      27.241  41.491  19.413  1.00  0.00     0.125 A 
ATOM     11  C   UNL     1      27.263  40.121  20.193  1.00  0.00     0.069 A 
ENDROOT
BRANCH   1  12
ATOM     12  C   UNL     1      28.258  34.797  21.923  1.00  0.00    -0.011 A 
ATOM     13  C   UNL     1      28.963  33.698  21.386  1.00  0.00     0.013 A 
ATOM     14  C   UNL     1      29.124  32.538  22.101  1.00  0.00     0.047 A 
ATOM     15  C   UNL     1      28.626  32.452  23.407  1.00  0.00     0.115 A 
ATOM     16  C   UNL     1      27.879  34.766  23.272  1.00  0.00     0.013 A 
ATOM     17  C   UNL     1      28.057  33.569  24.000  1.00  0.00     0.047 A 
BRANCH  15  18
ATOM     18  O   UNL     1      28.673  31.222  24.078  1.00  0.00    -0.508 OA
ATOM     19  H   UNL     1      28.164  31.091  24.929  1.00  0.00     0.293 HD
ENDBRANCH  15  18
ENDBRANCH   1  12
BRANCH  11  20
ATOM     20  C   UNL     1      27.794  40.495  21.746  1.00  0.00     0.188 C 
ATOM     21  C   UNL     1      26.869  41.357  22.704  1.00  0.00     0.179 C 
ATOM     22  O   UNL     1      29.099  41.031  21.713  1.00  0.00    -0.362 OA
ATOM     23  C   UNL     1      27.754  42.438  23.384  1.00  0.00     0.177 C 
ATOM     24  C   UNL     1      29.124  42.389  21.212  1.00  0.00     0.176 C 
ATOM     25  C   UNL     1      28.374  43.324  22.280  1.00  0.00     0.177 C 
BRANCH  21  26
ATOM     26  O   UNL     1      25.789  41.922  21.995  1.00  0.00    -0.387 OA
ATOM     27  H   UNL     1      26.100  42.771  21.604  1.00  0.00     0.211 HD
ENDBRANCH  21  26
BRANCH  23  28
ATOM     28  O   UNL     1      27.028  43.208  24.334  1.00  0.00    -0.387 OA
ATOM     29  H   UNL     1      27.592  43.228  25.162  1.00  0.00     0.211 HD
ENDBRANCH  23  28
BRANCH  24  30
ATOM     30  C   UNL     1      28.765  42.616  19.645  1.00  0.00     0.191 C 
BRANCH  30  31
ATOM     31  O   UNL     1      28.995  44.031  19.507  1.00  0.00    -0.394 OA
ATOM     32  H   UNL     1      29.945  44.235  19.251  1.00  0.00     0.210 HD
ENDBRANCH  30  31
ENDBRANCH  24  30
BRANCH  25  33
ATOM     33  O   UNL     1      27.348  44.111  21.688  1.00  0.00    -0.388 OA
ATOM     34  H   UNL     1      27.740  45.000  21.490  1.00  0.00     0.211 HD
ENDBRANCH  25  33
ENDBRANCH  11  20
BRANCH  10  35
ATOM     35  O   UNL     1      26.141  42.322  19.368  1.00  0.00    -0.507 OA
ATOM     36  H   UNL     1      26.054  42.688  18.483  1.00  0.00     0.293 HD
ENDBRANCH  10  35
TORSDOF 9
ENDMDL
MODEL 2
REMARK VINA RESULT:    -1.393      1.325      1.836
REMARK INTER + INTRA:           5.317
REMARK INTER:                  -2.543
REMARK INTRA:                   7.860
REMARK UNBOUND:                 7.198
REMARK SMILES O=c1c(-c2ccc(O)cc2)coc2c([C@H]3O[C@@H](CO)[C@@H](O)[C@@H](O)[C@H]3O)c(O)ccc12
REMARK SMILES IDX 3 1 11 2 12 3 13 4 30 5 2 6 1 7 29 8 28 9 26 10 14 11 4 12
REMARK SMILES IDX 5 13 6 14 7 15 10 16 9 17 8 18 15 20 24 21 16 22 22 23 17 24
REMARK SMILES IDX 20 25 25 26 23 28 18 30 19 31 21 33 27 35
REMARK H PARENT 8 19 25 27 23 29 19 32 21 34 27 36
REMARK Flexibility Score: inf
ROOT
ATOM      1  C   UNL     1      27.122  37.241  21.039  1.00  0.00     0.065 A 
ATOM      2  C   UNL     1      27.296  36.900  19.158  1.00  0.00     0.208 A 
ATOM      3  O   UNL     1      27.415  38.269  18.154  1.00  0.00    -0.463 OA
ATOM      4  C   UNL     1      27.285  39.979  18.599  1.00  0.00     0.147 A 
ATOM      5  C   UNL     1      27.085  40.440  19.833  1.00  0.00     0.066 A 
ATOM      6  C   UNL     1      26.899  39.233  21.464  1.00  0.00     0.200 A 
ATOM      7  O   UNL     1      26.915  38.032  21.602  1.00  0.00    -0.288 OA
ATOM      8  C   UNL     1      27.542  40.689  17.871  1.00  0.00     0.020 A 
ATOM      9  C   UNL     1      27.728  42.233  17.808  1.00  0.00     0.047 A 
ATOM     10  C   UNL     1      27.565  42.651  19.132  1.00  0.00     0.125 A 
ATOM     11  C   UNL     1      27.572  41.341  20.010  1.00  0.00     0.069 A 
ENDROOT
BRANCH   1  12
ATOM     12  C   UNL     1      27.817  35.976  21.875  1.00  0.00    -0.011 A 
ATOM     13  C   UNL     1      28.820  35.210  21.241  1.00  0.00     0.013 A 
ATOM     14  C   UNL     1      29.125  33.943  21.670  1.00  0.00     0.047 A 
ATOM     15  C   UNL     1      28.469  33.410  22.787  1.00  0.00     0.115 A 
ATOM     16  C   UNL     1      27.257  35.504  23.069  1.00  0.00     0.013 A 
ATOM     17  C   UNL     1      27.585  34.201  23.505  1.00  0.00     0.047 A 
BRANCH  15  18
ATOM     18  O   UNL     1      28.687  32.069  23.134  1.00  0.00    -0.508 OA
ATOM     19  H   UNL     1      27.935  31.510  23.483  1.00  0.00     0.293 HD
ENDBRANCH  15  18
ENDBRANCH   1  12
BRANCH  11  20
ATOM     20  C   UNL     1      28.803  41.561  21.137  1.00  0.00     0.188 C 
ATOM     21  C   UNL     1      28.708  40.848  22.550  1.00  0.00     0.179 C 
ATOM     22  O   UNL     1      29.095  42.932  21.299  1.00  0.00    -0.362 OA
ATOM     23  C   UNL     1      29.094  41.885  23.641  1.00  0.00     0.177 C 
ATOM     24  C   UNL     1      28.074  43.627  22.053  1.00  0.00     0.176 C 
ATOM     25  C   UNL     1      28.104  43.069  23.558  1.00  0.00     0.177 C 
BRANCH  21  26
ATOM     26  O   UNL     1      27.423  40.307  22.762  1.00  0.00    -0.387 OA
ATOM     27  H   UNL     1      26.973  40.862  23.439  1.00  0.00     0.211 HD
ENDBRANCH  21  26
BRANCH  23  28
ATOM     28  O   UNL     1      29.125  41.313  24.942  1.00  0.00    -0.387 OA
ATOM     29  H   UNL     1      29.148  40.320  24.807  1.00  0.00     0.211 HD
ENDBRANCH  23  28
BRANCH  24  30
ATOM     30  C   UNL     1      26.618  43.804  21.355  1.00  0.00     0.191 C 
BRANCH  30  31
ATOM     31  O   UNL     1      25.833  42.851  22.099  1.00  0.00    -0.394 OA
ATOM     32  H   UNL     1      24.886  43.162  22.228  1.00  0.00     0.210 HD
ENDBRANCH  30  31
ENDBRANCH  24  30
BRANCH  25  33
ATOM     33  O   UNL     1      26.825  42.634  24.002  1.00  0.00    -0.388 OA
ATOM     34  H   UNL     1      26.201  43.394  23.880  1.00  0.00     0.211 HD
ENDBRANCH  25  33
ENDBRANCH  11  20
BRANCH  10  35
ATOM     35  O   UNL     1      26.809  43.765  19.435  1.00  0.00    -0.507 OA
ATOM     36  H   UNL     1      26.849  43.929  20.381  1.00  0.00     0.293 HD
ENDBRANCH  10  35
TORSDOF 9
ENDMDL
