MODEL 1
REMARK VINA RESULT:    -4.825      0.000      0.000
REMARK INTER + INTRA:         -11.187
REMARK INTER:                  -8.775
REMARK INTRA:                  -2.412
REMARK UNBOUND:                -2.412
REMARK SMILES CCCCCCCCCCCCCC[C@H](C)C(=O)[O-]
REMARK SMILES IDX 9 1 10 2 11 3 12 4 13 5 14 6 15 7 16 8 17 9 18 10 19 11 8 12
REMARK SMILES IDX 7 13 6 14 5 15 4 16 3 17 2 18 1 19
REMARK H PARENT
REMARK Flexibility Score: inf
ROOT
ATOM      1  C   UNL     1      -4.681   9.588 -10.769  1.00  0.00     0.000 C 
ENDROOT
BRANCH   1   2
ATOM      2  C   UNL     1      -3.373   9.774  -9.982  1.00  0.00     0.000 C 
BRANCH   2   3
ATOM      3  C   UNL     1      -2.911  11.241  -9.932  1.00  0.00     0.000 C 
BRANCH   3   4
ATOM      4  C   UNL     1      -1.615  11.415  -9.113  1.00  0.00     0.000 C 
BRANCH   4   5
ATOM      5  C   UNL     1      -1.525  10.474  -7.899  1.00  0.00     0.001 C 
BRANCH   5   6
ATOM      6  C   UNL     1      -0.126   9.862  -7.718  1.00  0.00     0.009 C 
BRANCH   6   7
ATOM      7  C   UNL     1       0.990  10.806  -8.211  1.00  0.00     0.032 C 
ATOM      8  C   UNL     1       2.122  10.007  -8.864  1.00  0.00     0.014 C 
BRANCH   7   9
ATOM      9  C   UNL     1       1.540  11.639  -7.084  1.00  0.00     0.044 C 
ATOM     10  O   UNL     1       2.713  11.445  -6.670  1.00  0.00    -0.550 OA
ATOM     11  O   UNL     1       0.758  12.624  -6.492  1.00  0.00    -0.550 OA
ENDBRANCH   7   9
ENDBRANCH   6   7
ENDBRANCH   5   6
ENDBRANCH   4   5
ENDBRANCH   3   4
ENDBRANCH   2   3
ENDBRANCH   1   2
BRANCH   1  12
ATOM     12  C   UNL     1      -5.339  10.926 -11.147  1.00  0.00     0.000 C 
BRANCH  12  13
ATOM     13  C   UNL     1      -6.437  11.354 -10.157  1.00  0.00    -0.000 C 
BRANCH  13  14
ATOM     14  C   UNL     1      -6.264  12.763  -9.560  1.00  0.00    -0.000 C 
BRANCH  14  15
ATOM     15  C   UNL     1      -5.778  12.739  -8.100  1.00  0.00    -0.000 C 
BRANCH  15  16
ATOM     16  C   UNL     1      -6.127  11.425  -7.385  1.00  0.00    -0.000 C 
BRANCH  16  17
ATOM     17  C   UNL     1      -4.932  10.842  -6.609  1.00  0.00    -0.000 C 
BRANCH  17  18
ATOM     18  C   UNL     1      -4.866   9.310  -6.695  1.00  0.00    -0.003 C 
ATOM     19  C   UNL     1      -6.063   8.707  -7.431  1.00  0.00     0.004 C 
ENDBRANCH  17  18
ENDBRANCH  16  17
ENDBRANCH  15  16
ENDBRANCH  14  15
ENDBRANCH  13  14
ENDBRANCH  12  13
ENDBRANCH   1  12
TORSDOF 14
ENDMDL
MODEL 2
REMARK VINA RESULT:    -4.793      3.008      6.758
REMARK INTER + INTRA:         -11.128
REMARK INTER:                  -9.322
REMARK INTRA:                  -1.806
REMARK UNBOUND:                -2.412
REMARK SMILES CCCCCCCCCCCCCC[C@H](C)C(=O)[O-]
REMARK SMILES IDX 9 1 10 2 11 3 12 4 13 5 14 6 15 7 16 8 17 9 18 10 19 11 8 12
REMARK SMILES IDX 7 13 6 14 5 15 4 16 3 17 2 18 1 19
REMARK H PARENT
REMARK Flexibility Score: inf
ROOT
ATOM      1  C   UNL     1      -3.277  12.421  -9.213  1.00  0.00     0.000 C 
ENDROOT
BRANCH   1   2
ATOM      2  C   UNL     1      -4.062  12.226  -7.905  1.00  0.00     0.000 C 
BRANCH   2   3
ATOM      3  C   UNL     1      -5.511  12.736  -7.997  1.00  0.00     0.000 C 
BRANCH   3   4
ATOM      4  C   UNL     1      -6.078  12.621  -9.428  1.00  0.00     0.000 C 
BRANCH   4   5
ATOM      5  C   UNL     1      -6.833  11.305  -9.685  1.00  0.00     0.001 C 
BRANCH   5   6
ATOM      6  C   UNL     1      -6.101  10.377 -10.668  1.00  0.00     0.009 C 
BRANCH   6   7
ATOM      7  C   UNL     1      -5.997   8.933 -10.135  1.00  0.00     0.032 C 
ATOM      8  C   UNL     1      -5.641   8.933  -8.645  1.00  0.00     0.014 C 
BRANCH   7   9
ATOM      9  C   UNL     1      -4.974   8.139 -10.903  1.00  0.00     0.044 C 
ATOM     10  O   UNL     1      -5.320   7.109 -11.538  1.00  0.00    -0.550 OA
ATOM     11  O   UNL     1      -3.641   8.535 -10.913  1.00  0.00    -0.550 OA
ENDBRANCH   7   9
ENDBRANCH   6   7
ENDBRANCH   5   6
ENDBRANCH   4   5
ENDBRANCH   3   4
ENDBRANCH   2   3
ENDBRANCH   1   2
BRANCH   1  12
ATOM     12  C   UNL     1      -2.195  11.348  -9.420  1.00  0.00     0.000 C 
BRANCH  12  13
ATOM     13  C   UNL     1      -2.136  10.327  -8.268  1.00  0.00    -0.000 C 
BRANCH  13  14
ATOM     14  C   UNL     1      -0.826  10.330  -7.460  1.00  0.00    -0.000 C 
BRANCH  14  15
ATOM     15  C   UNL     1      -0.077  11.671  -7.539  1.00  0.00    -0.000 C 
BRANCH  15  16
ATOM     16  C   UNL     1       1.425  11.491  -7.811  1.00  0.00    -0.000 C 
BRANCH  16  17
ATOM     17  C   UNL     1       1.746  10.138  -8.471  1.00  0.00    -0.000 C 
BRANCH  17  18
ATOM     18  C   UNL     1       3.221  10.018  -8.881  1.00  0.00    -0.003 C 
ATOM     19  C   UNL     1       3.407   9.305 -10.219  1.00  0.00     0.004 C 
ENDBRANCH  17  18
ENDBRANCH  16  17
ENDBRANCH  15  16
ENDBRANCH  14  15
ENDBRANCH  13  14
ENDBRANCH  12  13
ENDBRANCH   1  12
TORSDOF 14
ENDMDL
MODEL 3
REMARK VINA RESULT:    -4.769      1.780      2.890
REMARK INTER + INTRA:         -11.084
REMARK INTER:                  -9.350
REMARK INTRA:                  -1.735
REMARK UNBOUND:                -2.412
REMARK SMILES CCCCCCCCCCCCCC[C@H](C)C(=O)[O-]
REMARK SMILES IDX 9 1 10 2 11 3 12 4 13 5 14 6 15 7 16 8 17 9 18 10 19 11 8 12
REMARK SMILES IDX 7 13 6 14 5 15 4 16 3 17 2 18 1 19
REMARK H PARENT
REMARK Flexibility Score: inf
ROOT
ATOM      1  C   UNL     1      -4.226  12.260  -9.193  1.00  0.00     0.000 C 
ENDROOT
BRANCH   1   2
ATOM      2  C   UNL     1      -3.448  11.256 -10.059  1.00  0.00     0.000 C 
BRANCH   2   3
ATOM      3  C   UNL     1      -2.878  10.081  -9.245  1.00  0.00     0.000 C 
BRANCH   3   4
ATOM      4  C   UNL     1      -2.866  10.375  -7.730  1.00  0.00     0.000 C 
BRANCH   4   5
ATOM      5  C   UNL     1      -1.461  10.665  -7.173  1.00  0.00     0.001 C 
BRANCH   5   6
ATOM      6  C   UNL     1      -0.745  11.803  -7.918  1.00  0.00     0.009 C 
BRANCH   6   7
ATOM      7  C   UNL     1       0.755  11.507  -8.128  1.00  0.00     0.032 C 
ATOM      8  C   UNL     1       0.974  10.020  -8.422  1.00  0.00     0.014 C 
BRANCH   7   9
ATOM      9  C   UNL     1       1.566  11.911  -6.926  1.00  0.00     0.044 C 
ATOM     10  O   UNL     1       2.642  11.315  -6.661  1.00  0.00    -0.550 OA
ATOM     11  O   UNL     1       1.132  12.942  -6.100  1.00  0.00    -0.550 OA
ENDBRANCH   7   9
ENDBRANCH   6   7
ENDBRANCH   5   6
ENDBRANCH   4   5
ENDBRANCH   3   4
ENDBRANCH   2   3
ENDBRANCH   1   2
BRANCH   1  12
ATOM     12  C   UNL     1      -5.737  12.245  -9.483  1.00  0.00     0.000 C 
BRANCH  12  13
ATOM     13  C   UNL     1      -6.102  11.393 -10.713  1.00  0.00    -0.000 C 
BRANCH  13  14
ATOM     14  C   UNL     1      -7.107  10.258 -10.445  1.00  0.00    -0.000 C 
BRANCH  14  15
ATOM     15  C   UNL     1      -6.638   9.291  -9.343  1.00  0.00    -0.000 C 
BRANCH  15  16
ATOM     16  C   UNL     1      -6.436   7.860  -9.863  1.00  0.00    -0.000 C 
BRANCH  16  17
ATOM     17  C   UNL     1      -5.392   7.785 -10.992  1.00  0.00    -0.000 C 
BRANCH  17  18
ATOM     18  C   UNL     1      -5.280   6.379 -11.598  1.00  0.00    -0.003 C 
ATOM     19  C   UNL     1      -6.497   5.505 -11.294  1.00  0.00     0.004 C 
ENDBRANCH  17  18
ENDBRANCH  16  17
ENDBRANCH  15  16
ENDBRANCH  14  15
ENDBRANCH  13  14
ENDBRANCH  12  13
ENDBRANCH   1  12
TORSDOF 14
ENDMDL
MODEL 4
REMARK VINA RESULT:    -4.724      1.489      2.974
REMARK INTER + INTRA:         -11.003
REMARK INTER:                  -9.075
REMARK INTRA:                  -1.927
REMARK UNBOUND:                -2.412
REMARK SMILES CCCCCCCCCCCCCC[C@H](C)C(=O)[O-]
REMARK SMILES IDX 9 1 10 2 11 3 12 4 13 5 14 6 15 7 16 8 17 9 18 10 19 11 8 12
REMARK SMILES IDX 7 13 6 14 5 15 4 16 3 17 2 18 1 19
REMARK H PARENT
REMARK Flexibility Score: inf
ROOT
ATOM      1  C   UNL     1      -5.536  10.863  -7.605  1.00  0.00     0.000 C 
ENDROOT
BRANCH   1   2
ATOM      2  C   UNL     1      -4.707  12.125  -7.313  1.00  0.00     0.000 C 
BRANCH   2   3
ATOM      3  C   UNL     1      -3.193  11.851  -7.282  1.00  0.00     0.000 C 
BRANCH   3   4
ATOM      4  C   UNL     1      -2.853  10.415  -7.736  1.00  0.00     0.000 C 
BRANCH   4   5
ATOM      5  C   UNL     1      -1.489  10.300  -8.437  1.00  0.00     0.001 C 
BRANCH   5   6
ATOM      6  C   UNL     1      -0.735  11.639  -8.503  1.00  0.00     0.009 C 
BRANCH   6   7
ATOM      7  C   UNL     1       0.776  11.468  -8.245  1.00  0.00     0.032 C 
ATOM      8  C   UNL     1       1.209  10.023  -8.517  1.00  0.00     0.014 C 
BRANCH   7   9
ATOM      9  C   UNL     1       1.137  11.850  -6.835  1.00  0.00     0.044 C 
ATOM     10  O   UNL     1       2.332  11.773  -6.446  1.00  0.00    -0.550 OA
ATOM     11  O   UNL     1       0.156  12.286  -5.952  1.00  0.00    -0.550 OA
ENDBRANCH   7   9
ENDBRANCH   6   7
ENDBRANCH   5   6
ENDBRANCH   4   5
ENDBRANCH   3   4
ENDBRANCH   2   3
ENDBRANCH   1   2
BRANCH   1  12
ATOM     12  C   UNL     1      -6.694  11.128  -8.582  1.00  0.00     0.000 C 
BRANCH  12  13
ATOM     13  C   UNL     1      -6.254  11.909  -9.833  1.00  0.00    -0.000 C 
BRANCH  13  14
ATOM     14  C   UNL     1      -5.806  11.039 -11.022  1.00  0.00    -0.000 C 
BRANCH  14  15
ATOM     15  C   UNL     1      -4.301  10.721 -10.997  1.00  0.00    -0.000 C 
BRANCH  15  16
ATOM     16  C   UNL     1      -4.015   9.217 -11.122  1.00  0.00    -0.000 C 
BRANCH  16  17
ATOM     17  C   UNL     1      -5.222   8.352 -10.715  1.00  0.00    -0.000 C 
BRANCH  17  18
ATOM     18  C   UNL     1      -5.227   6.984 -11.413  1.00  0.00    -0.003 C 
ATOM     19  C   UNL     1      -6.315   6.053 -10.879  1.00  0.00     0.004 C 
ENDBRANCH  17  18
ENDBRANCH  16  17
ENDBRANCH  15  16
ENDBRANCH  14  15
ENDBRANCH  13  14
ENDBRANCH  12  13
ENDBRANCH   1  12
TORSDOF 14
ENDMDL
MODEL 5
REMARK VINA RESULT:    -4.695      3.599      6.609
REMARK INTER + INTRA:         -10.950
REMARK INTER:                  -8.967
REMARK INTRA:                  -1.983
REMARK UNBOUND:                -2.412
REMARK SMILES CCCCCCCCCCCCCC[C@H](C)C(=O)[O-]
REMARK SMILES IDX 9 1 10 2 11 3 12 4 13 5 14 6 15 7 16 8 17 9 18 10 19 11 8 12
REMARK SMILES IDX 7 13 6 14 5 15 4 16 3 17 2 18 1 19
REMARK H PARENT
REMARK Flexibility Score: inf
ROOT
ATOM      1  C   UNL     1      -5.770  12.624  -7.352  1.00  0.00     0.000 C 
ENDROOT
BRANCH   1   2
ATOM      2  C   UNL     1      -6.499  11.978  -8.542  1.00  0.00     0.000 C 
BRANCH   2   3
ATOM      3  C   UNL     1      -5.794  12.237  -9.885  1.00  0.00     0.000 C 
BRANCH   3   4
ATOM      4  C   UNL     1      -5.874  11.018 -10.828  1.00  0.00     0.000 C 
BRANCH   4   5
ATOM      5  C   UNL     1      -4.508  10.370 -11.111  1.00  0.00     0.001 C 
BRANCH   5   6
ATOM      6  C   UNL     1      -4.420   8.917 -10.613  1.00  0.00     0.009 C 
BRANCH   6   7
ATOM      7  C   UNL     1      -5.799   8.357 -10.207  1.00  0.00     0.032 C 
ATOM      8  C   UNL     1      -5.869   8.149  -8.690  1.00  0.00     0.014 C 
BRANCH   7   9
ATOM      9  C   UNL     1      -6.092   7.060 -10.911  1.00  0.00     0.044 C 
ATOM     10  O   UNL     1      -7.119   6.396 -10.610  1.00  0.00    -0.550 OA
ATOM     11  O   UNL     1      -5.233   6.585 -11.895  1.00  0.00    -0.550 OA
ENDBRANCH   7   9
ENDBRANCH   6   7
ENDBRANCH   5   6
ENDBRANCH   4   5
ENDBRANCH   3   4
ENDBRANCH   2   3
ENDBRANCH   1   2
BRANCH   1  12
ATOM     12  C   UNL     1      -4.792  11.657  -6.662  1.00  0.00     0.000 C 
BRANCH  12  13
ATOM     13  C   UNL     1      -3.355  11.773  -7.202  1.00  0.00    -0.000 C 
BRANCH  13  14
ATOM     14  C   UNL     1      -2.779  10.478  -7.805  1.00  0.00    -0.000 C 
BRANCH  14  15
ATOM     15  C   UNL     1      -1.646  10.740  -8.812  1.00  0.00    -0.000 C 
BRANCH  15  16
ATOM     16  C   UNL     1      -0.820  11.987  -8.458  1.00  0.00    -0.000 C 
BRANCH  16  17
ATOM     17  C   UNL     1       0.628  11.642  -8.069  1.00  0.00    -0.000 C 
BRANCH  17  18
ATOM     18  C   UNL     1       0.967  10.164  -8.309  1.00  0.00    -0.003 C 
ATOM     19  C   UNL     1       2.397   9.958  -8.808  1.00  0.00     0.004 C 
ENDBRANCH  17  18
ENDBRANCH  16  17
ENDBRANCH  15  16
ENDBRANCH  14  15
ENDBRANCH  13  14
ENDBRANCH  12  13
ENDBRANCH   1  12
TORSDOF 14
ENDMDL
MODEL 6
REMARK VINA RESULT:    -4.668      3.167      6.467
REMARK INTER + INTRA:         -10.900
REMARK INTER:                  -8.663
REMARK INTRA:                  -2.237
REMARK UNBOUND:                -2.412
REMARK SMILES CCCCCCCCCCCCCC[C@H](C)C(=O)[O-]
REMARK SMILES IDX 9 1 10 2 11 3 12 4 13 5 14 6 15 7 16 8 17 9 18 10 19 11 8 12
REMARK SMILES IDX 7 13 6 14 5 15 4 16 3 17 2 18 1 19
REMARK H PARENT
REMARK Flexibility Score: inf
ROOT
ATOM      1  C   UNL     1      -2.750  10.388  -8.710  1.00  0.00     0.000 C 
ENDROOT
BRANCH   1   2
ATOM      2  C   UNL     1      -2.993  11.769  -9.339  1.00  0.00     0.000 C 
BRANCH   2   3
ATOM      3  C   UNL     1      -4.056  12.589  -8.586  1.00  0.00     0.000 C 
BRANCH   3   4
ATOM      4  C   UNL     1      -5.342  12.777  -9.418  1.00  0.00     0.000 C 
BRANCH   4   5
ATOM      5  C   UNL     1      -6.285  11.563  -9.373  1.00  0.00     0.001 C 
BRANCH   5   6
ATOM      6  C   UNL     1      -6.179  10.676 -10.625  1.00  0.00     0.009 C 
BRANCH   6   7
ATOM      7  C   UNL     1      -6.334   9.178 -10.291  1.00  0.00     0.032 C 
ATOM      8  C   UNL     1      -6.248   8.952  -8.778  1.00  0.00     0.014 C 
BRANCH   7   9
ATOM      9  C   UNL     1      -5.287   8.351 -10.988  1.00  0.00     0.044 C 
ATOM     10  O   UNL     1      -5.509   7.140 -11.249  1.00  0.00    -0.550 OA
ATOM     11  O   UNL     1      -4.068   8.917 -11.345  1.00  0.00    -0.550 OA
ENDBRANCH   7   9
ENDBRANCH   6   7
ENDBRANCH   5   6
ENDBRANCH   4   5
ENDBRANCH   3   4
ENDBRANCH   2   3
ENDBRANCH   1   2
BRANCH   1  12
ATOM     12  C   UNL     1      -3.235  10.308  -7.253  1.00  0.00     0.000 C 
BRANCH  12  13
ATOM     13  C   UNL     1      -2.089  10.078  -6.251  1.00  0.00    -0.000 C 
BRANCH  13  14
ATOM     14  C   UNL     1      -1.613  11.337  -5.505  1.00  0.00    -0.000 C 
BRANCH  14  15
ATOM     15  C   UNL     1      -0.190  11.767  -5.904  1.00  0.00    -0.000 C 
BRANCH  15  16
ATOM     16  C   UNL     1      -0.152  12.488  -7.260  1.00  0.00    -0.000 C 
BRANCH  16  17
ATOM     17  C   UNL     1       0.899  11.891  -8.214  1.00  0.00    -0.000 C 
BRANCH  17  18
ATOM     18  C   UNL     1       0.927  10.356  -8.172  1.00  0.00    -0.003 C 
ATOM     19  C   UNL     1       2.325   9.784  -8.406  1.00  0.00     0.004 C 
ENDBRANCH  17  18
ENDBRANCH  16  17
ENDBRANCH  15  16
ENDBRANCH  14  15
ENDBRANCH  13  14
ENDBRANCH  12  13
ENDBRANCH   1  12
TORSDOF 14
ENDMDL
MODEL 7
REMARK VINA RESULT:    -4.565      3.475      6.977
REMARK INTER + INTRA:         -10.714
REMARK INTER:                  -9.118
REMARK INTRA:                  -1.596
REMARK UNBOUND:                -2.412
REMARK SMILES CCCCCCCCCCCCCC[C@H](C)C(=O)[O-]
REMARK SMILES IDX 9 1 10 2 11 3 12 4 13 5 14 6 15 7 16 8 17 9 18 10 19 11 8 12
REMARK SMILES IDX 7 13 6 14 5 15 4 16 3 17 2 18 1 19
REMARK H PARENT
REMARK Flexibility Score: inf
ROOT
ATOM      1  C   UNL     1      -3.418  11.030  -9.009  1.00  0.00     0.000 C 
ENDROOT
BRANCH   1   2
ATOM      2  C   UNL     1      -3.617  10.750 -10.508  1.00  0.00     0.000 C 
BRANCH   2   3
ATOM      3  C   UNL     1      -5.035  11.097 -10.995  1.00  0.00     0.000 C 
BRANCH   3   4
ATOM      4  C   UNL     1      -5.928  11.631  -9.855  1.00  0.00     0.000 C 
BRANCH   4   5
ATOM      5  C   UNL     1      -6.978  10.617  -9.371  1.00  0.00     0.001 C 
BRANCH   5   6
ATOM      6  C   UNL     1      -7.125   9.411 -10.313  1.00  0.00     0.009 C 
BRANCH   6   7
ATOM      7  C   UNL     1      -6.760   8.082  -9.619  1.00  0.00     0.032 C 
ATOM      8  C   UNL     1      -5.897   8.342  -8.380  1.00  0.00     0.014 C 
BRANCH   7   9
ATOM      9  C   UNL     1      -6.035   7.155 -10.558  1.00  0.00     0.044 C 
ATOM     10  O   UNL     1      -6.589   6.096 -10.952  1.00  0.00    -0.550 OA
ATOM     11  O   UNL     1      -4.750   7.460 -10.992  1.00  0.00    -0.550 OA
ENDBRANCH   7   9
ENDBRANCH   6   7
ENDBRANCH   5   6
ENDBRANCH   4   5
ENDBRANCH   3   4
ENDBRANCH   2   3
ENDBRANCH   1   2
BRANCH   1  12
ATOM     12  C   UNL     1      -2.450  12.196  -8.749  1.00  0.00     0.000 C 
BRANCH  12  13
ATOM     13  C   UNL     1      -0.973  11.763  -8.758  1.00  0.00    -0.000 C 
BRANCH  13  14
ATOM     14  C   UNL     1      -0.721  10.295  -8.368  1.00  0.00    -0.000 C 
BRANCH  14  15
ATOM     15  C   UNL     1       0.751  10.012  -8.020  1.00  0.00    -0.000 C 
BRANCH  15  16
ATOM     16  C   UNL     1       1.611  11.285  -8.022  1.00  0.00    -0.000 C 
BRANCH  16  17
ATOM     17  C   UNL     1       2.318  11.520  -6.675  1.00  0.00    -0.000 C 
BRANCH  17  18
ATOM     18  C   UNL     1       1.349  11.974  -5.573  1.00  0.00    -0.003 C 
ATOM     19  C   UNL     1       0.764  13.361  -5.835  1.00  0.00     0.004 C 
ENDBRANCH  17  18
ENDBRANCH  16  17
ENDBRANCH  15  16
ENDBRANCH  14  15
ENDBRANCH  13  14
ENDBRANCH  12  13
ENDBRANCH   1  12
TORSDOF 14
ENDMDL
MODEL 8
REMARK VINA RESULT:    -4.535      2.115      5.340
REMARK INTER + INTRA:         -10.658
REMARK INTER:                  -8.587
REMARK INTRA:                  -2.071
REMARK UNBOUND:                -2.412
REMARK SMILES CCCCCCCCCCCCCC[C@H](C)C(=O)[O-]
REMARK SMILES IDX 9 1 10 2 11 3 12 4 13 5 14 6 15 7 16 8 17 9 18 10 19 11 8 12
REMARK SMILES IDX 7 13 6 14 5 15 4 16 3 17 2 18 1 19
REMARK H PARENT
REMARK Flexibility Score: inf
ROOT
ATOM      1  C   UNL     1      -4.891  11.046 -11.159  1.00  0.00     0.000 C 
ENDROOT
BRANCH   1   2
ATOM      2  C   UNL     1      -6.389  11.047 -10.809  1.00  0.00     0.000 C 
BRANCH   2   3
ATOM      3  C   UNL     1      -6.684  11.715  -9.455  1.00  0.00     0.000 C 
BRANCH   3   4
ATOM      4  C   UNL     1      -5.733  12.897  -9.170  1.00  0.00     0.000 C 
BRANCH   4   5
ATOM      5  C   UNL     1      -4.932  12.739  -7.866  1.00  0.00     0.001 C 
BRANCH   5   6
ATOM      6  C   UNL     1      -5.211  11.407  -7.150  1.00  0.00     0.009 C 
BRANCH   6   7
ATOM      7  C   UNL     1      -4.353  11.240  -5.879  1.00  0.00     0.032 C 
ATOM      8  C   UNL     1      -3.171  12.214  -5.895  1.00  0.00     0.014 C 
BRANCH   7   9
ATOM      9  C   UNL     1      -3.846   9.829  -5.742  1.00  0.00     0.044 C 
ATOM     10  O   UNL     1      -2.609   9.598  -5.755  1.00  0.00    -0.550 OA
ATOM     11  O   UNL     1      -4.740   8.773  -5.604  1.00  0.00    -0.550 OA
ENDBRANCH   7   9
ENDBRANCH   6   7
ENDBRANCH   5   6
ENDBRANCH   4   5
ENDBRANCH   3   4
ENDBRANCH   2   3
ENDBRANCH   1   2
BRANCH   1  12
ATOM     12  C   UNL     1      -4.240   9.666 -10.966  1.00  0.00     0.000 C 
BRANCH  12  13
ATOM     13  C   UNL     1      -3.346   9.595  -9.715  1.00  0.00    -0.000 C 
BRANCH  13  14
ATOM     14  C   UNL     1      -2.413  10.803  -9.510  1.00  0.00    -0.000 C 
BRANCH  14  15
ATOM     15  C   UNL     1      -1.139  10.449  -8.724  1.00  0.00    -0.000 C 
BRANCH  15  16
ATOM     16  C   UNL     1      -0.400  11.693  -8.209  1.00  0.00    -0.000 C 
BRANCH  16  17
ATOM     17  C   UNL     1       1.126  11.583  -8.376  1.00  0.00    -0.000 C 
BRANCH  17  18
ATOM     18  C   UNL     1       1.643  10.158  -8.133  1.00  0.00    -0.003 C 
ATOM     19  C   UNL     1       2.648   9.705  -9.192  1.00  0.00     0.004 C 
ENDBRANCH  17  18
ENDBRANCH  16  17
ENDBRANCH  15  16
ENDBRANCH  14  15
ENDBRANCH  13  14
ENDBRANCH  12  13
ENDBRANCH   1  12
TORSDOF 14
ENDMDL
MODEL 9
REMARK VINA RESULT:    -4.514      1.393      3.125
REMARK INTER + INTRA:         -10.621
REMARK INTER:                  -8.591
REMARK INTRA:                  -2.030
REMARK UNBOUND:                -2.412
REMARK SMILES CCCCCCCCCCCCCC[C@H](C)C(=O)[O-]
REMARK SMILES IDX 9 1 10 2 11 3 12 4 13 5 14 6 15 7 16 8 17 9 18 10 19 11 8 12
REMARK SMILES IDX 7 13 6 14 5 15 4 16 3 17 2 18 1 19
REMARK H PARENT
REMARK Flexibility Score: inf
ROOT
ATOM      1  C   UNL     1      -4.727  11.873  -6.587  1.00  0.00     0.000 C 
ENDROOT
BRANCH   1   2
ATOM      2  C   UNL     1      -4.341  10.416  -6.890  1.00  0.00     0.000 C 
BRANCH   2   3
ATOM      3  C   UNL     1      -2.859  10.259  -7.277  1.00  0.00     0.000 C 
BRANCH   3   4
ATOM      4  C   UNL     1      -2.173  11.621  -7.513  1.00  0.00     0.000 C 
BRANCH   4   5
ATOM      5  C   UNL     1      -1.217  11.626  -8.718  1.00  0.00     0.001 C 
BRANCH   5   6
ATOM      6  C   UNL     1       0.209  12.067  -8.348  1.00  0.00     0.009 C 
BRANCH   6   7
ATOM      7  C   UNL     1       0.904  11.062  -7.407  1.00  0.00     0.032 C 
ATOM      8  C   UNL     1       1.317  11.745  -6.099  1.00  0.00     0.014 C 
BRANCH   7   9
ATOM      9  C   UNL     1       2.111  10.444  -8.060  1.00  0.00     0.044 C 
ATOM     10  O   UNL     1       3.260  10.660  -7.595  1.00  0.00    -0.550 OA
ATOM     11  O   UNL     1       1.965   9.634  -9.180  1.00  0.00    -0.550 OA
ENDBRANCH   7   9
ENDBRANCH   6   7
ENDBRANCH   5   6
ENDBRANCH   4   5
ENDBRANCH   3   4
ENDBRANCH   2   3
ENDBRANCH   1   2
BRANCH   1  12
ATOM     12  C   UNL     1      -5.858  12.386  -7.494  1.00  0.00     0.000 C 
BRANCH  12  13
ATOM     13  C   UNL     1      -5.418  12.566  -8.958  1.00  0.00    -0.000 C 
BRANCH  13  14
ATOM     14  C   UNL     1      -6.415  12.044 -10.008  1.00  0.00    -0.000 C 
BRANCH  14  15
ATOM     15  C   UNL     1      -5.861  10.865 -10.826  1.00  0.00    -0.000 C 
BRANCH  15  16
ATOM     16  C   UNL     1      -4.331  10.751 -10.732  1.00  0.00    -0.000 C 
BRANCH  16  17
ATOM     17  C   UNL     1      -3.835   9.309 -10.944  1.00  0.00    -0.000 C 
BRANCH  17  18
ATOM     18  C   UNL     1      -4.712   8.273 -10.225  1.00  0.00    -0.003 C 
ATOM     19  C   UNL     1      -4.972   7.029 -11.074  1.00  0.00     0.004 C 
ENDBRANCH  17  18
ENDBRANCH  16  17
ENDBRANCH  15  16
ENDBRANCH  14  15
ENDBRANCH  13  14
ENDBRANCH  12  13
ENDBRANCH   1  12
TORSDOF 14
ENDMDL
