MODEL 1
REMARK VINA RESULT:    -3.133      0.000      0.000
REMARK INTER + INTRA:          -3.422
REMARK INTER:                  -3.408
REMARK INTRA:                  -0.014
REMARK UNBOUND:                -0.014
REMARK SMILES OCc1ccco1
REMARK SMILES IDX 2 1 3 2 5 3 6 4 4 5 7 6 1 7
REMARK H PARENT 1 8
REMARK Flexibility Score: inf
ROOT
ATOM      1  C   UNL     1     -91.374 144.943 240.148  1.00  0.00     0.231 C 
ENDROOT
BRANCH   1   2
ATOM      2  C   UNL     1     -92.371 145.574 241.067  1.00  0.00     0.129 A 
ATOM      3  C   UNL     1     -93.770 146.993 241.993  1.00  0.00     0.042 A 
ATOM      4  C   UNL     1     -93.769 145.785 242.662  1.00  0.00     0.195 A 
ATOM      5  C   UNL     1     -92.868 146.858 240.959  1.00  0.00     0.048 A 
ATOM      6  O   UNL     1     -92.927 144.959 242.084  1.00  0.00    -0.467 OA
ENDBRANCH   1   2
BRANCH   1   7
ATOM      7  O   UNL     1     -90.122 144.875 240.771  1.00  0.00    -0.388 OA
ATOM      8  H   UNL     1     -89.455 144.712 240.054  1.00  0.00     0.211 HD
ENDBRANCH   1   7
TORSDOF 2
ENDMDL
MODEL 2
REMARK VINA RESULT:    -2.838      1.676      2.147
REMARK INTER + INTRA:          -3.101
REMARK INTER:                  -3.085
REMARK INTRA:                  -0.016
REMARK UNBOUND:                -0.014
REMARK SMILES OCc1ccco1
REMARK SMILES IDX 2 1 3 2 5 3 6 4 4 5 7 6 1 7
REMARK H PARENT 1 8
REMARK Flexibility Score: inf
ROOT
ATOM      1  C   UNL     1     -91.944 145.009 241.170  1.00  0.00     0.231 C 
ENDROOT
BRANCH   1   2
ATOM      2  C   UNL     1     -92.818 145.982 240.444  1.00  0.00     0.129 A 
ATOM      3  C   UNL     1     -94.009 147.753 239.926  1.00  0.00     0.042 A 
ATOM      4  C   UNL     1     -93.960 146.861 238.873  1.00  0.00     0.195 A 
ATOM      5  C   UNL     1     -93.269 147.187 240.942  1.00  0.00     0.048 A 
ATOM      6  O   UNL     1     -93.239 145.816 239.212  1.00  0.00    -0.467 OA
ENDBRANCH   1   2
BRANCH   1   7
ATOM      7  O   UNL     1     -90.653 145.023 240.625  1.00  0.00    -0.388 OA
ATOM      8  H   UNL     1     -90.044 144.678 241.329  1.00  0.00     0.211 HD
ENDBRANCH   1   7
TORSDOF 2
ENDMDL
MODEL 3
REMARK VINA RESULT:    -2.748     14.159     14.804
REMARK INTER + INTRA:          -3.002
REMARK INTER:                  -2.988
REMARK INTRA:                  -0.014
REMARK UNBOUND:                -0.014
REMARK SMILES OCc1ccco1
REMARK SMILES IDX 2 1 3 2 5 3 6 4 4 5 7 6 1 7
REMARK H PARENT 1 8
REMARK Flexibility Score: inf
ROOT
ATOM      1  C   UNL     1     -90.266 160.538 236.647  1.00  0.00     0.231 C 
ENDROOT
BRANCH   1   2
ATOM      2  C   UNL     1     -91.234 159.575 236.039  1.00  0.00     0.129 A 
ATOM      3  C   UNL     1     -92.118 157.794 235.105  1.00  0.00     0.042 A 
ATOM      4  C   UNL     1     -93.084 158.737 235.391  1.00  0.00     0.195 A 
ATOM      5  C   UNL     1     -90.920 158.333 235.525  1.00  0.00     0.048 A 
ATOM      6  O   UNL     1     -92.527 159.787 235.951  1.00  0.00    -0.467 OA
ENDBRANCH   1   2
BRANCH   1   7
ATOM      7  O   UNL     1     -90.101 160.259 238.010  1.00  0.00    -0.388 OA
ATOM      8  H   UNL     1     -89.277 160.730 238.299  1.00  0.00     0.211 HD
ENDBRANCH   1   7
TORSDOF 2
ENDMDL
MODEL 4
REMARK VINA RESULT:    -2.622      1.203      1.207
REMARK INTER + INTRA:          -2.866
REMARK INTER:                  -2.852
REMARK INTRA:                  -0.014
REMARK UNBOUND:                -0.014
REMARK SMILES OCc1ccco1
REMARK SMILES IDX 2 1 3 2 5 3 6 4 4 5 7 6 1 7
REMARK H PARENT 1 8
REMARK Flexibility Score: inf
ROOT
ATOM      1  C   UNL     1     -91.716 145.252 240.877  1.00  0.00     0.231 C 
ENDROOT
BRANCH   1   2
ATOM      2  C   UNL     1     -92.884 146.075 241.319  1.00  0.00     0.129 A 
ATOM      3  C   UNL     1     -94.388 147.667 241.482  1.00  0.00     0.042 A 
ATOM      4  C   UNL     1     -94.648 146.643 242.371  1.00  0.00     0.195 A 
ATOM      5  C   UNL     1     -93.248 147.300 240.799  1.00  0.00     0.048 A 
ATOM      6  O   UNL     1     -93.735 145.706 242.247  1.00  0.00    -0.467 OA
ENDBRANCH   1   2
BRANCH   1   7
ATOM      7  O   UNL     1     -91.870 144.878 239.536  1.00  0.00    -0.388 OA
ATOM      8  H   UNL     1     -91.366 145.541 238.996  1.00  0.00     0.211 HD
ENDBRANCH   1   7
TORSDOF 2
ENDMDL
MODEL 5
REMARK VINA RESULT:    -2.621      2.733      4.345
REMARK INTER + INTRA:          -2.865
REMARK INTER:                  -2.850
REMARK INTRA:                  -0.014
REMARK UNBOUND:                -0.014
REMARK SMILES OCc1ccco1
REMARK SMILES IDX 2 1 3 2 5 3 6 4 4 5 7 6 1 7
REMARK H PARENT 1 8
REMARK Flexibility Score: inf
ROOT
ATOM      1  C   UNL     1     -96.087 148.094 242.799  1.00  0.00     0.231 C 
ENDROOT
BRANCH   1   2
ATOM      2  C   UNL     1     -94.960 147.754 241.877  1.00  0.00     0.129 A 
ATOM      3  C   UNL     1     -93.712 147.514 240.086  1.00  0.00     0.042 A 
ATOM      4  C   UNL     1     -93.039 147.105 241.220  1.00  0.00     0.195 A 
ATOM      5  C   UNL     1     -94.954 147.936 240.509  1.00  0.00     0.048 A 
ATOM      6  O   UNL     1     -93.808 147.263 242.273  1.00  0.00    -0.467 OA
ENDBRANCH   1   2
BRANCH   1   7
ATOM      7  O   UNL     1     -95.955 149.411 243.254  1.00  0.00    -0.388 OA
ATOM      8  H   UNL     1     -95.016 149.514 243.561  1.00  0.00     0.211 HD
ENDBRANCH   1   7
TORSDOF 2
ENDMDL
MODEL 6
REMARK VINA RESULT:    -2.574     14.353     15.086
REMARK INTER + INTRA:          -2.814
REMARK INTER:                  -2.797
REMARK INTRA:                  -0.016
REMARK UNBOUND:                -0.014
REMARK SMILES OCc1ccco1
REMARK SMILES IDX 2 1 3 2 5 3 6 4 4 5 7 6 1 7
REMARK H PARENT 1 8
REMARK Flexibility Score: inf
ROOT
ATOM      1  C   UNL     1     -94.166 160.031 235.580  1.00  0.00     0.231 C 
ENDROOT
BRANCH   1   2
ATOM      2  C   UNL     1     -92.797 159.436 235.666  1.00  0.00     0.129 A 
ATOM      3  C   UNL     1     -91.094 158.056 235.520  1.00  0.00     0.042 A 
ATOM      4  C   UNL     1     -90.698 159.286 236.005  1.00  0.00     0.195 A 
ATOM      5  C   UNL     1     -92.451 158.151 235.298  1.00  0.00     0.048 A 
ATOM      6  O   UNL     1     -91.735 160.089 236.078  1.00  0.00    -0.467 OA
ENDBRANCH   1   2
BRANCH   1   7
ATOM      7  O   UNL     1     -94.533 160.574 236.818  1.00  0.00    -0.388 OA
ATOM      8  H   UNL     1     -93.694 160.874 237.257  1.00  0.00     0.211 HD
ENDBRANCH   1   7
TORSDOF 2
ENDMDL
MODEL 7
REMARK VINA RESULT:    -2.560     14.979     15.435
REMARK INTER + INTRA:          -2.799
REMARK INTER:                  -2.784
REMARK INTRA:                  -0.015
REMARK UNBOUND:                -0.014
REMARK SMILES OCc1ccco1
REMARK SMILES IDX 2 1 3 2 5 3 6 4 4 5 7 6 1 7
REMARK H PARENT 1 8
REMARK Flexibility Score: inf
ROOT
ATOM      1  C   UNL     1     -91.154 158.717 232.782  1.00  0.00     0.231 C 
ENDROOT
BRANCH   1   2
ATOM      2  C   UNL     1     -91.090 159.220 234.190  1.00  0.00     0.129 A 
ATOM      3  C   UNL     1     -90.550 159.484 236.302  1.00  0.00     0.042 A 
ATOM      4  C   UNL     1     -91.453 160.445 235.895  1.00  0.00     0.195 A 
ATOM      5  C   UNL     1     -90.312 158.691 235.200  1.00  0.00     0.048 A 
ATOM      6  O   UNL     1     -91.754 160.263 234.629  1.00  0.00    -0.467 OA
ENDBRANCH   1   2
BRANCH   1   7
ATOM      7  O   UNL     1     -89.875 158.354 232.343  1.00  0.00    -0.388 OA
ATOM      8  H   UNL     1     -89.253 159.060 232.660  1.00  0.00     0.211 HD
ENDBRANCH   1   7
TORSDOF 2
ENDMDL
MODEL 8
REMARK VINA RESULT:    -2.549      1.526      3.241
REMARK INTER + INTRA:          -2.786
REMARK INTER:                  -2.771
REMARK INTRA:                  -0.014
REMARK UNBOUND:                -0.014
REMARK SMILES OCc1ccco1
REMARK SMILES IDX 2 1 3 2 5 3 6 4 4 5 7 6 1 7
REMARK H PARENT 1 8
REMARK Flexibility Score: inf
ROOT
ATOM      1  C   UNL     1     -93.497 146.327 241.959  1.00  0.00     0.231 C 
ENDROOT
BRANCH   1   2
ATOM      2  C   UNL     1     -92.732 145.813 240.781  1.00  0.00     0.129 A 
ATOM      3  C   UNL     1     -91.198 144.875 239.521  1.00  0.00     0.042 A 
ATOM      4  C   UNL     1     -92.273 145.297 238.765  1.00  0.00     0.195 A 
ATOM      5  C   UNL     1     -91.494 145.206 240.826  1.00  0.00     0.048 A 
ATOM      6  O   UNL     1     -93.173 145.850 239.545  1.00  0.00    -0.467 OA
ENDBRANCH   1   2
BRANCH   1   7
ATOM      7  O   UNL     1     -93.550 145.350 242.961  1.00  0.00    -0.388 OA
ATOM      8  H   UNL     1     -93.425 144.474 242.511  1.00  0.00     0.211 HD
ENDBRANCH   1   7
TORSDOF 2
ENDMDL
MODEL 9
REMARK VINA RESULT:    -2.543     14.541     15.274
REMARK INTER + INTRA:          -2.780
REMARK INTER:                  -2.764
REMARK INTRA:                  -0.016
REMARK UNBOUND:                -0.014
REMARK SMILES OCc1ccco1
REMARK SMILES IDX 2 1 3 2 5 3 6 4 4 5 7 6 1 7
REMARK H PARENT 1 8
REMARK Flexibility Score: inf
ROOT
ATOM      1  C   UNL     1     -92.590 158.334 235.326  1.00  0.00     0.231 C 
ENDROOT
BRANCH   1   2
ATOM      2  C   UNL     1     -91.814 159.549 235.722  1.00  0.00     0.129 A 
ATOM      3  C   UNL     1     -90.251 160.880 236.504  1.00  0.00     0.042 A 
ATOM      4  C   UNL     1     -91.272 161.601 235.919  1.00  0.00     0.195 A 
ATOM      5  C   UNL     1     -90.598 159.551 236.375  1.00  0.00     0.048 A 
ATOM      6  O   UNL     1     -92.188 160.779 235.459  1.00  0.00    -0.467 OA
ENDBRANCH   1   2
BRANCH   1   7
ATOM      7  O   UNL     1     -91.740 157.224 235.250  1.00  0.00    -0.388 OA
ATOM      8  H   UNL     1     -92.321 156.428 235.123  1.00  0.00     0.211 HD
ENDBRANCH   1   7
TORSDOF 2
ENDMDL
