MODEL 1
REMARK VINA RESULT:    -2.518      0.000      0.000
REMARK INTER + INTRA:          -2.996
REMARK INTER:                  -2.959
REMARK INTRA:                  -0.036
REMARK UNBOUND:                -0.036
REMARK SMILES O=C([O-])CCC(=O)[O-]
REMARK SMILES IDX 4 1 2 2 1 3 3 4 5 5 6 6 7 7 8 8
REMARK H PARENT
REMARK Flexibility Score: inf
ROOT
ATOM      1  C   UNL     1       9.760  39.181 150.755  1.00  0.00     0.059 C 
ENDROOT
BRANCH   1   2
ATOM      2  C   UNL     1      10.593  39.816 151.827  1.00  0.00     0.042 C 
ATOM      3  O   UNL     1      11.818  40.032 151.634  1.00  0.00    -0.550 OA
ATOM      4  O   UNL     1      10.023  40.133 153.054  1.00  0.00    -0.550 OA
ENDBRANCH   1   2
BRANCH   1   5
ATOM      5  C   UNL     1      10.530  38.074 150.025  1.00  0.00     0.059 C 
BRANCH   5   6
ATOM      6  C   UNL     1       9.714  36.824 149.902  1.00  0.00     0.042 C 
ATOM      7  O   UNL     1       8.494  36.890 149.598  1.00  0.00    -0.550 OA
ATOM      8  O   UNL     1      10.312  35.583 150.081  1.00  0.00    -0.550 OA
ENDBRANCH   5   6
ENDBRANCH   1   5
TORSDOF 3
ENDMDL
MODEL 2
REMARK VINA RESULT:    -2.500      2.765      5.719
REMARK INTER + INTRA:          -2.975
REMARK INTER:                  -2.859
REMARK INTRA:                  -0.116
REMARK UNBOUND:                -0.036
REMARK SMILES O=C([O-])CCC(=O)[O-]
REMARK SMILES IDX 4 1 2 2 1 3 3 4 5 5 6 6 7 7 8 8
REMARK H PARENT
REMARK Flexibility Score: inf
ROOT
ATOM      1  C   UNL     1      11.798  41.105 152.146  1.00  0.00     0.059 C 
ENDROOT
BRANCH   1   2
ATOM      2  C   UNL     1      10.656  40.135 152.181  1.00  0.00     0.042 C 
ATOM      3  O   UNL     1       9.817  40.178 153.119  1.00  0.00    -0.550 OA
ATOM      4  O   UNL     1      10.542  39.160 151.199  1.00  0.00    -0.550 OA
ENDBRANCH   1   2
BRANCH   1   5
ATOM      5  C   UNL     1      11.339  42.530 152.477  1.00  0.00     0.059 C 
BRANCH   5   6
ATOM      6  C   UNL     1      11.857  42.981 153.809  1.00  0.00     0.042 C 
ATOM      7  O   UNL     1      11.228  42.697 154.862  1.00  0.00    -0.550 OA
ATOM      8  O   UNL     1      13.055  43.679 153.889  1.00  0.00    -0.550 OA
ENDBRANCH   5   6
ENDBRANCH   1   5
TORSDOF 3
ENDMDL
MODEL 3
REMARK VINA RESULT:    -2.495      2.773      4.314
REMARK INTER + INTRA:          -2.969
REMARK INTER:                  -2.850
REMARK INTRA:                  -0.119
REMARK UNBOUND:                -0.036
REMARK SMILES O=C([O-])CCC(=O)[O-]
REMARK SMILES IDX 4 1 2 2 1 3 3 4 5 5 6 6 7 7 8 8
REMARK H PARENT
REMARK Flexibility Score: inf
ROOT
ATOM      1  C   UNL     1      11.410  42.518 152.407  1.00  0.00     0.059 C 
ENDROOT
BRANCH   1   2
ATOM      2  C   UNL     1      11.914  43.004 153.732  1.00  0.00     0.042 C 
ATOM      3  O   UNL     1      11.309  42.694 154.792  1.00  0.00    -0.550 OA
ATOM      4  O   UNL     1      13.027  43.832 153.792  1.00  0.00    -0.550 OA
ENDBRANCH   1   2
BRANCH   1   5
ATOM      5  C   UNL     1      11.837  41.070 152.138  1.00  0.00     0.059 C 
BRANCH   5   6
ATOM      6  C   UNL     1      10.667  40.135 152.163  1.00  0.00     0.042 C 
ATOM      7  O   UNL     1      10.548  39.244 151.282  1.00  0.00    -0.550 OA
ATOM      8  O   UNL     1       9.729  40.221 153.184  1.00  0.00    -0.550 OA
ENDBRANCH   5   6
ENDBRANCH   1   5
TORSDOF 3
ENDMDL
MODEL 4
REMARK VINA RESULT:    -2.441      0.895      4.095
REMARK INTER + INTRA:          -2.905
REMARK INTER:                  -2.841
REMARK INTRA:                  -0.064
REMARK UNBOUND:                -0.036
REMARK SMILES O=C([O-])CCC(=O)[O-]
REMARK SMILES IDX 4 1 2 2 1 3 3 4 5 5 6 6 7 7 8 8
REMARK H PARENT
REMARK Flexibility Score: inf
ROOT
ATOM      1  C   UNL     1       9.312  37.960 149.734  1.00  0.00     0.059 C 
ENDROOT
BRANCH   1   2
ATOM      2  C   UNL     1       9.042  36.487 149.675  1.00  0.00     0.042 C 
ATOM      3  O   UNL     1       7.901  36.064 149.350  1.00  0.00    -0.550 OA
ATOM      4  O   UNL     1      10.039  35.583 150.017  1.00  0.00    -0.550 OA
ENDBRANCH   1   2
BRANCH   1   5
ATOM      5  C   UNL     1      10.786  38.251 150.041  1.00  0.00     0.059 C 
BRANCH   5   6
ATOM      6  C   UNL     1      10.932  39.306 151.094  1.00  0.00     0.042 C 
ATOM      7  O   UNL     1       9.933  39.673 151.767  1.00  0.00    -0.550 OA
ATOM      8  O   UNL     1      12.180  39.854 151.362  1.00  0.00    -0.550 OA
ENDBRANCH   5   6
ENDBRANCH   1   5
TORSDOF 3
ENDMDL
MODEL 5
REMARK VINA RESULT:    -2.428     12.354     12.937
REMARK INTER + INTRA:          -2.890
REMARK INTER:                  -2.840
REMARK INTRA:                  -0.051
REMARK UNBOUND:                -0.036
REMARK SMILES O=C([O-])CCC(=O)[O-]
REMARK SMILES IDX 4 1 2 2 1 3 3 4 5 5 6 6 7 7 8 8
REMARK H PARENT
REMARK Flexibility Score: inf
ROOT
ATOM      1  C   UNL     1      10.604  37.416 139.142  1.00  0.00     0.059 C 
ENDROOT
BRANCH   1   2
ATOM      2  C   UNL     1      11.497  36.305 138.681  1.00  0.00     0.042 C 
ATOM      3  O   UNL     1      12.726  36.513 138.501  1.00  0.00    -0.550 OA
ATOM      4  O   UNL     1      10.965  35.050 138.413  1.00  0.00    -0.550 OA
ENDBRANCH   1   2
BRANCH   1   5
ATOM      5  C   UNL     1      11.185  38.790 138.789  1.00  0.00     0.059 C 
BRANCH   5   6
ATOM      6  C   UNL     1      10.137  39.709 138.240  1.00  0.00     0.042 C 
ATOM      7  O   UNL     1       8.934  39.342 138.194  1.00  0.00    -0.550 OA
ATOM      8  O   UNL     1      10.483  40.987 137.820  1.00  0.00    -0.550 OA
ENDBRANCH   5   6
ENDBRANCH   1   5
TORSDOF 3
ENDMDL
MODEL 6
REMARK VINA RESULT:    -2.392      1.959      4.377
REMARK INTER + INTRA:          -2.848
REMARK INTER:                  -2.814
REMARK INTRA:                  -0.034
REMARK UNBOUND:                -0.036
REMARK SMILES O=C([O-])CCC(=O)[O-]
REMARK SMILES IDX 4 1 2 2 1 3 3 4 5 5 6 6 7 7 8 8
REMARK H PARENT
REMARK Flexibility Score: inf
ROOT
ATOM      1  C   UNL     1      11.957  39.694 151.148  1.00  0.00     0.059 C 
ENDROOT
BRANCH   1   2
ATOM      2  C   UNL     1      11.909  38.677 150.047  1.00  0.00     0.042 C 
ATOM      3  O   UNL     1      12.828  38.629 149.189  1.00  0.00    -0.550 OA
ATOM      4  O   UNL     1      10.829  37.810 149.948  1.00  0.00    -0.550 OA
ENDBRANCH   1   2
BRANCH   1   5
ATOM      5  C   UNL     1      10.596  39.843 151.837  1.00  0.00     0.059 C 
BRANCH   5   6
ATOM      6  C   UNL     1      10.617  40.927 152.872  1.00  0.00     0.042 C 
ATOM      7  O   UNL     1       9.694  41.007 153.725  1.00  0.00    -0.550 OA
ATOM      8  O   UNL     1      11.679  41.822 152.921  1.00  0.00    -0.550 OA
ENDBRANCH   5   6
ENDBRANCH   1   5
TORSDOF 3
ENDMDL
MODEL 7
REMARK VINA RESULT:    -2.366     11.224     11.996
REMARK INTER + INTRA:          -2.817
REMARK INTER:                  -2.710
REMARK INTRA:                  -0.107
REMARK UNBOUND:                -0.036
REMARK SMILES O=C([O-])CCC(=O)[O-]
REMARK SMILES IDX 4 1 2 2 1 3 3 4 5 5 6 6 7 7 8 8
REMARK H PARENT
REMARK Flexibility Score: inf
ROOT
ATOM      1  C   UNL     1      11.162  35.193 138.670  1.00  0.00     0.059 C 
ENDROOT
BRANCH   1   2
ATOM      2  C   UNL     1      12.421  35.842 139.158  1.00  0.00     0.042 C 
ATOM      3  O   UNL     1      13.114  36.547 138.378  1.00  0.00    -0.550 OA
ATOM      4  O   UNL     1      12.849  35.636 140.463  1.00  0.00    -0.550 OA
ENDBRANCH   1   2
BRANCH   1   5
ATOM      5  C   UNL     1       9.945  36.107 138.861  1.00  0.00     0.059 C 
BRANCH   5   6
ATOM      6  C   UNL     1       8.956  35.517 139.818  1.00  0.00     0.042 C 
ATOM      7  O   UNL     1       9.354  34.875 140.826  1.00  0.00    -0.550 OA
ATOM      8  O   UNL     1       7.595  35.712 139.621  1.00  0.00    -0.550 OA
ENDBRANCH   5   6
ENDBRANCH   1   5
TORSDOF 3
ENDMDL
MODEL 8
REMARK VINA RESULT:    -2.347     11.637     12.364
REMARK INTER + INTRA:          -2.795
REMARK INTER:                  -2.690
REMARK INTRA:                  -0.104
REMARK UNBOUND:                -0.036
REMARK SMILES O=C([O-])CCC(=O)[O-]
REMARK SMILES IDX 4 1 2 2 1 3 3 4 5 5 6 6 7 7 8 8
REMARK H PARENT
REMARK Flexibility Score: inf
ROOT
ATOM      1  C   UNL     1       9.953  35.425 139.705  1.00  0.00     0.059 C 
ENDROOT
BRANCH   1   2
ATOM      2  C   UNL     1       9.022  36.412 139.068  1.00  0.00     0.042 C 
ATOM      3  O   UNL     1       9.429  37.564 138.767  1.00  0.00    -0.550 OA
ATOM      4  O   UNL     1       7.694  36.070 138.843  1.00  0.00    -0.550 OA
ENDBRANCH   1   2
BRANCH   1   5
ATOM      5  C   UNL     1      11.076  35.010 138.748  1.00  0.00     0.059 C 
BRANCH   5   6
ATOM      6  C   UNL     1      12.388  35.619 139.139  1.00  0.00     0.042 C 
ATOM      7  O   UNL     1      12.905  36.521 138.428  1.00  0.00    -0.550 OA
ATOM      8  O   UNL     1      13.019  35.221 140.311  1.00  0.00    -0.550 OA
ENDBRANCH   5   6
ENDBRANCH   1   5
TORSDOF 3
ENDMDL
