MODEL 1
REMARK VINA RESULT:    -4.751      0.000      0.000
REMARK INTER + INTRA:         -12.935
REMARK INTER:                 -10.306
REMARK INTRA:                  -2.629
REMARK UNBOUND:                -2.629
REMARK SMILES CCCCCCCCCCCCCCCCCCCCCC(=O)[O-]
REMARK SMILES IDX 12 1 11 2 10 3 9 4 8 5 7 6 6 7 5 8 4 9 3 10 2 11 1 12 13 13
REMARK SMILES IDX 14 14 15 15 16 16 17 17 18 18 19 19 20 20 21 21 22 22 23 23
REMARK SMILES IDX 24 24
REMARK H PARENT
REMARK Flexibility Score: inf
ROOT
ATOM      1  C   UNL     1     -12.543   3.591   4.589  1.00  0.00     0.000 C 
ENDROOT
BRANCH   1   2
ATOM      2  C   UNL     1     -12.699   3.052   6.020  1.00  0.00     0.000 C 
BRANCH   2   3
ATOM      3  C   UNL     1     -11.348   2.873   6.734  1.00  0.00     0.000 C 
BRANCH   3   4
ATOM      4  C   UNL     1     -11.180   3.829   7.926  1.00  0.00    -0.000 C 
BRANCH   4   5
ATOM      5  C   UNL     1     -10.848   5.267   7.486  1.00  0.00    -0.000 C 
BRANCH   5   6
ATOM      6  C   UNL     1      -9.828   5.309   6.338  1.00  0.00    -0.000 C 
BRANCH   6   7
ATOM      7  C   UNL     1      -9.978   6.565   5.461  1.00  0.00    -0.000 C 
BRANCH   7   8
ATOM      8  C   UNL     1      -9.077   7.726   5.919  1.00  0.00    -0.000 C 
BRANCH   8   9
ATOM      9  C   UNL     1      -8.809   8.798   4.847  1.00  0.00    -0.000 C 
BRANCH   9  10
ATOM     10  C   UNL     1      -8.590  10.197   5.440  1.00  0.00    -0.000 C 
BRANCH  10  11
ATOM     11  C   UNL     1      -7.499  10.171   6.516  1.00  0.00    -0.003 C 
ATOM     12  C   UNL     1      -6.125  10.459   5.918  1.00  0.00     0.004 C 
ENDBRANCH  10  11
ENDBRANCH   9  10
ENDBRANCH   8   9
ENDBRANCH   7   8
ENDBRANCH   6   7
ENDBRANCH   5   6
ENDBRANCH   4   5
ENDBRANCH   3   4
ENDBRANCH   2   3
ENDBRANCH   1   2
BRANCH   1  13
ATOM     13  C   UNL     1     -13.576   4.680   4.254  1.00  0.00     0.000 C 
BRANCH  13  14
ATOM     14  C   UNL     1     -13.768   5.693   5.396  1.00  0.00     0.000 C 
BRANCH  14  15
ATOM     15  C   UNL     1     -14.922   6.691   5.191  1.00  0.00     0.000 C 
BRANCH  15  16
ATOM     16  C   UNL     1     -14.430   8.131   4.962  1.00  0.00     0.000 C 
BRANCH  16  17
ATOM     17  C   UNL     1     -13.186   8.477   5.797  1.00  0.00     0.000 C 
BRANCH  17  18
ATOM     18  C   UNL     1     -12.298   9.597   5.217  1.00  0.00     0.000 C 
BRANCH  18  19
ATOM     19  C   UNL     1     -13.064  10.898   4.899  1.00  0.00     0.000 C 
BRANCH  19  20
ATOM     20  C   UNL     1     -12.376  11.724   3.798  1.00  0.00     0.006 C 
BRANCH  20  21
ATOM     21  C   UNL     1     -13.277  11.915   2.571  1.00  0.00     0.053 C 
BRANCH  21  22
ATOM     22  C   UNL     1     -13.261  10.712   1.680  1.00  0.00     0.041 C 
ATOM     23  O   UNL     1     -12.260  10.475   0.952  1.00  0.00    -0.550 OA
ATOM     24  O   UNL     1     -14.339   9.834   1.672  1.00  0.00    -0.550 OA
ENDBRANCH  21  22
ENDBRANCH  20  21
ENDBRANCH  19  20
ENDBRANCH  18  19
ENDBRANCH  17  18
ENDBRANCH  16  17
ENDBRANCH  15  16
ENDBRANCH  14  15
ENDBRANCH  13  14
ENDBRANCH   1  13
TORSDOF 20
ENDMDL
MODEL 2
REMARK VINA RESULT:    -4.741      2.413      5.394
REMARK INTER + INTRA:         -12.913
REMARK INTER:                 -10.110
REMARK INTRA:                  -2.803
REMARK UNBOUND:                -2.629
REMARK SMILES CCCCCCCCCCCCCCCCCCCCCC(=O)[O-]
REMARK SMILES IDX 12 1 11 2 10 3 9 4 8 5 7 6 6 7 5 8 4 9 3 10 2 11 1 12 13 13
REMARK SMILES IDX 14 14 15 15 16 16 17 17 18 18 19 19 20 20 21 21 22 22 23 23
REMARK SMILES IDX 24 24
REMARK H PARENT
REMARK Flexibility Score: inf
ROOT
ATOM      1  C   UNL     1     -12.756   3.629   4.991  1.00  0.00     0.000 C 
ENDROOT
BRANCH   1   2
ATOM      2  C   UNL     1     -13.651   4.751   4.443  1.00  0.00     0.000 C 
BRANCH   2   3
ATOM      3  C   UNL     1     -13.872   5.882   5.463  1.00  0.00     0.000 C 
BRANCH   3   4
ATOM      4  C   UNL     1     -14.837   6.962   4.948  1.00  0.00    -0.000 C 
BRANCH   4   5
ATOM      5  C   UNL     1     -14.217   8.371   4.982  1.00  0.00    -0.000 C 
BRANCH   5   6
ATOM      6  C   UNL     1     -13.366   8.608   6.240  1.00  0.00    -0.000 C 
BRANCH   6   7
ATOM      7  C   UNL     1     -12.550   9.911   6.163  1.00  0.00    -0.000 C 
BRANCH   7   8
ATOM      8  C   UNL     1     -11.782  10.058   4.837  1.00  0.00    -0.000 C 
BRANCH   8   9
ATOM      9  C   UNL     1     -11.499  11.510   4.412  1.00  0.00    -0.000 C 
BRANCH   9  10
ATOM     10  C   UNL     1     -11.943  11.810   2.973  1.00  0.00    -0.000 C 
BRANCH  10  11
ATOM     11  C   UNL     1     -13.159  10.961   2.586  1.00  0.00    -0.003 C 
ATOM     12  C   UNL     1     -13.052  10.468   1.145  1.00  0.00     0.004 C 
ENDBRANCH  10  11
ENDBRANCH   9  10
ENDBRANCH   8   9
ENDBRANCH   7   8
ENDBRANCH   6   7
ENDBRANCH   5   6
ENDBRANCH   4   5
ENDBRANCH   3   4
ENDBRANCH   2   3
ENDBRANCH   1   2
BRANCH   1  13
ATOM     13  C   UNL     1     -12.804   3.533   6.526  1.00  0.00     0.000 C 
BRANCH  13  14
ATOM     14  C   UNL     1     -11.405   3.463   7.163  1.00  0.00     0.000 C 
BRANCH  14  15
ATOM     15  C   UNL     1     -10.782   4.827   7.511  1.00  0.00     0.000 C 
BRANCH  15  16
ATOM     16  C   UNL     1      -9.806   5.329   6.432  1.00  0.00     0.000 C 
BRANCH  16  17
ATOM     17  C   UNL     1     -10.390   6.471   5.585  1.00  0.00     0.000 C 
BRANCH  17  18
ATOM     18  C   UNL     1      -9.347   7.382   4.906  1.00  0.00     0.000 C 
BRANCH  18  19
ATOM     19  C   UNL     1      -8.587   8.299   5.886  1.00  0.00     0.000 C 
BRANCH  19  20
ATOM     20  C   UNL     1      -8.123   9.607   5.220  1.00  0.00     0.006 C 
BRANCH  20  21
ATOM     21  C   UNL     1      -7.196  10.422   6.130  1.00  0.00     0.053 C 
BRANCH  21  22
ATOM     22  C   UNL     1      -7.936  11.007   7.293  1.00  0.00     0.041 C 
ATOM     23  O   UNL     1      -7.349  11.187   8.393  1.00  0.00    -0.550 OA
ATOM     24  O   UNL     1      -9.268  11.383   7.156  1.00  0.00    -0.550 OA
ENDBRANCH  21  22
ENDBRANCH  20  21
ENDBRANCH  19  20
ENDBRANCH  18  19
ENDBRANCH  17  18
ENDBRANCH  16  17
ENDBRANCH  15  16
ENDBRANCH  14  15
ENDBRANCH  13  14
ENDBRANCH   1  13
TORSDOF 20
ENDMDL
MODEL 3
REMARK VINA RESULT:    -4.668      2.472      5.640
REMARK INTER + INTRA:         -12.756
REMARK INTER:                  -9.904
REMARK INTRA:                  -2.852
REMARK UNBOUND:                -2.629
REMARK SMILES CCCCCCCCCCCCCCCCCCCCCC(=O)[O-]
REMARK SMILES IDX 12 1 11 2 10 3 9 4 8 5 7 6 6 7 5 8 4 9 3 10 2 11 1 12 13 13
REMARK SMILES IDX 14 14 15 15 16 16 17 17 18 18 19 19 20 20 21 21 22 22 23 23
REMARK SMILES IDX 24 24
REMARK H PARENT
REMARK Flexibility Score: inf
ROOT
ATOM      1  C   UNL     1     -13.503   4.743   4.517  1.00  0.00     0.000 C 
ENDROOT
BRANCH   1   2
ATOM      2  C   UNL     1     -13.779   5.858   5.538  1.00  0.00     0.000 C 
BRANCH   2   3
ATOM      3  C   UNL     1     -15.026   6.687   5.184  1.00  0.00     0.000 C 
BRANCH   3   4
ATOM      4  C   UNL     1     -14.772   8.201   5.270  1.00  0.00    -0.000 C 
BRANCH   4   5
ATOM      5  C   UNL     1     -13.293   8.536   5.542  1.00  0.00    -0.000 C 
BRANCH   5   6
ATOM      6  C   UNL     1     -13.121   9.862   6.297  1.00  0.00    -0.000 C 
BRANCH   6   7
ATOM      7  C   UNL     1     -13.706  11.060   5.528  1.00  0.00    -0.000 C 
BRANCH   7   8
ATOM      8  C   UNL     1     -12.630  11.891   4.806  1.00  0.00    -0.000 C 
BRANCH   8   9
ATOM      9  C   UNL     1     -12.067  11.246   3.526  1.00  0.00    -0.000 C 
BRANCH   9  10
ATOM     10  C   UNL     1     -12.884  11.590   2.273  1.00  0.00    -0.000 C 
BRANCH  10  11
ATOM     11  C   UNL     1     -13.278  10.320   1.510  1.00  0.00    -0.003 C 
ATOM     12  C   UNL     1     -14.652   9.818   1.946  1.00  0.00     0.004 C 
ENDBRANCH  10  11
ENDBRANCH   9  10
ENDBRANCH   8   9
ENDBRANCH   7   8
ENDBRANCH   6   7
ENDBRANCH   5   6
ENDBRANCH   4   5
ENDBRANCH   3   4
ENDBRANCH   2   3
ENDBRANCH   1   2
BRANCH   1  13
ATOM     13  C   UNL     1     -12.853   3.505   5.158  1.00  0.00     0.000 C 
BRANCH  13  14
ATOM     14  C   UNL     1     -12.779   3.597   6.692  1.00  0.00     0.000 C 
BRANCH  14  15
ATOM     15  C   UNL     1     -11.356   3.552   7.277  1.00  0.00     0.000 C 
BRANCH  15  16
ATOM     16  C   UNL     1     -10.719   4.948   7.400  1.00  0.00     0.000 C 
BRANCH  16  17
ATOM     17  C   UNL     1      -9.783   5.282   6.227  1.00  0.00     0.000 C 
BRANCH  17  18
ATOM     18  C   UNL     1     -10.162   6.544   5.426  1.00  0.00     0.000 C 
BRANCH  18  19
ATOM     19  C   UNL     1      -9.058   7.622   5.402  1.00  0.00     0.000 C 
BRANCH  19  20
ATOM     20  C   UNL     1      -9.635   9.047   5.332  1.00  0.00     0.006 C 
BRANCH  20  21
ATOM     21  C   UNL     1      -8.543  10.104   5.127  1.00  0.00     0.053 C 
BRANCH  21  22
ATOM     22  C   UNL     1      -7.553  10.103   6.251  1.00  0.00     0.041 C 
ATOM     23  O   UNL     1      -6.317  10.071   6.007  1.00  0.00    -0.550 OA
ATOM     24  O   UNL     1      -7.992  10.168   7.568  1.00  0.00    -0.550 OA
ENDBRANCH  21  22
ENDBRANCH  20  21
ENDBRANCH  19  20
ENDBRANCH  18  19
ENDBRANCH  17  18
ENDBRANCH  16  17
ENDBRANCH  15  16
ENDBRANCH  14  15
ENDBRANCH  13  14
ENDBRANCH   1  13
TORSDOF 20
ENDMDL
MODEL 4
REMARK VINA RESULT:    -4.668      1.202      2.402
REMARK INTER + INTRA:         -12.754
REMARK INTER:                 -10.418
REMARK INTRA:                  -2.337
REMARK UNBOUND:                -2.629
REMARK SMILES CCCCCCCCCCCCCCCCCCCCCC(=O)[O-]
REMARK SMILES IDX 12 1 11 2 10 3 9 4 8 5 7 6 6 7 5 8 4 9 3 10 2 11 1 12 13 13
REMARK SMILES IDX 14 14 15 15 16 16 17 17 18 18 19 19 20 20 21 21 22 22 23 23
REMARK SMILES IDX 24 24
REMARK H PARENT
REMARK Flexibility Score: inf
ROOT
ATOM      1  C   UNL     1     -11.763   3.025   7.160  1.00  0.00     0.000 C 
ENDROOT
BRANCH   1   2
ATOM      2  C   UNL     1     -11.245   4.089   8.140  1.00  0.00     0.000 C 
BRANCH   2   3
ATOM      3  C   UNL     1     -10.706   5.339   7.423  1.00  0.00     0.000 C 
BRANCH   3   4
ATOM      4  C   UNL     1      -9.832   4.992   6.207  1.00  0.00    -0.000 C 
BRANCH   4   5
ATOM      5  C   UNL     1      -9.906   6.063   5.103  1.00  0.00    -0.000 C 
BRANCH   5   6
ATOM      6  C   UNL     1     -10.540   7.372   5.597  1.00  0.00    -0.000 C 
BRANCH   6   7
ATOM      7  C   UNL     1     -10.013   8.605   4.841  1.00  0.00    -0.000 C 
BRANCH   7   8
ATOM      8  C   UNL     1      -9.120   9.505   5.715  1.00  0.00    -0.000 C 
BRANCH   8   9
ATOM      9  C   UNL     1      -7.610   9.375   5.445  1.00  0.00    -0.000 C 
BRANCH   9  10
ATOM     10  C   UNL     1      -6.771  10.391   6.232  1.00  0.00    -0.000 C 
BRANCH  10  11
ATOM     11  C   UNL     1      -7.625  11.114   7.280  1.00  0.00    -0.003 C 
ATOM     12  C   UNL     1      -6.758  11.944   8.223  1.00  0.00     0.004 C 
ENDBRANCH  10  11
ENDBRANCH   9  10
ENDBRANCH   8   9
ENDBRANCH   7   8
ENDBRANCH   6   7
ENDBRANCH   5   6
ENDBRANCH   4   5
ENDBRANCH   3   4
ENDBRANCH   2   3
ENDBRANCH   1   2
BRANCH   1  13
ATOM     13  C   UNL     1     -13.087   3.434   6.492  1.00  0.00     0.000 C 
BRANCH  13  14
ATOM     14  C   UNL     1     -12.975   3.538   4.961  1.00  0.00     0.000 C 
BRANCH  14  15
ATOM     15  C   UNL     1     -13.543   4.836   4.357  1.00  0.00     0.000 C 
BRANCH  15  16
ATOM     16  C   UNL     1     -13.838   5.908   5.420  1.00  0.00     0.000 C 
BRANCH  16  17
ATOM     17  C   UNL     1     -15.070   6.762   5.079  1.00  0.00     0.000 C 
BRANCH  17  18
ATOM     18  C   UNL     1     -14.929   8.267   5.387  1.00  0.00     0.000 C 
BRANCH  18  19
ATOM     19  C   UNL     1     -14.151   9.054   4.312  1.00  0.00     0.000 C 
BRANCH  19  20
ATOM     20  C   UNL     1     -15.075   9.619   3.219  1.00  0.00     0.006 C 
BRANCH  20  21
ATOM     21  C   UNL     1     -14.415   9.599   1.836  1.00  0.00     0.053 C 
BRANCH  21  22
ATOM     22  C   UNL     1     -13.432  10.718   1.675  1.00  0.00     0.041 C 
ATOM     23  O   UNL     1     -13.591  11.797   2.305  1.00  0.00    -0.550 OA
ATOM     24  O   UNL     1     -12.323  10.560   0.852  1.00  0.00    -0.550 OA
ENDBRANCH  21  22
ENDBRANCH  20  21
ENDBRANCH  19  20
ENDBRANCH  18  19
ENDBRANCH  17  18
ENDBRANCH  16  17
ENDBRANCH  15  16
ENDBRANCH  14  15
ENDBRANCH  13  14
ENDBRANCH   1  13
TORSDOF 20
ENDMDL
MODEL 5
REMARK VINA RESULT:    -4.651      2.522      5.616
REMARK INTER + INTRA:         -12.719
REMARK INTER:                  -9.757
REMARK INTRA:                  -2.962
REMARK UNBOUND:                -2.629
REMARK SMILES CCCCCCCCCCCCCCCCCCCCCC(=O)[O-]
REMARK SMILES IDX 12 1 11 2 10 3 9 4 8 5 7 6 6 7 5 8 4 9 3 10 2 11 1 12 13 13
REMARK SMILES IDX 14 14 15 15 16 16 17 17 18 18 19 19 20 20 21 21 22 22 23 23
REMARK SMILES IDX 24 24
REMARK H PARENT
REMARK Flexibility Score: inf
ROOT
ATOM      1  C   UNL     1     -13.395   4.051   5.962  1.00  0.00     0.000 C 
ENDROOT
BRANCH   1   2
ATOM      2  C   UNL     1     -13.594   4.884   4.687  1.00  0.00     0.000 C 
BRANCH   2   3
ATOM      3  C   UNL     1     -14.385   6.178   4.945  1.00  0.00     0.000 C 
BRANCH   3   4
ATOM      4  C   UNL     1     -13.535   7.263   5.626  1.00  0.00    -0.000 C 
BRANCH   4   5
ATOM      5  C   UNL     1     -14.046   8.685   5.328  1.00  0.00    -0.000 C 
BRANCH   5   6
ATOM      6  C   UNL     1     -15.465   8.688   4.739  1.00  0.00    -0.000 C 
BRANCH   6   7
ATOM      7  C   UNL     1     -15.645   9.747   3.637  1.00  0.00    -0.000 C 
BRANCH   7   8
ATOM      8  C   UNL     1     -14.786   9.465   2.391  1.00  0.00    -0.000 C 
BRANCH   8   9
ATOM      9  C   UNL     1     -13.967  10.667   1.885  1.00  0.00    -0.000 C 
BRANCH   9  10
ATOM     10  C   UNL     1     -12.569  10.747   2.515  1.00  0.00    -0.000 C 
BRANCH  10  11
ATOM     11  C   UNL     1     -12.350  12.104   3.194  1.00  0.00    -0.003 C 
ATOM     12  C   UNL     1     -12.831  12.081   4.642  1.00  0.00     0.004 C 
ENDBRANCH  10  11
ENDBRANCH   9  10
ENDBRANCH   8   9
ENDBRANCH   7   8
ENDBRANCH   6   7
ENDBRANCH   5   6
ENDBRANCH   4   5
ENDBRANCH   3   4
ENDBRANCH   2   3
ENDBRANCH   1   2
BRANCH   1  13
ATOM     13  C   UNL     1     -12.113   3.201   5.916  1.00  0.00     0.000 C 
BRANCH  13  14
ATOM     14  C   UNL     1     -11.122   3.555   7.040  1.00  0.00     0.000 C 
BRANCH  14  15
ATOM     15  C   UNL     1     -10.890   5.063   7.248  1.00  0.00     0.000 C 
BRANCH  15  16
ATOM     16  C   UNL     1      -9.663   5.587   6.482  1.00  0.00     0.000 C 
BRANCH  16  17
ATOM     17  C   UNL     1     -10.033   6.251   5.146  1.00  0.00     0.000 C 
BRANCH  17  18
ATOM     18  C   UNL     1      -9.332   7.596   4.865  1.00  0.00     0.000 C 
BRANCH  18  19
ATOM     19  C   UNL     1     -10.225   8.829   5.113  1.00  0.00     0.000 C 
BRANCH  19  20
ATOM     20  C   UNL     1      -9.428  10.026   5.660  1.00  0.00     0.006 C 
BRANCH  20  21
ATOM     21  C   UNL     1      -8.255   9.584   6.545  1.00  0.00     0.053 C 
BRANCH  21  22
ATOM     22  C   UNL     1      -7.070  10.486   6.385  1.00  0.00     0.041 C 
ATOM     23  O   UNL     1      -6.379  10.444   5.333  1.00  0.00    -0.550 OA
ATOM     24  O   UNL     1      -6.744  11.394   7.386  1.00  0.00    -0.550 OA
ENDBRANCH  21  22
ENDBRANCH  20  21
ENDBRANCH  19  20
ENDBRANCH  18  19
ENDBRANCH  17  18
ENDBRANCH  16  17
ENDBRANCH  15  16
ENDBRANCH  14  15
ENDBRANCH  13  14
ENDBRANCH   1  13
TORSDOF 20
ENDMDL
MODEL 6
REMARK VINA RESULT:    -4.637      2.336      7.021
REMARK INTER + INTRA:         -12.689
REMARK INTER:                 -10.532
REMARK INTRA:                  -2.156
REMARK UNBOUND:                -2.629
REMARK SMILES CCCCCCCCCCCCCCCCCCCCCC(=O)[O-]
REMARK SMILES IDX 12 1 11 2 10 3 9 4 8 5 7 6 6 7 5 8 4 9 3 10 2 11 1 12 13 13
REMARK SMILES IDX 14 14 15 15 16 16 17 17 18 18 19 19 20 20 21 21 22 22 23 23
REMARK SMILES IDX 24 24
REMARK H PARENT
REMARK Flexibility Score: inf
ROOT
ATOM      1  C   UNL     1      -7.523   9.553   5.307  1.00  0.00     0.000 C 
ENDROOT
BRANCH   1   2
ATOM      2  C   UNL     1      -7.051  10.663   6.260  1.00  0.00     0.000 C 
BRANCH   2   3
ATOM      3  C   UNL     1      -7.885  10.727   7.551  1.00  0.00     0.000 C 
BRANCH   3   4
ATOM      4  C   UNL     1      -8.639  12.059   7.701  1.00  0.00    -0.000 C 
BRANCH   4   5
ATOM      5  C   UNL     1     -10.123  11.943   7.307  1.00  0.00    -0.000 C 
BRANCH   5   6
ATOM      6  C   UNL     1     -10.422  12.597   5.949  1.00  0.00    -0.000 C 
BRANCH   6   7
ATOM      7  C   UNL     1     -10.553  11.566   4.814  1.00  0.00    -0.000 C 
BRANCH   7   8
ATOM      8  C   UNL     1     -11.899  11.658   4.074  1.00  0.00    -0.000 C 
BRANCH   8   9
ATOM      9  C   UNL     1     -12.219  10.459   3.161  1.00  0.00    -0.000 C 
BRANCH   9  10
ATOM     10  C   UNL     1     -12.760  10.880   1.788  1.00  0.00    -0.000 C 
BRANCH  10  11
ATOM     11  C   UNL     1     -13.982  10.040   1.399  1.00  0.00    -0.003 C 
ATOM     12  C   UNL     1     -14.987   9.964   2.545  1.00  0.00     0.004 C 
ENDBRANCH  10  11
ENDBRANCH   9  10
ENDBRANCH   8   9
ENDBRANCH   7   8
ENDBRANCH   6   7
ENDBRANCH   5   6
ENDBRANCH   4   5
ENDBRANCH   3   4
ENDBRANCH   2   3
ENDBRANCH   1   2
BRANCH   1  13
ATOM     13  C   UNL     1      -8.587   8.643   5.945  1.00  0.00     0.000 C 
BRANCH  13  14
ATOM     14  C   UNL     1      -9.414   7.870   4.901  1.00  0.00     0.000 C 
BRANCH  14  15
ATOM     15  C   UNL     1     -10.449   6.894   5.488  1.00  0.00     0.000 C 
BRANCH  15  16
ATOM     16  C   UNL     1      -9.809   5.604   6.031  1.00  0.00     0.000 C 
BRANCH  16  17
ATOM     17  C   UNL     1     -10.359   5.200   7.408  1.00  0.00     0.000 C 
BRANCH  17  18
ATOM     18  C   UNL     1     -10.866   3.747   7.511  1.00  0.00     0.000 C 
BRANCH  18  19
ATOM     19  C   UNL     1     -12.356   3.632   7.895  1.00  0.00     0.000 C 
BRANCH  19  20
ATOM     20  C   UNL     1     -13.249   3.326   6.679  1.00  0.00     0.006 C 
BRANCH  20  21
ATOM     21  C   UNL     1     -13.366   4.526   5.732  1.00  0.00     0.053 C 
BRANCH  21  22
ATOM     22  C   UNL     1     -12.984   4.164   4.329  1.00  0.00     0.041 C 
ATOM     23  O   UNL     1     -11.893   3.577   4.101  1.00  0.00    -0.550 OA
ATOM     24  O   UNL     1     -13.846   4.447   3.276  1.00  0.00    -0.550 OA
ENDBRANCH  21  22
ENDBRANCH  20  21
ENDBRANCH  19  20
ENDBRANCH  18  19
ENDBRANCH  17  18
ENDBRANCH  16  17
ENDBRANCH  15  16
ENDBRANCH  14  15
ENDBRANCH  13  14
ENDBRANCH   1  13
TORSDOF 20
ENDMDL
MODEL 7
REMARK VINA RESULT:    -4.626      2.239      5.248
REMARK INTER + INTRA:         -12.664
REMARK INTER:                 -10.143
REMARK INTRA:                  -2.521
REMARK UNBOUND:                -2.629
REMARK SMILES CCCCCCCCCCCCCCCCCCCCCC(=O)[O-]
REMARK SMILES IDX 12 1 11 2 10 3 9 4 8 5 7 6 6 7 5 8 4 9 3 10 2 11 1 12 13 13
REMARK SMILES IDX 14 14 15 15 16 16 17 17 18 18 19 19 20 20 21 21 22 22 23 23
REMARK SMILES IDX 24 24
REMARK H PARENT
REMARK Flexibility Score: inf
ROOT
ATOM      1  C   UNL     1     -11.737   2.917   6.844  1.00  0.00     0.000 C 
ENDROOT
BRANCH   1   2
ATOM      2  C   UNL     1     -13.069   3.389   6.242  1.00  0.00     0.000 C 
BRANCH   2   3
ATOM      3  C   UNL     1     -12.955   3.725   4.745  1.00  0.00     0.000 C 
BRANCH   3   4
ATOM      4  C   UNL     1     -13.844   4.910   4.336  1.00  0.00    -0.000 C 
BRANCH   4   5
ATOM      5  C   UNL     1     -13.811   6.055   5.366  1.00  0.00    -0.000 C 
BRANCH   5   6
ATOM      6  C   UNL     1     -14.528   7.318   4.864  1.00  0.00    -0.000 C 
BRANCH   6   7
ATOM      7  C   UNL     1     -13.798   8.611   5.269  1.00  0.00    -0.000 C 
BRANCH   7   8
ATOM      8  C   UNL     1     -14.093   9.786   4.319  1.00  0.00    -0.000 C 
BRANCH   8   9
ATOM      9  C   UNL     1     -15.161   9.498   3.247  1.00  0.00    -0.000 C 
BRANCH   9  10
ATOM     10  C   UNL     1     -14.734   9.945   1.842  1.00  0.00    -0.000 C 
BRANCH  10  11
ATOM     11  C   UNL     1     -13.582  10.953   1.913  1.00  0.00    -0.003 C 
ATOM     12  C   UNL     1     -12.441  10.555   0.980  1.00  0.00     0.004 C 
ENDBRANCH  10  11
ENDBRANCH   9  10
ENDBRANCH   8   9
ENDBRANCH   7   8
ENDBRANCH   6   7
ENDBRANCH   5   6
ENDBRANCH   4   5
ENDBRANCH   3   4
ENDBRANCH   2   3
ENDBRANCH   1   2
BRANCH   1  13
ATOM     13  C   UNL     1     -11.220   3.860   7.945  1.00  0.00     0.000 C 
BRANCH  13  14
ATOM     14  C   UNL     1     -10.806   5.239   7.402  1.00  0.00     0.000 C 
BRANCH  14  15
ATOM     15  C   UNL     1      -9.687   5.211   6.346  1.00  0.00     0.000 C 
BRANCH  15  16
ATOM     16  C   UNL     1     -10.058   5.976   5.064  1.00  0.00     0.000 C 
BRANCH  16  17
ATOM     17  C   UNL     1     -10.107   7.499   5.270  1.00  0.00     0.000 C 
BRANCH  17  18
ATOM     18  C   UNL     1      -8.866   8.107   5.955  1.00  0.00     0.000 C 
BRANCH  18  19
ATOM     19  C   UNL     1      -8.149   9.180   5.109  1.00  0.00     0.000 C 
BRANCH  19  20
ATOM     20  C   UNL     1      -8.247  10.580   5.740  1.00  0.00     0.006 C 
BRANCH  20  21
ATOM     21  C   UNL     1      -9.644  11.192   5.577  1.00  0.00     0.053 C 
BRANCH  21  22
ATOM     22  C   UNL     1     -10.309  11.414   6.900  1.00  0.00     0.041 C 
ATOM     23  O   UNL     1      -9.651  11.873   7.871  1.00  0.00    -0.550 OA
ATOM     24  O   UNL     1     -11.664  11.143   7.055  1.00  0.00    -0.550 OA
ENDBRANCH  21  22
ENDBRANCH  20  21
ENDBRANCH  19  20
ENDBRANCH  18  19
ENDBRANCH  17  18
ENDBRANCH  16  17
ENDBRANCH  15  16
ENDBRANCH  14  15
ENDBRANCH  13  14
ENDBRANCH   1  13
TORSDOF 20
ENDMDL
MODEL 8
REMARK VINA RESULT:    -4.625      1.519      3.854
REMARK INTER + INTRA:         -12.662
REMARK INTER:                  -9.611
REMARK INTRA:                  -3.052
REMARK UNBOUND:                -2.629
REMARK SMILES CCCCCCCCCCCCCCCCCCCCCC(=O)[O-]
REMARK SMILES IDX 12 1 11 2 10 3 9 4 8 5 7 6 6 7 5 8 4 9 3 10 2 11 1 12 13 13
REMARK SMILES IDX 14 14 15 15 16 16 17 17 18 18 19 19 20 20 21 21 22 22 23 23
REMARK SMILES IDX 24 24
REMARK H PARENT
REMARK Flexibility Score: inf
ROOT
ATOM      1  C   UNL     1      -9.711   5.732   6.389  1.00  0.00     0.000 C 
ENDROOT
BRANCH   1   2
ATOM      2  C   UNL     1      -9.729   6.329   4.973  1.00  0.00     0.000 C 
BRANCH   2   3
ATOM      3  C   UNL     1      -9.783   7.866   4.980  1.00  0.00     0.000 C 
BRANCH   3   4
ATOM      4  C   UNL     1      -8.715   8.490   5.893  1.00  0.00    -0.000 C 
BRANCH   4   5
ATOM      5  C   UNL     1      -7.840   9.521   5.157  1.00  0.00    -0.000 C 
BRANCH   5   6
ATOM      6  C   UNL     1      -7.166  10.513   6.118  1.00  0.00    -0.000 C 
BRANCH   6   7
ATOM      7  C   UNL     1      -7.884  10.598   7.477  1.00  0.00    -0.000 C 
BRANCH   7   8
ATOM      8  C   UNL     1      -8.452  12.000   7.766  1.00  0.00    -0.000 C 
BRANCH   8   9
ATOM      9  C   UNL     1      -9.584  12.445   6.823  1.00  0.00    -0.000 C 
BRANCH   9  10
ATOM     10  C   UNL     1     -10.756  11.454   6.783  1.00  0.00    -0.000 C 
BRANCH  10  11
ATOM     11  C   UNL     1     -11.611  11.665   5.529  1.00  0.00    -0.003 C 
ATOM     12  C   UNL     1     -10.742  11.974   4.313  1.00  0.00     0.004 C 
ENDBRANCH  10  11
ENDBRANCH   9  10
ENDBRANCH   8   9
ENDBRANCH   7   8
ENDBRANCH   6   7
ENDBRANCH   5   6
ENDBRANCH   4   5
ENDBRANCH   3   4
ENDBRANCH   2   3
ENDBRANCH   1   2
BRANCH   1  13
ATOM     13  C   UNL     1     -10.783   4.646   6.584  1.00  0.00     0.000 C 
BRANCH  13  14
ATOM     14  C   UNL     1     -12.187   5.230   6.825  1.00  0.00     0.000 C 
BRANCH  14  15
ATOM     15  C   UNL     1     -13.207   4.945   5.709  1.00  0.00     0.000 C 
BRANCH  15  16
ATOM     16  C   UNL     1     -13.977   6.204   5.271  1.00  0.00     0.000 C 
BRANCH  16  17
ATOM     17  C   UNL     1     -13.357   7.501   5.815  1.00  0.00     0.000 C 
BRANCH  17  18
ATOM     18  C   UNL     1     -13.812   8.793   5.105  1.00  0.00     0.000 C 
BRANCH  18  19
ATOM     19  C   UNL     1     -15.038   8.602   4.187  1.00  0.00     0.000 C 
BRANCH  19  20
ATOM     20  C   UNL     1     -15.272   9.813   3.267  1.00  0.00     0.006 C 
BRANCH  20  21
ATOM     21  C   UNL     1     -14.516   9.685   1.939  1.00  0.00     0.053 C 
BRANCH  21  22
ATOM     22  C   UNL     1     -13.490  10.764   1.778  1.00  0.00     0.041 C 
ATOM     23  O   UNL     1     -13.677  11.898   2.295  1.00  0.00    -0.550 OA
ATOM     24  O   UNL     1     -12.313  10.511   1.083  1.00  0.00    -0.550 OA
ENDBRANCH  21  22
ENDBRANCH  20  21
ENDBRANCH  19  20
ENDBRANCH  18  19
ENDBRANCH  17  18
ENDBRANCH  16  17
ENDBRANCH  15  16
ENDBRANCH  14  15
ENDBRANCH  13  14
ENDBRANCH   1  13
TORSDOF 20
ENDMDL
MODEL 9
REMARK VINA RESULT:    -4.534      1.623      2.529
REMARK INTER + INTRA:         -12.464
REMARK INTER:                  -9.914
REMARK INTRA:                  -2.551
REMARK UNBOUND:                -2.629
REMARK SMILES CCCCCCCCCCCCCCCCCCCCCC(=O)[O-]
REMARK SMILES IDX 12 1 11 2 10 3 9 4 8 5 7 6 6 7 5 8 4 9 3 10 2 11 1 12 13 13
REMARK SMILES IDX 14 14 15 15 16 16 17 17 18 18 19 19 20 20 21 21 22 22 23 23
REMARK SMILES IDX 24 24
REMARK H PARENT
REMARK Flexibility Score: inf
ROOT
ATOM      1  C   UNL     1     -13.492   4.853   4.363  1.00  0.00     0.000 C 
ENDROOT
BRANCH   1   2
ATOM      2  C   UNL     1     -13.139   3.510   5.022  1.00  0.00     0.000 C 
BRANCH   2   3
ATOM      3  C   UNL     1     -13.124   3.592   6.558  1.00  0.00     0.000 C 
BRANCH   3   4
ATOM      4  C   UNL     1     -11.803   3.092   7.163  1.00  0.00    -0.000 C 
BRANCH   4   5
ATOM      5  C   UNL     1     -11.165   4.120   8.116  1.00  0.00    -0.000 C 
BRANCH   5   6
ATOM      6  C   UNL     1     -10.585   5.331   7.369  1.00  0.00    -0.000 C 
BRANCH   6   7
ATOM      7  C   UNL     1      -9.915   4.940   6.040  1.00  0.00    -0.000 C 
BRANCH   7   8
ATOM      8  C   UNL     1      -9.812   6.117   5.053  1.00  0.00    -0.000 C 
BRANCH   8   9
ATOM      9  C   UNL     1      -9.506   7.479   5.701  1.00  0.00    -0.000 C 
BRANCH   9  10
ATOM     10  C   UNL     1      -9.412   8.622   4.680  1.00  0.00    -0.000 C 
BRANCH  10  11
ATOM     11  C   UNL     1      -8.583   9.786   5.233  1.00  0.00    -0.003 C 
ATOM     12  C   UNL     1      -7.307   9.285   5.905  1.00  0.00     0.004 C 
ENDBRANCH  10  11
ENDBRANCH   9  10
ENDBRANCH   8   9
ENDBRANCH   7   8
ENDBRANCH   6   7
ENDBRANCH   5   6
ENDBRANCH   4   5
ENDBRANCH   3   4
ENDBRANCH   2   3
ENDBRANCH   1   2
BRANCH   1  13
ATOM     13  C   UNL     1     -13.666   5.986   5.390  1.00  0.00     0.000 C 
BRANCH  13  14
ATOM     14  C   UNL     1     -14.960   6.791   5.176  1.00  0.00     0.000 C 
BRANCH  14  15
ATOM     15  C   UNL     1     -14.749   8.257   4.756  1.00  0.00     0.000 C 
BRANCH  15  16
ATOM     16  C   UNL     1     -16.016   8.892   4.156  1.00  0.00     0.000 C 
BRANCH  16  17
ATOM     17  C   UNL     1     -15.710   9.838   2.983  1.00  0.00     0.000 C 
BRANCH  17  18
ATOM     18  C   UNL     1     -14.574   9.376   2.048  1.00  0.00     0.000 C 
BRANCH  18  19
ATOM     19  C   UNL     1     -13.784  10.536   1.405  1.00  0.00     0.000 C 
BRANCH  19  20
ATOM     20  C   UNL     1     -13.334  11.580   2.443  1.00  0.00     0.006 C 
BRANCH  20  21
ATOM     21  C   UNL     1     -12.266  11.026   3.394  1.00  0.00     0.053 C 
BRANCH  21  22
ATOM     22  C   UNL     1     -12.523  11.433   4.813  1.00  0.00     0.041 C 
ATOM     23  O   UNL     1     -13.701  11.636   5.211  1.00  0.00    -0.550 OA
ATOM     24  O   UNL     1     -11.465  11.559   5.706  1.00  0.00    -0.550 OA
ENDBRANCH  21  22
ENDBRANCH  20  21
ENDBRANCH  19  20
ENDBRANCH  18  19
ENDBRANCH  17  18
ENDBRANCH  16  17
ENDBRANCH  15  16
ENDBRANCH  14  15
ENDBRANCH  13  14
ENDBRANCH   1  13
TORSDOF 20
ENDMDL
