MODEL 1
REMARK VINA RESULT:    -6.356      0.000      0.000
REMARK INTER + INTRA:          -6.914
REMARK INTER:                  -6.914
REMARK INTRA:                   0.000
REMARK UNBOUND:                 0.000
REMARK SMILES Cc1cc(O)c2c(c1)C(=O)c1cc(O)cc(O)c1C2=O
REMARK SMILES IDX 1 1 2 2 8 3 7 4 6 5 4 6 3 7 19 8 20 9 18 10 11 11 9 12 10 13
REMARK SMILES IDX 12 14 13 15 15 16 16 17 5 18 17 20 14 22
REMARK H PARENT 5 19 17 21 14 23
REMARK Flexibility Score: inf
ROOT
ATOM      1  C   UNL     1      11.448  53.869  34.997  1.00  0.00     0.044 C 
ATOM      2  C   UNL     1      12.573  54.549  34.275  1.00  0.00    -0.047 A 
ATOM      3  C   UNL     1      12.470  55.900  33.924  1.00  0.00     0.016 A 
ATOM      4  C   UNL     1      13.504  56.539  33.219  1.00  0.00     0.038 A 
ATOM      5  C   UNL     1      14.652  55.809  32.841  1.00  0.00     0.076 A 
ATOM      6  C   UNL     1      14.746  54.442  33.187  1.00  0.00     0.127 A 
ATOM      7  C   UNL     1      13.706  53.823  33.893  1.00  0.00     0.050 A 
ATOM      8  C   UNL     1      15.718  56.490  32.061  1.00  0.00     0.201 C 
ATOM      9  O   UNL     1      16.552  55.800  31.418  1.00  0.00    -0.288 OA
ATOM     10  C   UNL     1      15.731  57.975  31.948  1.00  0.00     0.076 A 
ATOM     11  C   UNL     1      14.550  58.685  32.271  1.00  0.00     0.041 A 
ATOM     12  C   UNL     1      13.393  57.973  32.865  1.00  0.00     0.194 C 
ATOM     13  O   UNL     1      12.317  58.594  33.086  1.00  0.00    -0.289 OA
ATOM     14  C   UNL     1      14.478  60.069  32.037  1.00  0.00     0.059 A 
ATOM     15  C   UNL     1      15.570  60.756  31.503  1.00  0.00     0.120 A 
ATOM     16  C   UNL     1      16.752  60.072  31.228  1.00  0.00     0.093 A 
ATOM     17  C   UNL     1      16.860  58.700  31.476  1.00  0.00     0.131 A 
ENDROOT
BRANCH   6  18
ATOM     18  O   UNL     1      15.873  53.696  32.840  1.00  0.00    -0.507 OA
ATOM     19  H   UNL     1      16.246  53.701  31.898  1.00  0.00     0.293 HD
ENDBRANCH   6  18
BRANCH  17  20
ATOM     20  O   UNL     1      18.111  58.112  31.274  1.00  0.00    -0.507 OA
ATOM     21  H   UNL     1      18.804  58.001  32.001  1.00  0.00     0.293 HD
ENDBRANCH  17  20
BRANCH  15  22
ATOM     22  O   UNL     1      15.496  62.125  31.255  1.00  0.00    -0.508 OA
ATOM     23  H   UNL     1      14.853  62.722  31.762  1.00  0.00     0.293 HD
ENDBRANCH  15  22
TORSDOF 3
ENDMDL
MODEL 2
REMARK VINA RESULT:    -5.700      9.472     11.386
REMARK INTER + INTRA:          -6.200
REMARK INTER:                  -6.200
REMARK INTRA:                   0.000
REMARK UNBOUND:                 0.000
REMARK SMILES Cc1cc(O)c2c(c1)C(=O)c1cc(O)cc(O)c1C2=O
REMARK SMILES IDX 1 1 2 2 8 3 7 4 6 5 4 6 3 7 19 8 20 9 18 10 11 11 9 12 10 13
REMARK SMILES IDX 12 14 13 15 15 16 16 17 5 18 17 20 14 22
REMARK H PARENT 5 19 17 21 14 23
REMARK Flexibility Score: inf
ROOT
ATOM      1  C   UNL     1      11.685  45.373  35.193  1.00  0.00     0.044 C 
ATOM      2  C   UNL     1      12.601  45.239  34.012  1.00  0.00    -0.047 A 
ATOM      3  C   UNL     1      13.040  46.380  33.329  1.00  0.00     0.016 A 
ATOM      4  C   UNL     1      13.872  46.264  32.201  1.00  0.00     0.038 A 
ATOM      5  C   UNL     1      14.251  44.986  31.737  1.00  0.00     0.076 A 
ATOM      6  C   UNL     1      13.795  43.838  32.422  1.00  0.00     0.127 A 
ATOM      7  C   UNL     1      12.970  43.973  33.546  1.00  0.00     0.050 A 
ATOM      8  C   UNL     1      15.098  44.882  30.519  1.00  0.00     0.201 C 
ATOM      9  O   UNL     1      15.148  43.791  29.892  1.00  0.00    -0.288 OA
ATOM     10  C   UNL     1      15.789  46.086  29.982  1.00  0.00     0.076 A 
ATOM     11  C   UNL     1      15.351  47.361  30.412  1.00  0.00     0.041 A 
ATOM     12  C   UNL     1      14.345  47.476  31.494  1.00  0.00     0.194 C 
ATOM     13  O   UNL     1      13.904  48.611  31.827  1.00  0.00    -0.289 OA
ATOM     14  C   UNL     1      15.878  48.521  29.817  1.00  0.00     0.059 A 
ATOM     15  C   UNL     1      16.846  48.427  28.815  1.00  0.00     0.120 A 
ATOM     16  C   UNL     1      17.316  47.177  28.421  1.00  0.00     0.093 A 
ATOM     17  C   UNL     1      16.828  46.008  29.015  1.00  0.00     0.131 A 
ENDROOT
BRANCH   6  18
ATOM     18  O   UNL     1      14.164  42.562  31.996  1.00  0.00    -0.507 OA
ATOM     19  H   UNL     1      14.678  41.927  32.595  1.00  0.00     0.293 HD
ENDBRANCH   6  18
BRANCH  17  20
ATOM     20  O   UNL     1      17.429  44.804  28.639  1.00  0.00    -0.507 OA
ATOM     21  H   UNL     1      17.876  44.654  27.745  1.00  0.00     0.293 HD
ENDBRANCH  17  20
BRANCH  15  22
ATOM     22  O   UNL     1      17.358  49.574  28.212  1.00  0.00    -0.508 OA
ATOM     23  H   UNL     1      17.470  49.640  27.207  1.00  0.00     0.293 HD
ENDBRANCH  15  22
TORSDOF 3
ENDMDL
MODEL 3
REMARK VINA RESULT:    -5.593      2.811      6.255
REMARK INTER + INTRA:          -6.083
REMARK INTER:                  -6.083
REMARK INTRA:                   0.000
REMARK UNBOUND:                 0.000
REMARK SMILES Cc1cc(O)c2c(c1)C(=O)c1cc(O)cc(O)c1C2=O
REMARK SMILES IDX 1 1 2 2 8 3 7 4 6 5 4 6 3 7 19 8 20 9 18 10 11 11 9 12 10 13
REMARK SMILES IDX 12 14 13 15 15 16 16 17 5 18 17 20 14 22
REMARK H PARENT 5 19 17 21 14 23
REMARK Flexibility Score: inf
ROOT
ATOM      1  C   UNL     1      11.740  60.215  32.558  1.00  0.00     0.044 C 
ATOM      2  C   UNL     1      11.854  58.851  33.171  1.00  0.00    -0.047 A 
ATOM      3  C   UNL     1      12.880  57.985  32.776  1.00  0.00     0.016 A 
ATOM      4  C   UNL     1      12.977  56.692  33.320  1.00  0.00     0.038 A 
ATOM      5  C   UNL     1      12.019  56.252  34.258  1.00  0.00     0.076 A 
ATOM      6  C   UNL     1      10.977  57.125  34.645  1.00  0.00     0.127 A 
ATOM      7  C   UNL     1      10.900  58.411  34.095  1.00  0.00     0.050 A 
ATOM      8  C   UNL     1      12.114  54.868  34.793  1.00  0.00     0.201 C 
ATOM      9  O   UNL     1      11.104  54.342  35.331  1.00  0.00    -0.288 OA
ATOM     10  C   UNL     1      13.354  54.070  34.592  1.00  0.00     0.076 A 
ATOM     11  C   UNL     1      14.273  54.493  33.601  1.00  0.00     0.041 A 
ATOM     12  C   UNL     1      14.075  55.788  32.907  1.00  0.00     0.194 C 
ATOM     13  O   UNL     1      14.855  56.129  31.976  1.00  0.00    -0.289 OA
ATOM     14  C   UNL     1      15.379  53.687  33.282  1.00  0.00     0.059 A 
ATOM     15  C   UNL     1      15.592  52.477  33.946  1.00  0.00     0.120 A 
ATOM     16  C   UNL     1      14.718  52.079  34.955  1.00  0.00     0.093 A 
ATOM     17  C   UNL     1      13.624  52.874  35.312  1.00  0.00     0.131 A 
ENDROOT
BRANCH   6  18
ATOM     18  O   UNL     1      10.024  56.725  35.581  1.00  0.00    -0.507 OA
ATOM     19  H   UNL     1       9.096  56.425  35.302  1.00  0.00     0.293 HD
ENDBRANCH   6  18
BRANCH  17  20
ATOM     20  O   UNL     1      12.861  52.455  36.404  1.00  0.00    -0.507 OA
ATOM     21  H   UNL     1      12.311  51.608  36.413  1.00  0.00     0.293 HD
ENDBRANCH  17  20
BRANCH  15  22
ATOM     22  O   UNL     1      16.678  51.669  33.620  1.00  0.00    -0.508 OA
ATOM     23  H   UNL     1      17.401  51.453  34.297  1.00  0.00     0.293 HD
ENDBRANCH  15  22
TORSDOF 3
ENDMDL
MODEL 4
REMARK VINA RESULT:    -5.424      1.923      6.102
REMARK INTER + INTRA:          -5.900
REMARK INTER:                  -5.900
REMARK INTRA:                   0.000
REMARK UNBOUND:                 0.000
REMARK SMILES Cc1cc(O)c2c(c1)C(=O)c1cc(O)cc(O)c1C2=O
REMARK SMILES IDX 1 1 2 2 8 3 7 4 6 5 4 6 3 7 19 8 20 9 18 10 11 11 9 12 10 13
REMARK SMILES IDX 12 14 13 15 15 16 16 17 5 18 17 20 14 22
REMARK H PARENT 5 19 17 21 14 23
REMARK Flexibility Score: inf
ROOT
ATOM      1  C   UNL     1      14.038  61.354  31.895  1.00  0.00     0.044 C 
ATOM      2  C   UNL     1      13.666  59.991  32.397  1.00  0.00    -0.047 A 
ATOM      3  C   UNL     1      14.562  58.923  32.265  1.00  0.00     0.016 A 
ATOM      4  C   UNL     1      14.210  57.634  32.702  1.00  0.00     0.038 A 
ATOM      5  C   UNL     1      12.934  57.406  33.261  1.00  0.00     0.076 A 
ATOM      6  C   UNL     1      12.028  58.484  33.380  1.00  0.00     0.127 A 
ATOM      7  C   UNL     1      12.398  59.762  32.942  1.00  0.00     0.050 A 
ATOM      8  C   UNL     1      12.564  56.028  33.681  1.00  0.00     0.201 C 
ATOM      9  O   UNL     1      11.350  55.733  33.837  1.00  0.00    -0.288 OA
ATOM     10  C   UNL     1      13.611  54.977  33.804  1.00  0.00     0.076 A 
ATOM     11  C   UNL     1      14.863  55.198  33.183  1.00  0.00     0.041 A 
ATOM     12  C   UNL     1      15.170  56.513  32.573  1.00  0.00     0.194 C 
ATOM     13  O   UNL     1      16.258  56.685  31.958  1.00  0.00    -0.289 OA
ATOM     14  C   UNL     1      15.822  54.169  33.153  1.00  0.00     0.059 A 
ATOM     15  C   UNL     1      15.556  52.934  33.747  1.00  0.00     0.120 A 
ATOM     16  C   UNL     1      14.344  52.727  34.402  1.00  0.00     0.093 A 
ATOM     17  C   UNL     1      13.384  53.741  34.470  1.00  0.00     0.131 A 
ENDROOT
BRANCH   6  18
ATOM     18  O   UNL     1      10.765  58.293  33.940  1.00  0.00    -0.507 OA
ATOM     19  H   UNL     1      10.596  57.590  34.649  1.00  0.00     0.293 HD
ENDBRANCH   6  18
BRANCH  17  20
ATOM     20  O   UNL     1      12.243  53.487  35.236  1.00  0.00    -0.507 OA
ATOM     21  H   UNL     1      12.110  52.650  35.785  1.00  0.00     0.293 HD
ENDBRANCH  17  20
BRANCH  15  22
ATOM     22  O   UNL     1      16.497  51.908  33.704  1.00  0.00    -0.508 OA
ATOM     23  H   UNL     1      16.683  51.394  32.850  1.00  0.00     0.293 HD
ENDBRANCH  15  22
TORSDOF 3
ENDMDL
MODEL 5
REMARK VINA RESULT:    -5.411      2.073      5.644
REMARK INTER + INTRA:          -5.885
REMARK INTER:                  -5.885
REMARK INTRA:                   0.000
REMARK UNBOUND:                 0.000
REMARK SMILES Cc1cc(O)c2c(c1)C(=O)c1cc(O)cc(O)c1C2=O
REMARK SMILES IDX 1 1 2 2 8 3 7 4 6 5 4 6 3 7 19 8 20 9 18 10 11 11 9 12 10 13
REMARK SMILES IDX 12 14 13 15 15 16 16 17 5 18 17 20 14 22
REMARK H PARENT 5 19 17 21 14 23
REMARK Flexibility Score: inf
ROOT
ATOM      1  C   UNL     1      11.100  60.330  30.934  1.00  0.00     0.044 C 
ATOM      2  C   UNL     1      11.972  59.211  31.422  1.00  0.00    -0.047 A 
ATOM      3  C   UNL     1      11.535  58.378  32.459  1.00  0.00     0.016 A 
ATOM      4  C   UNL     1      12.357  57.347  32.946  1.00  0.00     0.038 A 
ATOM      5  C   UNL     1      13.645  57.160  32.401  1.00  0.00     0.076 A 
ATOM      6  C   UNL     1      14.087  58.011  31.362  1.00  0.00     0.127 A 
ATOM      7  C   UNL     1      13.252  59.031  30.888  1.00  0.00     0.050 A 
ATOM      8  C   UNL     1      14.517  56.090  32.955  1.00  0.00     0.201 C 
ATOM      9  O   UNL     1      15.758  56.134  32.749  1.00  0.00    -0.288 OA
ATOM     10  C   UNL     1      13.943  55.041  33.842  1.00  0.00     0.076 A 
ATOM     11  C   UNL     1      12.677  55.276  34.430  1.00  0.00     0.041 A 
ATOM     12  C   UNL     1      11.880  56.462  34.033  1.00  0.00     0.194 C 
ATOM     13  O   UNL     1      10.784  56.707  34.609  1.00  0.00    -0.289 OA
ATOM     14  C   UNL     1      12.170  54.377  35.385  1.00  0.00     0.059 A 
ATOM     15  C   UNL     1      12.898  53.243  35.748  1.00  0.00     0.120 A 
ATOM     16  C   UNL     1      14.123  52.981  35.138  1.00  0.00     0.093 A 
ATOM     17  C   UNL     1      14.638  53.844  34.165  1.00  0.00     0.131 A 
ENDROOT
BRANCH   6  18
ATOM     18  O   UNL     1      15.350  57.843  30.794  1.00  0.00    -0.507 OA
ATOM     19  H   UNL     1      16.197  58.083  31.295  1.00  0.00     0.293 HD
ENDBRANCH   6  18
BRANCH  17  20
ATOM     20  O   UNL     1      15.817  53.453  33.527  1.00  0.00    -0.507 OA
ATOM     21  H   UNL     1      16.731  53.810  33.768  1.00  0.00     0.293 HD
ENDBRANCH  17  20
BRANCH  15  22
ATOM     22  O   UNL     1      12.406  52.360  36.707  1.00  0.00    -0.508 OA
ATOM     23  H   UNL     1      12.512  52.541  37.698  1.00  0.00     0.293 HD
ENDBRANCH  15  22
TORSDOF 3
ENDMDL
MODEL 6
REMARK VINA RESULT:    -5.321      1.391      3.651
REMARK INTER + INTRA:          -5.787
REMARK INTER:                  -5.787
REMARK INTRA:                   0.000
REMARK UNBOUND:                 0.000
REMARK SMILES Cc1cc(O)c2c(c1)C(=O)c1cc(O)cc(O)c1C2=O
REMARK SMILES IDX 1 1 2 2 8 3 7 4 6 5 4 6 3 7 19 8 20 9 18 10 11 11 9 12 10 13
REMARK SMILES IDX 12 14 13 15 15 16 16 17 5 18 17 20 14 22
REMARK H PARENT 5 19 17 21 14 23
REMARK Flexibility Score: inf
ROOT
ATOM      1  C   UNL     1       9.976  53.913  34.211  1.00  0.00     0.044 C 
ATOM      2  C   UNL     1      10.744  55.141  33.819  1.00  0.00    -0.047 A 
ATOM      3  C   UNL     1      12.134  55.081  33.663  1.00  0.00     0.016 A 
ATOM      4  C   UNL     1      12.868  56.232  33.327  1.00  0.00     0.038 A 
ATOM      5  C   UNL     1      12.203  57.467  33.168  1.00  0.00     0.076 A 
ATOM      6  C   UNL     1      10.801  57.525  33.339  1.00  0.00     0.127 A 
ATOM      7  C   UNL     1      10.087  56.366  33.670  1.00  0.00     0.050 A 
ATOM      8  C   UNL     1      12.999  58.682  32.853  1.00  0.00     0.201 C 
ATOM      9  O   UNL     1      12.500  59.820  33.058  1.00  0.00    -0.288 OA
ATOM     10  C   UNL     1      14.415  58.556  32.408  1.00  0.00     0.076 A 
ATOM     11  C   UNL     1      15.084  57.329  32.635  1.00  0.00     0.041 A 
ATOM     12  C   UNL     1      14.336  56.157  33.149  1.00  0.00     0.194 C 
ATOM     13  O   UNL     1      14.949  55.087  33.417  1.00  0.00    -0.289 OA
ATOM     14  C   UNL     1      16.459  57.221  32.363  1.00  0.00     0.059 A 
ATOM     15  C   UNL     1      17.170  58.309  31.854  1.00  0.00     0.120 A 
ATOM     16  C   UNL     1      16.507  59.504  31.583  1.00  0.00     0.093 A 
ATOM     17  C   UNL     1      15.134  59.631  31.819  1.00  0.00     0.131 A 
ENDROOT
BRANCH   6  18
ATOM     18  O   UNL     1      10.113  58.727  33.175  1.00  0.00    -0.507 OA
ATOM     19  H   UNL     1      10.067  59.197  32.278  1.00  0.00     0.293 HD
ENDBRANCH   6  18
BRANCH  17  20
ATOM     20  O   UNL     1      14.527  60.825  31.420  1.00  0.00    -0.507 OA
ATOM     21  H   UNL     1      14.990  61.723  31.434  1.00  0.00     0.293 HD
ENDBRANCH  17  20
BRANCH  15  22
ATOM     22  O   UNL     1      18.536  58.210  31.600  1.00  0.00    -0.508 OA
ATOM     23  H   UNL     1      19.183  57.874  32.303  1.00  0.00     0.293 HD
ENDBRANCH  15  22
TORSDOF 3
ENDMDL
MODEL 7
REMARK VINA RESULT:    -5.260      2.432      3.127
REMARK INTER + INTRA:          -5.721
REMARK INTER:                  -5.721
REMARK INTRA:                   0.000
REMARK UNBOUND:                 0.000
REMARK SMILES Cc1cc(O)c2c(c1)C(=O)c1cc(O)cc(O)c1C2=O
REMARK SMILES IDX 1 1 2 2 8 3 7 4 6 5 4 6 3 7 19 8 20 9 18 10 11 11 9 12 10 13
REMARK SMILES IDX 12 14 13 15 15 16 16 17 5 18 17 20 14 22
REMARK H PARENT 5 19 17 21 14 23
REMARK Flexibility Score: inf
ROOT
ATOM      1  C   UNL     1      14.749  50.922  32.370  1.00  0.00     0.044 C 
ATOM      2  C   UNL     1      14.858  52.297  31.780  1.00  0.00    -0.047 A 
ATOM      3  C   UNL     1      15.065  53.405  32.610  1.00  0.00     0.016 A 
ATOM      4  C   UNL     1      15.136  54.701  32.072  1.00  0.00     0.038 A 
ATOM      5  C   UNL     1      14.976  54.894  30.682  1.00  0.00     0.076 A 
ATOM      6  C   UNL     1      14.755  53.774  29.850  1.00  0.00     0.127 A 
ATOM      7  C   UNL     1      14.691  52.489  30.405  1.00  0.00     0.050 A 
ATOM      8  C   UNL     1      15.014  56.276  30.135  1.00  0.00     0.201 C 
ATOM      9  O   UNL     1      14.527  56.504  28.996  1.00  0.00    -0.288 OA
ATOM     10  C   UNL     1      15.517  57.400  30.972  1.00  0.00     0.076 A 
ATOM     11  C   UNL     1      15.610  57.207  32.371  1.00  0.00     0.041 A 
ATOM     12  C   UNL     1      15.370  55.866  32.955  1.00  0.00     0.194 C 
ATOM     13  O   UNL     1      15.384  55.713  34.208  1.00  0.00    -0.289 OA
ATOM     14  C   UNL     1      15.940  58.289  33.206  1.00  0.00     0.059 A 
ATOM     15  C   UNL     1      16.194  59.551  32.667  1.00  0.00     0.120 A 
ATOM     16  C   UNL     1      16.152  59.735  31.286  1.00  0.00     0.093 A 
ATOM     17  C   UNL     1      15.852  58.671  30.430  1.00  0.00     0.131 A 
ENDROOT
BRANCH   6  18
ATOM     18  O   UNL     1      14.606  53.930  28.472  1.00  0.00    -0.507 OA
ATOM     19  H   UNL     1      14.610  53.136  27.841  1.00  0.00     0.293 HD
ENDBRANCH   6  18
BRANCH  17  20
ATOM     20  O   UNL     1      15.936  58.915  29.057  1.00  0.00    -0.507 OA
ATOM     21  H   UNL     1      15.313  58.505  28.375  1.00  0.00     0.293 HD
ENDBRANCH  17  20
BRANCH  15  22
ATOM     22  O   UNL     1      16.505  60.628  33.493  1.00  0.00    -0.508 OA
ATOM     23  H   UNL     1      16.526  61.578  33.141  1.00  0.00     0.293 HD
ENDBRANCH  15  22
TORSDOF 3
ENDMDL
MODEL 8
REMARK VINA RESULT:    -5.216      2.040      4.083
REMARK INTER + INTRA:          -5.673
REMARK INTER:                  -5.673
REMARK INTRA:                   0.000
REMARK UNBOUND:                 0.000
REMARK SMILES Cc1cc(O)c2c(c1)C(=O)c1cc(O)cc(O)c1C2=O
REMARK SMILES IDX 1 1 2 2 8 3 7 4 6 5 4 6 3 7 19 8 20 9 18 10 11 11 9 12 10 13
REMARK SMILES IDX 12 14 13 15 15 16 16 17 5 18 17 20 14 22
REMARK H PARENT 5 19 17 21 14 23
REMARK Flexibility Score: inf
ROOT
ATOM      1  C   UNL     1      16.272  51.858  33.800  1.00  0.00     0.044 C 
ATOM      2  C   UNL     1      15.222  52.926  33.889  1.00  0.00    -0.047 A 
ATOM      3  C   UNL     1      15.453  54.188  33.330  1.00  0.00     0.016 A 
ATOM      4  C   UNL     1      14.490  55.206  33.436  1.00  0.00     0.038 A 
ATOM      5  C   UNL     1      13.286  54.964  34.132  1.00  0.00     0.076 A 
ATOM      6  C   UNL     1      13.063  53.692  34.706  1.00  0.00     0.127 A 
ATOM      7  C   UNL     1      14.033  52.689  34.587  1.00  0.00     0.050 A 
ATOM      8  C   UNL     1      12.295  56.064  34.269  1.00  0.00     0.201 C 
ATOM      9  O   UNL     1      11.411  55.993  35.163  1.00  0.00    -0.288 OA
ATOM     10  C   UNL     1      12.419  57.291  33.435  1.00  0.00     0.076 A 
ATOM     11  C   UNL     1      13.655  57.549  32.796  1.00  0.00     0.041 A 
ATOM     12  C   UNL     1      14.735  56.534  32.828  1.00  0.00     0.194 C 
ATOM     13  O   UNL     1      15.860  56.795  32.319  1.00  0.00    -0.289 OA
ATOM     14  C   UNL     1      13.856  58.767  32.123  1.00  0.00     0.059 A 
ATOM     15  C   UNL     1      12.838  59.720  32.063  1.00  0.00     0.120 A 
ATOM     16  C   UNL     1      11.602  59.453  32.648  1.00  0.00     0.093 A 
ATOM     17  C   UNL     1      11.367  58.238  33.301  1.00  0.00     0.131 A 
ENDROOT
BRANCH   6  18
ATOM     18  O   UNL     1      11.877  53.417  35.388  1.00  0.00    -0.507 OA
ATOM     19  H   UNL     1      11.121  52.900  34.956  1.00  0.00     0.293 HD
ENDBRANCH   6  18
BRANCH  17  20
ATOM     20  O   UNL     1      10.070  58.006  33.766  1.00  0.00    -0.507 OA
ATOM     21  H   UNL     1       9.285  57.805  33.163  1.00  0.00     0.293 HD
ENDBRANCH  17  20
BRANCH  15  22
ATOM     22  O   UNL     1      13.039  60.935  31.411  1.00  0.00    -0.508 OA
ATOM     23  H   UNL     1      13.538  61.698  31.853  1.00  0.00     0.293 HD
ENDBRANCH  15  22
TORSDOF 3
ENDMDL
MODEL 9
REMARK VINA RESULT:    -5.140      2.476      4.632
REMARK INTER + INTRA:          -5.591
REMARK INTER:                  -5.591
REMARK INTRA:                   0.000
REMARK UNBOUND:                 0.000
REMARK SMILES Cc1cc(O)c2c(c1)C(=O)c1cc(O)cc(O)c1C2=O
REMARK SMILES IDX 1 1 2 2 8 3 7 4 6 5 4 6 3 7 19 8 20 9 18 10 11 11 9 12 10 13
REMARK SMILES IDX 12 14 13 15 15 16 16 17 5 18 17 20 14 22
REMARK H PARENT 5 19 17 21 14 23
REMARK Flexibility Score: inf
ROOT
ATOM      1  C   UNL     1       9.978  62.125  35.139  1.00  0.00     0.044 C 
ATOM      2  C   UNL     1      10.711  60.938  34.588  1.00  0.00    -0.047 A 
ATOM      3  C   UNL     1      11.988  61.092  34.035  1.00  0.00     0.016 A 
ATOM      4  C   UNL     1      12.670  59.992  33.487  1.00  0.00     0.038 A 
ATOM      5  C   UNL     1      12.055  58.722  33.472  1.00  0.00     0.076 A 
ATOM      6  C   UNL     1      10.761  58.573  34.019  1.00  0.00     0.127 A 
ATOM      7  C   UNL     1      10.098  59.680  34.565  1.00  0.00     0.050 A 
ATOM      8  C   UNL     1      12.774  57.577  32.852  1.00  0.00     0.201 C 
ATOM      9  O   UNL     1      12.128  56.553  32.507  1.00  0.00    -0.288 OA
ATOM     10  C   UNL     1      14.225  57.688  32.536  1.00  0.00     0.076 A 
ATOM     11  C   UNL     1      14.809  58.976  32.493  1.00  0.00     0.041 A 
ATOM     12  C   UNL     1      14.026  60.162  32.918  1.00  0.00     0.194 C 
ATOM     13  O   UNL     1      14.525  61.317  32.813  1.00  0.00    -0.289 OA
ATOM     14  C   UNL     1      16.136  59.131  32.056  1.00  0.00     0.059 A 
ATOM     15  C   UNL     1      16.892  58.020  31.678  1.00  0.00     0.120 A 
ATOM     16  C   UNL     1      16.339  56.744  31.764  1.00  0.00     0.093 A 
ATOM     17  C   UNL     1      15.031  56.559  32.221  1.00  0.00     0.131 A 
ENDROOT
BRANCH   6  18
ATOM     18  O   UNL     1      10.132  57.327  34.032  1.00  0.00    -0.507 OA
ATOM     19  H   UNL     1      10.074  56.750  33.201  1.00  0.00     0.293 HD
ENDBRANCH   6  18
BRANCH  17  20
ATOM     20  O   UNL     1      14.591  55.242  32.378  1.00  0.00    -0.507 OA
ATOM     21  H   UNL     1      14.937  54.616  33.090  1.00  0.00     0.293 HD
ENDBRANCH  17  20
BRANCH  15  22
ATOM     22  O   UNL     1      18.202  58.171  31.229  1.00  0.00    -0.508 OA
ATOM     23  H   UNL     1      18.939  57.538  31.518  1.00  0.00     0.293 HD
ENDBRANCH  15  22
TORSDOF 3
ENDMDL
