MODEL 1
REMARK VINA RESULT:    -2.586      0.000      0.000
REMARK INTER + INTRA:          -2.586
REMARK INTER:                  -2.586
REMARK INTRA:                   0.000
REMARK UNBOUND:                 0.000
REMARK SMILES CC(=O)[O-]
REMARK SMILES IDX 1 1 2 2 3 3 4 4
REMARK H PARENT
REMARK Flexibility Score: inf
ROOT
ATOM      1  C   UNL     1      13.264  33.700  16.824  1.00  0.00     0.063 C 
ATOM      2  C   UNL     1      12.123  34.657  16.901  1.00  0.00     0.038 C 
ATOM      3  O   UNL     1      12.250  35.743  17.526  1.00  0.00    -0.550 OA
ATOM      4  O   UNL     1      10.935  34.378  16.240  1.00  0.00    -0.550 OA
ENDROOT
TORSDOF 0
ENDMDL
MODEL 2
REMARK VINA RESULT:    -2.555      1.437      1.775
REMARK INTER + INTRA:          -2.555
REMARK INTER:                  -2.555
REMARK INTRA:                   0.000
REMARK UNBOUND:                 0.000
REMARK SMILES CC(=O)[O-]
REMARK SMILES IDX 1 1 2 2 3 3 4 4
REMARK H PARENT
REMARK Flexibility Score: inf
ROOT
ATOM      1  C   UNL     1      10.957  34.360  16.210  1.00  0.00     0.063 C 
ATOM      2  C   UNL     1      12.296  34.589  16.824  1.00  0.00     0.038 C 
ATOM      3  O   UNL     1      12.555  35.687  17.385  1.00  0.00    -0.550 OA
ATOM      4  O   UNL     1      13.244  33.575  16.826  1.00  0.00    -0.550 OA
ENDROOT
TORSDOF 0
ENDMDL
MODEL 3
REMARK VINA RESULT:    -2.446     16.175     16.732
REMARK INTER + INTRA:          -2.446
REMARK INTER:                  -2.446
REMARK INTRA:                   0.000
REMARK UNBOUND:                 0.000
REMARK SMILES CC(=O)[O-]
REMARK SMILES IDX 1 1 2 2 3 3 4 4
REMARK H PARENT
REMARK Flexibility Score: inf
ROOT
ATOM      1  C   UNL     1      29.772  32.619  15.614  1.00  0.00     0.063 C 
ATOM      2  C   UNL     1      28.561  32.985  14.826  1.00  0.00     0.038 C 
ATOM      3  O   UNL     1      27.492  32.334  14.970  1.00  0.00    -0.550 OA
ATOM      4  O   UNL     1      28.591  34.077  13.970  1.00  0.00    -0.550 OA
ENDROOT
TORSDOF 0
ENDMDL
MODEL 4
REMARK VINA RESULT:    -2.353     16.232     16.816
REMARK INTER + INTRA:          -2.353
REMARK INTER:                  -2.353
REMARK INTRA:                   0.000
REMARK UNBOUND:                 0.000
REMARK SMILES CC(=O)[O-]
REMARK SMILES IDX 1 1 2 2 3 3 4 4
REMARK H PARENT
REMARK Flexibility Score: inf
ROOT
ATOM      1  C   UNL     1      28.605  34.054  13.948  1.00  0.00     0.063 C 
ATOM      2  C   UNL     1      28.593  32.951  14.952  1.00  0.00     0.038 C 
ATOM      3  O   UNL     1      27.583  32.207  15.062  1.00  0.00    -0.550 OA
ATOM      4  O   UNL     1      29.716  32.707  15.731  1.00  0.00    -0.550 OA
ENDROOT
TORSDOF 0
ENDMDL
MODEL 5
REMARK VINA RESULT:    -2.258      1.411      1.698
REMARK INTER + INTRA:          -2.258
REMARK INTER:                  -2.258
REMARK INTRA:                   0.000
REMARK UNBOUND:                 0.000
REMARK SMILES CC(=O)[O-]
REMARK SMILES IDX 1 1 2 2 3 3 4 4
REMARK H PARENT
REMARK Flexibility Score: inf
ROOT
ATOM      1  C   UNL     1      12.424  35.644  17.490  1.00  0.00     0.063 C 
ATOM      2  C   UNL     1      12.171  34.376  16.749  1.00  0.00     0.038 C 
ATOM      3  O   UNL     1      13.070  33.497  16.674  1.00  0.00    -0.550 OA
ATOM      4  O   UNL     1      10.926  34.137  16.184  1.00  0.00    -0.550 OA
ENDROOT
TORSDOF 0
ENDMDL
MODEL 6
REMARK VINA RESULT:    -1.897     20.468     20.549
REMARK INTER + INTRA:          -1.897
REMARK INTER:                  -1.897
REMARK INTRA:                   0.000
REMARK UNBOUND:                 0.000
REMARK SMILES CC(=O)[O-]
REMARK SMILES IDX 1 1 2 2 3 3 4 4
REMARK H PARENT
REMARK Flexibility Score: inf
ROOT
ATOM      1  C   UNL     1      26.682  20.623  17.173  1.00  0.00     0.063 C 
ATOM      2  C   UNL     1      27.139  20.687  15.755  1.00  0.00     0.038 C 
ATOM      3  O   UNL     1      28.125  21.406  15.441  1.00  0.00    -0.550 OA
ATOM      4  O   UNL     1      26.514  19.914  14.787  1.00  0.00    -0.550 OA
ENDROOT
TORSDOF 0
ENDMDL
MODEL 7
REMARK VINA RESULT:    -1.889     20.391     20.581
REMARK INTER + INTRA:          -1.889
REMARK INTER:                  -1.889
REMARK INTRA:                   0.000
REMARK UNBOUND:                 0.000
REMARK SMILES CC(=O)[O-]
REMARK SMILES IDX 1 1 2 2 3 3 4 4
REMARK H PARENT
REMARK Flexibility Score: inf
ROOT
ATOM      1  C   UNL     1      26.773  20.649  17.173  1.00  0.00     0.063 C 
ATOM      2  C   UNL     1      27.106  20.665  15.720  1.00  0.00     0.038 C 
ATOM      3  O   UNL     1      26.384  20.040  14.899  1.00  0.00    -0.550 OA
ATOM      4  O   UNL     1      28.182  21.412  15.261  1.00  0.00    -0.550 OA
ENDROOT
TORSDOF 0
ENDMDL
MODEL 8
REMARK VINA RESULT:    -1.699     21.015     21.223
REMARK INTER + INTRA:          -1.699
REMARK INTER:                  -1.699
REMARK INTRA:                   0.000
REMARK UNBOUND:                 0.000
REMARK SMILES CC(=O)[O-]
REMARK SMILES IDX 1 1 2 2 3 3 4 4
REMARK H PARENT
REMARK Flexibility Score: inf
ROOT
ATOM      1  C   UNL     1      30.005  23.448  11.682  1.00  0.00     0.063 C 
ATOM      2  C   UNL     1      29.013  22.708  12.513  1.00  0.00     0.038 C 
ATOM      3  O   UNL     1      28.075  22.073  11.962  1.00  0.00    -0.550 OA
ATOM      4  O   UNL     1      29.150  22.672  13.894  1.00  0.00    -0.550 OA
ENDROOT
TORSDOF 0
ENDMDL
MODEL 9
REMARK VINA RESULT:    -1.683     21.041     21.216
REMARK INTER + INTRA:          -1.683
REMARK INTER:                  -1.683
REMARK INTRA:                   0.000
REMARK UNBOUND:                 0.000
REMARK SMILES CC(=O)[O-]
REMARK SMILES IDX 1 1 2 2 3 3 4 4
REMARK H PARENT
REMARK Flexibility Score: inf
ROOT
ATOM      1  C   UNL     1      29.310  22.506  13.784  1.00  0.00     0.063 C 
ATOM      2  C   UNL     1      29.044  22.763  12.340  1.00  0.00     0.038 C 
ATOM      3  O   UNL     1      28.108  22.160  11.752  1.00  0.00    -0.550 OA
ATOM      4  O   UNL     1      29.794  23.707  11.652  1.00  0.00    -0.550 OA
ENDROOT
TORSDOF 0
ENDMDL
