MODEL 1
REMARK VINA RESULT:     0.976      0.000      0.000
REMARK INTER + INTRA:           1.779
REMARK INTER:                   1.718
REMARK INTRA:                   0.061
REMARK UNBOUND:                 0.061
REMARK SMILES CCCCCCCCCCCCCCC(=O)[O-]
REMARK SMILES IDX 9 1 10 2 11 3 12 4 13 5 14 6 15 7 16 8 17 9 8 10 7 11 6 12
REMARK SMILES IDX 5 13 4 14 3 15 2 16 1 17
REMARK H PARENT
REMARK Flexibility Score: inf
ROOT
ATOM      1  C   UNL     1       3.469 -51.448   8.017  1.00  0.00     0.000 C 
ENDROOT
BRANCH   1   2
ATOM      2  C   UNL     1       2.849 -50.067   7.744  1.00  0.00     0.000 C 
BRANCH   2   3
ATOM      3  C   UNL     1       1.711 -49.721   8.721  1.00  0.00     0.000 C 
BRANCH   3   4
ATOM      4  C   UNL     1       0.966 -50.957   9.267  1.00  0.00     0.000 C 
BRANCH   4   5
ATOM      5  C   UNL     1       0.520 -50.768  10.725  1.00  0.00     0.006 C 
BRANCH   5   6
ATOM      6  C   UNL     1      -0.925 -50.263  10.797  1.00  0.00     0.053 C 
BRANCH   6   7
ATOM      7  C   UNL     1      -1.026 -48.882  10.232  1.00  0.00     0.041 C 
ATOM      8  O   UNL     1      -1.125 -48.713   8.988  1.00  0.00    -0.550 OA
ATOM      9  O   UNL     1      -1.059 -47.783  11.081  1.00  0.00    -0.550 OA
ENDBRANCH   6   7
ENDBRANCH   5   6
ENDBRANCH   4   5
ENDBRANCH   3   4
ENDBRANCH   2   3
ENDBRANCH   1   2
BRANCH   1  10
ATOM     10  C   UNL     1       4.325 -51.468   9.293  1.00  0.00     0.000 C 
BRANCH  10  11
ATOM     11  C   UNL     1       3.963 -52.637  10.227  1.00  0.00    -0.000 C 
BRANCH  11  12
ATOM     12  C   UNL     1       5.134 -53.612  10.432  1.00  0.00    -0.000 C 
BRANCH  12  13
ATOM     13  C   UNL     1       4.691 -54.939  11.074  1.00  0.00    -0.000 C 
BRANCH  13  14
ATOM     14  C   UNL     1       3.242 -55.321  10.722  1.00  0.00    -0.000 C 
BRANCH  14  15
ATOM     15  C   UNL     1       2.826 -56.748  11.125  1.00  0.00    -0.000 C 
BRANCH  15  16
ATOM     16  C   UNL     1       3.900 -57.797  10.804  1.00  0.00    -0.003 C 
ATOM     17  C   UNL     1       3.361 -59.212  10.995  1.00  0.00     0.004 C 
ENDBRANCH  15  16
ENDBRANCH  14  15
ENDBRANCH  13  14
ENDBRANCH  12  13
ENDBRANCH  11  12
ENDBRANCH  10  11
ENDBRANCH   1  10
TORSDOF 13
ENDMDL
MODEL 2
REMARK VINA RESULT:     3.316      2.741      4.204
REMARK INTER + INTRA:           5.896
REMARK INTER:                   5.866
REMARK INTRA:                   0.031
REMARK UNBOUND:                 0.061
REMARK SMILES CCCCCCCCCCCCCCC(=O)[O-]
REMARK SMILES IDX 9 1 10 2 11 3 12 4 13 5 14 6 15 7 16 8 17 9 8 10 7 11 6 12
REMARK SMILES IDX 5 13 4 14 3 15 2 16 1 17
REMARK H PARENT
REMARK Flexibility Score: inf
ROOT
ATOM      1  C   UNL     1       3.822 -51.499   7.562  1.00  0.00     0.000 C 
ENDROOT
BRANCH   1   2
ATOM      2  C   UNL     1       3.440 -50.271   8.406  1.00  0.00     0.000 C 
BRANCH   2   3
ATOM      3  C   UNL     1       1.954 -50.262   8.806  1.00  0.00     0.000 C 
BRANCH   3   4
ATOM      4  C   UNL     1       1.680 -49.570  10.158  1.00  0.00     0.000 C 
BRANCH   4   5
ATOM      5  C   UNL     1       0.182 -49.324  10.390  1.00  0.00     0.006 C 
BRANCH   5   6
ATOM      6  C   UNL     1      -0.481 -50.539  11.045  1.00  0.00     0.053 C 
BRANCH   6   7
ATOM      7  C   UNL     1      -0.290 -51.759  10.200  1.00  0.00     0.041 C 
ATOM      8  O   UNL     1      -0.840 -51.838   9.070  1.00  0.00    -0.550 OA
ATOM      9  O   UNL     1       0.534 -52.787  10.639  1.00  0.00    -0.550 OA
ENDBRANCH   6   7
ENDBRANCH   5   6
ENDBRANCH   4   5
ENDBRANCH   3   4
ENDBRANCH   2   3
ENDBRANCH   1   2
BRANCH   1  10
ATOM     10  C   UNL     1       4.639 -52.530   8.358  1.00  0.00     0.000 C 
BRANCH  10  11
ATOM     11  C   UNL     1       4.051 -52.796   9.755  1.00  0.00    -0.000 C 
BRANCH  11  12
ATOM     12  C   UNL     1       5.061 -53.465  10.702  1.00  0.00    -0.000 C 
BRANCH  12  13
ATOM     13  C   UNL     1       6.195 -52.514  11.124  1.00  0.00    -0.000 C 
BRANCH  13  14
ATOM     14  C   UNL     1       7.494 -52.740  10.330  1.00  0.00    -0.000 C 
BRANCH  14  15
ATOM     15  C   UNL     1       8.794 -52.515  11.124  1.00  0.00    -0.000 C 
BRANCH  15  16
ATOM     16  C   UNL     1       9.908 -53.500  10.739  1.00  0.00    -0.003 C 
ATOM     17  C   UNL     1      11.286 -52.872  10.930  1.00  0.00     0.004 C 
ENDBRANCH  15  16
ENDBRANCH  14  15
ENDBRANCH  13  14
ENDBRANCH  12  13
ENDBRANCH  11  12
ENDBRANCH  10  11
ENDBRANCH   1  10
TORSDOF 13
ENDMDL
