MODEL 1
REMARK VINA RESULT:    -2.079      0.000      0.000
REMARK INTER + INTRA:          -2.140
REMARK INTER:                  -2.140
REMARK INTRA:                   0.000
REMARK UNBOUND:                 0.000
REMARK SMILES Nc1ncnc2nc[nH]c12
REMARK SMILES IDX 8 1 7 2 6 3 5 4 4 5 3 6 2 7 10 8 9 9 1 11
REMARK H PARENT 9 10 1 12 1 13
REMARK Flexibility Score: inf
ROOT
ATOM      1  C   UNL     1      49.262  32.293  27.875  1.00  0.00     0.199 A 
ATOM      2  N   UNL     1      50.247  31.353  27.899  1.00  0.00    -0.217 NA
ATOM      3  C   UNL     1      51.357  32.105  27.963  1.00  0.00     0.182 A 
ATOM      4  N   UNL     1      52.634  31.658  28.009  1.00  0.00    -0.215 NA
ATOM      5  C   UNL     1      53.640  32.583  28.071  1.00  0.00     0.226 A 
ATOM      6  N   UNL     1      53.353  33.924  28.085  1.00  0.00    -0.217 NA
ATOM      7  C   UNL     1      52.065  34.378  28.039  1.00  0.00     0.152 A 
ATOM      8  C   UNL     1      51.053  33.424  27.976  1.00  0.00     0.127 A 
ATOM      9  N   UNL     1      49.723  33.568  27.920  1.00  0.00    -0.340 N 
ATOM     10  H   UNL     1      49.161  34.447  27.914  1.00  0.00     0.168 HD
ENDROOT
BRANCH   7  11
ATOM     11  N   UNL     1      51.789  35.779  28.055  1.00  0.00    -0.382 N 
ATOM     12  H   UNL     1      51.776  36.319  27.161  1.00  0.00     0.158 HD
ATOM     13  H   UNL     1      51.599  36.286  28.947  1.00  0.00     0.158 HD
ENDBRANCH   7  11
TORSDOF 1
ENDMDL
MODEL 2
REMARK VINA RESULT:    -2.019      1.319      2.736
REMARK INTER + INTRA:          -2.078
REMARK INTER:                  -2.078
REMARK INTRA:                   0.000
REMARK UNBOUND:                 0.000
REMARK SMILES Nc1ncnc2nc[nH]c12
REMARK SMILES IDX 8 1 7 2 6 3 5 4 4 5 3 6 2 7 10 8 9 9 1 11
REMARK H PARENT 9 10 1 12 1 13
REMARK Flexibility Score: inf
ROOT
ATOM      1  C   UNL     1      52.962  30.248  28.551  1.00  0.00     0.199 A 
ATOM      2  N   UNL     1      51.612  30.268  28.375  1.00  0.00    -0.217 NA
ATOM      3  C   UNL     1      51.363  31.578  28.222  1.00  0.00     0.182 A 
ATOM      4  N   UNL     1      50.154  32.151  28.013  1.00  0.00    -0.215 NA
ATOM      5  C   UNL     1      50.099  33.512  27.880  1.00  0.00     0.226 A 
ATOM      6  N   UNL     1      51.243  34.265  27.958  1.00  0.00    -0.217 NA
ATOM      7  C   UNL     1      52.464  33.689  28.168  1.00  0.00     0.152 A 
ATOM      8  C   UNL     1      52.503  32.304  28.301  1.00  0.00     0.127 A 
ATOM      9  N   UNL     1      53.535  31.478  28.511  1.00  0.00    -0.340 N 
ATOM     10  H   UNL     1      54.546  31.711  28.620  1.00  0.00     0.168 HD
ENDROOT
BRANCH   7  11
ATOM     11  N   UNL     1      53.641  34.494  28.245  1.00  0.00    -0.382 N 
ATOM     12  H   UNL     1      53.577  35.526  28.106  1.00  0.00     0.158 HD
ATOM     13  H   UNL     1      54.576  34.073  28.440  1.00  0.00     0.158 HD
ENDBRANCH   7  11
TORSDOF 1
ENDMDL
MODEL 3
REMARK VINA RESULT:    -2.019      1.184      3.106
REMARK INTER + INTRA:          -2.078
REMARK INTER:                  -2.078
REMARK INTRA:                   0.000
REMARK UNBOUND:                 0.000
REMARK SMILES Nc1ncnc2nc[nH]c12
REMARK SMILES IDX 8 1 7 2 6 3 5 4 4 5 3 6 2 7 10 8 9 9 1 11
REMARK H PARENT 9 10 1 12 1 13
REMARK Flexibility Score: inf
ROOT
ATOM      1  C   UNL     1      51.250  35.870  28.140  1.00  0.00     0.199 A 
ATOM      2  N   UNL     1      50.061  35.207  28.127  1.00  0.00    -0.217 NA
ATOM      3  C   UNL     1      50.450  33.925  28.045  1.00  0.00     0.182 A 
ATOM      4  N   UNL     1      49.645  32.838  27.998  1.00  0.00    -0.215 NA
ATOM      5  C   UNL     1      50.230  31.604  27.914  1.00  0.00     0.226 A 
ATOM      6  N   UNL     1      51.596  31.483  27.876  1.00  0.00    -0.217 NA
ATOM      7  C   UNL     1      52.411  32.578  27.923  1.00  0.00     0.152 A 
ATOM      8  C   UNL     1      51.800  33.826  28.009  1.00  0.00     0.127 A 
ATOM      9  N   UNL     1      52.332  35.053  28.069  1.00  0.00    -0.340 N 
ATOM     10  H   UNL     1      53.338  35.330  28.063  1.00  0.00     0.168 HD
ENDROOT
BRANCH   7  11
ATOM     11  N   UNL     1      53.830  32.427  27.883  1.00  0.00    -0.382 N 
ATOM     12  H   UNL     1      54.446  33.184  28.254  1.00  0.00     0.158 HD
ATOM     13  H   UNL     1      54.275  31.570  27.489  1.00  0.00     0.158 HD
ENDBRANCH   7  11
TORSDOF 1
ENDMDL
MODEL 4
REMARK VINA RESULT:    -2.009      1.027      1.295
REMARK INTER + INTRA:          -2.068
REMARK INTER:                  -2.068
REMARK INTRA:                   0.000
REMARK UNBOUND:                 0.000
REMARK SMILES Nc1ncnc2nc[nH]c12
REMARK SMILES IDX 8 1 7 2 6 3 5 4 4 5 3 6 2 7 10 8 9 9 1 11
REMARK H PARENT 9 10 1 12 1 13
REMARK Flexibility Score: inf
ROOT
ATOM      1  C   UNL     1      49.224  32.479  28.037  1.00  0.00     0.199 A 
ATOM      2  N   UNL     1      49.676  31.219  28.287  1.00  0.00    -0.217 NA
ATOM      3  C   UNL     1      51.006  31.395  28.322  1.00  0.00     0.182 A 
ATOM      4  N   UNL     1      51.942  30.441  28.540  1.00  0.00    -0.215 NA
ATOM      5  C   UNL     1      53.258  30.815  28.538  1.00  0.00     0.226 A 
ATOM      6  N   UNL     1      53.609  32.122  28.320  1.00  0.00    -0.217 NA
ATOM      7  C   UNL     1      52.667  33.087  28.100  1.00  0.00     0.152 A 
ATOM      8  C   UNL     1      51.333  32.691  28.105  1.00  0.00     0.127 A 
ATOM      9  N   UNL     1      50.213  33.401  27.920  1.00  0.00    -0.340 N 
ATOM     10  H   UNL     1      50.111  34.422  27.732  1.00  0.00     0.168 HD
ENDROOT
BRANCH   7  11
ATOM     11  N   UNL     1      53.057  34.443  27.875  1.00  0.00    -0.382 N 
ATOM     12  H   UNL     1      52.876  35.166  28.606  1.00  0.00     0.158 HD
ATOM     13  H   UNL     1      53.525  34.734  26.989  1.00  0.00     0.158 HD
ENDBRANCH   7  11
TORSDOF 1
ENDMDL
MODEL 5
REMARK VINA RESULT:    -1.904      1.029      2.611
REMARK INTER + INTRA:          -1.960
REMARK INTER:                  -1.960
REMARK INTRA:                   0.000
REMARK UNBOUND:                 0.000
REMARK SMILES Nc1ncnc2nc[nH]c12
REMARK SMILES IDX 8 1 7 2 6 3 5 4 4 5 3 6 2 7 10 8 9 9 1 11
REMARK H PARENT 9 10 1 12 1 13
REMARK Flexibility Score: inf
ROOT
ATOM      1  C   UNL     1      48.956  33.192  28.436  1.00  0.00     0.199 A 
ATOM      2  N   UNL     1      49.796  34.264  28.419  1.00  0.00    -0.217 NA
ATOM      3  C   UNL     1      50.994  33.685  28.241  1.00  0.00     0.182 A 
ATOM      4  N   UNL     1      52.190  34.313  28.152  1.00  0.00    -0.215 NA
ATOM      5  C   UNL     1      53.309  33.548  27.969  1.00  0.00     0.226 A 
ATOM      6  N   UNL     1      53.212  32.183  27.881  1.00  0.00    -0.217 NA
ATOM      7  C   UNL     1      52.006  31.546  27.970  1.00  0.00     0.152 A 
ATOM      8  C   UNL     1      50.877  32.339  28.156  1.00  0.00     0.127 A 
ATOM      9  N   UNL     1      49.587  32.001  28.278  1.00  0.00    -0.340 N 
ATOM     10  H   UNL     1      49.156  31.052  28.257  1.00  0.00     0.168 HD
ENDROOT
BRANCH   7  11
ATOM     11  N   UNL     1      51.930  30.123  27.875  1.00  0.00    -0.382 N 
ATOM     12  H   UNL     1      51.885  29.544  28.742  1.00  0.00     0.158 HD
ATOM     13  H   UNL     1      51.917  29.640  26.951  1.00  0.00     0.158 HD
ENDBRANCH   7  11
TORSDOF 1
ENDMDL
MODEL 6
REMARK VINA RESULT:    -1.902      1.101      1.691
REMARK INTER + INTRA:          -1.958
REMARK INTER:                  -1.958
REMARK INTRA:                   0.000
REMARK UNBOUND:                 0.000
REMARK SMILES Nc1ncnc2nc[nH]c12
REMARK SMILES IDX 8 1 7 2 6 3 5 4 4 5 3 6 2 7 10 8 9 9 1 11
REMARK H PARENT 9 10 1 12 1 13
REMARK Flexibility Score: inf
ROOT
ATOM      1  C   UNL     1      50.812  30.250  28.150  1.00  0.00     0.199 A 
ATOM      2  N   UNL     1      52.167  30.339  28.246  1.00  0.00    -0.217 NA
ATOM      3  C   UNL     1      52.370  31.666  28.195  1.00  0.00     0.182 A 
ATOM      4  N   UNL     1      53.562  32.304  28.251  1.00  0.00    -0.215 NA
ATOM      5  C   UNL     1      53.568  33.670  28.183  1.00  0.00     0.226 A 
ATOM      6  N   UNL     1      52.392  34.365  28.060  1.00  0.00    -0.217 NA
ATOM      7  C   UNL     1      51.187  33.724  28.003  1.00  0.00     0.152 A 
ATOM      8  C   UNL     1      51.199  32.333  28.074  1.00  0.00     0.127 A 
ATOM      9  N   UNL     1      50.192  31.452  28.043  1.00  0.00    -0.340 N 
ATOM     10  H   UNL     1      49.168  31.632  27.958  1.00  0.00     0.168 HD
ENDROOT
BRANCH   7  11
ATOM     11  N   UNL     1      49.975  34.469  27.875  1.00  0.00    -0.382 N 
ATOM     12  H   UNL     1      49.733  35.197  28.583  1.00  0.00     0.158 HD
ATOM     13  H   UNL     1      49.316  34.303  27.083  1.00  0.00     0.158 HD
ENDBRANCH   7  11
TORSDOF 1
ENDMDL
MODEL 7
REMARK VINA RESULT:     0.000     10.228     10.852
REMARK INTER + INTRA:           0.000
REMARK INTER:                   0.000
REMARK INTRA:                   0.000
REMARK UNBOUND:                 0.000
REMARK SMILES Nc1ncnc2nc[nH]c12
REMARK SMILES IDX 8 1 7 2 6 3 5 4 4 5 3 6 2 7 10 8 9 9 1 11
REMARK H PARENT 9 10 1 12 1 13
REMARK Flexibility Score: inf
ROOT
ATOM      1  C   UNL     1      43.875  33.015  37.671  1.00  0.00     0.199 A 
ATOM      2  N   UNL     1      44.837  32.577  38.529  1.00  0.00    -0.217 NA
ATOM      3  C   UNL     1      45.936  33.195  38.067  1.00  0.00     0.182 A 
ATOM      4  N   UNL     1      47.189  33.099  38.570  1.00  0.00    -0.215 NA
ATOM      5  C   UNL     1      48.186  33.808  37.959  1.00  0.00     0.226 A 
ATOM      6  N   UNL     1      47.914  34.590  36.865  1.00  0.00    -0.217 NA
ATOM      7  C   UNL     1      46.650  34.688  36.355  1.00  0.00     0.152 A 
ATOM      8  C   UNL     1      45.647  33.961  36.989  1.00  0.00     0.127 A 
ATOM      9  N   UNL     1      44.339  33.862  36.718  1.00  0.00    -0.340 N 
ATOM     10  H   UNL     1      43.793  34.323  35.957  1.00  0.00     0.168 HD
ENDROOT
BRANCH   7  11
ATOM     11  N   UNL     1      46.391  35.509  35.215  1.00  0.00    -0.382 N 
ATOM     12  H   UNL     1      46.547  36.540  35.268  1.00  0.00     0.158 HD
ATOM     13  H   UNL     1      46.045  35.102  34.319  1.00  0.00     0.158 HD
ENDBRANCH   7  11
TORSDOF 1
ENDMDL
