MODEL 1
REMARK VINA RESULT:    -4.906      0.000      0.000
REMARK INTER + INTRA:          -4.906
REMARK INTER:                  -4.906
REMARK INTRA:                   0.000
REMARK UNBOUND:                 0.000
REMARK SMILES O=c1ccc2ccccc2o1
REMARK SMILES IDX 7 1 8 2 9 3 10 4 5 5 6 6 4 7 3 8 2 9 1 10 11 11
REMARK H PARENT
REMARK Flexibility Score: inf
ROOT
ATOM      1  C   UNL     1      -2.976  -4.843  -1.129  1.00  0.00     0.001 A 
ATOM      2  C   UNL     1      -2.850  -3.598  -1.753  1.00  0.00     0.004 A 
ATOM      3  C   UNL     1      -3.674  -2.533  -1.373  1.00  0.00     0.048 A 
ATOM      4  C   UNL     1      -4.628  -2.711  -0.364  1.00  0.00     0.138 A 
ATOM      5  C   UNL     1      -4.754  -3.969   0.267  1.00  0.00     0.018 A 
ATOM      6  C   UNL     1      -3.925  -5.031  -0.120  1.00  0.00     0.012 A 
ATOM      7  C   UNL     1      -5.715  -4.116   1.271  1.00  0.00     0.019 A 
ATOM      8  C   UNL     1      -6.515  -3.027   1.618  1.00  0.00     0.094 A 
ATOM      9  C   UNL     1      -6.333  -1.812   0.950  1.00  0.00     0.336 A 
ATOM     10  O   UNL     1      -7.046  -0.817   1.249  1.00  0.00    -0.246 OA
ATOM     11  O   UNL     1      -5.411  -1.697  -0.002  1.00  0.00    -0.423 OA
ENDROOT
TORSDOF 0
ENDMDL
MODEL 2
REMARK VINA RESULT:    -4.540      6.454      8.255
REMARK INTER + INTRA:          -4.540
REMARK INTER:                  -4.540
REMARK INTRA:                   0.000
REMARK UNBOUND:                 0.000
REMARK SMILES O=c1ccc2ccccc2o1
REMARK SMILES IDX 7 1 8 2 9 3 10 4 5 5 6 6 4 7 3 8 2 9 1 10 11 11
REMARK H PARENT
REMARK Flexibility Score: inf
ROOT
ATOM      1  C   UNL     1      -4.008   1.837  -4.654  1.00  0.00     0.001 A 
ATOM      2  C   UNL     1      -3.613   0.761  -3.851  1.00  0.00     0.004 A 
ATOM      3  C   UNL     1      -2.439   0.840  -3.096  1.00  0.00     0.048 A 
ATOM      4  C   UNL     1      -1.654   1.999  -3.139  1.00  0.00     0.138 A 
ATOM      5  C   UNL     1      -2.053   3.085  -3.949  1.00  0.00     0.018 A 
ATOM      6  C   UNL     1      -3.232   2.999  -4.704  1.00  0.00     0.012 A 
ATOM      7  C   UNL     1      -1.250   4.229  -3.973  1.00  0.00     0.019 A 
ATOM      8  C   UNL     1      -0.087   4.265  -3.203  1.00  0.00     0.094 A 
ATOM      9  C   UNL     1       0.245   3.151  -2.424  1.00  0.00     0.336 A 
ATOM     10  O   UNL     1       1.291   3.163  -1.723  1.00  0.00    -0.246 OA
ATOM     11  O   UNL     1      -0.537   2.074  -2.420  1.00  0.00    -0.423 OA
ENDROOT
TORSDOF 0
ENDMDL
MODEL 3
REMARK VINA RESULT:    -4.491      1.436      3.730
REMARK INTER + INTRA:          -4.491
REMARK INTER:                  -4.491
REMARK INTRA:                   0.000
REMARK UNBOUND:                 0.000
REMARK SMILES O=c1ccc2ccccc2o1
REMARK SMILES IDX 7 1 8 2 9 3 10 4 5 5 6 6 4 7 3 8 2 9 1 10 11 11
REMARK H PARENT
REMARK Flexibility Score: inf
ROOT
ATOM      1  C   UNL     1      -6.495  -3.473   2.940  1.00  0.00     0.001 A 
ATOM      2  C   UNL     1      -7.363  -2.389   2.775  1.00  0.00     0.004 A 
ATOM      3  C   UNL     1      -7.267  -1.576   1.641  1.00  0.00     0.048 A 
ATOM      4  C   UNL     1      -6.299  -1.846   0.665  1.00  0.00     0.138 A 
ATOM      5  C   UNL     1      -5.423  -2.941   0.832  1.00  0.00     0.018 A 
ATOM      6  C   UNL     1      -5.526  -3.752   1.972  1.00  0.00     0.012 A 
ATOM      7  C   UNL     1      -4.468  -3.186  -0.159  1.00  0.00     0.019 A 
ATOM      8  C   UNL     1      -4.407  -2.349  -1.273  1.00  0.00     0.094 A 
ATOM      9  C   UNL     1      -5.308  -1.284  -1.371  1.00  0.00     0.336 A 
ATOM     10  O   UNL     1      -5.269  -0.517  -2.369  1.00  0.00    -0.246 OA
ATOM     11  O   UNL     1      -6.208  -1.072  -0.414  1.00  0.00    -0.423 OA
ENDROOT
TORSDOF 0
ENDMDL
MODEL 4
REMARK VINA RESULT:    -4.453      5.995      7.691
REMARK INTER + INTRA:          -4.453
REMARK INTER:                  -4.453
REMARK INTRA:                   0.000
REMARK UNBOUND:                 0.000
REMARK SMILES O=c1ccc2ccccc2o1
REMARK SMILES IDX 7 1 8 2 9 3 10 4 5 5 6 6 4 7 3 8 2 9 1 10 11 11
REMARK H PARENT
REMARK Flexibility Score: inf
ROOT
ATOM      1  C   UNL     1      -2.922   4.482  -5.405  1.00  0.00     0.001 A 
ATOM      2  C   UNL     1      -1.728   4.663  -4.698  1.00  0.00     0.004 A 
ATOM      3  C   UNL     1      -1.258   3.661  -3.842  1.00  0.00     0.048 A 
ATOM      4  C   UNL     1      -1.983   2.473  -3.689  1.00  0.00     0.138 A 
ATOM      5  C   UNL     1      -3.188   2.291  -4.403  1.00  0.00     0.018 A 
ATOM      6  C   UNL     1      -3.653   3.299  -5.260  1.00  0.00     0.012 A 
ATOM      7  C   UNL     1      -3.889   1.094  -4.231  1.00  0.00     0.019 A 
ATOM      8  C   UNL     1      -3.384   0.123  -3.367  1.00  0.00     0.094 A 
ATOM      9  C   UNL     1      -2.184   0.373  -2.693  1.00  0.00     0.336 A 
ATOM     10  O   UNL     1      -1.711  -0.491  -1.908  1.00  0.00    -0.246 OA
ATOM     11  O   UNL     1      -1.535   1.520  -2.875  1.00  0.00    -0.423 OA
ENDROOT
TORSDOF 0
ENDMDL
MODEL 5
REMARK VINA RESULT:    -4.391     10.567     11.168
REMARK INTER + INTRA:          -4.391
REMARK INTER:                  -4.391
REMARK INTRA:                   0.000
REMARK UNBOUND:                 0.000
REMARK SMILES O=c1ccc2ccccc2o1
REMARK SMILES IDX 7 1 8 2 9 3 10 4 5 5 6 6 4 7 3 8 2 9 1 10 11 11
REMARK H PARENT
REMARK Flexibility Score: inf
ROOT
ATOM      1  C   UNL     1      -1.807   3.389   8.625  1.00  0.00     0.001 A 
ATOM      2  C   UNL     1      -0.840   3.965   7.795  1.00  0.00     0.004 A 
ATOM      3  C   UNL     1       0.263   3.215   7.373  1.00  0.00     0.048 A 
ATOM      4  C   UNL     1       0.401   1.883   7.781  1.00  0.00     0.138 A 
ATOM      5  C   UNL     1      -0.576   1.301   8.619  1.00  0.00     0.018 A 
ATOM      6  C   UNL     1      -1.679   2.059   9.038  1.00  0.00     0.012 A 
ATOM      7  C   UNL     1      -0.411  -0.031   9.009  1.00  0.00     0.019 A 
ATOM      8  C   UNL     1       0.704  -0.742   8.564  1.00  0.00     0.094 A 
ATOM      9  C   UNL     1       1.631  -0.100   7.736  1.00  0.00     0.336 A 
ATOM     10  O   UNL     1       2.644  -0.724   7.325  1.00  0.00    -0.246 OA
ATOM     11  O   UNL     1       1.451   1.169   7.379  1.00  0.00    -0.423 OA
ENDROOT
TORSDOF 0
ENDMDL
MODEL 6
REMARK VINA RESULT:    -4.386      7.005      8.695
REMARK INTER + INTRA:          -4.386
REMARK INTER:                  -4.386
REMARK INTRA:                   0.000
REMARK UNBOUND:                 0.000
REMARK SMILES O=c1ccc2ccccc2o1
REMARK SMILES IDX 7 1 8 2 9 3 10 4 5 5 6 6 4 7 3 8 2 9 1 10 11 11
REMARK H PARENT
REMARK Flexibility Score: inf
ROOT
ATOM      1  C   UNL     1       0.498   5.553  -2.689  1.00  0.00     0.001 A 
ATOM      2  C   UNL     1       1.475   4.782  -2.050  1.00  0.00     0.004 A 
ATOM      3  C   UNL     1       1.315   3.397  -1.933  1.00  0.00     0.048 A 
ATOM      4  C   UNL     1       0.174   2.778  -2.456  1.00  0.00     0.138 A 
ATOM      5  C   UNL     1      -0.813   3.556  -3.102  1.00  0.00     0.018 A 
ATOM      6  C   UNL     1      -0.645   4.944  -3.216  1.00  0.00     0.012 A 
ATOM      7  C   UNL     1      -1.941   2.909  -3.615  1.00  0.00     0.019 A 
ATOM      8  C   UNL     1      -2.060   1.526  -3.475  1.00  0.00     0.094 A 
ATOM      9  C   UNL     1      -1.043   0.821  -2.824  1.00  0.00     0.336 A 
ATOM     10  O   UNL     1      -1.132  -0.428  -2.687  1.00  0.00    -0.246 OA
ATOM     11  O   UNL     1       0.021   1.460  -2.344  1.00  0.00    -0.423 OA
ENDROOT
TORSDOF 0
ENDMDL
MODEL 7
REMARK VINA RESULT:    -4.374      1.816      3.768
REMARK INTER + INTRA:          -4.374
REMARK INTER:                  -4.374
REMARK INTRA:                   0.000
REMARK UNBOUND:                 0.000
REMARK SMILES O=c1ccc2ccccc2o1
REMARK SMILES IDX 7 1 8 2 9 3 10 4 5 5 6 6 4 7 3 8 2 9 1 10 11 11
REMARK H PARENT
REMARK Flexibility Score: inf
ROOT
ATOM      1  C   UNL     1      -4.138  -4.927  -0.105  1.00  0.00     0.001 A 
ATOM      2  C   UNL     1      -4.949  -3.943   0.472  1.00  0.00     0.004 A 
ATOM      3  C   UNL     1      -4.862  -2.616   0.038  1.00  0.00     0.048 A 
ATOM      4  C   UNL     1      -3.963  -2.268  -0.977  1.00  0.00     0.138 A 
ATOM      5  C   UNL     1      -3.144  -3.262  -1.559  1.00  0.00     0.018 A 
ATOM      6  C   UNL     1      -3.237  -4.590  -1.119  1.00  0.00     0.012 A 
ATOM      7  C   UNL     1      -2.256  -2.884  -2.570  1.00  0.00     0.019 A 
ATOM      8  C   UNL     1      -2.203  -1.549  -2.972  1.00  0.00     0.094 A 
ATOM      9  C   UNL     1      -3.044  -0.620  -2.350  1.00  0.00     0.336 A 
ATOM     10  O   UNL     1      -3.011   0.590  -2.698  1.00  0.00    -0.246 OA
ATOM     11  O   UNL     1      -3.881  -1.005  -1.389  1.00  0.00    -0.423 OA
ENDROOT
TORSDOF 0
ENDMDL
MODEL 8
REMARK VINA RESULT:    -4.351     10.514     10.653
REMARK INTER + INTRA:          -4.351
REMARK INTER:                  -4.351
REMARK INTRA:                   0.000
REMARK UNBOUND:                 0.000
REMARK SMILES O=c1ccc2ccccc2o1
REMARK SMILES IDX 7 1 8 2 9 3 10 4 5 5 6 6 4 7 3 8 2 9 1 10 11 11
REMARK H PARENT
REMARK Flexibility Score: inf
ROOT
ATOM      1  C   UNL     1       2.161  -2.411   8.613  1.00  0.00     0.001 A 
ATOM      2  C   UNL     1       3.111  -1.664   7.909  1.00  0.00     0.004 A 
ATOM      3  C   UNL     1       2.832  -0.346   7.532  1.00  0.00     0.048 A 
ATOM      4  C   UNL     1       1.598   0.230   7.859  1.00  0.00     0.138 A 
ATOM      5  C   UNL     1       0.639  -0.525   8.570  1.00  0.00     0.018 A 
ATOM      6  C   UNL     1       0.926  -1.845   8.945  1.00  0.00     0.012 A 
ATOM      7  C   UNL     1      -0.583   0.077   8.882  1.00  0.00     0.019 A 
ATOM      8  C   UNL     1      -0.819   1.394   8.486  1.00  0.00     0.094 A 
ATOM      9  C   UNL     1       0.178   2.080   7.785  1.00  0.00     0.336 A 
ATOM     10  O   UNL     1      -0.015   3.269   7.418  1.00  0.00    -0.246 OA
ATOM     11  O   UNL     1       1.334   1.484   7.500  1.00  0.00    -0.423 OA
ENDROOT
TORSDOF 0
ENDMDL
MODEL 9
REMARK VINA RESULT:    -4.318      1.450      2.429
REMARK INTER + INTRA:          -4.318
REMARK INTER:                  -4.318
REMARK INTRA:                   0.000
REMARK UNBOUND:                 0.000
REMARK SMILES O=c1ccc2ccccc2o1
REMARK SMILES IDX 7 1 8 2 9 3 10 4 5 5 6 6 4 7 3 8 2 9 1 10 11 11
REMARK H PARENT
REMARK Flexibility Score: inf
ROOT
ATOM      1  C   UNL     1      -1.575  -3.641  -3.627  1.00  0.00     0.001 A 
ATOM      2  C   UNL     1      -1.718  -2.252  -3.709  1.00  0.00     0.004 A 
ATOM      3  C   UNL     1      -2.579  -1.579  -2.837  1.00  0.00     0.048 A 
ATOM      4  C   UNL     1      -3.302  -2.296  -1.875  1.00  0.00     0.138 A 
ATOM      5  C   UNL     1      -3.157  -3.698  -1.791  1.00  0.00     0.018 A 
ATOM      6  C   UNL     1      -2.291  -4.366  -2.670  1.00  0.00     0.012 A 
ATOM      7  C   UNL     1      -3.892  -4.387  -0.821  1.00  0.00     0.019 A 
ATOM      8  C   UNL     1      -4.739  -3.675   0.028  1.00  0.00     0.094 A 
ATOM      9  C   UNL     1      -4.832  -2.287  -0.113  1.00  0.00     0.336 A 
ATOM     10  O   UNL     1      -5.592  -1.627   0.644  1.00  0.00    -0.246 OA
ATOM     11  O   UNL     1      -4.122  -1.655  -1.045  1.00  0.00    -0.423 OA
ENDROOT
TORSDOF 0
ENDMDL
