MODEL 1
REMARK VINA RESULT:    -6.056      0.000      0.000
REMARK INTER + INTRA:          -7.007
REMARK INTER:                  -6.587
REMARK INTRA:                  -0.420
REMARK UNBOUND:                -0.420
REMARK SMILES C=C1C[C@@]2(O)O[C@]3(C[C@H]2C(C)C)[C@@H]1CC[C@@H]3C
REMARK SMILES IDX 17 1 16 2 15 3 14 4 13 5 7 6 8 7 9 8 4 9 6 10 3 11 2 12 1 13
REMARK SMILES IDX 10 14 11 15 12 16 5 17
REMARK H PARENT 5 18
REMARK Flexibility Score: inf
ROOT
ATOM      1  C   UNL     1      55.800 -21.495   4.500  1.00  0.00     0.011 C 
ATOM      2  C   UNL     1      54.348 -21.170   4.885  1.00  0.00     0.019 C 
ATOM      3  C   UNL     1      54.182 -19.682   5.291  1.00  0.00     0.007 C 
ATOM      4  C   UNL     1      53.406 -18.976   4.162  1.00  0.00     0.011 C 
ATOM      5  C   UNL     1      53.420 -19.980   3.019  1.00  0.00     0.047 C 
ATOM      6  C   UNL     1      53.365 -21.342   3.713  1.00  0.00     0.081 C 
ATOM      7  C   UNL     1      51.940 -21.716   4.212  1.00  0.00     0.046 C 
ATOM      8  C   UNL     1      51.432 -22.673   3.141  1.00  0.00     0.054 C 
ATOM      9  C   UNL     1      52.489 -22.485   2.033  1.00  0.00     0.173 C 
ATOM     10  O   UNL     1      53.705 -22.310   2.745  1.00  0.00    -0.342 OA
ATOM     11  C   UNL     1      52.225 -21.224   1.128  1.00  0.00     0.096 C 
ATOM     12  C   UNL     1      52.375 -19.940   1.931  1.00  0.00    -0.066 C 
ATOM     13  C   UNL     1      51.777 -18.804   1.546  1.00  0.00     0.008 C 
ENDROOT
BRANCH   8  14
ATOM     14  C   UNL     1      49.934 -22.466   2.760  1.00  0.00    -0.009 C 
ATOM     15  C   UNL     1      49.333 -21.283   3.539  1.00  0.00     0.008 C 
ATOM     16  C   UNL     1      49.099 -23.724   3.052  1.00  0.00     0.008 C 
ENDBRANCH   8  14
BRANCH   9  17
ATOM     17  O   UNL     1      52.563 -23.644   1.243  1.00  0.00    -0.365 OA
ATOM     18  H   UNL     1      52.938 -23.374   0.364  1.00  0.00     0.214 HD
ENDBRANCH   9  17
TORSDOF 2
ENDMDL
MODEL 2
REMARK VINA RESULT:    -6.047      0.927      1.035
REMARK INTER + INTRA:          -6.997
REMARK INTER:                  -6.639
REMARK INTRA:                  -0.358
REMARK UNBOUND:                -0.420
REMARK SMILES C=C1C[C@@]2(O)O[C@]3(C[C@H]2C(C)C)[C@@H]1CC[C@@H]3C
REMARK SMILES IDX 17 1 16 2 15 3 14 4 13 5 7 6 8 7 9 8 4 9 6 10 3 11 2 12 1 13
REMARK SMILES IDX 10 14 11 15 12 16 5 17
REMARK H PARENT 5 18
REMARK Flexibility Score: inf
ROOT
ATOM      1  C   UNL     1      54.990 -21.865   4.814  1.00  0.00     0.011 C 
ATOM      2  C   UNL     1      53.714 -21.029   5.007  1.00  0.00     0.019 C 
ATOM      3  C   UNL     1      54.037 -19.520   5.168  1.00  0.00     0.007 C 
ATOM      4  C   UNL     1      53.587 -18.808   3.877  1.00  0.00     0.011 C 
ATOM      5  C   UNL     1      53.313 -19.944   2.904  1.00  0.00     0.047 C 
ATOM      6  C   UNL     1      52.779 -21.075   3.786  1.00  0.00     0.081 C 
ATOM      7  C   UNL     1      51.292 -20.879   4.197  1.00  0.00     0.046 C 
ATOM      8  C   UNL     1      50.538 -21.792   3.238  1.00  0.00     0.054 C 
ATOM      9  C   UNL     1      51.641 -22.147   2.219  1.00  0.00     0.173 C 
ATOM     10  O   UNL     1      52.816 -22.253   3.011  1.00  0.00    -0.342 OA
ATOM     11  C   UNL     1      51.849 -21.045   1.116  1.00  0.00     0.096 C 
ATOM     12  C   UNL     1      52.385 -19.759   1.728  1.00  0.00    -0.066 C 
ATOM     13  C   UNL     1      52.216 -18.575   1.122  1.00  0.00     0.008 C 
ENDROOT
BRANCH   8  14
ATOM     14  C   UNL     1      49.211 -21.182   2.689  1.00  0.00    -0.009 C 
ATOM     15  C   UNL     1      49.092 -19.698   3.078  1.00  0.00     0.008 C 
ATOM     16  C   UNL     1      47.982 -21.934   3.227  1.00  0.00     0.008 C 
ENDBRANCH   8  14
BRANCH   9  17
ATOM     17  O   UNL     1      51.357 -23.387   1.623  1.00  0.00    -0.365 OA
ATOM     18  H   UNL     1      52.076 -24.013   1.897  1.00  0.00     0.214 HD
ENDBRANCH   9  17
TORSDOF 2
ENDMDL
MODEL 3
REMARK VINA RESULT:    -5.831     10.131     11.952
REMARK INTER + INTRA:          -6.762
REMARK INTER:                  -6.340
REMARK INTRA:                  -0.422
REMARK UNBOUND:                -0.420
REMARK SMILES C=C1C[C@@]2(O)O[C@]3(C[C@H]2C(C)C)[C@@H]1CC[C@@H]3C
REMARK SMILES IDX 17 1 16 2 15 3 14 4 13 5 7 6 8 7 9 8 4 9 6 10 3 11 2 12 1 13
REMARK SMILES IDX 10 14 11 15 12 16 5 17
REMARK H PARENT 5 18
REMARK Flexibility Score: inf
ROOT
ATOM      1  C   UNL     1      59.609 -14.056  -4.863  1.00  0.00     0.011 C 
ATOM      2  C   UNL     1      60.900 -14.572  -4.207  1.00  0.00     0.019 C 
ATOM      3  C   UNL     1      61.953 -13.444  -4.048  1.00  0.00     0.007 C 
ATOM      4  C   UNL     1      62.042 -13.099  -2.549  1.00  0.00     0.011 C 
ATOM      5  C   UNL     1      60.841 -13.801  -1.936  1.00  0.00     0.047 C 
ATOM      6  C   UNL     1      60.682 -15.074  -2.769  1.00  0.00     0.081 C 
ATOM      7  C   UNL     1      61.702 -16.184  -2.389  1.00  0.00     0.046 C 
ATOM      8  C   UNL     1      60.889 -17.123  -1.506  1.00  0.00     0.054 C 
ATOM      9  C   UNL     1      59.622 -16.282  -1.247  1.00  0.00     0.173 C 
ATOM     10  O   UNL     1      59.406 -15.600  -2.475  1.00  0.00    -0.342 OA
ATOM     11  C   UNL     1      59.797 -15.232  -0.088  1.00  0.00     0.096 C 
ATOM     12  C   UNL     1      60.812 -14.165  -0.471  1.00  0.00    -0.066 C 
ATOM     13  C   UNL     1      61.465 -13.458   0.462  1.00  0.00     0.008 C 
ENDROOT
BRANCH   8  14
ATOM     14  C   UNL     1      61.668 -17.666  -0.268  1.00  0.00    -0.009 C 
ATOM     15  C   UNL     1      63.125 -17.172  -0.281  1.00  0.00     0.008 C 
ATOM     16  C   UNL     1      61.667 -19.203  -0.232  1.00  0.00     0.008 C 
ENDBRANCH   8  14
BRANCH   9  17
ATOM     17  O   UNL     1      58.535 -17.130  -0.977  1.00  0.00    -0.365 OA
ATOM     18  H   UNL     1      58.496 -17.248   0.008  1.00  0.00     0.214 HD
ENDBRANCH   9  17
TORSDOF 2
ENDMDL
MODEL 4
REMARK VINA RESULT:    -5.796      1.667      4.686
REMARK INTER + INTRA:          -6.724
REMARK INTER:                  -6.299
REMARK INTRA:                  -0.425
REMARK UNBOUND:                -0.420
REMARK SMILES C=C1C[C@@]2(O)O[C@]3(C[C@H]2C(C)C)[C@@H]1CC[C@@H]3C
REMARK SMILES IDX 17 1 16 2 15 3 14 4 13 5 7 6 8 7 9 8 4 9 6 10 3 11 2 12 1 13
REMARK SMILES IDX 10 14 11 15 12 16 5 17
REMARK H PARENT 5 18
REMARK Flexibility Score: inf
ROOT
ATOM      1  C   UNL     1      50.154 -22.315   3.848  1.00  0.00     0.011 C 
ATOM      2  C   UNL     1      51.522 -22.417   3.153  1.00  0.00     0.019 C 
ATOM      3  C   UNL     1      51.434 -22.030   1.654  1.00  0.00     0.007 C 
ATOM      4  C   UNL     1      52.122 -20.662   1.485  1.00  0.00     0.011 C 
ATOM      5  C   UNL     1      52.307 -20.163   2.909  1.00  0.00     0.047 C 
ATOM      6  C   UNL     1      52.558 -21.432   3.725  1.00  0.00     0.081 C 
ATOM      7  C   UNL     1      54.006 -21.978   3.578  1.00  0.00     0.046 C 
ATOM      8  C   UNL     1      54.697 -21.491   4.846  1.00  0.00     0.054 C 
ATOM      9  C   UNL     1      53.661 -20.488   5.395  1.00  0.00     0.173 C 
ATOM     10  O   UNL     1      52.409 -21.084   5.084  1.00  0.00    -0.342 OA
ATOM     11  C   UNL     1      53.749 -19.069   4.720  1.00  0.00     0.096 C 
ATOM     12  C   UNL     1      53.369 -19.144   3.249  1.00  0.00    -0.066 C 
ATOM     13  C   UNL     1      53.789 -18.221   2.372  1.00  0.00     0.008 C 
ENDROOT
BRANCH   8  14
ATOM     14  C   UNL     1      56.154 -20.982   4.622  1.00  0.00    -0.009 C 
ATOM     15  C   UNL     1      56.564 -21.135   3.147  1.00  0.00     0.008 C 
ATOM     16  C   UNL     1      57.159 -21.750   5.496  1.00  0.00     0.008 C 
ENDBRANCH   8  14
BRANCH   9  17
ATOM     17  O   UNL     1      53.800 -20.375   6.788  1.00  0.00    -0.365 OA
ATOM     18  H   UNL     1      52.886 -20.404   7.175  1.00  0.00     0.214 HD
ENDBRANCH   9  17
TORSDOF 2
ENDMDL
MODEL 5
REMARK VINA RESULT:    -5.747     11.849     13.525
REMARK INTER + INTRA:          -6.671
REMARK INTER:                  -6.609
REMARK INTRA:                  -0.063
REMARK UNBOUND:                -0.420
REMARK SMILES C=C1C[C@@]2(O)O[C@]3(C[C@H]2C(C)C)[C@@H]1CC[C@@H]3C
REMARK SMILES IDX 17 1 16 2 15 3 14 4 13 5 7 6 8 7 9 8 4 9 6 10 3 11 2 12 1 13
REMARK SMILES IDX 10 14 11 15 12 16 5 17
REMARK H PARENT 5 18
REMARK Flexibility Score: inf
ROOT
ATOM      1  C   UNL     1      57.475 -12.365  -4.738  1.00  0.00     0.011 C 
ATOM      2  C   UNL     1      58.353 -13.618  -4.889  1.00  0.00     0.019 C 
ATOM      3  C   UNL     1      58.944 -13.736  -6.318  1.00  0.00     0.007 C 
ATOM      4  C   UNL     1      60.451 -13.427  -6.224  1.00  0.00     0.011 C 
ATOM      5  C   UNL     1      60.624 -12.846  -4.829  1.00  0.00     0.047 C 
ATOM      6  C   UNL     1      59.594 -13.593  -3.979  1.00  0.00     0.081 C 
ATOM      7  C   UNL     1      60.048 -15.029  -3.592  1.00  0.00     0.046 C 
ATOM      8  C   UNL     1      60.541 -14.867  -2.159  1.00  0.00     0.054 C 
ATOM      9  C   UNL     1      60.593 -13.331  -2.022  1.00  0.00     0.173 C 
ATOM     10  O   UNL     1      59.470 -12.883  -2.767  1.00  0.00    -0.342 OA
ATOM     11  C   UNL     1      61.904 -12.696  -2.618  1.00  0.00     0.096 C 
ATOM     12  C   UNL     1      61.960 -12.882  -4.127  1.00  0.00    -0.066 C 
ATOM     13  C   UNL     1      63.124 -12.857  -4.790  1.00  0.00     0.008 C 
ENDROOT
BRANCH   8  14
ATOM     14  C   UNL     1      61.840 -15.670  -1.838  1.00  0.00    -0.009 C 
ATOM     15  C   UNL     1      61.662 -17.157  -2.191  1.00  0.00     0.008 C 
ATOM     16  C   UNL     1      62.219 -15.557  -0.352  1.00  0.00     0.008 C 
ENDBRANCH   8  14
BRANCH   9  17
ATOM     17  O   UNL     1      60.445 -12.968  -0.673  1.00  0.00    -0.365 OA
ATOM     18  H   UNL     1      59.785 -13.593  -0.275  1.00  0.00     0.214 HD
ENDBRANCH   9  17
TORSDOF 2
ENDMDL
MODEL 6
REMARK VINA RESULT:    -5.706      2.052      3.663
REMARK INTER + INTRA:          -6.626
REMARK INTER:                  -6.248
REMARK INTRA:                  -0.378
REMARK UNBOUND:                -0.420
REMARK SMILES C=C1C[C@@]2(O)O[C@]3(C[C@H]2C(C)C)[C@@H]1CC[C@@H]3C
REMARK SMILES IDX 17 1 16 2 15 3 14 4 13 5 7 6 8 7 9 8 4 9 6 10 3 11 2 12 1 13
REMARK SMILES IDX 10 14 11 15 12 16 5 17
REMARK H PARENT 5 18
REMARK Flexibility Score: inf
ROOT
ATOM      1  C   UNL     1      53.306 -16.482   2.974  1.00  0.00     0.011 C 
ATOM      2  C   UNL     1      53.761 -17.773   2.274  1.00  0.00     0.019 C 
ATOM      3  C   UNL     1      55.306 -17.912   2.277  1.00  0.00     0.007 C 
ATOM      4  C   UNL     1      55.670 -19.034   3.269  1.00  0.00     0.011 C 
ATOM      5  C   UNL     1      54.377 -19.291   4.027  1.00  0.00     0.047 C 
ATOM      6  C   UNL     1      53.277 -19.045   2.993  1.00  0.00     0.081 C 
ATOM      7  C   UNL     1      53.097 -20.228   2.000  1.00  0.00     0.046 C 
ATOM      8  C   UNL     1      51.880 -20.965   2.549  1.00  0.00     0.054 C 
ATOM      9  C   UNL     1      51.715 -20.300   3.931  1.00  0.00     0.173 C 
ATOM     10  O   UNL     1      52.062 -18.942   3.702  1.00  0.00    -0.342 OA
ATOM     11  C   UNL     1      52.664 -20.906   5.031  1.00  0.00     0.096 C 
ATOM     12  C   UNL     1      54.122 -20.613   4.711  1.00  0.00    -0.066 C 
ATOM     13  C   UNL     1      55.110 -21.374   5.201  1.00  0.00     0.008 C 
ENDROOT
BRANCH   8  14
ATOM     14  C   UNL     1      52.002 -22.519   2.499  1.00  0.00    -0.009 C 
ATOM     15  C   UNL     1      53.130 -22.947   1.544  1.00  0.00     0.008 C 
ATOM     16  C   UNL     1      50.689 -23.172   2.035  1.00  0.00     0.008 C 
ENDBRANCH   8  14
BRANCH   9  17
ATOM     17  O   UNL     1      50.375 -20.385   4.343  1.00  0.00    -0.365 OA
ATOM     18  H   UNL     1      50.374 -20.799   5.246  1.00  0.00     0.214 HD
ENDBRANCH   9  17
TORSDOF 2
ENDMDL
MODEL 7
REMARK VINA RESULT:    -5.632      1.359      4.020
REMARK INTER + INTRA:          -6.546
REMARK INTER:                  -6.144
REMARK INTRA:                  -0.402
REMARK UNBOUND:                -0.420
REMARK SMILES C=C1C[C@@]2(O)O[C@]3(C[C@H]2C(C)C)[C@@H]1CC[C@@H]3C
REMARK SMILES IDX 17 1 16 2 15 3 14 4 13 5 7 6 8 7 9 8 4 9 6 10 3 11 2 12 1 13
REMARK SMILES IDX 10 14 11 15 12 16 5 17
REMARK H PARENT 5 18
REMARK Flexibility Score: inf
ROOT
ATOM      1  C   UNL     1      51.278 -18.866  -0.609  1.00  0.00     0.011 C 
ATOM      2  C   UNL     1      51.625 -18.740   0.884  1.00  0.00     0.019 C 
ATOM      3  C   UNL     1      50.497 -18.027   1.676  1.00  0.00     0.007 C 
ATOM      4  C   UNL     1      49.796 -19.089   2.545  1.00  0.00     0.011 C 
ATOM      5  C   UNL     1      50.321 -20.412   2.007  1.00  0.00     0.047 C 
ATOM      6  C   UNL     1      51.758 -20.104   1.584  1.00  0.00     0.081 C 
ATOM      7  C   UNL     1      52.747 -20.037   2.783  1.00  0.00     0.046 C 
ATOM      8  C   UNL     1      53.437 -21.395   2.746  1.00  0.00     0.054 C 
ATOM      9  C   UNL     1      52.552 -22.164   1.743  1.00  0.00     0.173 C 
ATOM     10  O   UNL     1      52.190 -21.181   0.783  1.00  0.00    -0.342 OA
ATOM     11  C   UNL     1      51.251 -22.765   2.394  1.00  0.00     0.096 C 
ATOM     12  C   UNL     1      50.316 -21.659   2.859  1.00  0.00    -0.066 C 
ATOM     13  C   UNL     1      49.405 -21.873   3.818  1.00  0.00     0.008 C 
ENDROOT
BRANCH   8  14
ATOM     14  C   UNL     1      53.664 -22.031   4.152  1.00  0.00    -0.009 C 
ATOM     15  C   UNL     1      53.373 -21.010   5.266  1.00  0.00     0.008 C 
ATOM     16  C   UNL     1      55.106 -22.540   4.313  1.00  0.00     0.008 C 
ENDBRANCH   8  14
BRANCH   9  17
ATOM     17  O   UNL     1      53.302 -23.178   1.127  1.00  0.00    -0.365 OA
ATOM     18  H   UNL     1      53.415 -22.919   0.175  1.00  0.00     0.214 HD
ENDBRANCH   9  17
TORSDOF 2
ENDMDL
MODEL 8
REMARK VINA RESULT:    -5.537      1.827      4.671
REMARK INTER + INTRA:          -6.443
REMARK INTER:                  -6.101
REMARK INTRA:                  -0.341
REMARK UNBOUND:                -0.420
REMARK SMILES C=C1C[C@@]2(O)O[C@]3(C[C@H]2C(C)C)[C@@H]1CC[C@@H]3C
REMARK SMILES IDX 17 1 16 2 15 3 14 4 13 5 7 6 8 7 9 8 4 9 6 10 3 11 2 12 1 13
REMARK SMILES IDX 10 14 11 15 12 16 5 17
REMARK H PARENT 5 18
REMARK Flexibility Score: inf
ROOT
ATOM      1  C   UNL     1      48.219 -20.691   2.958  1.00  0.00     0.011 C 
ATOM      2  C   UNL     1      49.247 -21.569   3.688  1.00  0.00     0.019 C 
ATOM      3  C   UNL     1      49.219 -23.033   3.174  1.00  0.00     0.007 C 
ATOM      4  C   UNL     1      50.502 -23.261   2.352  1.00  0.00     0.011 C 
ATOM      5  C   UNL     1      51.070 -21.864   2.155  1.00  0.00     0.047 C 
ATOM      6  C   UNL     1      50.699 -21.122   3.441  1.00  0.00     0.081 C 
ATOM      7  C   UNL     1      51.620 -21.481   4.641  1.00  0.00     0.046 C 
ATOM      8  C   UNL     1      52.591 -20.309   4.702  1.00  0.00     0.054 C 
ATOM      9  C   UNL     1      52.301 -19.597   3.364  1.00  0.00     0.173 C 
ATOM     10  O   UNL     1      50.899 -19.748   3.194  1.00  0.00    -0.342 OA
ATOM     11  C   UNL     1      53.051 -20.243   2.140  1.00  0.00     0.096 C 
ATOM     12  C   UNL     1      52.537 -21.649   1.870  1.00  0.00    -0.066 C 
ATOM     13  C   UNL     1      53.285 -22.553   1.221  1.00  0.00     0.008 C 
ENDROOT
BRANCH   8  14
ATOM     14  C   UNL     1      54.066 -20.719   5.003  1.00  0.00    -0.009 C 
ATOM     15  C   UNL     1      54.236 -22.245   4.914  1.00  0.00     0.008 C 
ATOM     16  C   UNL     1      54.505 -20.253   6.402  1.00  0.00     0.008 C 
ENDBRANCH   8  14
BRANCH   9  17
ATOM     17  O   UNL     1      52.624 -18.234   3.469  1.00  0.00    -0.365 OA
ATOM     18  H   UNL     1      53.570 -18.137   3.186  1.00  0.00     0.214 HD
ENDBRANCH   9  17
TORSDOF 2
ENDMDL
MODEL 9
REMARK VINA RESULT:    -5.304      1.858      3.111
REMARK INTER + INTRA:          -6.189
REMARK INTER:                  -5.765
REMARK INTRA:                  -0.424
REMARK UNBOUND:                -0.420
REMARK SMILES C=C1C[C@@]2(O)O[C@]3(C[C@H]2C(C)C)[C@@H]1CC[C@@H]3C
REMARK SMILES IDX 17 1 16 2 15 3 14 4 13 5 7 6 8 7 9 8 4 9 6 10 3 11 2 12 1 13
REMARK SMILES IDX 10 14 11 15 12 16 5 17
REMARK H PARENT 5 18
REMARK Flexibility Score: inf
ROOT
ATOM      1  C   UNL     1      53.828 -20.249   6.271  1.00  0.00     0.011 C 
ATOM      2  C   UNL     1      53.831 -19.677   4.844  1.00  0.00     0.019 C 
ATOM      3  C   UNL     1      55.196 -19.897   4.141  1.00  0.00     0.007 C 
ATOM      4  C   UNL     1      54.994 -20.979   3.062  1.00  0.00     0.011 C 
ATOM      5  C   UNL     1      53.625 -21.564   3.376  1.00  0.00     0.047 C 
ATOM      6  C   UNL     1      52.823 -20.378   3.916  1.00  0.00     0.081 C 
ATOM      7  C   UNL     1      52.315 -19.424   2.798  1.00  0.00     0.046 C 
ATOM      8  C   UNL     1      50.858 -19.833   2.621  1.00  0.00     0.054 C 
ATOM      9  C   UNL     1      50.807 -21.149   3.426  1.00  0.00     0.173 C 
ATOM     10  O   UNL     1      51.669 -20.909   4.529  1.00  0.00    -0.342 OA
ATOM     11  C   UNL     1      51.326 -22.394   2.616  1.00  0.00     0.096 C 
ATOM     12  C   UNL     1      52.812 -22.264   2.314  1.00  0.00    -0.066 C 
ATOM     13  C   UNL     1      53.375 -22.919   1.289  1.00  0.00     0.008 C 
ENDROOT
BRANCH   8  14
ATOM     14  C   UNL     1      50.383 -19.869   1.136  1.00  0.00    -0.009 C 
ATOM     15  C   UNL     1      51.509 -19.415   0.192  1.00  0.00     0.008 C 
ATOM     16  C   UNL     1      49.158 -18.966   0.915  1.00  0.00     0.008 C 
ENDBRANCH   8  14
BRANCH   9  17
ATOM     17  O   UNL     1      49.499 -21.376   3.884  1.00  0.00    -0.365 OA
ATOM     18  H   UNL     1      49.573 -21.895   4.728  1.00  0.00     0.214 HD
ENDBRANCH   9  17
TORSDOF 2
ENDMDL
