MODEL 1
REMARK VINA RESULT:    -3.866      0.000      0.000
REMARK INTER + INTRA:          -5.065
REMARK INTER:                  -4.657
REMARK INTRA:                  -0.408
REMARK UNBOUND:                -0.408
REMARK SMILES O=c1c(O)c(-c2ccc(O)cc2O)oc2cc(O)cc(O)c12
REMARK SMILES IDX 5 1 3 2 2 3 1 4 22 5 20 6 19 7 17 8 16 9 15 10 14 11 6 12
REMARK SMILES IDX 8 13 7 14 9 15 11 16 12 17 10 18 13 20 4 22 21 24 18 26
REMARK H PARENT 10 19 13 21 4 23 21 25 18 27
REMARK Flexibility Score: inf
ROOT
ATOM      1  C   UNL     1      75.977  34.432  52.328  1.00  0.00     0.184 A 
ATOM      2  C   UNL     1      76.023  35.262  51.198  1.00  0.00     0.208 A 
ATOM      3  C   UNL     1      77.212  35.338  50.456  1.00  0.00     0.238 A 
ATOM      4  O   UNL     1      77.264  36.125  49.475  1.00  0.00    -0.285 OA
ATOM      5  C   UNL     1      78.335  34.569  50.847  1.00  0.00     0.111 A 
ATOM      6  C   UNL     1      79.579  34.536  50.147  1.00  0.00     0.134 A 
ATOM      7  C   UNL     1      80.662  33.841  50.696  1.00  0.00     0.093 A 
ATOM      8  C   UNL     1      80.531  33.124  51.884  1.00  0.00     0.123 A 
ATOM      9  C   UNL     1      79.303  33.099  52.547  1.00  0.00     0.094 A 
ATOM     10  C   UNL     1      78.213  33.813  52.042  1.00  0.00     0.146 A 
ATOM     11  O   UNL     1      77.065  33.773  52.709  1.00  0.00    -0.451 OA
ENDROOT
BRANCH   1  12
ATOM     12  C   UNL     1      74.751  34.295  53.142  1.00  0.00     0.063 A 
ATOM     13  C   UNL     1      72.615  33.193  53.511  1.00  0.00     0.047 A 
ATOM     14  C   UNL     1      73.788  33.345  52.766  1.00  0.00     0.020 A 
ATOM     15  C   UNL     1      72.384  34.000  54.631  1.00  0.00     0.119 A 
ATOM     16  C   UNL     1      73.327  34.964  54.998  1.00  0.00     0.093 A 
ATOM     17  C   UNL     1      74.505  35.127  54.253  1.00  0.00     0.130 A 
BRANCH  15  18
ATOM     18  O   UNL     1      71.220  33.855  55.383  1.00  0.00    -0.508 OA
ATOM     19  H   UNL     1      70.736  34.657  55.769  1.00  0.00     0.293 HD
ENDBRANCH  15  18
BRANCH  17  20
ATOM     20  O   UNL     1      75.414  36.125  54.602  1.00  0.00    -0.507 OA
ATOM     21  H   UNL     1      75.107  37.045  54.895  1.00  0.00     0.293 HD
ENDBRANCH  17  20
ENDBRANCH   1  12
BRANCH   2  22
ATOM     22  O   UNL     1      74.905  36.024  50.845  1.00  0.00    -0.502 OA
ATOM     23  H   UNL     1      74.125  36.168  51.476  1.00  0.00     0.293 HD
ENDBRANCH   2  22
BRANCH   6  24
ATOM     24  O   UNL     1      79.791  35.142  48.905  1.00  0.00    -0.507 OA
ATOM     25  H   UNL     1      80.696  35.349  48.513  1.00  0.00     0.293 HD
ENDBRANCH   6  24
BRANCH   8  26
ATOM     26  O   UNL     1      81.626  32.430  52.394  1.00  0.00    -0.508 OA
ATOM     27  H   UNL     1      81.646  31.417  52.422  1.00  0.00     0.293 HD
ENDBRANCH   8  26
TORSDOF 6
ENDMDL
MODEL 2
REMARK VINA RESULT:    -3.680      0.885      1.397
REMARK INTER + INTRA:          -4.841
REMARK INTER:                  -4.527
REMARK INTRA:                  -0.314
REMARK UNBOUND:                -0.408
REMARK SMILES O=c1c(O)c(-c2ccc(O)cc2O)oc2cc(O)cc(O)c12
REMARK SMILES IDX 5 1 3 2 2 3 1 4 22 5 20 6 19 7 17 8 16 9 15 10 14 11 6 12
REMARK SMILES IDX 8 13 7 14 9 15 11 16 12 17 10 18 13 20 4 22 21 24 18 26
REMARK H PARENT 10 19 13 21 4 23 21 25 18 27
REMARK Flexibility Score: inf
ROOT
ATOM      1  C   UNL     1      76.153  34.683  52.376  1.00  0.00     0.184 A 
ATOM      2  C   UNL     1      76.120  35.409  51.175  1.00  0.00     0.208 A 
ATOM      3  C   UNL     1      77.264  35.429  50.361  1.00  0.00     0.238 A 
ATOM      4  O   UNL     1      77.247  36.125  49.312  1.00  0.00    -0.285 OA
ATOM      5  C   UNL     1      78.419  34.709  50.752  1.00  0.00     0.111 A 
ATOM      6  C   UNL     1      79.620  34.625  49.985  1.00  0.00     0.134 A 
ATOM      7  C   UNL     1      80.744  33.993  50.529  1.00  0.00     0.093 A 
ATOM      8  C   UNL     1      80.692  33.385  51.783  1.00  0.00     0.123 A 
ATOM      9  C   UNL     1      79.505  33.408  52.517  1.00  0.00     0.094 A 
ATOM     10  C   UNL     1      78.377  34.063  52.015  1.00  0.00     0.146 A 
ATOM     11  O   UNL     1      77.270  34.072  52.750  1.00  0.00    -0.451 OA
ENDROOT
BRANCH   1  12
ATOM     12  C   UNL     1      74.978  34.608  53.270  1.00  0.00     0.063 A 
ATOM     13  C   UNL     1      73.362  35.757  54.677  1.00  0.00     0.047 A 
ATOM     14  C   UNL     1      74.468  35.793  53.823  1.00  0.00     0.020 A 
ATOM     15  C   UNL     1      72.762  34.534  55.000  1.00  0.00     0.119 A 
ATOM     16  C   UNL     1      73.279  33.348  54.472  1.00  0.00     0.093 A 
ATOM     17  C   UNL     1      74.392  33.374  53.618  1.00  0.00     0.130 A 
BRANCH  15  18
ATOM     18  O   UNL     1      71.657  34.487  55.847  1.00  0.00    -0.508 OA
ATOM     19  H   UNL     1      71.586  33.797  56.586  1.00  0.00     0.293 HD
ENDBRANCH  15  18
BRANCH  17  20
ATOM     20  O   UNL     1      74.927  32.179  53.138  1.00  0.00    -0.507 OA
ATOM     21  H   UNL     1      75.785  32.158  52.599  1.00  0.00     0.293 HD
ENDBRANCH  17  20
ENDBRANCH   1  12
BRANCH   2  22
ATOM     22  O   UNL     1      74.973  36.125  50.822  1.00  0.00    -0.502 OA
ATOM     23  H   UNL     1      74.415  35.891  50.009  1.00  0.00     0.293 HD
ENDBRANCH   2  22
BRANCH   6  24
ATOM     24  O   UNL     1      79.751  35.120  48.684  1.00  0.00    -0.507 OA
ATOM     25  H   UNL     1      80.622  35.194  48.182  1.00  0.00     0.293 HD
ENDBRANCH   6  24
BRANCH   8  26
ATOM     26  O   UNL     1      81.826  32.750  52.287  1.00  0.00    -0.508 OA
ATOM     27  H   UNL     1      82.208  32.989  53.194  1.00  0.00     0.293 HD
ENDBRANCH   8  26
TORSDOF 6
ENDMDL
MODEL 3
REMARK VINA RESULT:    -1.601      1.490      6.475
REMARK INTER + INTRA:          -2.337
REMARK INTER:                  -2.194
REMARK INTRA:                  -0.143
REMARK UNBOUND:                -0.408
REMARK SMILES O=c1c(O)c(-c2ccc(O)cc2O)oc2cc(O)cc(O)c12
REMARK SMILES IDX 5 1 3 2 2 3 1 4 22 5 20 6 19 7 17 8 16 9 15 10 14 11 6 12
REMARK SMILES IDX 8 13 7 14 9 15 11 16 12 17 10 18 13 20 4 22 21 24 18 26
REMARK H PARENT 10 19 13 21 4 23 21 25 18 27
REMARK Flexibility Score: inf
ROOT
ATOM      1  C   UNL     1      76.837  34.032  52.104  1.00  0.00     0.184 A 
ATOM      2  C   UNL     1      76.289  34.993  51.240  1.00  0.00     0.208 A 
ATOM      3  C   UNL     1      74.923  35.302  51.345  1.00  0.00     0.238 A 
ATOM      4  O   UNL     1      74.426  36.125  50.532  1.00  0.00    -0.285 OA
ATOM      5  C   UNL     1      74.129  34.657  52.323  1.00  0.00     0.111 A 
ATOM      6  C   UNL     1      72.744  34.921  52.546  1.00  0.00     0.134 A 
ATOM      7  C   UNL     1      72.027  34.132  53.453  1.00  0.00     0.093 A 
ATOM      8  C   UNL     1      72.657  33.132  54.192  1.00  0.00     0.123 A 
ATOM      9  C   UNL     1      74.024  32.904  54.027  1.00  0.00     0.094 A 
ATOM     10  C   UNL     1      74.759  33.652  53.103  1.00  0.00     0.146 A 
ATOM     11  O   UNL     1      76.055  33.395  52.967  1.00  0.00    -0.451 OA
ENDROOT
BRANCH   1  12
ATOM     12  C   UNL     1      78.270  33.673  52.057  1.00  0.00     0.063 A 
ATOM     13  C   UNL     1      80.589  34.393  51.938  1.00  0.00     0.047 A 
ATOM     14  C   UNL     1      79.226  34.698  51.989  1.00  0.00     0.020 A 
ATOM     15  C   UNL     1      81.012  33.059  51.938  1.00  0.00     0.119 A 
ATOM     16  C   UNL     1      80.065  32.031  51.981  1.00  0.00     0.093 A 
ATOM     17  C   UNL     1      78.694  32.329  52.028  1.00  0.00     0.130 A 
BRANCH  15  18
ATOM     18  O   UNL     1      82.368  32.743  51.891  1.00  0.00    -0.508 OA
ATOM     19  H   UNL     1      83.081  33.453  52.008  1.00  0.00     0.293 HD
ENDBRANCH  15  18
BRANCH  17  20
ATOM     20  O   UNL     1      77.760  31.294  52.021  1.00  0.00    -0.507 OA
ATOM     21  H   UNL     1      76.775  31.466  52.190  1.00  0.00     0.293 HD
ENDBRANCH  17  20
ENDBRANCH   1  12
BRANCH   2  22
ATOM     22  O   UNL     1      77.092  35.601  50.272  1.00  0.00    -0.502 OA
ATOM     23  H   UNL     1      76.791  35.718  49.311  1.00  0.00     0.293 HD
ENDBRANCH   2  22
BRANCH   6  24
ATOM     24  O   UNL     1      72.039  35.958  51.927  1.00  0.00    -0.507 OA
ATOM     25  H   UNL     1      72.170  36.938  52.121  1.00  0.00     0.293 HD
ENDBRANCH   6  24
BRANCH   8  26
ATOM     26  O   UNL     1      71.916  32.376  55.098  1.00  0.00    -0.508 OA
ATOM     27  H   UNL     1      72.143  31.408  55.291  1.00  0.00     0.293 HD
ENDBRANCH   8  26
TORSDOF 6
ENDMDL
MODEL 4
REMARK VINA RESULT:    -1.414     13.399     15.712
REMARK INTER + INTRA:          -2.112
REMARK INTER:                  -1.953
REMARK INTRA:                  -0.158
REMARK UNBOUND:                -0.408
REMARK SMILES O=c1c(O)c(-c2ccc(O)cc2O)oc2cc(O)cc(O)c12
REMARK SMILES IDX 5 1 3 2 2 3 1 4 22 5 20 6 19 7 17 8 16 9 15 10 14 11 6 12
REMARK SMILES IDX 8 13 7 14 9 15 11 16 12 17 10 18 13 20 4 22 21 24 18 26
REMARK H PARENT 10 19 13 21 4 23 21 25 18 27
REMARK Flexibility Score: inf
ROOT
ATOM      1  C   UNL     1      85.508  31.508  64.456  1.00  0.00     0.184 A 
ATOM      2  C   UNL     1      86.516  31.978  65.313  1.00  0.00     0.208 A 
ATOM      3  C   UNL     1      87.045  33.262  65.103  1.00  0.00     0.238 A 
ATOM      4  O   UNL     1      87.985  33.656  65.841  1.00  0.00    -0.285 OA
ATOM      5  C   UNL     1      86.547  34.063  64.047  1.00  0.00     0.111 A 
ATOM      6  C   UNL     1      86.981  35.394  63.766  1.00  0.00     0.134 A 
ATOM      7  C   UNL     1      86.513  36.045  62.619  1.00  0.00     0.093 A 
ATOM      8  C   UNL     1      85.580  35.441  61.777  1.00  0.00     0.123 A 
ATOM      9  C   UNL     1      85.103  34.163  62.074  1.00  0.00     0.094 A 
ATOM     10  C   UNL     1      85.578  33.474  63.193  1.00  0.00     0.146 A 
ATOM     11  O   UNL     1      85.108  32.255  63.434  1.00  0.00    -0.451 OA
ENDROOT
BRANCH   1  12
ATOM     12  C   UNL     1      84.898  30.174  64.632  1.00  0.00     0.063 A 
ATOM     13  C   UNL     1      85.191  27.781  64.948  1.00  0.00     0.047 A 
ATOM     14  C   UNL     1      85.735  29.058  64.785  1.00  0.00     0.020 A 
ATOM     15  C   UNL     1      83.803  27.603  64.946  1.00  0.00     0.119 A 
ATOM     16  C   UNL     1      82.962  28.706  64.771  1.00  0.00     0.093 A 
ATOM     17  C   UNL     1      83.500  29.991  64.601  1.00  0.00     0.130 A 
BRANCH  15  18
ATOM     18  O   UNL     1      83.249  26.335  65.112  1.00  0.00    -0.508 OA
ATOM     19  H   UNL     1      82.289  26.140  64.855  1.00  0.00     0.293 HD
ENDBRANCH  15  18
BRANCH  17  20
ATOM     20  O   UNL     1      82.652  31.075  64.379  1.00  0.00    -0.507 OA
ATOM     21  H   UNL     1      82.271  31.273  63.460  1.00  0.00     0.293 HD
ENDBRANCH  17  20
ENDBRANCH   1  12
BRANCH   2  22
ATOM     22  O   UNL     1      87.001  31.159  66.336  1.00  0.00    -0.502 OA
ATOM     23  H   UNL     1      87.422  30.255  66.155  1.00  0.00     0.293 HD
ENDBRANCH   2  22
BRANCH   6  24
ATOM     24  O   UNL     1      87.842  36.124  64.591  1.00  0.00    -0.507 OA
ATOM     25  H   UNL     1      88.480  36.835  64.270  1.00  0.00     0.293 HD
ENDBRANCH   6  24
BRANCH   8  26
ATOM     26  O   UNL     1      85.124  36.125  60.652  1.00  0.00    -0.508 OA
ATOM     27  H   UNL     1      84.802  35.633  59.827  1.00  0.00     0.293 HD
ENDBRANCH   8  26
TORSDOF 6
ENDMDL
MODEL 5
REMARK VINA RESULT:    -1.352      1.294      1.685
REMARK INTER + INTRA:          -2.037
REMARK INTER:                  -2.528
REMARK INTRA:                   0.491
REMARK UNBOUND:                -0.408
REMARK SMILES O=c1c(O)c(-c2ccc(O)cc2O)oc2cc(O)cc(O)c12
REMARK SMILES IDX 5 1 3 2 2 3 1 4 22 5 20 6 19 7 17 8 16 9 15 10 14 11 6 12
REMARK SMILES IDX 8 13 7 14 9 15 11 16 12 17 10 18 13 20 4 22 21 24 18 26
REMARK H PARENT 10 19 13 21 4 23 21 25 18 27
REMARK Flexibility Score: inf
ROOT
ATOM      1  C   UNL     1      75.412  33.925  52.793  1.00  0.00     0.184 A 
ATOM      2  C   UNL     1      75.755  35.046  52.022  1.00  0.00     0.208 A 
ATOM      3  C   UNL     1      77.007  35.077  51.386  1.00  0.00     0.238 A 
ATOM      4  O   UNL     1      77.331  36.109  50.741  1.00  0.00    -0.285 OA
ATOM      5  C   UNL     1      77.891  33.979  51.518  1.00  0.00     0.111 A 
ATOM      6  C   UNL     1      79.167  33.885  50.885  1.00  0.00     0.134 A 
ATOM      7  C   UNL     1      80.011  32.811  51.189  1.00  0.00     0.093 A 
ATOM      8  C   UNL     1      79.603  31.795  52.052  1.00  0.00     0.123 A 
ATOM      9  C   UNL     1      78.333  31.845  52.630  1.00  0.00     0.094 A 
ATOM     10  C   UNL     1      77.481  32.923  52.373  1.00  0.00     0.146 A 
ATOM     11  O   UNL     1      76.286  32.939  52.952  1.00  0.00    -0.451 OA
ENDROOT
BRANCH   1  12
ATOM     12  C   UNL     1      74.104  33.821  53.474  1.00  0.00     0.063 A 
ATOM     13  C   UNL     1      72.838  33.206  55.456  1.00  0.00     0.047 A 
ATOM     14  C   UNL     1      74.058  33.322  54.785  1.00  0.00     0.020 A 
ATOM     15  C   UNL     1      71.648  33.574  54.819  1.00  0.00     0.119 A 
ATOM     16  C   UNL     1      71.682  34.049  53.505  1.00  0.00     0.093 A 
ATOM     17  C   UNL     1      72.902  34.164  52.822  1.00  0.00     0.130 A 
BRANCH  15  18
ATOM     18  O   UNL     1      70.425  33.466  55.480  1.00  0.00    -0.508 OA
ATOM     19  H   UNL     1      70.095  34.193  56.103  1.00  0.00     0.293 HD
ENDBRANCH  15  18
BRANCH  17  20
ATOM     20  O   UNL     1      72.917  34.593  51.496  1.00  0.00    -0.507 OA
ATOM     21  H   UNL     1      72.242  34.255  50.819  1.00  0.00     0.293 HD
ENDBRANCH  17  20
ENDBRANCH   1  12
BRANCH   2  22
ATOM     22  O   UNL     1      74.871  36.124  51.924  1.00  0.00    -0.502 OA
ATOM     23  H   UNL     1      75.142  37.014  51.523  1.00  0.00     0.293 HD
ENDBRANCH   2  22
BRANCH   6  24
ATOM     24  O   UNL     1      79.636  34.799  49.937  1.00  0.00    -0.507 OA
ATOM     25  H   UNL     1      80.529  35.265  49.980  1.00  0.00     0.293 HD
ENDBRANCH   6  24
BRANCH   8  26
ATOM     26  O   UNL     1      80.463  30.732  52.320  1.00  0.00    -0.508 OA
ATOM     27  H   UNL     1      80.930  30.641  53.214  1.00  0.00     0.293 HD
ENDBRANCH   8  26
TORSDOF 6
ENDMDL
