MODEL 1
REMARK VINA RESULT:    -4.954      0.000      0.000
REMARK INTER + INTRA:         -11.001
REMARK INTER:                  -8.719
REMARK INTRA:                  -2.282
REMARK UNBOUND:                -2.282
REMARK SMILES CCCCCCCCCCCCCCC(=O)[O-]
REMARK SMILES IDX 9 1 10 2 11 3 12 4 13 5 14 6 15 7 16 8 17 9 8 10 7 11 6 12
REMARK SMILES IDX 5 13 4 14 3 15 2 16 1 17
REMARK H PARENT
REMARK Flexibility Score: inf
ROOT
ATOM      1  C   UNL     1      20.269  21.315   5.656  1.00  0.00     0.000 C 
ENDROOT
BRANCH   1   2
ATOM      2  C   UNL     1      18.899  21.977   5.439  1.00  0.00     0.000 C 
BRANCH   2   3
ATOM      3  C   UNL     1      18.640  23.134   6.415  1.00  0.00     0.000 C 
BRANCH   3   4
ATOM      4  C   UNL     1      17.137  23.380   6.588  1.00  0.00     0.000 C 
BRANCH   4   5
ATOM      5  C   UNL     1      16.875  24.479   7.629  1.00  0.00     0.006 C 
BRANCH   5   6
ATOM      6  C   UNL     1      18.167  25.179   8.072  1.00  0.00     0.053 C 
BRANCH   6   7
ATOM      7  C   UNL     1      17.956  26.003   9.305  1.00  0.00     0.041 C 
ATOM      8  O   UNL     1      17.078  25.674  10.145  1.00  0.00    -0.550 OA
ATOM      9  O   UNL     1      18.709  27.152   9.509  1.00  0.00    -0.550 OA
ENDBRANCH   6   7
ENDBRANCH   5   6
ENDBRANCH   4   5
ENDBRANCH   3   4
ENDBRANCH   2   3
ENDBRANCH   1   2
BRANCH   1  10
ATOM     10  C   UNL     1      21.204  22.167   6.534  1.00  0.00     0.000 C 
BRANCH  10  11
ATOM     11  C   UNL     1      21.655  21.430   7.805  1.00  0.00    -0.000 C 
BRANCH  11  12
ATOM     12  C   UNL     1      21.938  22.386   8.973  1.00  0.00    -0.000 C 
BRANCH  12  13
ATOM     13  C   UNL     1      20.633  22.949   9.550  1.00  0.00    -0.000 C 
BRANCH  13  14
ATOM     14  C   UNL     1      19.625  21.827   9.831  1.00  0.00    -0.000 C 
BRANCH  14  15
ATOM     15  C   UNL     1      18.428  22.352  10.632  1.00  0.00    -0.000 C 
BRANCH  15  16
ATOM     16  C   UNL     1      17.115  21.753  10.114  1.00  0.00    -0.003 C 
ATOM     17  C   UNL     1      17.378  20.636   9.107  1.00  0.00     0.004 C 
ENDBRANCH  15  16
ENDBRANCH  14  15
ENDBRANCH  13  14
ENDBRANCH  12  13
ENDBRANCH  11  12
ENDBRANCH  10  11
ENDBRANCH   1  10
TORSDOF 13
ENDMDL
MODEL 2
REMARK VINA RESULT:    -4.832      2.514      4.624
REMARK INTER + INTRA:         -10.787
REMARK INTER:                  -8.700
REMARK INTRA:                  -2.087
REMARK UNBOUND:                -2.282
REMARK SMILES CCCCCCCCCCCCCCC(=O)[O-]
REMARK SMILES IDX 9 1 10 2 11 3 12 4 13 5 14 6 15 7 16 8 17 9 8 10 7 11 6 12
REMARK SMILES IDX 5 13 4 14 3 15 2 16 1 17
REMARK H PARENT
REMARK Flexibility Score: inf
ROOT
ATOM      1  C   UNL     1      21.645  22.891   9.428  1.00  0.00     0.000 C 
ENDROOT
BRANCH   1   2
ATOM      2  C   UNL     1      21.339  21.809   8.379  1.00  0.00     0.000 C 
BRANCH   2   3
ATOM      3  C   UNL     1      21.215  22.383   6.960  1.00  0.00     0.000 C 
BRANCH   3   4
ATOM      4  C   UNL     1      19.868  23.091   6.770  1.00  0.00     0.000 C 
BRANCH   4   5
ATOM      5  C   UNL     1      18.961  22.302   5.813  1.00  0.00     0.006 C 
BRANCH   5   6
ATOM      6  C   UNL     1      17.664  21.841   6.491  1.00  0.00     0.053 C 
BRANCH   6   7
ATOM      7  C   UNL     1      17.834  20.515   7.168  1.00  0.00     0.041 C 
ATOM      8  O   UNL     1      17.047  20.168   8.088  1.00  0.00    -0.550 OA
ATOM      9  O   UNL     1      18.881  19.678   6.805  1.00  0.00    -0.550 OA
ENDBRANCH   6   7
ENDBRANCH   5   6
ENDBRANCH   4   5
ENDBRANCH   3   4
ENDBRANCH   2   3
ENDBRANCH   1   2
BRANCH   1  10
ATOM     10  C   UNL     1      20.485  23.098  10.418  1.00  0.00     0.000 C 
BRANCH  10  11
ATOM     11  C   UNL     1      19.356  22.073  10.229  1.00  0.00    -0.000 C 
BRANCH  11  12
ATOM     12  C   UNL     1      18.066  22.473  10.957  1.00  0.00    -0.000 C 
BRANCH  12  13
ATOM     13  C   UNL     1      17.052  23.085   9.982  1.00  0.00    -0.000 C 
BRANCH  13  14
ATOM     14  C   UNL     1      17.083  24.617  10.044  1.00  0.00    -0.000 C 
BRANCH  14  15
ATOM     15  C   UNL     1      17.548  25.212   8.710  1.00  0.00    -0.000 C 
BRANCH  15  16
ATOM     16  C   UNL     1      18.931  25.858   8.848  1.00  0.00    -0.003 C 
ATOM     17  C   UNL     1      18.850  27.375   8.697  1.00  0.00     0.004 C 
ENDBRANCH  15  16
ENDBRANCH  14  15
ENDBRANCH  13  14
ENDBRANCH  12  13
ENDBRANCH  11  12
ENDBRANCH  10  11
ENDBRANCH   1  10
TORSDOF 13
ENDMDL
MODEL 3
REMARK VINA RESULT:    -4.750      3.668      5.741
REMARK INTER + INTRA:         -10.642
REMARK INTER:                  -8.923
REMARK INTRA:                  -1.719
REMARK UNBOUND:                -2.282
REMARK SMILES CCCCCCCCCCCCCCC(=O)[O-]
REMARK SMILES IDX 9 1 10 2 11 3 12 4 13 5 14 6 15 7 16 8 17 9 8 10 7 11 6 12
REMARK SMILES IDX 5 13 4 14 3 15 2 16 1 17
REMARK H PARENT
REMARK Flexibility Score: inf
ROOT
ATOM      1  C   UNL     1      20.691  22.763   9.680  1.00  0.00     0.000 C 
ENDROOT
BRANCH   1   2
ATOM      2  C   UNL     1      21.070  23.181   8.250  1.00  0.00     0.000 C 
BRANCH   2   3
ATOM      3  C   UNL     1      19.859  23.224   7.307  1.00  0.00     0.000 C 
BRANCH   3   4
ATOM      4  C   UNL     1      20.083  22.328   6.083  1.00  0.00     0.000 C 
BRANCH   4   5
ATOM      5  C   UNL     1      21.447  21.624   6.158  1.00  0.00     0.006 C 
BRANCH   5   6
ATOM      6  C   UNL     1      21.817  20.934   4.839  1.00  0.00     0.053 C 
BRANCH   6   7
ATOM      7  C   UNL     1      22.367  19.560   5.068  1.00  0.00     0.041 C 
ATOM      8  O   UNL     1      21.799  18.557   4.560  1.00  0.00    -0.550 OA
ATOM      9  O   UNL     1      23.489  19.384   5.868  1.00  0.00    -0.550 OA
ENDBRANCH   6   7
ENDBRANCH   5   6
ENDBRANCH   4   5
ENDBRANCH   3   4
ENDBRANCH   2   3
ENDBRANCH   1   2
BRANCH   1  10
ATOM     10  C   UNL     1      19.417  21.900   9.725  1.00  0.00     0.000 C 
BRANCH  10  11
ATOM     11  C   UNL     1      18.691  21.990  11.076  1.00  0.00    -0.000 C 
BRANCH  11  12
ATOM     12  C   UNL     1      17.428  22.860  11.011  1.00  0.00    -0.000 C 
BRANCH  12  13
ATOM     13  C   UNL     1      16.938  23.010   9.566  1.00  0.00    -0.000 C 
BRANCH  13  14
ATOM     14  C   UNL     1      16.906  24.484   9.145  1.00  0.00    -0.000 C 
BRANCH  14  15
ATOM     15  C   UNL     1      17.650  25.362  10.157  1.00  0.00    -0.000 C 
BRANCH  15  16
ATOM     16  C   UNL     1      18.883  26.013   9.520  1.00  0.00    -0.003 C 
ATOM     17  C   UNL     1      18.493  27.220   8.671  1.00  0.00     0.004 C 
ENDBRANCH  15  16
ENDBRANCH  14  15
ENDBRANCH  13  14
ENDBRANCH  12  13
ENDBRANCH  11  12
ENDBRANCH  10  11
ENDBRANCH   1  10
TORSDOF 13
ENDMDL
MODEL 4
REMARK VINA RESULT:    -4.742      2.310      4.497
REMARK INTER + INTRA:         -10.627
REMARK INTER:                  -8.802
REMARK INTRA:                  -1.825
REMARK UNBOUND:                -2.282
REMARK SMILES CCCCCCCCCCCCCCC(=O)[O-]
REMARK SMILES IDX 9 1 10 2 11 3 12 4 13 5 14 6 15 7 16 8 17 9 8 10 7 11 6 12
REMARK SMILES IDX 5 13 4 14 3 15 2 16 1 17
REMARK H PARENT
REMARK Flexibility Score: inf
ROOT
ATOM      1  C   UNL     1      18.009  21.035   8.300  1.00  0.00     0.000 C 
ENDROOT
BRANCH   1   2
ATOM      2  C   UNL     1      17.478  21.996   7.224  1.00  0.00     0.000 C 
BRANCH   2   3
ATOM      3  C   UNL     1      18.559  22.954   6.703  1.00  0.00     0.000 C 
BRANCH   3   4
ATOM      4  C   UNL     1      19.642  22.192   5.930  1.00  0.00     0.000 C 
BRANCH   4   5
ATOM      5  C   UNL     1      21.025  22.406   6.564  1.00  0.00     0.006 C 
BRANCH   5   6
ATOM      6  C   UNL     1      20.962  23.305   7.804  1.00  0.00     0.053 C 
BRANCH   6   7
ATOM      7  C   UNL     1      21.688  22.700   8.966  1.00  0.00     0.041 C 
ATOM      8  O   UNL     1      21.582  23.207  10.114  1.00  0.00    -0.550 OA
ATOM      9  O   UNL     1      22.506  21.594   8.774  1.00  0.00    -0.550 OA
ENDBRANCH   6   7
ENDBRANCH   5   6
ENDBRANCH   4   5
ENDBRANCH   3   4
ENDBRANCH   2   3
ENDBRANCH   1   2
BRANCH   1  10
ATOM     10  C   UNL     1      17.069  20.930   9.514  1.00  0.00     0.000 C 
BRANCH  10  11
ATOM     11  C   UNL     1      17.731  21.406  10.817  1.00  0.00    -0.000 C 
BRANCH  11  12
ATOM     12  C   UNL     1      18.255  22.845  10.722  1.00  0.00    -0.000 C 
BRANCH  12  13
ATOM     13  C   UNL     1      17.098  23.849  10.669  1.00  0.00    -0.000 C 
BRANCH  13  14
ATOM     14  C   UNL     1      17.394  24.981   9.677  1.00  0.00    -0.000 C 
BRANCH  14  15
ATOM     15  C   UNL     1      18.826  25.502   9.848  1.00  0.00    -0.000 C 
BRANCH  15  16
ATOM     16  C   UNL     1      18.959  26.930   9.310  1.00  0.00    -0.003 C 
ATOM     17  C   UNL     1      17.603  27.491   8.891  1.00  0.00     0.004 C 
ENDBRANCH  15  16
ENDBRANCH  14  15
ENDBRANCH  13  14
ENDBRANCH  12  13
ENDBRANCH  11  12
ENDBRANCH  10  11
ENDBRANCH   1  10
TORSDOF 13
ENDMDL
MODEL 5
REMARK VINA RESULT:    -4.726      1.320      3.425
REMARK INTER + INTRA:         -10.600
REMARK INTER:                  -8.504
REMARK INTRA:                  -2.095
REMARK UNBOUND:                -2.282
REMARK SMILES CCCCCCCCCCCCCCC(=O)[O-]
REMARK SMILES IDX 9 1 10 2 11 3 12 4 13 5 14 6 15 7 16 8 17 9 8 10 7 11 6 12
REMARK SMILES IDX 5 13 4 14 3 15 2 16 1 17
REMARK H PARENT
REMARK Flexibility Score: inf
ROOT
ATOM      1  C   UNL     1      20.844  22.772   9.945  1.00  0.00     0.000 C 
ENDROOT
BRANCH   1   2
ATOM      2  C   UNL     1      19.424  22.194   9.835  1.00  0.00     0.000 C 
BRANCH   2   3
ATOM      3  C   UNL     1      18.758  22.001  11.205  1.00  0.00     0.000 C 
BRANCH   3   4
ATOM      4  C   UNL     1      17.262  22.332  11.140  1.00  0.00     0.000 C 
BRANCH   4   5
ATOM      5  C   UNL     1      16.952  23.246   9.945  1.00  0.00     0.006 C 
BRANCH   5   6
ATOM      6  C   UNL     1      16.907  24.726  10.343  1.00  0.00     0.053 C 
BRANCH   6   7
ATOM      7  C   UNL     1      17.900  25.538   9.569  1.00  0.00     0.041 C 
ATOM      8  O   UNL     1      17.678  25.830   8.364  1.00  0.00    -0.550 OA
ATOM      9  O   UNL     1      19.083  25.946  10.170  1.00  0.00    -0.550 OA
ENDBRANCH   6   7
ENDBRANCH   5   6
ENDBRANCH   4   5
ENDBRANCH   3   4
ENDBRANCH   2   3
ENDBRANCH   1   2
BRANCH   1  10
ATOM     10  C   UNL     1      21.335  23.389   8.623  1.00  0.00     0.000 C 
BRANCH  10  11
ATOM     11  C   UNL     1      20.242  23.418   7.543  1.00  0.00    -0.000 C 
BRANCH  11  12
ATOM     12  C   UNL     1      20.499  22.408   6.416  1.00  0.00    -0.000 C 
BRANCH  12  13
ATOM     13  C   UNL     1      19.237  22.195   5.571  1.00  0.00    -0.000 C 
BRANCH  13  14
ATOM     14  C   UNL     1      18.060  23.010   6.122  1.00  0.00    -0.000 C 
BRANCH  14  15
ATOM     15  C   UNL     1      16.875  22.102   6.469  1.00  0.00    -0.000 C 
BRANCH  15  16
ATOM     16  C   UNL     1      17.285  20.625   6.429  1.00  0.00    -0.003 C 
ATOM     17  C   UNL     1      17.401  20.046   7.836  1.00  0.00     0.004 C 
ENDBRANCH  15  16
ENDBRANCH  14  15
ENDBRANCH  13  14
ENDBRANCH  12  13
ENDBRANCH  11  12
ENDBRANCH  10  11
ENDBRANCH   1  10
TORSDOF 13
ENDMDL
MODEL 6
REMARK VINA RESULT:    -4.702      2.737      5.238
REMARK INTER + INTRA:         -10.557
REMARK INTER:                  -8.443
REMARK INTRA:                  -2.114
REMARK UNBOUND:                -2.282
REMARK SMILES CCCCCCCCCCCCCCC(=O)[O-]
REMARK SMILES IDX 9 1 10 2 11 3 12 4 13 5 14 6 15 7 16 8 17 9 8 10 7 11 6 12
REMARK SMILES IDX 5 13 4 14 3 15 2 16 1 17
REMARK H PARENT
REMARK Flexibility Score: inf
ROOT
ATOM      1  C   UNL     1      20.244  23.117  10.628  1.00  0.00     0.000 C 
ENDROOT
BRANCH   1   2
ATOM      2  C   UNL     1      21.206  23.090   9.429  1.00  0.00     0.000 C 
BRANCH   2   3
ATOM      3  C   UNL     1      20.753  22.117   8.331  1.00  0.00     0.000 C 
BRANCH   3   4
ATOM      4  C   UNL     1      20.691  22.818   6.968  1.00  0.00     0.000 C 
BRANCH   4   5
ATOM      5  C   UNL     1      20.419  21.809   5.842  1.00  0.00     0.006 C 
BRANCH   5   6
ATOM      6  C   UNL     1      19.102  22.096   5.111  1.00  0.00     0.053 C 
BRANCH   6   7
ATOM      7  C   UNL     1      18.198  20.901   5.107  1.00  0.00     0.041 C 
ATOM      8  O   UNL     1      18.497  19.883   4.429  1.00  0.00    -0.550 OA
ATOM      9  O   UNL     1      17.011  20.925   5.827  1.00  0.00    -0.550 OA
ENDBRANCH   6   7
ENDBRANCH   5   6
ENDBRANCH   4   5
ENDBRANCH   3   4
ENDBRANCH   2   3
ENDBRANCH   1   2
BRANCH   1  10
ATOM     10  C   UNL     1      19.123  22.068  10.510  1.00  0.00     0.000 C 
BRANCH  10  11
ATOM     11  C   UNL     1      17.825  22.510  11.204  1.00  0.00    -0.000 C 
BRANCH  11  12
ATOM     12  C   UNL     1      16.912  23.330  10.283  1.00  0.00    -0.000 C 
BRANCH  12  13
ATOM     13  C   UNL     1      16.958  22.795   8.846  1.00  0.00    -0.000 C 
BRANCH  13  14
ATOM     14  C   UNL     1      17.341  23.903   7.857  1.00  0.00    -0.000 C 
BRANCH  14  15
ATOM     15  C   UNL     1      17.432  25.262   8.560  1.00  0.00    -0.000 C 
BRANCH  15  16
ATOM     16  C   UNL     1      18.860  25.814   8.507  1.00  0.00    -0.003 C 
ATOM     17  C   UNL     1      18.928  27.226   9.082  1.00  0.00     0.004 C 
ENDBRANCH  15  16
ENDBRANCH  14  15
ENDBRANCH  13  14
ENDBRANCH  12  13
ENDBRANCH  11  12
ENDBRANCH  10  11
ENDBRANCH   1  10
TORSDOF 13
ENDMDL
MODEL 7
REMARK VINA RESULT:    -4.549      1.330      3.987
REMARK INTER + INTRA:         -10.289
REMARK INTER:                  -8.243
REMARK INTRA:                  -2.046
REMARK UNBOUND:                -2.282
REMARK SMILES CCCCCCCCCCCCCCC(=O)[O-]
REMARK SMILES IDX 9 1 10 2 11 3 12 4 13 5 14 6 15 7 16 8 17 9 8 10 7 11 6 12
REMARK SMILES IDX 5 13 4 14 3 15 2 16 1 17
REMARK H PARENT
REMARK Flexibility Score: inf
ROOT
ATOM      1  C   UNL     1      17.181  20.924   9.370  1.00  0.00     0.000 C 
ENDROOT
BRANCH   1   2
ATOM      2  C   UNL     1      18.281  21.278  10.383  1.00  0.00     0.000 C 
BRANCH   2   3
ATOM      3  C   UNL     1      17.926  22.505  11.235  1.00  0.00     0.000 C 
BRANCH   3   4
ATOM      4  C   UNL     1      17.162  23.546  10.408  1.00  0.00     0.000 C 
BRANCH   4   5
ATOM      5  C   UNL     1      18.119  24.589   9.813  1.00  0.00     0.006 C 
BRANCH   5   6
ATOM      6  C   UNL     1      17.399  25.575   8.884  1.00  0.00     0.053 C 
BRANCH   6   7
ATOM      7  C   UNL     1      17.827  26.988   9.137  1.00  0.00     0.041 C 
ATOM      8  O   UNL     1      19.035  27.253   9.371  1.00  0.00    -0.550 OA
ATOM      9  O   UNL     1      16.884  28.008   9.144  1.00  0.00    -0.550 OA
ENDBRANCH   6   7
ENDBRANCH   5   6
ENDBRANCH   4   5
ENDBRANCH   3   4
ENDBRANCH   2   3
ENDBRANCH   1   2
BRANCH   1  10
ATOM     10  C   UNL     1      17.638  19.870   8.345  1.00  0.00     0.000 C 
BRANCH  10  11
ATOM     11  C   UNL     1      17.280  20.256   6.901  1.00  0.00    -0.000 C 
BRANCH  11  12
ATOM     12  C   UNL     1      17.103  21.771   6.721  1.00  0.00    -0.000 C 
BRANCH  12  13
ATOM     13  C   UNL     1      18.264  22.367   5.915  1.00  0.00    -0.000 C 
BRANCH  13  14
ATOM     14  C   UNL     1      19.212  23.163   6.821  1.00  0.00    -0.000 C 
BRANCH  14  15
ATOM     15  C   UNL     1      20.297  22.257   7.413  1.00  0.00    -0.000 C 
BRANCH  15  16
ATOM     16  C   UNL     1      21.446  23.085   7.998  1.00  0.00    -0.003 C 
ATOM     17  C   UNL     1      21.402  23.092   9.523  1.00  0.00     0.004 C 
ENDBRANCH  15  16
ENDBRANCH  14  15
ENDBRANCH  13  14
ENDBRANCH  12  13
ENDBRANCH  11  12
ENDBRANCH  10  11
ENDBRANCH   1  10
TORSDOF 13
ENDMDL
MODEL 8
REMARK VINA RESULT:    -4.532      1.631      4.349
REMARK INTER + INTRA:         -10.258
REMARK INTER:                  -8.767
REMARK INTRA:                  -1.491
REMARK UNBOUND:                -2.282
REMARK SMILES CCCCCCCCCCCCCCC(=O)[O-]
REMARK SMILES IDX 9 1 10 2 11 3 12 4 13 5 14 6 15 7 16 8 17 9 8 10 7 11 6 12
REMARK SMILES IDX 5 13 4 14 3 15 2 16 1 17
REMARK H PARENT
REMARK Flexibility Score: inf
ROOT
ATOM      1  C   UNL     1      21.490  23.128   9.642  1.00  0.00     0.000 C 
ENDROOT
BRANCH   1   2
ATOM      2  C   UNL     1      20.191  23.617  10.302  1.00  0.00     0.000 C 
BRANCH   2   3
ATOM      3  C   UNL     1      19.135  22.508  10.420  1.00  0.00     0.000 C 
BRANCH   3   4
ATOM      4  C   UNL     1      17.776  22.985   9.893  1.00  0.00     0.000 C 
BRANCH   4   5
ATOM      5  C   UNL     1      17.948  24.132   8.886  1.00  0.00     0.006 C 
BRANCH   5   6
ATOM      6  C   UNL     1      17.061  25.337   9.224  1.00  0.00     0.053 C 
BRANCH   6   7
ATOM      7  C   UNL     1      17.786  26.633   9.023  1.00  0.00     0.041 C 
ATOM      8  O   UNL     1      17.163  27.725   9.090  1.00  0.00    -0.550 OA
ATOM      9  O   UNL     1      19.143  26.631   8.731  1.00  0.00    -0.550 OA
ENDBRANCH   6   7
ENDBRANCH   5   6
ENDBRANCH   4   5
ENDBRANCH   3   4
ENDBRANCH   2   3
ENDBRANCH   1   2
BRANCH   1  10
ATOM     10  C   UNL     1      21.243  22.020   8.602  1.00  0.00     0.000 C 
BRANCH  10  11
ATOM     11  C   UNL     1      21.380  22.526   7.157  1.00  0.00    -0.000 C 
BRANCH  11  12
ATOM     12  C   UNL     1      20.079  22.384   6.356  1.00  0.00    -0.000 C 
BRANCH  12  13
ATOM     13  C   UNL     1      20.311  21.585   5.067  1.00  0.00    -0.000 C 
BRANCH  13  14
ATOM     14  C   UNL     1      21.783  21.179   4.928  1.00  0.00    -0.000 C 
BRANCH  14  15
ATOM     15  C   UNL     1      21.913  19.694   4.571  1.00  0.00    -0.000 C 
BRANCH  15  16
ATOM     16  C   UNL     1      23.158  19.080   5.219  1.00  0.00    -0.003 C 
ATOM     17  C   UNL     1      23.212  19.387   6.713  1.00  0.00     0.004 C 
ENDBRANCH  15  16
ENDBRANCH  14  15
ENDBRANCH  13  14
ENDBRANCH  12  13
ENDBRANCH  11  12
ENDBRANCH  10  11
ENDBRANCH   1  10
TORSDOF 13
ENDMDL
