MODEL 1
REMARK VINA RESULT:    -1.307      0.000      0.000
REMARK INTER + INTRA:          -1.457
REMARK INTER:                  -1.421
REMARK INTRA:                  -0.036
REMARK UNBOUND:                -0.036
REMARK SMILES O=C([O-])c1ccc(O)cc1
REMARK SMILES IDX 7 1 6 2 9 3 5 4 10 5 4 6 8 7 2 9 1 10 3 11
REMARK H PARENT 8 8
REMARK Flexibility Score: inf
ROOT
ATOM      1  C   UNL     1       9.884  -0.177  16.916  1.00  0.00     0.115 A 
ATOM      2  C   UNL     1      10.849   0.700  16.410  1.00  0.00     0.047 A 
ATOM      3  C   UNL     1       9.434  -0.029  18.233  1.00  0.00     0.047 A 
ATOM      4  C   UNL     1      11.365   1.721  17.215  1.00  0.00     0.014 A 
ATOM      5  C   UNL     1       9.948   0.990  19.042  1.00  0.00     0.014 A 
ATOM      6  C   UNL     1      10.919   1.876  18.541  1.00  0.00    -0.003 A 
ENDROOT
BRANCH   1   7
ATOM      7  O   UNL     1       9.380  -1.188  16.101  1.00  0.00    -0.508 OA
ATOM      8  H   UNL     1       9.548  -2.165  16.307  1.00  0.00     0.293 HD
ENDBRANCH   1   7
BRANCH   6   9
ATOM      9  C   UNL     1      11.466   2.957  19.390  1.00  0.00     0.071 C 
ATOM     10  O   UNL     1      11.177   3.017  20.616  1.00  0.00    -0.545 OA
ATOM     11  O   UNL     1      12.309   3.921  18.849  1.00  0.00    -0.545 OA
ENDBRANCH   6   9
TORSDOF 2
ENDMDL
MODEL 2
REMARK VINA RESULT:    -1.259      0.058      1.022
REMARK INTER + INTRA:          -1.405
REMARK INTER:                  -1.369
REMARK INTRA:                  -0.036
REMARK UNBOUND:                -0.036
REMARK SMILES O=C([O-])c1ccc(O)cc1
REMARK SMILES IDX 7 1 6 2 9 3 5 4 10 5 4 6 8 7 2 9 1 10 3 11
REMARK H PARENT 8 8
REMARK Flexibility Score: inf
ROOT
ATOM      1  C   UNL     1       9.861  -0.189  16.916  1.00  0.00     0.115 A 
ATOM      2  C   UNL     1      10.822   0.683  16.392  1.00  0.00     0.047 A 
ATOM      3  C   UNL     1       9.435  -0.035  18.241  1.00  0.00     0.047 A 
ATOM      4  C   UNL     1      11.354   1.704  17.184  1.00  0.00     0.014 A 
ATOM      5  C   UNL     1       9.966   0.986  19.037  1.00  0.00     0.014 A 
ATOM      6  C   UNL     1      10.932   1.866  18.516  1.00  0.00    -0.003 A 
ENDROOT
BRANCH   1   7
ATOM      7  O   UNL     1       9.340  -1.201  16.114  1.00  0.00    -0.508 OA
ATOM      8  H   UNL     1       9.357  -2.170  16.408  1.00  0.00     0.293 HD
ENDBRANCH   1   7
BRANCH   6   9
ATOM      9  C   UNL     1      11.497   2.947  19.352  1.00  0.00     0.071 C 
ATOM     10  O   UNL     1      12.241   3.829  18.844  1.00  0.00    -0.545 OA
ATOM     11  O   UNL     1      11.214   3.008  20.712  1.00  0.00    -0.545 OA
ENDBRANCH   6   9
TORSDOF 2
ENDMDL
MODEL 3
REMARK VINA RESULT:    -0.673      0.986      4.113
REMARK INTER + INTRA:          -0.768
REMARK INTER:                  -0.732
REMARK INTRA:                  -0.035
REMARK UNBOUND:                -0.036
REMARK SMILES O=C([O-])c1ccc(O)cc1
REMARK SMILES IDX 7 1 6 2 9 3 5 4 10 5 4 6 8 7 2 9 1 10 3 11
REMARK H PARENT 8 8
REMARK Flexibility Score: inf
ROOT
ATOM      1  C   UNL     1      11.021   2.491  19.282  1.00  0.00     0.115 A 
ATOM      2  C   UNL     1      11.605   2.690  18.026  1.00  0.00     0.047 A 
ATOM      3  C   UNL     1      10.189   1.385  19.492  1.00  0.00     0.047 A 
ATOM      4  C   UNL     1      11.360   1.791  16.984  1.00  0.00     0.014 A 
ATOM      5  C   UNL     1       9.941   0.483  18.452  1.00  0.00     0.014 A 
ATOM      6  C   UNL     1      10.524   0.677  17.186  1.00  0.00    -0.003 A 
ENDROOT
BRANCH   1   7
ATOM      7  O   UNL     1      11.276   3.396  20.310  1.00  0.00    -0.508 OA
ATOM      8  H   UNL     1      12.106   3.976  20.310  1.00  0.00     0.293 HD
ENDBRANCH   1   7
BRANCH   6   9
ATOM      9  C   UNL     1      10.267  -0.273  16.082  1.00  0.00     0.071 C 
ATOM     10  O   UNL     1       9.321  -1.102  16.158  1.00  0.00    -0.545 OA
ATOM     11  O   UNL     1      11.065  -0.264  14.944  1.00  0.00    -0.545 OA
ENDBRANCH   6   9
TORSDOF 2
ENDMDL
MODEL 4
REMARK VINA RESULT:    -0.641      0.717      1.710
REMARK INTER + INTRA:          -0.733
REMARK INTER:                  -0.706
REMARK INTRA:                  -0.027
REMARK UNBOUND:                -0.036
REMARK SMILES O=C([O-])c1ccc(O)cc1
REMARK SMILES IDX 7 1 6 2 9 3 5 4 10 5 4 6 8 7 2 9 1 10 3 11
REMARK H PARENT 8 8
REMARK Flexibility Score: inf
ROOT
ATOM      1  C   UNL     1      10.016  -0.172  17.029  1.00  0.00     0.115 A 
ATOM      2  C   UNL     1       9.511  -0.102  18.331  1.00  0.00     0.047 A 
ATOM      3  C   UNL     1      10.927   0.794  16.585  1.00  0.00     0.047 A 
ATOM      4  C   UNL     1       9.912   0.928  19.188  1.00  0.00     0.014 A 
ATOM      5  C   UNL     1      11.330   1.826  17.439  1.00  0.00     0.014 A 
ATOM      6  C   UNL     1      10.826   1.903  18.750  1.00  0.00    -0.003 A 
ENDROOT
BRANCH   1   7
ATOM      7  O   UNL     1       9.608  -1.204  16.187  1.00  0.00    -0.508 OA
ATOM      8  H   UNL     1       8.653  -1.544  16.193  1.00  0.00     0.293 HD
ENDBRANCH   1   7
BRANCH   6   9
ATOM      9  C   UNL     1      11.249   2.992  19.659  1.00  0.00     0.071 C 
ATOM     10  O   UNL     1      12.285   2.870  20.365  1.00  0.00    -0.545 OA
ATOM     11  O   UNL     1      10.509   4.166  19.745  1.00  0.00    -0.545 OA
ENDBRANCH   6   9
TORSDOF 2
ENDMDL
MODEL 5
REMARK VINA RESULT:    -0.044     21.549     22.756
REMARK INTER + INTRA:          -0.084
REMARK INTER:                  -0.048
REMARK INTRA:                  -0.036
REMARK UNBOUND:                -0.036
REMARK SMILES O=C([O-])c1ccc(O)cc1
REMARK SMILES IDX 7 1 6 2 9 3 5 4 10 5 4 6 8 7 2 9 1 10 3 11
REMARK H PARENT 8 8
REMARK Flexibility Score: inf
ROOT
ATOM      1  C   UNL     1      -4.572  -9.595   4.539  1.00  0.00     0.115 A 
ATOM      2  C   UNL     1      -3.653  -9.486   5.588  1.00  0.00     0.047 A 
ATOM      3  C   UNL     1      -5.920  -9.847   4.822  1.00  0.00     0.047 A 
ATOM      4  C   UNL     1      -4.076  -9.626   6.913  1.00  0.00     0.014 A 
ATOM      5  C   UNL     1      -6.347  -9.989   6.146  1.00  0.00     0.014 A 
ATOM      6  C   UNL     1      -5.428  -9.880   7.206  1.00  0.00    -0.003 A 
ENDROOT
BRANCH   1   7
ATOM      7  O   UNL     1      -4.135  -9.452   3.224  1.00  0.00    -0.508 OA
ATOM      8  H   UNL     1      -3.646  -8.620   2.918  1.00  0.00     0.293 HD
ENDBRANCH   1   7
BRANCH   6   9
ATOM      9  C   UNL     1      -5.873 -10.028   8.609  1.00  0.00     0.071 C 
ATOM     10  O   UNL     1      -7.101 -10.070   8.891  1.00  0.00    -0.545 OA
ATOM     11  O   UNL     1      -4.942 -10.124   9.638  1.00  0.00    -0.545 OA
ENDBRANCH   6   9
TORSDOF 2
ENDMDL
MODEL 6
REMARK VINA RESULT:     0.659     21.284     22.592
REMARK INTER + INTRA:           0.681
REMARK INTER:                   0.717
REMARK INTRA:                  -0.036
REMARK UNBOUND:                -0.036
REMARK SMILES O=C([O-])c1ccc(O)cc1
REMARK SMILES IDX 7 1 6 2 9 3 5 4 10 5 4 6 8 7 2 9 1 10 3 11
REMARK H PARENT 8 8
REMARK Flexibility Score: inf
ROOT
ATOM      1  C   UNL     1      -5.766  -9.595   6.675  1.00  0.00     0.115 A 
ATOM      2  C   UNL     1      -5.872  -9.891   5.312  1.00  0.00     0.047 A 
ATOM      3  C   UNL     1      -4.501  -9.413   7.249  1.00  0.00     0.047 A 
ATOM      4  C   UNL     1      -4.722 -10.005   4.524  1.00  0.00     0.014 A 
ATOM      5  C   UNL     1      -3.349  -9.526   6.464  1.00  0.00     0.014 A 
ATOM      6  C   UNL     1      -3.448  -9.824   5.092  1.00  0.00    -0.003 A 
ENDROOT
BRANCH   1   7
ATOM      7  O   UNL     1      -6.920  -9.484   7.446  1.00  0.00    -0.508 OA
ATOM      8  H   UNL     1      -6.898  -9.613   8.451  1.00  0.00     0.293 HD
ENDBRANCH   1   7
BRANCH   6   9
ATOM      9  C   UNL     1      -2.234  -9.945   4.256  1.00  0.00     0.071 C 
ATOM     10  O   UNL     1      -2.327 -10.125   3.012  1.00  0.00    -0.545 OA
ATOM     11  O   UNL     1      -0.971  -9.861   4.831  1.00  0.00    -0.545 OA
ENDBRANCH   6   9
TORSDOF 2
ENDMDL
