MODEL 1
REMARK VINA RESULT:    -4.013      0.000      0.000
REMARK INTER + INTRA:          -6.207
REMARK INTER:                  -6.124
REMARK INTRA:                  -0.083
REMARK UNBOUND:                -0.083
REMARK SMILES CC1=CCC[C@@H](C)C(=O)C[C@H](C(C)C)C(=O)C1
REMARK SMILES IDX 8 1 9 2 6 3 7 4 5 5 4 6 3 7 2 8 1 9 10 11 11 12 15 13 16 14
REMARK SMILES IDX 17 15 12 17 13 18 14 19
REMARK H PARENT
REMARK Flexibility Score: 70.00
ROOT
ATOM      1  C   UNL     1      48.937  22.643  20.576  1.00  0.00     0.136 C 
ATOM      2  O   UNL     1      49.527  22.638  19.505  1.00  0.00    -0.299 OA
ENDROOT
BRANCH   1   3
ATOM      3  C   UNL     1      47.813  21.661  20.819  1.00  0.00     0.053 C 
ATOM      4  C   UNL     1      48.197  20.250  20.357  1.00  0.00     0.016 C 
BRANCH   3   5
ATOM      5  C   UNL     1      46.537  22.167  20.103  1.00  0.00     0.015 C 
BRANCH   5   6
ATOM      6  C   UNL     1      45.308  22.399  21.005  1.00  0.00     0.028 C 
BRANCH   6   7
ATOM      7  C   UNL     1      44.792  23.819  21.110  1.00  0.00    -0.028 C 
ATOM      8  C   UNL     1      45.399  24.861  21.728  1.00  0.00    -0.070 CG0
ATOM      9  C   UNL     1      44.745  26.217  21.617  1.00  0.00     0.039 C 
ATOM     10  G   UNL     1      46.649  24.737  22.581  1.00  0.00     0.000 G0
ENDBRANCH   6   7
ENDBRANCH   5   6
ENDBRANCH   3   5
ENDBRANCH   1   3
BRANCH   1  11
ATOM     11  C   UNL     1      49.287  23.688  21.610  1.00  0.00     0.087 C 
BRANCH  11  12
ATOM     12  C   UNL     1      48.851  25.120  21.169  1.00  0.00     0.066 C 
BRANCH  12  13
ATOM     13  C   UNL     1      47.770  25.629  22.114  1.00  0.00     0.140 C 
ATOM     14  O   UNL     1      47.778  26.809  22.438  1.00  0.00    -0.299 OA
BRANCH  13  15
ATOM     15  C   UNL     1      46.643  24.743  22.606  1.00  0.00     0.106 CG0
ATOM     16  G   UNL     1      45.421  24.872  21.714  1.00  0.00     0.000 G0
ENDBRANCH  13  15
ENDBRANCH  12  13
BRANCH  12  17
ATOM     17  C   UNL     1      50.061  26.112  21.115  1.00  0.00    -0.006 C 
ATOM     18  C   UNL     1      51.190  25.689  22.075  1.00  0.00     0.008 C 
ATOM     19  C   UNL     1      50.654  26.224  19.695  1.00  0.00     0.008 C 
ENDBRANCH  12  17
ENDBRANCH  11  12
ENDBRANCH   1  11
TORSDOF 1
ENDMDL
MODEL 2
REMARK VINA RESULT:    -3.394      1.924      4.143
REMARK INTER + INTRA:          -5.263
REMARK INTER:                  -4.977
REMARK INTRA:                  -0.286
REMARK UNBOUND:                -0.083
REMARK SMILES CC1=CCC[C@@H](C)C(=O)C[C@H](C(C)C)C(=O)C1
REMARK SMILES IDX 8 1 9 2 6 3 7 4 5 5 4 6 3 7 2 8 1 9 10 11 11 12 15 13 16 14
REMARK SMILES IDX 17 15 12 17 13 18 14 19
REMARK H PARENT
REMARK Flexibility Score: 70.00
ROOT
ATOM      1  C   UNL     1      46.218  23.065  21.023  1.00  0.00     0.136 C 
ATOM      2  O   UNL     1      45.494  22.162  21.417  1.00  0.00    -0.299 OA
ENDROOT
BRANCH   1   3
ATOM      3  C   UNL     1      47.614  22.750  20.536  1.00  0.00     0.053 C 
ATOM      4  C   UNL     1      47.615  21.536  19.599  1.00  0.00     0.016 C 
BRANCH   3   5
ATOM      5  C   UNL     1      48.537  22.526  21.759  1.00  0.00     0.015 C 
BRANCH   5   6
ATOM      6  C   UNL     1      49.753  23.469  21.864  1.00  0.00     0.028 C 
BRANCH   6   7
ATOM      7  C   UNL     1      49.934  24.484  20.755  1.00  0.00    -0.028 C 
ATOM      8  C   UNL     1      49.604  25.797  20.794  1.00  0.00    -0.070 CG0
ATOM      9  C   UNL     1      49.972  26.645  19.601  1.00  0.00     0.039 C 
ATOM     10  G   UNL     1      48.825  26.449  21.922  1.00  0.00     0.000 G0
ENDBRANCH   6   7
ENDBRANCH   5   6
ENDBRANCH   3   5
ENDBRANCH   1   3
BRANCH   1  11
ATOM     11  C   UNL     1      45.733  24.493  21.108  1.00  0.00     0.087 C 
BRANCH  11  12
ATOM     12  C   UNL     1      46.435  25.285  22.254  1.00  0.00     0.066 C 
BRANCH  12  13
ATOM     13  C   UNL     1      47.321  26.367  21.649  1.00  0.00     0.140 C 
ATOM     14  O   UNL     1      46.803  27.244  20.972  1.00  0.00    -0.299 OA
BRANCH  13  15
ATOM     15  C   UNL     1      48.811  26.436  21.919  1.00  0.00     0.106 CG0
ATOM     16  G   UNL     1      49.600  25.817  20.779  1.00  0.00     0.000 G0
ENDBRANCH  13  15
ENDBRANCH  12  13
BRANCH  12  17
ATOM     17  C   UNL     1      45.406  25.902  23.260  1.00  0.00    -0.006 C 
ATOM     18  C   UNL     1      44.012  25.259  23.115  1.00  0.00     0.008 C 
ATOM     19  C   UNL     1      45.860  25.739  24.726  1.00  0.00     0.008 C 
ENDBRANCH  12  17
ENDBRANCH  11  12
ENDBRANCH   1  11
TORSDOF 1
ENDMDL
MODEL 3
REMARK VINA RESULT:    -3.218      2.301      4.700
REMARK INTER + INTRA:          -4.994
REMARK INTER:                  -4.741
REMARK INTRA:                  -0.252
REMARK UNBOUND:                -0.083
REMARK SMILES CC1=CCC[C@@H](C)C(=O)C[C@H](C(C)C)C(=O)C1
REMARK SMILES IDX 8 1 9 2 6 3 7 4 5 5 4 6 3 7 2 8 1 9 10 11 11 12 15 13 16 14
REMARK SMILES IDX 17 15 12 17 13 18 14 19
REMARK H PARENT
REMARK Flexibility Score: 70.00
ROOT
ATOM      1  C   UNL     1      46.512  24.921  22.008  1.00  0.00     0.136 C 
ATOM      2  O   UNL     1      45.629  24.443  21.311  1.00  0.00    -0.299 OA
ENDROOT
BRANCH   1   3
ATOM      3  C   UNL     1      46.362  26.323  22.554  1.00  0.00     0.053 C 
ATOM      4  C   UNL     1      45.261  26.390  23.619  1.00  0.00     0.016 C 
BRANCH   3   5
ATOM      5  C   UNL     1      46.081  27.294  21.382  1.00  0.00     0.015 C 
BRANCH   5   6
ATOM      6  C   UNL     1      47.306  28.050  20.828  1.00  0.00     0.028 C 
BRANCH   6   7
ATOM      7  C   UNL     1      48.493  28.208  21.754  1.00  0.00    -0.028 C 
ATOM      8  C   UNL     1      49.694  27.588  21.649  1.00  0.00    -0.070 CG0
ATOM      9  C   UNL     1      50.770  27.979  22.632  1.00  0.00     0.039 C 
ATOM     10  G   UNL     1      49.998  26.479  20.658  1.00  0.00     0.000 G0
ENDBRANCH   6   7
ENDBRANCH   5   6
ENDBRANCH   3   5
ENDBRANCH   1   3
BRANCH   1  11
ATOM     11  C   UNL     1      47.778  24.130  22.244  1.00  0.00     0.087 C 
BRANCH  11  12
ATOM     12  C   UNL     1      48.730  24.163  21.008  1.00  0.00     0.066 C 
BRANCH  12  13
ATOM     13  C   UNL     1      49.895  25.102  21.296  1.00  0.00     0.140 C 
ATOM     14  O   UNL     1      50.805  24.711  22.014  1.00  0.00    -0.299 OA
BRANCH  13  15
ATOM     15  C   UNL     1      50.001  26.476  20.663  1.00  0.00     0.106 CG0
ATOM     16  G   UNL     1      49.679  27.565  21.670  1.00  0.00     0.000 G0
ENDBRANCH  13  15
ENDBRANCH  12  13
BRANCH  12  17
ATOM     17  C   UNL     1      49.244  22.735  20.623  1.00  0.00    -0.006 C 
ATOM     18  C   UNL     1      48.080  21.742  20.434  1.00  0.00     0.008 C 
ATOM     19  C   UNL     1      50.077  22.751  19.324  1.00  0.00     0.008 C 
ENDBRANCH  12  17
ENDBRANCH  11  12
ENDBRANCH   1  11
TORSDOF 1
ENDMDL
MODEL 4
REMARK VINA RESULT:    -3.144     10.834     12.277
REMARK INTER + INTRA:          -4.880
REMARK INTER:                  -5.050
REMARK INTRA:                   0.170
REMARK UNBOUND:                -0.083
REMARK SMILES CC1=CCC[C@@H](C)C(=O)C[C@H](C(C)C)C(=O)C1
REMARK SMILES IDX 8 1 9 2 6 3 7 4 5 5 4 6 3 7 2 8 1 9 10 11 11 12 15 13 16 14
REMARK SMILES IDX 17 15 12 17 13 18 14 19
REMARK H PARENT
REMARK Flexibility Score: 70.00
ROOT
ATOM      1  C   UNL     1      38.500  33.530  21.125  1.00  0.00     0.136 C 
ATOM      2  O   UNL     1      38.289  34.711  20.891  1.00  0.00    -0.299 OA
ENDROOT
BRANCH   1   3
ATOM      3  C   UNL     1      37.341  32.562  21.211  1.00  0.00     0.053 C 
ATOM      4  C   UNL     1      36.114  33.220  21.853  1.00  0.00     0.016 C 
BRANCH   3   5
ATOM      5  C   UNL     1      37.790  31.306  21.996  1.00  0.00     0.015 C 
BRANCH   5   6
ATOM      6  C   UNL     1      37.434  31.288  23.497  1.00  0.00     0.028 C 
BRANCH   6   7
ATOM      7  C   UNL     1      38.254  30.379  24.387  1.00  0.00    -0.028 C 
ATOM      8  C   UNL     1      39.337  30.725  25.124  1.00  0.00    -0.070 CG0
ATOM      9  C   UNL     1      39.937  29.671  26.022  1.00  0.00     0.039 C 
ATOM     10  G   UNL     1      40.026  32.076  25.047  1.00  0.00     0.000 G0
ENDBRANCH   6   7
ENDBRANCH   5   6
ENDBRANCH   3   5
ENDBRANCH   1   3
BRANCH   1  11
ATOM     11  C   UNL     1      39.912  33.072  21.408  1.00  0.00     0.087 C 
BRANCH  11  12
ATOM     12  C   UNL     1      40.401  33.514  22.822  1.00  0.00     0.066 C 
BRANCH  12  13
ATOM     13  C   UNL     1      40.671  32.278  23.671  1.00  0.00     0.140 C 
ATOM     14  O   UNL     1      41.479  31.452  23.269  1.00  0.00    -0.299 OA
BRANCH  13  15
ATOM     15  C   UNL     1      40.029  32.073  25.028  1.00  0.00     0.106 CG0
ATOM     16  G   UNL     1      39.357  30.714  25.113  1.00  0.00     0.000 G0
ENDBRANCH  13  15
ENDBRANCH  12  13
BRANCH  12  17
ATOM     17  C   UNL     1      41.669  34.430  22.747  1.00  0.00    -0.006 C 
ATOM     18  C   UNL     1      41.856  35.030  21.339  1.00  0.00     0.008 C 
ATOM     19  C   UNL     1      41.605  35.591  23.760  1.00  0.00     0.008 C 
ENDBRANCH  12  17
ENDBRANCH  11  12
ENDBRANCH   1  11
TORSDOF 1
ENDMDL
MODEL 5
REMARK VINA RESULT:    -3.101      1.563      2.139
REMARK INTER + INTRA:          -4.815
REMARK INTER:                  -5.147
REMARK INTRA:                   0.333
REMARK UNBOUND:                -0.083
REMARK SMILES CC1=CCC[C@@H](C)C(=O)C[C@H](C(C)C)C(=O)C1
REMARK SMILES IDX 8 1 9 2 6 3 7 4 5 5 4 6 3 7 2 8 1 9 10 11 11 12 15 13 16 14
REMARK SMILES IDX 17 15 12 17 13 18 14 19
REMARK H PARENT
REMARK Flexibility Score: 70.00
ROOT
ATOM      1  C   UNL     1      47.787  23.449  21.355  1.00  0.00     0.136 C 
ATOM      2  O   UNL     1      48.887  23.652  20.860  1.00  0.00    -0.299 OA
ENDROOT
BRANCH   1   3
ATOM      3  C   UNL     1      47.021  22.196  20.995  1.00  0.00     0.053 C 
ATOM      4  C   UNL     1      47.861  21.264  20.114  1.00  0.00     0.016 C 
BRANCH   3   5
ATOM      5  C   UNL     1      45.696  22.596  20.301  1.00  0.00     0.015 C 
BRANCH   5   6
ATOM      6  C   UNL     1      44.421  22.464  21.158  1.00  0.00     0.028 C 
BRANCH   6   7
ATOM      7  C   UNL     1      43.362  23.532  20.983  1.00  0.00    -0.028 C 
ATOM      8  C   UNL     1      43.384  24.788  21.490  1.00  0.00    -0.070 CG0
ATOM      9  C   UNL     1      42.261  25.719  21.098  1.00  0.00     0.039 C 
ATOM     10  G   UNL     1      44.419  25.293  22.479  1.00  0.00     0.000 G0
ENDBRANCH   6   7
ENDBRANCH   5   6
ENDBRANCH   3   5
ENDBRANCH   1   3
BRANCH   1  11
ATOM     11  C   UNL     1      47.176  24.498  22.255  1.00  0.00     0.087 C 
BRANCH  11  12
ATOM     12  C   UNL     1      46.826  25.806  21.480  1.00  0.00     0.066 C 
BRANCH  12  13
ATOM     13  C   UNL     1      45.410  26.239  21.840  1.00  0.00     0.140 C 
ATOM     14  O   UNL     1      45.042  27.365  21.532  1.00  0.00    -0.299 OA
BRANCH  13  15
ATOM     15  C   UNL     1      44.420  25.300  22.498  1.00  0.00     0.106 CG0
ATOM     16  G   UNL     1      43.386  24.812  21.499  1.00  0.00     0.000 G0
ENDBRANCH  13  15
ENDBRANCH  12  13
BRANCH  12  17
ATOM     17  C   UNL     1      47.853  26.952  21.766  1.00  0.00    -0.006 C 
ATOM     18  C   UNL     1      47.971  27.249  23.274  1.00  0.00     0.008 C 
ATOM     19  C   UNL     1      49.260  26.615  21.230  1.00  0.00     0.008 C 
ENDBRANCH  12  17
ENDBRANCH  11  12
ENDBRANCH   1  11
TORSDOF 1
ENDMDL
MODEL 6
REMARK VINA RESULT:    -3.077      2.709      4.021
REMARK INTER + INTRA:          -4.779
REMARK INTER:                  -4.758
REMARK INTRA:                  -0.021
REMARK UNBOUND:                -0.083
REMARK SMILES CC1=CCC[C@@H](C)C(=O)C[C@H](C(C)C)C(=O)C1
REMARK SMILES IDX 8 1 9 2 6 3 7 4 5 5 4 6 3 7 2 8 1 9 10 11 11 12 15 13 16 14
REMARK SMILES IDX 17 15 12 17 13 18 14 19
REMARK H PARENT
REMARK Flexibility Score: 70.00
ROOT
ATOM      1  C   UNL     1      50.692  25.388  18.478  1.00  0.00     0.136 C 
ATOM      2  O   UNL     1      50.269  25.248  17.340  1.00  0.00    -0.299 OA
ENDROOT
BRANCH   1   3
ATOM      3  C   UNL     1      50.963  24.172  19.335  1.00  0.00     0.053 C 
ATOM      4  C   UNL     1      51.402  22.977  18.480  1.00  0.00     0.016 C 
BRANCH   3   5
ATOM      5  C   UNL     1      49.696  23.845  20.163  1.00  0.00     0.015 C 
BRANCH   5   6
ATOM      6  C   UNL     1      49.502  24.673  21.449  1.00  0.00     0.028 C 
BRANCH   6   7
ATOM      7  C   UNL     1      48.185  25.404  21.604  1.00  0.00    -0.028 C 
ATOM      8  C   UNL     1      47.948  26.714  21.351  1.00  0.00    -0.070 CG0
ATOM      9  C   UNL     1      46.526  27.204  21.478  1.00  0.00     0.039 C 
ATOM     10  G   UNL     1      49.028  27.729  21.022  1.00  0.00     0.000 G0
ENDBRANCH   6   7
ENDBRANCH   5   6
ENDBRANCH   3   5
ENDBRANCH   1   3
BRANCH   1  11
ATOM     11  C   UNL     1      50.858  26.781  19.040  1.00  0.00     0.087 C 
BRANCH  11  12
ATOM     12  C   UNL     1      49.800  27.776  18.467  1.00  0.00     0.066 C 
BRANCH  12  13
ATOM     13  C   UNL     1      48.907  28.267  19.599  1.00  0.00     0.140 C 
ATOM     14  O   UNL     1      48.015  29.065  19.342  1.00  0.00    -0.299 OA
BRANCH  13  15
ATOM     15  C   UNL     1      49.036  27.745  21.016  1.00  0.00     0.106 CG0
ATOM     16  G   UNL     1      47.949  26.731  21.323  1.00  0.00     0.000 G0
ENDBRANCH  13  15
ENDBRANCH  12  13
BRANCH  12  17
ATOM     17  C   UNL     1      50.468  28.978  17.718  1.00  0.00    -0.006 C 
ATOM     18  C   UNL     1      51.999  28.986  17.903  1.00  0.00     0.008 C 
ATOM     19  C   UNL     1      50.167  28.956  16.205  1.00  0.00     0.008 C 
ENDBRANCH  12  17
ENDBRANCH  11  12
ENDBRANCH   1  11
TORSDOF 1
ENDMDL
MODEL 7
REMARK VINA RESULT:    -2.973      3.755      5.986
REMARK INTER + INTRA:          -4.619
REMARK INTER:                  -4.573
REMARK INTRA:                  -0.046
REMARK UNBOUND:                -0.083
REMARK SMILES CC1=CCC[C@@H](C)C(=O)C[C@H](C(C)C)C(=O)C1
REMARK SMILES IDX 8 1 9 2 6 3 7 4 5 5 4 6 3 7 2 8 1 9 10 11 11 12 15 13 16 14
REMARK SMILES IDX 17 15 12 17 13 18 14 19
REMARK H PARENT
REMARK Flexibility Score: 70.00
ROOT
ATOM      1  C   UNL     1      50.111  26.960  18.540  1.00  0.00     0.136 C 
ATOM      2  O   UNL     1      50.364  26.186  17.628  1.00  0.00    -0.299 OA
ENDROOT
BRANCH   1   3
ATOM      3  C   UNL     1      50.066  28.447  18.272  1.00  0.00     0.053 C 
ATOM      4  C   UNL     1      51.477  29.030  18.131  1.00  0.00     0.016 C 
BRANCH   3   5
ATOM      5  C   UNL     1      49.274  29.140  19.408  1.00  0.00     0.015 C 
BRANCH   5   6
ATOM      6  C   UNL     1      50.112  29.975  20.398  1.00  0.00     0.028 C 
BRANCH   6   7
ATOM      7  C   UNL     1      50.098  29.539  21.848  1.00  0.00    -0.028 C 
ATOM      8  C   UNL     1      50.967  28.691  22.450  1.00  0.00    -0.070 CG0
ATOM      9  C   UNL     1      50.820  28.481  23.938  1.00  0.00     0.039 C 
ATOM     10  G   UNL     1      52.025  27.889  21.714  1.00  0.00     0.000 G0
ENDBRANCH   6   7
ENDBRANCH   5   6
ENDBRANCH   3   5
ENDBRANCH   1   3
BRANCH   1  11
ATOM     11  C   UNL     1      49.931  26.420  19.940  1.00  0.00     0.087 C 
BRANCH  11  12
ATOM     12  C   UNL     1      51.213  25.701  20.463  1.00  0.00     0.066 C 
BRANCH  12  13
ATOM     13  C   UNL     1      51.720  26.419  21.707  1.00  0.00     0.140 C 
ATOM     14  O   UNL     1      51.935  25.765  22.719  1.00  0.00    -0.299 OA
BRANCH  13  15
ATOM     15  C   UNL     1      52.038  27.900  21.713  1.00  0.00     0.106 CG0
ATOM     16  G   UNL     1      50.963  28.684  22.445  1.00  0.00     0.000 G0
ENDBRANCH  13  15
ENDBRANCH  12  13
BRANCH  12  17
ATOM     17  C   UNL     1      50.959  24.184  20.755  1.00  0.00    -0.006 C 
ATOM     18  C   UNL     1      49.536  23.937  21.294  1.00  0.00     0.008 C 
ATOM     19  C   UNL     1      51.154  23.312  19.497  1.00  0.00     0.008 C 
ENDBRANCH  12  17
ENDBRANCH  11  12
ENDBRANCH   1  11
TORSDOF 1
ENDMDL
MODEL 8
REMARK VINA RESULT:    -2.929      3.175      5.561
REMARK INTER + INTRA:          -4.553
REMARK INTER:                  -4.306
REMARK INTRA:                  -0.247
REMARK UNBOUND:                -0.083
REMARK SMILES CC1=CCC[C@@H](C)C(=O)C[C@H](C(C)C)C(=O)C1
REMARK SMILES IDX 8 1 9 2 6 3 7 4 5 5 4 6 3 7 2 8 1 9 10 11 11 12 15 13 16 14
REMARK SMILES IDX 17 15 12 17 13 18 14 19
REMARK H PARENT
REMARK Flexibility Score: 70.00
ROOT
ATOM      1  C   UNL     1      51.623  27.161  22.900  1.00  0.00     0.136 C 
ATOM      2  O   UNL     1      52.006  26.543  23.883  1.00  0.00    -0.299 OA
ENDROOT
BRANCH   1   3
ATOM      3  C   UNL     1      51.288  28.631  23.019  1.00  0.00     0.053 C 
ATOM      4  C   UNL     1      52.540  29.463  23.321  1.00  0.00     0.016 C 
BRANCH   3   5
ATOM      5  C   UNL     1      50.205  28.815  24.109  1.00  0.00     0.015 C 
BRANCH   5   6
ATOM      6  C   UNL     1      48.744  28.802  23.614  1.00  0.00     0.028 C 
BRANCH   6   7
ATOM      7  C   UNL     1      48.443  29.565  22.341  1.00  0.00    -0.028 C 
ATOM      8  C   UNL     1      47.987  29.049  21.174  1.00  0.00    -0.070 CG0
ATOM      9  C   UNL     1      47.658  30.018  20.064  1.00  0.00     0.039 C 
ATOM     10  G   UNL     1      47.856  27.564  20.889  1.00  0.00     0.000 G0
ENDBRANCH   6   7
ENDBRANCH   5   6
ENDBRANCH   3   5
ENDBRANCH   1   3
BRANCH   1  11
ATOM     11  C   UNL     1      51.412  26.423  21.598  1.00  0.00     0.087 C 
BRANCH  11  12
ATOM     12  C   UNL     1      49.929  25.975  21.410  1.00  0.00     0.066 C 
BRANCH  12  13
ATOM     13  C   UNL     1      49.214  26.969  20.504  1.00  0.00     0.140 C 
ATOM     14  O   UNL     1      49.718  27.254  19.426  1.00  0.00    -0.299 OA
BRANCH  13  15
ATOM     15  C   UNL     1      47.864  27.561  20.860  1.00  0.00     0.106 CG0
ATOM     16  G   UNL     1      47.985  29.042  21.171  1.00  0.00     0.000 G0
ENDBRANCH  13  15
ENDBRANCH  12  13
BRANCH  12  17
ATOM     17  C   UNL     1      49.821  24.520  20.842  1.00  0.00    -0.006 C 
ATOM     18  C   UNL     1      51.193  23.981  20.391  1.00  0.00     0.008 C 
ATOM     19  C   UNL     1      49.233  23.537  21.875  1.00  0.00     0.008 C 
ENDBRANCH  12  17
ENDBRANCH  11  12
ENDBRANCH   1  11
TORSDOF 1
ENDMDL
MODEL 9
REMARK VINA RESULT:    -2.887      3.045      5.803
REMARK INTER + INTRA:          -4.489
REMARK INTER:                  -4.138
REMARK INTRA:                  -0.351
REMARK UNBOUND:                -0.083
REMARK SMILES CC1=CCC[C@@H](C)C(=O)C[C@H](C(C)C)C(=O)C1
REMARK SMILES IDX 8 1 9 2 6 3 7 4 5 5 4 6 3 7 2 8 1 9 10 11 11 12 15 13 16 14
REMARK SMILES IDX 17 15 12 17 13 18 14 19
REMARK H PARENT
REMARK Flexibility Score: 70.00
ROOT
ATOM      1  C   UNL     1      47.256  27.087  21.585  1.00  0.00     0.136 C 
ATOM      2  O   UNL     1      46.156  26.651  21.281  1.00  0.00    -0.299 OA
ENDROOT
BRANCH   1   3
ATOM      3  C   UNL     1      47.650  28.488  21.175  1.00  0.00     0.053 C 
ATOM      4  C   UNL     1      46.615  29.516  21.647  1.00  0.00     0.016 C 
BRANCH   3   5
ATOM      5  C   UNL     1      47.836  28.531  19.639  1.00  0.00     0.015 C 
BRANCH   5   6
ATOM      6  C   UNL     1      49.283  28.723  19.142  1.00  0.00     0.028 C 
BRANCH   6   7
ATOM      7  C   UNL     1      50.282  29.281  20.134  1.00  0.00    -0.028 C 
ATOM      8  C   UNL     1      51.289  28.607  20.740  1.00  0.00    -0.070 CG0
ATOM      9  C   UNL     1      52.229  29.397  21.619  1.00  0.00     0.039 C 
ATOM     10  G   UNL     1      51.485  27.105  20.651  1.00  0.00     0.000 G0
ENDBRANCH   6   7
ENDBRANCH   5   6
ENDBRANCH   3   5
ENDBRANCH   1   3
BRANCH   1  11
ATOM     11  C   UNL     1      48.239  26.185  22.297  1.00  0.00     0.087 C 
BRANCH  11  12
ATOM     12  C   UNL     1      49.360  25.668  21.342  1.00  0.00     0.066 C 
BRANCH  12  13
ATOM     13  C   UNL     1      50.672  26.363  21.685  1.00  0.00     0.140 C 
ATOM     14  O   UNL     1      51.108  26.270  22.824  1.00  0.00    -0.299 OA
BRANCH  13  15
ATOM     15  C   UNL     1      51.491  27.101  20.645  1.00  0.00     0.106 CG0
ATOM     16  G   UNL     1      51.276  28.600  20.748  1.00  0.00     0.000 G0
ENDBRANCH  13  15
ENDBRANCH  12  13
BRANCH  12  17
ATOM     17  C   UNL     1      49.516  24.112  21.407  1.00  0.00    -0.006 C 
ATOM     18  C   UNL     1      48.150  23.406  21.528  1.00  0.00     0.008 C 
ATOM     19  C   UNL     1      50.238  23.551  20.164  1.00  0.00     0.008 C 
ENDBRANCH  12  17
ENDBRANCH  11  12
ENDBRANCH   1  11
TORSDOF 1
ENDMDL
