MODEL 1
REMARK VINA RESULT:    -4.436      0.000      0.000
REMARK INTER + INTRA:          -5.659
REMARK INTER:                  -5.473
REMARK INTRA:                  -0.185
REMARK UNBOUND:                -0.185
REMARK SMILES C=CC[C@H](C)C(=O)CC
REMARK SMILES IDX 4 1 5 2 6 3 7 4 8 5 9 6 3 7 2 8 1 9
REMARK H PARENT
REMARK Flexibility Score: inf
ROOT
ATOM      1  C   UNL     1     -26.634  19.640 -33.626  1.00  0.00     0.057 C 
ATOM      2  C   UNL     1     -26.920  21.139 -33.762  1.00  0.00     0.016 C 
ENDROOT
BRANCH   1   3
ATOM      3  C   UNL     1     -27.687  18.990 -32.751  1.00  0.00     0.135 C 
ATOM      4  O   UNL     1     -27.438  17.932 -32.189  1.00  0.00    -0.299 OA
BRANCH   3   5
ATOM      5  C   UNL     1     -29.034  19.632 -32.545  1.00  0.00     0.072 C 
ATOM      6  C   UNL     1     -30.045  19.122 -33.567  1.00  0.00     0.012 C 
ENDBRANCH   3   5
ENDBRANCH   1   3
BRANCH   1   7
ATOM      7  C   UNL     1     -25.217  19.410 -33.060  1.00  0.00     0.038 C 
BRANCH   7   8
ATOM      8  C   UNL     1     -24.152  20.036 -33.922  1.00  0.00    -0.034 C 
ATOM      9  C   UNL     1     -22.982  20.436 -33.416  1.00  0.00     0.004 C 
ENDBRANCH   7   8
ENDBRANCH   1   7
TORSDOF 4
ENDMDL
MODEL 2
REMARK VINA RESULT:    -4.415      1.581      4.506
REMARK INTER + INTRA:          -5.632
REMARK INTER:                  -5.479
REMARK INTRA:                  -0.153
REMARK UNBOUND:                -0.185
REMARK SMILES C=CC[C@H](C)C(=O)CC
REMARK SMILES IDX 4 1 5 2 6 3 7 4 8 5 9 6 3 7 2 8 1 9
REMARK H PARENT
REMARK Flexibility Score: inf
ROOT
ATOM      1  C   UNL     1     -26.437  20.314 -33.480  1.00  0.00     0.057 C 
ATOM      2  C   UNL     1     -27.114  21.119 -34.596  1.00  0.00     0.016 C 
ENDROOT
BRANCH   1   3
ATOM      3  C   UNL     1     -25.075  19.835 -33.942  1.00  0.00     0.135 C 
ATOM      4  O   UNL     1     -24.866  19.667 -35.136  1.00  0.00    -0.299 OA
BRANCH   3   5
ATOM      5  C   UNL     1     -23.964  19.578 -32.958  1.00  0.00     0.072 C 
ATOM      6  C   UNL     1     -23.001  20.759 -32.899  1.00  0.00     0.012 C 
ENDBRANCH   3   5
ENDBRANCH   1   3
BRANCH   1   7
ATOM      7  C   UNL     1     -27.330  19.132 -33.051  1.00  0.00     0.038 C 
BRANCH   7   8
ATOM      8  C   UNL     1     -28.721  19.574 -32.680  1.00  0.00    -0.034 C 
ATOM      9  C   UNL     1     -29.805  19.062 -33.271  1.00  0.00     0.004 C 
ENDBRANCH   7   8
ENDBRANCH   1   7
TORSDOF 4
ENDMDL
MODEL 3
REMARK VINA RESULT:    -4.411      1.607      2.324
REMARK INTER + INTRA:          -5.628
REMARK INTER:                  -5.454
REMARK INTRA:                  -0.174
REMARK UNBOUND:                -0.185
REMARK SMILES C=CC[C@H](C)C(=O)CC
REMARK SMILES IDX 4 1 5 2 6 3 7 4 8 5 9 6 3 7 2 8 1 9
REMARK H PARENT
REMARK Flexibility Score: inf
ROOT
ATOM      1  C   UNL     1     -25.115  19.699 -32.915  1.00  0.00     0.057 C 
ATOM      2  C   UNL     1     -24.825  18.522 -31.977  1.00  0.00     0.016 C 
ENDROOT
BRANCH   1   3
ATOM      3  C   UNL     1     -26.514  19.574 -33.484  1.00  0.00     0.135 C 
ATOM      4  O   UNL     1     -27.130  18.525 -33.352  1.00  0.00    -0.299 OA
BRANCH   3   5
ATOM      5  C   UNL     1     -27.172  20.726 -34.196  1.00  0.00     0.072 C 
ATOM      6  C   UNL     1     -27.530  21.842 -33.219  1.00  0.00     0.012 C 
ENDBRANCH   3   5
ENDBRANCH   1   3
BRANCH   1   7
ATOM      7  C   UNL     1     -24.059  19.766 -34.038  1.00  0.00     0.038 C 
BRANCH   7   8
ATOM      8  C   UNL     1     -22.775  20.403 -33.573  1.00  0.00    -0.034 C 
ATOM      9  C   UNL     1     -22.739  21.234 -32.527  1.00  0.00     0.004 C 
ENDBRANCH   7   8
ENDBRANCH   1   7
TORSDOF 4
ENDMDL
MODEL 4
REMARK VINA RESULT:    -4.319      7.000      8.647
REMARK INTER + INTRA:          -5.515
REMARK INTER:                  -5.183
REMARK INTRA:                  -0.331
REMARK UNBOUND:                -0.185
REMARK SMILES C=CC[C@H](C)C(=O)CC
REMARK SMILES IDX 4 1 5 2 6 3 7 4 8 5 9 6 3 7 2 8 1 9
REMARK H PARENT
REMARK Flexibility Score: inf
ROOT
ATOM      1  C   UNL     1     -26.877  12.052 -30.099  1.00  0.00     0.057 C 
ATOM      2  C   UNL     1     -25.883  10.893 -29.965  1.00  0.00     0.016 C 
ENDROOT
BRANCH   1   3
ATOM      3  C   UNL     1     -26.238  13.195 -30.865  1.00  0.00     0.135 C 
ATOM      4  O   UNL     1     -26.297  13.212 -32.086  1.00  0.00    -0.299 OA
BRANCH   3   5
ATOM      5  C   UNL     1     -25.545  14.323 -30.147  1.00  0.00     0.072 C 
ATOM      6  C   UNL     1     -24.070  14.390 -30.529  1.00  0.00     0.012 C 
ENDBRANCH   3   5
ENDBRANCH   1   3
BRANCH   1   7
ATOM      7  C   UNL     1     -27.359  12.513 -28.708  1.00  0.00     0.038 C 
BRANCH   7   8
ATOM      8  C   UNL     1     -28.862  12.557 -28.613  1.00  0.00    -0.034 C 
ATOM      9  C   UNL     1     -29.644  12.090 -29.592  1.00  0.00     0.004 C 
ENDBRANCH   7   8
ENDBRANCH   1   7
TORSDOF 4
ENDMDL
MODEL 5
REMARK VINA RESULT:    -4.235      1.761      4.269
REMARK INTER + INTRA:          -5.410
REMARK INTER:                  -5.199
REMARK INTRA:                  -0.211
REMARK UNBOUND:                -0.185
REMARK SMILES C=CC[C@H](C)C(=O)CC
REMARK SMILES IDX 4 1 5 2 6 3 7 4 8 5 9 6 3 7 2 8 1 9
REMARK H PARENT
REMARK Flexibility Score: inf
ROOT
ATOM      1  C   UNL     1     -25.161  20.060 -33.539  1.00  0.00     0.057 C 
ATOM      2  C   UNL     1     -24.616  19.842 -34.955  1.00  0.00     0.016 C 
ENDROOT
BRANCH   1   3
ATOM      3  C   UNL     1     -24.351  19.254 -32.543  1.00  0.00     0.135 C 
ATOM      4  O   UNL     1     -24.870  18.309 -31.965  1.00  0.00    -0.299 OA
BRANCH   3   5
ATOM      5  C   UNL     1     -22.908  19.583 -32.264  1.00  0.00     0.072 C 
ATOM      6  C   UNL     1     -22.704  21.089 -32.143  1.00  0.00     0.012 C 
ENDBRANCH   3   5
ENDBRANCH   1   3
BRANCH   1   7
ATOM      7  C   UNL     1     -26.657  19.688 -33.474  1.00  0.00     0.038 C 
BRANCH   7   8
ATOM      8  C   UNL     1     -27.547  20.847 -33.839  1.00  0.00    -0.034 C 
ATOM      9  C   UNL     1     -27.544  21.985 -33.138  1.00  0.00     0.004 C 
ENDBRANCH   7   8
ENDBRANCH   1   7
TORSDOF 4
ENDMDL
MODEL 6
REMARK VINA RESULT:    -4.185      2.147      4.359
REMARK INTER + INTRA:          -5.349
REMARK INTER:                  -5.067
REMARK INTRA:                  -0.282
REMARK UNBOUND:                -0.185
REMARK SMILES C=CC[C@H](C)C(=O)CC
REMARK SMILES IDX 4 1 5 2 6 3 7 4 8 5 9 6 3 7 2 8 1 9
REMARK H PARENT
REMARK Flexibility Score: inf
ROOT
ATOM      1  C   UNL     1     -26.443  19.603 -34.107  1.00  0.00     0.057 C 
ATOM      2  C   UNL     1     -26.771  19.082 -32.704  1.00  0.00     0.016 C 
ENDROOT
BRANCH   1   3
ATOM      3  C   UNL     1     -24.946  19.791 -34.252  1.00  0.00     0.135 C 
ATOM      4  O   UNL     1     -24.402  19.524 -35.315  1.00  0.00    -0.299 OA
BRANCH   3   5
ATOM      5  C   UNL     1     -24.113  20.319 -33.114  1.00  0.00     0.072 C 
ATOM      6  C   UNL     1     -22.643  20.417 -33.510  1.00  0.00     0.012 C 
ENDBRANCH   3   5
ENDBRANCH   1   3
BRANCH   1   7
ATOM      7  C   UNL     1     -27.201  20.918 -34.385  1.00  0.00     0.038 C 
BRANCH   7   8
ATOM      8  C   UNL     1     -27.836  21.482 -33.141  1.00  0.00    -0.034 C 
ATOM      9  C   UNL     1     -27.661  22.755 -32.776  1.00  0.00     0.004 C 
ENDBRANCH   7   8
ENDBRANCH   1   7
TORSDOF 4
ENDMDL
MODEL 7
REMARK VINA RESULT:    -4.170      7.911      8.987
REMARK INTER + INTRA:          -5.331
REMARK INTER:                  -4.928
REMARK INTRA:                  -0.402
REMARK UNBOUND:                -0.185
REMARK SMILES C=CC[C@H](C)C(=O)CC
REMARK SMILES IDX 4 1 5 2 6 3 7 4 8 5 9 6 3 7 2 8 1 9
REMARK H PARENT
REMARK Flexibility Score: inf
ROOT
ATOM      1  C   UNL     1     -26.695  11.699 -30.222  1.00  0.00     0.057 C 
ATOM      2  C   UNL     1     -25.310  11.208 -29.785  1.00  0.00     0.016 C 
ENDROOT
BRANCH   1   3
ATOM      3  C   UNL     1     -26.671  12.072 -31.691  1.00  0.00     0.135 C 
ATOM      4  O   UNL     1     -26.321  13.196 -32.024  1.00  0.00    -0.299 OA
BRANCH   3   5
ATOM      5  C   UNL     1     -27.054  11.078 -32.755  1.00  0.00     0.072 C 
ATOM      6  C   UNL     1     -28.055  10.059 -32.217  1.00  0.00     0.012 C 
ENDBRANCH   3   5
ENDBRANCH   1   3
BRANCH   1   7
ATOM      7  C   UNL     1     -27.145  12.889 -29.350  1.00  0.00     0.038 C 
BRANCH   7   8
ATOM      8  C   UNL     1     -28.352  12.555 -28.513  1.00  0.00    -0.034 C 
ATOM      9  C   UNL     1     -29.397  11.891 -29.015  1.00  0.00     0.004 C 
ENDBRANCH   7   8
ENDBRANCH   1   7
TORSDOF 4
ENDMDL
MODEL 8
REMARK VINA RESULT:    -4.097      2.271      3.607
REMARK INTER + INTRA:          -5.240
REMARK INTER:                  -5.044
REMARK INTRA:                  -0.196
REMARK UNBOUND:                -0.185
REMARK SMILES C=CC[C@H](C)C(=O)CC
REMARK SMILES IDX 4 1 5 2 6 3 7 4 8 5 9 6 3 7 2 8 1 9
REMARK H PARENT
REMARK Flexibility Score: inf
ROOT
ATOM      1  C   UNL     1     -23.664  19.348 -33.193  1.00  0.00     0.057 C 
ATOM      2  C   UNL     1     -22.616  20.451 -33.379  1.00  0.00     0.016 C 
ENDROOT
BRANCH   1   3
ATOM      3  C   UNL     1     -24.885  19.648 -34.040  1.00  0.00     0.135 C 
ATOM      4  O   UNL     1     -24.779  19.704 -35.257  1.00  0.00    -0.299 OA
BRANCH   3   5
ATOM      5  C   UNL     1     -26.237  19.862 -33.411  1.00  0.00     0.072 C 
ATOM      6  C   UNL     1     -27.026  20.931 -34.160  1.00  0.00     0.012 C 
ENDBRANCH   3   5
ENDBRANCH   1   3
BRANCH   1   7
ATOM      7  C   UNL     1     -24.039  19.205 -31.704  1.00  0.00     0.038 C 
BRANCH   7   8
ATOM      8  C   UNL     1     -24.366  17.782 -31.334  1.00  0.00    -0.034 C 
ATOM      9  C   UNL     1     -25.408  17.478 -30.554  1.00  0.00     0.004 C 
ENDBRANCH   7   8
ENDBRANCH   1   7
TORSDOF 4
ENDMDL
MODEL 9
REMARK VINA RESULT:    -4.038     11.315     12.812
REMARK INTER + INTRA:          -5.167
REMARK INTER:                  -4.803
REMARK INTRA:                  -0.364
REMARK UNBOUND:                -0.185
REMARK SMILES C=CC[C@H](C)C(=O)CC
REMARK SMILES IDX 4 1 5 2 6 3 7 4 8 5 9 6 3 7 2 8 1 9
REMARK H PARENT
REMARK Flexibility Score: inf
ROOT
ATOM      1  C   UNL     1     -16.948  13.202 -30.448  1.00  0.00     0.057 C 
ATOM      2  C   UNL     1     -16.693  14.404 -29.531  1.00  0.00     0.016 C 
ENDROOT
BRANCH   1   3
ATOM      3  C   UNL     1     -16.477  13.517 -31.854  1.00  0.00     0.135 C 
ATOM      4  O   UNL     1     -17.169  14.216 -32.582  1.00  0.00    -0.299 OA
BRANCH   3   5
ATOM      5  C   UNL     1     -15.160  12.998 -32.370  1.00  0.00     0.072 C 
ATOM      6  C   UNL     1     -14.456  12.149 -31.316  1.00  0.00     0.012 C 
ENDBRANCH   3   5
ENDBRANCH   1   3
BRANCH   1   7
ATOM      7  C   UNL     1     -18.442  12.819 -30.432  1.00  0.00     0.038 C 
BRANCH   7   8
ATOM      8  C   UNL     1     -18.700  11.570 -29.631  1.00  0.00    -0.034 C 
ATOM      9  C   UNL     1     -17.745  10.660 -29.418  1.00  0.00     0.004 C 
ENDBRANCH   7   8
ENDBRANCH   1   7
TORSDOF 4
ENDMDL
