MODEL 1
REMARK VINA RESULT:    -4.386      0.000      0.000
REMARK INTER + INTRA:         -14.165
REMARK INTER:                 -10.027
REMARK INTRA:                  -4.139
REMARK UNBOUND:                -4.139
REMARK SMILES CCCCCCCCCCCCCCCCCCCCCCCC(=O)[O-]
REMARK SMILES IDX 13 1 14 2 15 3 16 4 17 5 18 6 19 7 20 8 21 9 22 10 23 11
REMARK SMILES IDX 24 12 25 13 26 14 12 15 11 16 10 17 9 18 8 19 7 20 6 21 5 22
REMARK SMILES IDX 4 23 3 24 2 25 1 26
REMARK H PARENT
REMARK Flexibility Score: inf
ROOT
ATOM      1  C   UNL     1       7.841  27.923  26.592  1.00  0.00     0.000 C 
ENDROOT
BRANCH   1   2
ATOM      2  C   UNL     1       8.511  29.301  26.766  1.00  0.00     0.000 C 
BRANCH   2   3
ATOM      3  C   UNL     1       9.339  29.472  28.056  1.00  0.00     0.000 C 
BRANCH   3   4
ATOM      4  C   UNL     1       9.222  30.851  28.732  1.00  0.00     0.000 C 
BRANCH   4   5
ATOM      5  C   UNL     1       9.973  30.926  30.071  1.00  0.00     0.000 C 
BRANCH   5   6
ATOM      6  C   UNL     1      11.454  30.520  29.952  1.00  0.00     0.000 C 
BRANCH   6   7
ATOM      7  C   UNL     1      12.369  31.554  29.272  1.00  0.00     0.000 C 
BRANCH   7   8
ATOM      8  C   UNL     1      12.767  31.155  27.840  1.00  0.00     0.000 C 
BRANCH   8   9
ATOM      9  C   UNL     1      12.104  32.040  26.774  1.00  0.00     0.000 C 
BRANCH   9  10
ATOM     10  C   UNL     1      11.508  31.225  25.612  1.00  0.00     0.006 C 
BRANCH  10  11
ATOM     11  C   UNL     1      10.354  31.965  24.919  1.00  0.00     0.053 C 
BRANCH  11  12
ATOM     12  C   UNL     1      10.833  33.184  24.194  1.00  0.00     0.041 C 
ATOM     13  O   UNL     1      10.602  34.331  24.661  1.00  0.00    -0.550 OA
ATOM     14  O   UNL     1      11.565  33.055  23.020  1.00  0.00    -0.550 OA
ENDBRANCH  11  12
ENDBRANCH  10  11
ENDBRANCH   9  10
ENDBRANCH   8   9
ENDBRANCH   7   8
ENDBRANCH   6   7
ENDBRANCH   5   6
ENDBRANCH   4   5
ENDBRANCH   3   4
ENDBRANCH   2   3
ENDBRANCH   1   2
BRANCH   1  15
ATOM     15  C   UNL     1       8.596  26.743  27.232  1.00  0.00     0.000 C 
BRANCH  15  16
ATOM     16  C   UNL     1       7.701  25.883  28.141  1.00  0.00     0.000 C 
BRANCH  16  17
ATOM     17  C   UNL     1       6.413  26.607  28.573  1.00  0.00     0.000 C 
BRANCH  17  18
ATOM     18  C   UNL     1       6.393  27.098  30.032  1.00  0.00    -0.000 C 
BRANCH  18  19
ATOM     19  C   UNL     1       6.713  28.593  30.167  1.00  0.00    -0.000 C 
BRANCH  19  20
ATOM     20  C   UNL     1       5.558  29.346  30.839  1.00  0.00    -0.000 C 
BRANCH  20  21
ATOM     21  C   UNL     1       4.761  30.161  29.810  1.00  0.00    -0.000 C 
BRANCH  21  22
ATOM     22  C   UNL     1       5.576  30.482  28.548  1.00  0.00    -0.000 C 
BRANCH  22  23
ATOM     23  C   UNL     1       4.757  30.325  27.257  1.00  0.00    -0.000 C 
BRANCH  23  24
ATOM     24  C   UNL     1       3.888  29.062  27.310  1.00  0.00    -0.000 C 
BRANCH  24  25
ATOM     25  C   UNL     1       4.130  28.176  26.083  1.00  0.00    -0.003 C 
ATOM     26  C   UNL     1       4.696  28.987  24.921  1.00  0.00     0.004 C 
ENDBRANCH  24  25
ENDBRANCH  23  24
ENDBRANCH  22  23
ENDBRANCH  21  22
ENDBRANCH  20  21
ENDBRANCH  19  20
ENDBRANCH  18  19
ENDBRANCH  17  18
ENDBRANCH  16  17
ENDBRANCH  15  16
ENDBRANCH   1  15
TORSDOF 22
ENDMDL
MODEL 2
REMARK VINA RESULT:    -4.339      1.773      4.027
REMARK INTER + INTRA:         -14.058
REMARK INTER:                  -9.631
REMARK INTRA:                  -4.427
REMARK UNBOUND:                -4.139
REMARK SMILES CCCCCCCCCCCCCCCCCCCCCCCC(=O)[O-]
REMARK SMILES IDX 13 1 14 2 15 3 16 4 17 5 18 6 19 7 20 8 21 9 22 10 23 11
REMARK SMILES IDX 24 12 25 13 26 14 12 15 11 16 10 17 9 18 8 19 7 20 6 21 5 22
REMARK SMILES IDX 4 23 3 24 2 25 1 26
REMARK H PARENT
REMARK Flexibility Score: inf
ROOT
ATOM      1  C   UNL     1       5.601  29.116  25.131  1.00  0.00     0.000 C 
ENDROOT
BRANCH   1   2
ATOM      2  C   UNL     1       4.757  29.716  26.272  1.00  0.00     0.000 C 
BRANCH   2   3
ATOM      3  C   UNL     1       5.531  30.609  27.264  1.00  0.00     0.000 C 
BRANCH   3   4
ATOM      4  C   UNL     1       5.347  30.249  28.750  1.00  0.00     0.000 C 
BRANCH   4   5
ATOM      5  C   UNL     1       6.608  30.511  29.589  1.00  0.00     0.000 C 
BRANCH   5   6
ATOM      6  C   UNL     1       7.820  29.682  29.126  1.00  0.00     0.000 C 
BRANCH   6   7
ATOM      7  C   UNL     1       9.013  30.497  28.594  1.00  0.00     0.000 C 
BRANCH   7   8
ATOM      8  C   UNL     1       9.724  29.821  27.410  1.00  0.00     0.000 C 
BRANCH   8   9
ATOM      9  C   UNL     1       9.012  30.073  26.071  1.00  0.00     0.000 C 
BRANCH   9  10
ATOM     10  C   UNL     1       9.853  30.925  25.102  1.00  0.00     0.006 C 
BRANCH  10  11
ATOM     11  C   UNL     1       9.571  32.426  25.258  1.00  0.00     0.053 C 
BRANCH  11  12
ATOM     12  C   UNL     1      10.804  33.186  25.640  1.00  0.00     0.041 C 
ATOM     13  O   UNL     1      11.528  32.783  26.589  1.00  0.00    -0.550 OA
ATOM     14  O   UNL     1      11.174  34.318  24.925  1.00  0.00    -0.550 OA
ENDBRANCH  11  12
ENDBRANCH  10  11
ENDBRANCH   9  10
ENDBRANCH   8   9
ENDBRANCH   7   8
ENDBRANCH   6   7
ENDBRANCH   5   6
ENDBRANCH   4   5
ENDBRANCH   3   4
ENDBRANCH   2   3
ENDBRANCH   1   2
BRANCH   1  15
ATOM     15  C   UNL     1       4.950  27.934  24.387  1.00  0.00     0.000 C 
BRANCH  15  16
ATOM     16  C   UNL     1       3.859  27.235  25.215  1.00  0.00     0.000 C 
BRANCH  16  17
ATOM     17  C   UNL     1       4.402  26.066  26.057  1.00  0.00     0.000 C 
BRANCH  17  18
ATOM     18  C   UNL     1       4.029  26.105  27.551  1.00  0.00    -0.000 C 
BRANCH  18  19
ATOM     19  C   UNL     1       5.253  26.084  28.476  1.00  0.00    -0.000 C 
BRANCH  19  20
ATOM     20  C   UNL     1       6.452  26.782  27.823  1.00  0.00    -0.000 C 
BRANCH  20  21
ATOM     21  C   UNL     1       7.751  26.004  28.083  1.00  0.00    -0.000 C 
BRANCH  21  22
ATOM     22  C   UNL     1       8.754  26.123  26.925  1.00  0.00    -0.000 C 
BRANCH  22  23
ATOM     23  C   UNL     1       8.109  26.644  25.632  1.00  0.00    -0.000 C 
BRANCH  23  24
ATOM     24  C   UNL     1       8.461  25.742  24.442  1.00  0.00    -0.000 C 
BRANCH  24  25
ATOM     25  C   UNL     1       7.238  24.942  23.978  1.00  0.00    -0.003 C 
ATOM     26  C   UNL     1       6.919  23.810  24.950  1.00  0.00     0.004 C 
ENDBRANCH  24  25
ENDBRANCH  23  24
ENDBRANCH  22  23
ENDBRANCH  21  22
ENDBRANCH  20  21
ENDBRANCH  19  20
ENDBRANCH  18  19
ENDBRANCH  17  18
ENDBRANCH  16  17
ENDBRANCH  15  16
ENDBRANCH   1  15
TORSDOF 22
ENDMDL
MODEL 3
REMARK VINA RESULT:    -4.315      2.422      4.968
REMARK INTER + INTRA:         -14.004
REMARK INTER:                  -9.731
REMARK INTRA:                  -4.273
REMARK UNBOUND:                -4.139
REMARK SMILES CCCCCCCCCCCCCCCCCCCCCCCC(=O)[O-]
REMARK SMILES IDX 13 1 14 2 15 3 16 4 17 5 18 6 19 7 20 8 21 9 22 10 23 11
REMARK SMILES IDX 24 12 25 13 26 14 12 15 11 16 10 17 9 18 8 19 7 20 6 21 5 22
REMARK SMILES IDX 4 23 3 24 2 25 1 26
REMARK H PARENT
REMARK Flexibility Score: inf
ROOT
ATOM      1  C   UNL     1       3.259  27.807  28.507  1.00  0.00     0.000 C 
ENDROOT
BRANCH   1   2
ATOM      2  C   UNL     1       3.237  29.311  28.170  1.00  0.00     0.000 C 
BRANCH   2   3
ATOM      3  C   UNL     1       4.064  29.721  26.935  1.00  0.00     0.000 C 
BRANCH   3   4
ATOM      4  C   UNL     1       5.050  30.882  27.162  1.00  0.00     0.000 C 
BRANCH   4   5
ATOM      5  C   UNL     1       6.431  30.624  26.539  1.00  0.00     0.000 C 
BRANCH   5   6
ATOM      6  C   UNL     1       6.663  29.144  26.184  1.00  0.00     0.000 C 
BRANCH   6   7
ATOM      7  C   UNL     1       8.097  28.787  25.750  1.00  0.00     0.000 C 
BRANCH   7   8
ATOM      8  C   UNL     1       9.078  28.703  26.932  1.00  0.00     0.000 C 
BRANCH   8   9
ATOM      9  C   UNL     1      10.161  29.791  26.878  1.00  0.00     0.000 C 
BRANCH   9  10
ATOM     10  C   UNL     1      10.615  30.247  28.277  1.00  0.00     0.006 C 
BRANCH  10  11
ATOM     11  C   UNL     1      11.294  31.624  28.244  1.00  0.00     0.053 C 
BRANCH  11  12
ATOM     12  C   UNL     1      10.769  32.528  29.316  1.00  0.00     0.041 C 
ATOM     13  O   UNL     1      10.306  33.661  29.019  1.00  0.00    -0.550 OA
ATOM     14  O   UNL     1      10.756  32.106  30.640  1.00  0.00    -0.550 OA
ENDBRANCH  11  12
ENDBRANCH  10  11
ENDBRANCH   9  10
ENDBRANCH   8   9
ENDBRANCH   7   8
ENDBRANCH   6   7
ENDBRANCH   5   6
ENDBRANCH   4   5
ENDBRANCH   3   4
ENDBRANCH   2   3
ENDBRANCH   1   2
BRANCH   1  15
ATOM     15  C   UNL     1       3.990  26.918  27.484  1.00  0.00     0.000 C 
BRANCH  15  16
ATOM     16  C   UNL     1       5.232  26.227  28.073  1.00  0.00     0.000 C 
BRANCH  16  17
ATOM     17  C   UNL     1       5.572  26.714  29.493  1.00  0.00     0.000 C 
BRANCH  17  18
ATOM     18  C   UNL     1       6.774  27.672  29.589  1.00  0.00    -0.000 C 
BRANCH  18  19
ATOM     19  C   UNL     1       6.435  28.991  30.298  1.00  0.00    -0.000 C 
BRANCH  19  20
ATOM     20  C   UNL     1       7.515  30.049  30.040  1.00  0.00    -0.000 C 
BRANCH  20  21
ATOM     21  C   UNL     1       7.192  31.357  30.778  1.00  0.00    -0.000 C 
BRANCH  21  22
ATOM     22  C   UNL     1       5.716  31.764  30.642  1.00  0.00    -0.000 C 
BRANCH  22  23
ATOM     23  C   UNL     1       5.205  32.554  31.856  1.00  0.00    -0.000 C 
BRANCH  23  24
ATOM     24  C   UNL     1       5.979  32.172  33.124  1.00  0.00    -0.000 C 
BRANCH  24  25
ATOM     25  C   UNL     1       5.223  31.110  33.931  1.00  0.00    -0.003 C 
ATOM     26  C   UNL     1       6.016  29.808  34.007  1.00  0.00     0.004 C 
ENDBRANCH  24  25
ENDBRANCH  23  24
ENDBRANCH  22  23
ENDBRANCH  21  22
ENDBRANCH  20  21
ENDBRANCH  19  20
ENDBRANCH  18  19
ENDBRANCH  17  18
ENDBRANCH  16  17
ENDBRANCH  15  16
ENDBRANCH   1  15
TORSDOF 22
ENDMDL
MODEL 4
REMARK VINA RESULT:    -4.278      2.170      4.247
REMARK INTER + INTRA:         -13.919
REMARK INTER:                  -9.781
REMARK INTRA:                  -4.138
REMARK UNBOUND:                -4.139
REMARK SMILES CCCCCCCCCCCCCCCCCCCCCCCC(=O)[O-]
REMARK SMILES IDX 13 1 14 2 15 3 16 4 17 5 18 6 19 7 20 8 21 9 22 10 23 11
REMARK SMILES IDX 24 12 25 13 26 14 12 15 11 16 10 17 9 18 8 19 7 20 6 21 5 22
REMARK SMILES IDX 4 23 3 24 2 25 1 26
REMARK H PARENT
REMARK Flexibility Score: inf
ROOT
ATOM      1  C   UNL     1       6.812  27.956  29.234  1.00  0.00     0.000 C 
ENDROOT
BRANCH   1   2
ATOM      2  C   UNL     1       7.840  28.809  28.464  1.00  0.00     0.000 C 
BRANCH   2   3
ATOM      3  C   UNL     1       7.271  30.074  27.788  1.00  0.00     0.000 C 
BRANCH   3   4
ATOM      4  C   UNL     1       7.825  30.371  26.383  1.00  0.00     0.000 C 
BRANCH   4   5
ATOM      5  C   UNL     1       8.802  29.294  25.885  1.00  0.00     0.000 C 
BRANCH   5   6
ATOM      6  C   UNL     1       9.095  29.399  24.377  1.00  0.00     0.000 C 
BRANCH   6   7
ATOM      7  C   UNL     1      10.521  29.847  24.012  1.00  0.00     0.000 C 
BRANCH   7   8
ATOM      8  C   UNL     1      10.943  31.147  24.719  1.00  0.00     0.000 C 
BRANCH   8   9
ATOM      9  C   UNL     1      11.860  30.892  25.925  1.00  0.00     0.000 C 
BRANCH   9  10
ATOM     10  C   UNL     1      11.633  31.899  27.068  1.00  0.00     0.006 C 
BRANCH  10  11
ATOM     11  C   UNL     1      10.966  31.249  28.288  1.00  0.00     0.053 C 
BRANCH  11  12
ATOM     12  C   UNL     1      10.182  32.243  29.087  1.00  0.00     0.041 C 
ATOM     13  O   UNL     1       9.377  31.850  29.974  1.00  0.00    -0.550 OA
ATOM     14  O   UNL     1      10.364  33.605  28.879  1.00  0.00    -0.550 OA
ENDBRANCH  11  12
ENDBRANCH  10  11
ENDBRANCH   9  10
ENDBRANCH   8   9
ENDBRANCH   7   8
ENDBRANCH   6   7
ENDBRANCH   5   6
ENDBRANCH   4   5
ENDBRANCH   3   4
ENDBRANCH   2   3
ENDBRANCH   1   2
BRANCH   1  15
ATOM     15  C   UNL     1       6.938  26.435  29.027  1.00  0.00     0.000 C 
BRANCH  15  16
ATOM     16  C   UNL     1       7.764  26.067  27.783  1.00  0.00     0.000 C 
BRANCH  16  17
ATOM     17  C   UNL     1       6.898  25.552  26.619  1.00  0.00     0.000 C 
BRANCH  17  18
ATOM     18  C   UNL     1       7.280  26.090  25.228  1.00  0.00    -0.000 C 
BRANCH  18  19
ATOM     19  C   UNL     1       6.351  25.588  24.113  1.00  0.00    -0.000 C 
BRANCH  19  20
ATOM     20  C   UNL     1       5.307  26.650  23.745  1.00  0.00    -0.000 C 
BRANCH  20  21
ATOM     21  C   UNL     1       5.724  28.034  24.263  1.00  0.00    -0.000 C 
BRANCH  21  22
ATOM     22  C   UNL     1       4.550  28.818  24.869  1.00  0.00    -0.000 C 
BRANCH  22  23
ATOM     23  C   UNL     1       4.339  28.513  26.360  1.00  0.00    -0.000 C 
BRANCH  23  24
ATOM     24  C   UNL     1       3.718  29.714  27.083  1.00  0.00    -0.000 C 
BRANCH  24  25
ATOM     25  C   UNL     1       3.420  29.380  28.550  1.00  0.00    -0.003 C 
ATOM     26  C   UNL     1       3.098  27.898  28.722  1.00  0.00     0.004 C 
ENDBRANCH  24  25
ENDBRANCH  23  24
ENDBRANCH  22  23
ENDBRANCH  21  22
ENDBRANCH  20  21
ENDBRANCH  19  20
ENDBRANCH  18  19
ENDBRANCH  17  18
ENDBRANCH  16  17
ENDBRANCH  15  16
ENDBRANCH   1  15
TORSDOF 22
ENDMDL
MODEL 5
REMARK VINA RESULT:    -4.266      2.255      4.114
REMARK INTER + INTRA:         -13.890
REMARK INTER:                  -9.804
REMARK INTRA:                  -4.086
REMARK UNBOUND:                -4.139
REMARK SMILES CCCCCCCCCCCCCCCCCCCCCCCC(=O)[O-]
REMARK SMILES IDX 13 1 14 2 15 3 16 4 17 5 18 6 19 7 20 8 21 9 22 10 23 11
REMARK SMILES IDX 24 12 25 13 26 14 12 15 11 16 10 17 9 18 8 19 7 20 6 21 5 22
REMARK SMILES IDX 4 23 3 24 2 25 1 26
REMARK H PARENT
REMARK Flexibility Score: inf
ROOT
ATOM      1  C   UNL     1       8.282  25.601  27.232  1.00  0.00     0.000 C 
ENDROOT
BRANCH   1   2
ATOM      2  C   UNL     1       7.240  24.982  26.281  1.00  0.00     0.000 C 
BRANCH   2   3
ATOM      3  C   UNL     1       7.360  25.410  24.804  1.00  0.00     0.000 C 
BRANCH   3   4
ATOM      4  C   UNL     1       8.524  26.370  24.493  1.00  0.00     0.000 C 
BRANCH   4   5
ATOM      5  C   UNL     1       8.047  27.765  24.055  1.00  0.00     0.000 C 
BRANCH   5   6
ATOM      6  C   UNL     1       9.199  28.777  23.915  1.00  0.00     0.000 C 
BRANCH   6   7
ATOM      7  C   UNL     1       9.303  29.818  25.044  1.00  0.00     0.000 C 
BRANCH   7   8
ATOM      8  C   UNL     1      10.096  31.071  24.635  1.00  0.00     0.000 C 
BRANCH   8   9
ATOM      9  C   UNL     1       9.728  32.304  25.476  1.00  0.00     0.000 C 
BRANCH   9  10
ATOM     10  C   UNL     1      10.889  32.785  26.365  1.00  0.00     0.006 C 
BRANCH  10  11
ATOM     11  C   UNL     1      10.702  32.377  27.833  1.00  0.00     0.053 C 
BRANCH  11  12
ATOM     12  C   UNL     1      11.674  31.314  28.242  1.00  0.00     0.041 C 
ATOM     13  O   UNL     1      11.519  30.128  27.846  1.00  0.00    -0.550 OA
ATOM     14  O   UNL     1      12.770  31.638  29.032  1.00  0.00    -0.550 OA
ENDBRANCH  11  12
ENDBRANCH  10  11
ENDBRANCH   9  10
ENDBRANCH   8   9
ENDBRANCH   7   8
ENDBRANCH   6   7
ENDBRANCH   5   6
ENDBRANCH   4   5
ENDBRANCH   3   4
ENDBRANCH   2   3
ENDBRANCH   1   2
BRANCH   1  15
ATOM     15  C   UNL     1       7.776  26.786  28.077  1.00  0.00     0.000 C 
BRANCH  15  16
ATOM     16  C   UNL     1       8.558  28.084  27.814  1.00  0.00     0.000 C 
BRANCH  16  17
ATOM     17  C   UNL     1       7.985  29.294  28.575  1.00  0.00     0.000 C 
BRANCH  17  18
ATOM     18  C   UNL     1       6.707  29.014  29.387  1.00  0.00    -0.000 C 
BRANCH  18  19
ATOM     19  C   UNL     1       5.586  30.024  29.109  1.00  0.00    -0.000 C 
BRANCH  19  20
ATOM     20  C   UNL     1       5.630  30.513  27.656  1.00  0.00    -0.000 C 
BRANCH  20  21
ATOM     21  C   UNL     1       4.278  30.293  26.961  1.00  0.00    -0.000 C 
BRANCH  21  22
ATOM     22  C   UNL     1       4.383  29.367  25.739  1.00  0.00    -0.000 C 
BRANCH  22  23
ATOM     23  C   UNL     1       5.073  28.033  26.064  1.00  0.00    -0.000 C 
BRANCH  23  24
ATOM     24  C   UNL     1       4.040  26.920  26.278  1.00  0.00    -0.000 C 
BRANCH  24  25
ATOM     25  C   UNL     1       4.103  26.379  27.712  1.00  0.00    -0.003 C 
ATOM     26  C   UNL     1       3.216  27.195  28.648  1.00  0.00     0.004 C 
ENDBRANCH  24  25
ENDBRANCH  23  24
ENDBRANCH  22  23
ENDBRANCH  21  22
ENDBRANCH  20  21
ENDBRANCH  19  20
ENDBRANCH  18  19
ENDBRANCH  17  18
ENDBRANCH  16  17
ENDBRANCH  15  16
ENDBRANCH   1  15
TORSDOF 22
ENDMDL
MODEL 6
REMARK VINA RESULT:    -4.261      1.359      4.245
REMARK INTER + INTRA:         -13.880
REMARK INTER:                  -9.693
REMARK INTRA:                  -4.187
REMARK UNBOUND:                -4.139
REMARK SMILES CCCCCCCCCCCCCCCCCCCCCCCC(=O)[O-]
REMARK SMILES IDX 13 1 14 2 15 3 16 4 17 5 18 6 19 7 20 8 21 9 22 10 23 11
REMARK SMILES IDX 24 12 25 13 26 14 12 15 11 16 10 17 9 18 8 19 7 20 6 21 5 22
REMARK SMILES IDX 4 23 3 24 2 25 1 26
REMARK H PARENT
REMARK Flexibility Score: inf
ROOT
ATOM      1  C   UNL     1       4.986  25.740  26.640  1.00  0.00     0.000 C 
ENDROOT
BRANCH   1   2
ATOM      2  C   UNL     1       4.355  26.237  27.956  1.00  0.00     0.000 C 
BRANCH   2   3
ATOM      3  C   UNL     1       5.344  26.454  29.119  1.00  0.00     0.000 C 
BRANCH   3   4
ATOM      4  C   UNL     1       6.834  26.394  28.732  1.00  0.00     0.000 C 
BRANCH   4   5
ATOM      5  C   UNL     1       7.386  27.752  28.270  1.00  0.00     0.000 C 
BRANCH   5   6
ATOM      6  C   UNL     1       8.582  27.619  27.309  1.00  0.00     0.000 C 
BRANCH   6   7
ATOM      7  C   UNL     1       8.379  28.240  25.915  1.00  0.00     0.000 C 
BRANCH   7   8
ATOM      8  C   UNL     1       8.584  29.764  25.900  1.00  0.00     0.000 C 
BRANCH   8   9
ATOM      9  C   UNL     1       9.964  30.180  26.430  1.00  0.00     0.000 C 
BRANCH   9  10
ATOM     10  C   UNL     1      10.731  31.085  25.448  1.00  0.00     0.006 C 
BRANCH  10  11
ATOM     11  C   UNL     1       9.900  32.300  25.011  1.00  0.00     0.053 C 
BRANCH  11  12
ATOM     12  C   UNL     1      10.754  33.366  24.399  1.00  0.00     0.041 C 
ATOM     13  O   UNL     1      10.976  34.437  25.024  1.00  0.00    -0.550 OA
ATOM     14  O   UNL     1      11.335  33.164  23.153  1.00  0.00    -0.550 OA
ENDBRANCH  11  12
ENDBRANCH  10  11
ENDBRANCH   9  10
ENDBRANCH   8   9
ENDBRANCH   7   8
ENDBRANCH   6   7
ENDBRANCH   5   6
ENDBRANCH   4   5
ENDBRANCH   3   4
ENDBRANCH   2   3
ENDBRANCH   1   2
BRANCH   1  15
ATOM     15  C   UNL     1       4.934  26.741  25.470  1.00  0.00     0.000 C 
BRANCH  15  16
ATOM     16  C   UNL     1       4.093  27.989  25.788  1.00  0.00     0.000 C 
BRANCH  16  17
ATOM     17  C   UNL     1       4.924  29.285  25.802  1.00  0.00     0.000 C 
BRANCH  17  18
ATOM     18  C   UNL     1       4.666  30.218  26.999  1.00  0.00    -0.000 C 
BRANCH  18  19
ATOM     19  C   UNL     1       3.366  29.892  27.746  1.00  0.00    -0.000 C 
BRANCH  19  20
ATOM     20  C   UNL     1       3.591  29.871  29.263  1.00  0.00    -0.000 C 
BRANCH  20  21
ATOM     21  C   UNL     1       5.060  30.161  29.605  1.00  0.00    -0.000 C 
BRANCH  21  22
ATOM     22  C   UNL     1       5.458  29.643  30.996  1.00  0.00    -0.000 C 
BRANCH  22  23
ATOM     23  C   UNL     1       6.950  29.850  31.301  1.00  0.00    -0.000 C 
BRANCH  23  24
ATOM     24  C   UNL     1       7.460  31.157  30.681  1.00  0.00    -0.000 C 
BRANCH  24  25
ATOM     25  C   UNL     1       8.651  30.897  29.750  1.00  0.00    -0.003 C 
ATOM     26  C   UNL     1       9.731  31.959  29.928  1.00  0.00     0.004 C 
ENDBRANCH  24  25
ENDBRANCH  23  24
ENDBRANCH  22  23
ENDBRANCH  21  22
ENDBRANCH  20  21
ENDBRANCH  19  20
ENDBRANCH  18  19
ENDBRANCH  17  18
ENDBRANCH  16  17
ENDBRANCH  15  16
ENDBRANCH   1  15
TORSDOF 22
ENDMDL
MODEL 7
REMARK VINA RESULT:    -4.252      2.386      4.832
REMARK INTER + INTRA:         -13.859
REMARK INTER:                  -9.355
REMARK INTRA:                  -4.504
REMARK UNBOUND:                -4.139
REMARK SMILES CCCCCCCCCCCCCCCCCCCCCCCC(=O)[O-]
REMARK SMILES IDX 13 1 14 2 15 3 16 4 17 5 18 6 19 7 20 8 21 9 22 10 23 11
REMARK SMILES IDX 24 12 25 13 26 14 12 15 11 16 10 17 9 18 8 19 7 20 6 21 5 22
REMARK SMILES IDX 4 23 3 24 2 25 1 26
REMARK H PARENT
REMARK Flexibility Score: inf
ROOT
ATOM      1  C   UNL     1       4.334  29.837  26.538  1.00  0.00     0.000 C 
ENDROOT
BRANCH   1   2
ATOM      2  C   UNL     1       5.180  30.942  27.203  1.00  0.00     0.000 C 
BRANCH   2   3
ATOM      3  C   UNL     1       5.670  30.625  28.631  1.00  0.00     0.000 C 
BRANCH   3   4
ATOM      4  C   UNL     1       5.574  29.145  29.044  1.00  0.00     0.000 C 
BRANCH   4   5
ATOM      5  C   UNL     1       6.946  28.515  29.335  1.00  0.00     0.000 C 
BRANCH   5   6
ATOM      6  C   UNL     1       7.368  27.480  28.275  1.00  0.00     0.000 C 
BRANCH   6   7
ATOM      7  C   UNL     1       8.166  28.042  27.085  1.00  0.00     0.000 C 
BRANCH   7   8
ATOM      8  C   UNL     1       8.975  29.300  27.444  1.00  0.00     0.000 C 
BRANCH   8   9
ATOM      9  C   UNL     1       8.778  30.439  26.431  1.00  0.00     0.000 C 
BRANCH   9  10
ATOM     10  C   UNL     1      10.077  30.810  25.694  1.00  0.00     0.006 C 
BRANCH  10  11
ATOM     11  C   UNL     1       9.933  32.108  24.886  1.00  0.00     0.053 C 
BRANCH  11  12
ATOM     12  C   UNL     1      10.743  33.221  25.474  1.00  0.00     0.041 C 
ATOM     13  O   UNL     1      11.302  33.075  26.593  1.00  0.00    -0.550 OA
ATOM     14  O   UNL     1      10.909  34.409  24.772  1.00  0.00    -0.550 OA
ENDBRANCH  11  12
ENDBRANCH  10  11
ENDBRANCH   9  10
ENDBRANCH   8   9
ENDBRANCH   7   8
ENDBRANCH   6   7
ENDBRANCH   5   6
ENDBRANCH   4   5
ENDBRANCH   3   4
ENDBRANCH   2   3
ENDBRANCH   1   2
BRANCH   1  15
ATOM     15  C   UNL     1       4.968  29.187  25.294  1.00  0.00     0.000 C 
BRANCH  15  16
ATOM     16  C   UNL     1       4.445  27.765  25.031  1.00  0.00     0.000 C 
BRANCH  16  17
ATOM     17  C   UNL     1       3.997  27.043  26.314  1.00  0.00     0.000 C 
BRANCH  17  18
ATOM     18  C   UNL     1       4.716  25.713  26.605  1.00  0.00    -0.000 C 
BRANCH  18  19
ATOM     19  C   UNL     1       5.187  24.994  25.334  1.00  0.00    -0.000 C 
BRANCH  19  20
ATOM     20  C   UNL     1       6.674  24.630  25.425  1.00  0.00    -0.000 C 
BRANCH  20  21
ATOM     21  C   UNL     1       7.526  25.574  24.563  1.00  0.00    -0.000 C 
BRANCH  21  22
ATOM     22  C   UNL     1       7.039  25.649  23.108  1.00  0.00    -0.000 C 
BRANCH  22  23
ATOM     23  C   UNL     1       7.108  27.071  22.532  1.00  0.00    -0.000 C 
BRANCH  23  24
ATOM     24  C   UNL     1       7.915  27.997  23.452  1.00  0.00    -0.000 C 
BRANCH  24  25
ATOM     25  C   UNL     1       9.279  28.332  22.836  1.00  0.00    -0.003 C 
ATOM     26  C   UNL     1       9.294  28.039  21.339  1.00  0.00     0.004 C 
ENDBRANCH  24  25
ENDBRANCH  23  24
ENDBRANCH  22  23
ENDBRANCH  21  22
ENDBRANCH  20  21
ENDBRANCH  19  20
ENDBRANCH  18  19
ENDBRANCH  17  18
ENDBRANCH  16  17
ENDBRANCH  15  16
ENDBRANCH   1  15
TORSDOF 22
ENDMDL
MODEL 8
REMARK VINA RESULT:    -4.229      2.592      6.310
REMARK INTER + INTRA:         -13.807
REMARK INTER:                  -9.507
REMARK INTRA:                  -4.300
REMARK UNBOUND:                -4.139
REMARK SMILES CCCCCCCCCCCCCCCCCCCCCCCC(=O)[O-]
REMARK SMILES IDX 13 1 14 2 15 3 16 4 17 5 18 6 19 7 20 8 21 9 22 10 23 11
REMARK SMILES IDX 24 12 25 13 26 14 12 15 11 16 10 17 9 18 8 19 7 20 6 21 5 22
REMARK SMILES IDX 4 23 3 24 2 25 1 26
REMARK H PARENT
REMARK Flexibility Score: inf
ROOT
ATOM      1  C   UNL     1       7.238  25.958  27.798  1.00  0.00     0.000 C 
ENDROOT
BRANCH   1   2
ATOM      2  C   UNL     1       6.962  26.499  29.215  1.00  0.00     0.000 C 
BRANCH   2   3
ATOM      3  C   UNL     1       6.092  27.771  29.276  1.00  0.00     0.000 C 
BRANCH   3   4
ATOM      4  C   UNL     1       6.776  29.003  29.897  1.00  0.00     0.000 C 
BRANCH   4   5
ATOM      5  C   UNL     1       6.329  30.324  29.250  1.00  0.00     0.000 C 
BRANCH   5   6
ATOM      6  C   UNL     1       5.052  30.176  28.402  1.00  0.00     0.000 C 
BRANCH   6   7
ATOM      7  C   UNL     1       5.169  30.657  26.944  1.00  0.00     0.000 C 
BRANCH   7   8
ATOM      8  C   UNL     1       5.239  29.499  25.933  1.00  0.00     0.000 C 
BRANCH   8   9
ATOM      9  C   UNL     1       4.205  28.400  26.221  1.00  0.00     0.000 C 
BRANCH   9  10
ATOM     10  C   UNL     1       4.067  27.395  25.063  1.00  0.00     0.006 C 
BRANCH  10  11
ATOM     11  C   UNL     1       5.432  26.943  24.524  1.00  0.00     0.053 C 
BRANCH  11  12
ATOM     12  C   UNL     1       5.534  27.131  23.042  1.00  0.00     0.041 C 
ATOM     13  O   UNL     1       5.367  26.153  22.266  1.00  0.00    -0.550 OA
ATOM     14  O   UNL     1       5.777  28.394  22.515  1.00  0.00    -0.550 OA
ENDBRANCH  11  12
ENDBRANCH  10  11
ENDBRANCH   9  10
ENDBRANCH   8   9
ENDBRANCH   7   8
ENDBRANCH   6   7
ENDBRANCH   5   6
ENDBRANCH   4   5
ENDBRANCH   3   4
ENDBRANCH   2   3
ENDBRANCH   1   2
BRANCH   1  15
ATOM     15  C   UNL     1       8.575  26.403  27.176  1.00  0.00     0.000 C 
BRANCH  15  16
ATOM     16  C   UNL     1       8.412  27.554  26.168  1.00  0.00     0.000 C 
BRANCH  16  17
ATOM     17  C   UNL     1       8.731  28.932  26.774  1.00  0.00     0.000 C 
BRANCH  17  18
ATOM     18  C   UNL     1       9.917  28.960  27.755  1.00  0.00    -0.000 C 
BRANCH  18  19
ATOM     19  C   UNL     1       9.997  30.261  28.565  1.00  0.00    -0.000 C 
BRANCH  19  20
ATOM     20  C   UNL     1      11.443  30.571  28.970  1.00  0.00    -0.000 C 
BRANCH  20  21
ATOM     21  C   UNL     1      11.820  32.014  28.602  1.00  0.00    -0.000 C 
BRANCH  21  22
ATOM     22  C   UNL     1      10.692  32.751  27.864  1.00  0.00    -0.000 C 
BRANCH  22  23
ATOM     23  C   UNL     1      11.020  33.010  26.386  1.00  0.00    -0.000 C 
BRANCH  23  24
ATOM     24  C   UNL     1       9.971  32.367  25.470  1.00  0.00    -0.000 C 
BRANCH  24  25
ATOM     25  C   UNL     1      10.633  31.455  24.430  1.00  0.00    -0.003 C 
ATOM     26  C   UNL     1      11.741  30.615  25.059  1.00  0.00     0.004 C 
ENDBRANCH  24  25
ENDBRANCH  23  24
ENDBRANCH  22  23
ENDBRANCH  21  22
ENDBRANCH  20  21
ENDBRANCH  19  20
ENDBRANCH  18  19
ENDBRANCH  17  18
ENDBRANCH  16  17
ENDBRANCH  15  16
ENDBRANCH   1  15
TORSDOF 22
ENDMDL
MODEL 9
REMARK VINA RESULT:    -4.221      3.070      6.593
REMARK INTER + INTRA:         -13.788
REMARK INTER:                  -9.433
REMARK INTRA:                  -4.354
REMARK UNBOUND:                -4.139
REMARK SMILES CCCCCCCCCCCCCCCCCCCCCCCC(=O)[O-]
REMARK SMILES IDX 13 1 14 2 15 3 16 4 17 5 18 6 19 7 20 8 21 9 22 10 23 11
REMARK SMILES IDX 24 12 25 13 26 14 12 15 11 16 10 17 9 18 8 19 7 20 6 21 5 22
REMARK SMILES IDX 4 23 3 24 2 25 1 26
REMARK H PARENT
REMARK Flexibility Score: inf
ROOT
ATOM      1  C   UNL     1       3.719  29.886  27.668  1.00  0.00     0.000 C 
ENDROOT
BRANCH   1   2
ATOM      2  C   UNL     1       3.207  29.374  29.029  1.00  0.00     0.000 C 
BRANCH   2   3
ATOM      3  C   UNL     1       4.014  29.847  30.256  1.00  0.00     0.000 C 
BRANCH   3   4
ATOM      4  C   UNL     1       5.538  29.923  30.047  1.00  0.00     0.000 C 
BRANCH   4   5
ATOM      5  C   UNL     1       6.285  28.719  30.643  1.00  0.00     0.000 C 
BRANCH   5   6
ATOM      6  C   UNL     1       6.858  27.776  29.570  1.00  0.00     0.000 C 
BRANCH   6   7
ATOM      7  C   UNL     1       5.885  26.704  29.046  1.00  0.00     0.000 C 
BRANCH   7   8
ATOM      8  C   UNL     1       6.478  25.860  27.904  1.00  0.00     0.000 C 
BRANCH   8   9
ATOM      9  C   UNL     1       7.992  26.065  27.743  1.00  0.00     0.000 C 
BRANCH   9  10
ATOM     10  C   UNL     1       8.438  26.070  26.269  1.00  0.00     0.006 C 
BRANCH  10  11
ATOM     11  C   UNL     1       7.246  26.011  25.304  1.00  0.00     0.053 C 
BRANCH  11  12
ATOM     12  C   UNL     1       7.302  24.800  24.425  1.00  0.00     0.041 C 
ATOM     13  O   UNL     1       7.958  24.828  23.349  1.00  0.00    -0.550 OA
ATOM     14  O   UNL     1       6.661  23.629  24.808  1.00  0.00    -0.550 OA
ENDBRANCH  11  12
ENDBRANCH  10  11
ENDBRANCH   9  10
ENDBRANCH   8   9
ENDBRANCH   7   8
ENDBRANCH   6   7
ENDBRANCH   5   6
ENDBRANCH   4   5
ENDBRANCH   3   4
ENDBRANCH   2   3
ENDBRANCH   1   2
BRANCH   1  15
ATOM     15  C   UNL     1       4.030  28.791  26.631  1.00  0.00     0.000 C 
BRANCH  15  16
ATOM     16  C   UNL     1       5.242  29.131  25.747  1.00  0.00     0.000 C 
BRANCH  16  17
ATOM     17  C   UNL     1       6.227  30.100  26.426  1.00  0.00     0.000 C 
BRANCH  17  18
ATOM     18  C   UNL     1       7.689  29.622  26.475  1.00  0.00    -0.000 C 
BRANCH  18  19
ATOM     19  C   UNL     1       8.473  30.205  27.660  1.00  0.00    -0.000 C 
BRANCH  19  20
ATOM     20  C   UNL     1       9.839  29.524  27.806  1.00  0.00    -0.000 C 
BRANCH  20  21
ATOM     21  C   UNL     1      10.956  30.565  27.977  1.00  0.00    -0.000 C 
BRANCH  21  22
ATOM     22  C   UNL     1      10.487  31.994  27.663  1.00  0.00    -0.000 C 
BRANCH  22  23
ATOM     23  C   UNL     1      11.483  32.765  26.783  1.00  0.00    -0.000 C 
BRANCH  23  24
ATOM     24  C   UNL     1      10.849  33.141  25.439  1.00  0.00    -0.000 C 
BRANCH  24  25
ATOM     25  C   UNL     1      10.128  31.941  24.814  1.00  0.00    -0.003 C 
ATOM     26  C   UNL     1      11.118  30.989  24.149  1.00  0.00     0.004 C 
ENDBRANCH  24  25
ENDBRANCH  23  24
ENDBRANCH  22  23
ENDBRANCH  21  22
ENDBRANCH  20  21
ENDBRANCH  19  20
ENDBRANCH  18  19
ENDBRANCH  17  18
ENDBRANCH  16  17
ENDBRANCH  15  16
ENDBRANCH   1  15
TORSDOF 22
ENDMDL
