MODEL 1
REMARK VINA RESULT:    -2.657      0.000      0.000
REMARK INTER + INTRA:         -12.799
REMARK INTER:                  -7.007
REMARK INTRA:                  -5.792
REMARK UNBOUND:                -5.792
REMARK SMILES CCCCCCCCCCCCCCCCCCCCCCCCCCCCCC(=O)[O-]
REMARK SMILES IDX 16 1 17 2 18 3 19 4 20 5 21 6 22 7 23 8 24 9 25 10 26 11
REMARK SMILES IDX 27 12 28 13 29 14 30 15 31 16 32 17 15 18 14 19 13 20 12 21
REMARK SMILES IDX 11 22 10 23 9 24 8 25 7 26 6 27 5 28 4 29 3 30 2 31 1 32
REMARK H PARENT
REMARK Flexibility Score: inf
ROOT
ATOM      1  C   UNL     1       7.491   1.417   4.623  1.00  0.00     0.000 C 
ENDROOT
BRANCH   1   2
ATOM      2  C   UNL     1       8.978   1.804   4.530  1.00  0.00     0.000 C 
BRANCH   2   3
ATOM      3  C   UNL     1       9.901   0.588   4.339  1.00  0.00     0.000 C 
BRANCH   3   4
ATOM      4  C   UNL     1       9.127  -0.713   4.060  1.00  0.00     0.000 C 
BRANCH   4   5
ATOM      5  C   UNL     1       9.393  -1.863   5.053  1.00  0.00     0.000 C 
BRANCH   5   6
ATOM      6  C   UNL     1       9.283  -1.483   6.543  1.00  0.00     0.000 C 
BRANCH   6   7
ATOM      7  C   UNL     1       7.847  -1.455   7.106  1.00  0.00     0.000 C 
BRANCH   7   8
ATOM      8  C   UNL     1       7.733  -1.741   8.614  1.00  0.00     0.000 C 
BRANCH   8   9
ATOM      9  C   UNL     1       8.561  -2.961   9.054  1.00  0.00     0.000 C 
BRANCH   9  10
ATOM     10  C   UNL     1       7.716  -4.241   9.162  1.00  0.00     0.000 C 
BRANCH  10  11
ATOM     11  C   UNL     1       8.435  -5.475   8.592  1.00  0.00     0.000 C 
BRANCH  11  12
ATOM     12  C   UNL     1       9.308  -5.138   7.374  1.00  0.00     0.000 C 
BRANCH  12  13
ATOM     13  C   UNL     1       8.534  -5.223   6.046  1.00  0.00     0.006 C 
BRANCH  13  14
ATOM     14  C   UNL     1       7.414  -6.270   6.098  1.00  0.00     0.053 C 
BRANCH  14  15
ATOM     15  C   UNL     1       7.890  -7.613   5.633  1.00  0.00     0.041 C 
ATOM     16  O   UNL     1       8.456  -7.733   4.515  1.00  0.00    -0.550 OA
ATOM     17  O   UNL     1       7.740  -8.726   6.451  1.00  0.00    -0.550 OA
ENDBRANCH  14  15
ENDBRANCH  13  14
ENDBRANCH  12  13
ENDBRANCH  11  12
ENDBRANCH  10  11
ENDBRANCH   9  10
ENDBRANCH   8   9
ENDBRANCH   7   8
ENDBRANCH   6   7
ENDBRANCH   5   6
ENDBRANCH   4   5
ENDBRANCH   3   4
ENDBRANCH   2   3
ENDBRANCH   1   2
BRANCH   1  18
ATOM     18  C   UNL     1       6.502   2.596   4.565  1.00  0.00     0.000 C 
BRANCH  18  19
ATOM     19  C   UNL     1       7.199   3.960   4.469  1.00  0.00     0.000 C 
BRANCH  19  20
ATOM     20  C   UNL     1       6.375   5.044   5.179  1.00  0.00     0.000 C 
BRANCH  20  21
ATOM     21  C   UNL     1       7.113   5.672   6.371  1.00  0.00     0.000 C 
BRANCH  21  22
ATOM     22  C   UNL     1       8.520   5.082   6.569  1.00  0.00     0.000 C 
BRANCH  22  23
ATOM     23  C   UNL     1       8.709   4.424   7.947  1.00  0.00     0.000 C 
BRANCH  23  24
ATOM     24  C   UNL     1       9.523   3.115   7.945  1.00  0.00    -0.000 C 
BRANCH  24  25
ATOM     25  C   UNL     1       8.739   1.851   8.348  1.00  0.00    -0.000 C 
BRANCH  25  26
ATOM     26  C   UNL     1       7.937   2.001   9.659  1.00  0.00    -0.000 C 
BRANCH  26  27
ATOM     27  C   UNL     1       6.457   1.607   9.500  1.00  0.00    -0.000 C 
BRANCH  27  28
ATOM     28  C   UNL     1       5.935   1.835   8.073  1.00  0.00    -0.000 C 
BRANCH  28  29
ATOM     29  C   UNL     1       4.926   2.992   7.991  1.00  0.00    -0.000 C 
BRANCH  29  30
ATOM     30  C   UNL     1       4.707   3.688   9.345  1.00  0.00    -0.000 C 
BRANCH  30  31
ATOM     31  C   UNL     1       5.144   5.168   9.357  1.00  0.00    -0.003 C 
ATOM     32  C   UNL     1       4.243   6.049   8.492  1.00  0.00     0.004 C 
ENDBRANCH  30  31
ENDBRANCH  29  30
ENDBRANCH  28  29
ENDBRANCH  27  28
ENDBRANCH  26  27
ENDBRANCH  25  26
ENDBRANCH  24  25
ENDBRANCH  23  24
ENDBRANCH  22  23
ENDBRANCH  21  22
ENDBRANCH  20  21
ENDBRANCH  19  20
ENDBRANCH  18  19
ENDBRANCH   1  18
TORSDOF 28
ENDMDL
MODEL 2
REMARK VINA RESULT:    -2.500      1.713      2.806
REMARK INTER + INTRA:         -12.384
REMARK INTER:                  -8.240
REMARK INTRA:                  -4.144
REMARK UNBOUND:                -5.792
REMARK SMILES CCCCCCCCCCCCCCCCCCCCCCCCCCCCCC(=O)[O-]
REMARK SMILES IDX 16 1 17 2 18 3 19 4 20 5 21 6 22 7 23 8 24 9 25 10 26 11
REMARK SMILES IDX 27 12 28 13 29 14 30 15 31 16 32 17 15 18 14 19 13 20 12 21
REMARK SMILES IDX 11 22 10 23 9 24 8 25 7 26 6 27 5 28 4 29 3 30 2 31 1 32
REMARK H PARENT
REMARK Flexibility Score: inf
ROOT
ATOM      1  C   UNL     1       6.664   2.695   4.822  1.00  0.00     0.000 C 
ENDROOT
BRANCH   1   2
ATOM      2  C   UNL     1       7.396   1.373   4.524  1.00  0.00     0.000 C 
BRANCH   2   3
ATOM      3  C   UNL     1       8.914   1.557   4.353  1.00  0.00     0.000 C 
BRANCH   3   4
ATOM      4  C   UNL     1       9.677   0.221   4.305  1.00  0.00     0.000 C 
BRANCH   4   5
ATOM      5  C   UNL     1       8.801  -1.043   4.424  1.00  0.00     0.000 C 
BRANCH   5   6
ATOM      6  C   UNL     1       8.720  -1.655   5.836  1.00  0.00     0.000 C 
BRANCH   6   7
ATOM      7  C   UNL     1       9.834  -2.666   6.175  1.00  0.00     0.000 C 
BRANCH   7   8
ATOM      8  C   UNL     1       9.389  -3.865   7.033  1.00  0.00     0.000 C 
BRANCH   8   9
ATOM      9  C   UNL     1       9.391  -5.189   6.251  1.00  0.00     0.000 C 
BRANCH   9  10
ATOM     10  C   UNL     1       7.982  -5.789   6.102  1.00  0.00     0.000 C 
BRANCH  10  11
ATOM     11  C   UNL     1       7.958  -7.023   5.185  1.00  0.00     0.000 C 
BRANCH  11  12
ATOM     12  C   UNL     1       8.194  -8.333   5.953  1.00  0.00     0.000 C 
BRANCH  12  13
ATOM     13  C   UNL     1       7.363  -8.422   7.246  1.00  0.00     0.006 C 
BRANCH  13  14
ATOM     14  C   UNL     1       6.088  -9.253   7.055  1.00  0.00     0.053 C 
BRANCH  14  15
ATOM     15  C   UNL     1       4.855  -8.440   7.307  1.00  0.00     0.041 C 
ATOM     16  O   UNL     1       3.842  -8.970   7.835  1.00  0.00    -0.550 OA
ATOM     17  O   UNL     1       4.837  -7.087   6.990  1.00  0.00    -0.550 OA
ENDBRANCH  14  15
ENDBRANCH  13  14
ENDBRANCH  12  13
ENDBRANCH  11  12
ENDBRANCH  10  11
ENDBRANCH   9  10
ENDBRANCH   8   9
ENDBRANCH   7   8
ENDBRANCH   6   7
ENDBRANCH   5   6
ENDBRANCH   4   5
ENDBRANCH   3   4
ENDBRANCH   2   3
ENDBRANCH   1   2
BRANCH   1  18
ATOM     18  C   UNL     1       7.563   3.944   4.878  1.00  0.00     0.000 C 
BRANCH  18  19
ATOM     19  C   UNL     1       6.769   5.248   5.038  1.00  0.00     0.000 C 
BRANCH  19  20
ATOM     20  C   UNL     1       6.897   5.790   6.470  1.00  0.00     0.000 C 
BRANCH  20  21
ATOM     21  C   UNL     1       5.807   5.256   7.411  1.00  0.00     0.000 C 
BRANCH  21  22
ATOM     22  C   UNL     1       6.353   4.908   8.806  1.00  0.00     0.000 C 
BRANCH  22  23
ATOM     23  C   UNL     1       7.890   4.825   8.848  1.00  0.00     0.000 C 
BRANCH  23  24
ATOM     24  C   UNL     1       8.466   3.421   9.118  1.00  0.00    -0.000 C 
BRANCH  24  25
ATOM     25  C   UNL     1       9.105   2.725   7.900  1.00  0.00    -0.000 C 
BRANCH  25  26
ATOM     26  C   UNL     1       9.097   1.183   7.982  1.00  0.00    -0.000 C 
BRANCH  26  27
ATOM     27  C   UNL     1       8.020   0.644   8.941  1.00  0.00    -0.000 C 
BRANCH  27  28
ATOM     28  C   UNL     1       6.752   0.182   8.207  1.00  0.00    -0.000 C 
BRANCH  28  29
ATOM     29  C   UNL     1       5.464   0.690   8.875  1.00  0.00    -0.000 C 
BRANCH  29  30
ATOM     30  C   UNL     1       4.779   1.812   8.073  1.00  0.00    -0.000 C 
BRANCH  30  31
ATOM     31  C   UNL     1       3.337   2.108   8.535  1.00  0.00    -0.003 C 
ATOM     32  C   UNL     1       2.306   1.236   7.821  1.00  0.00     0.004 C 
ENDBRANCH  30  31
ENDBRANCH  29  30
ENDBRANCH  28  29
ENDBRANCH  27  28
ENDBRANCH  26  27
ENDBRANCH  25  26
ENDBRANCH  24  25
ENDBRANCH  23  24
ENDBRANCH  22  23
ENDBRANCH  21  22
ENDBRANCH  20  21
ENDBRANCH  19  20
ENDBRANCH  18  19
ENDBRANCH   1  18
TORSDOF 28
ENDMDL
MODEL 3
REMARK VINA RESULT:    -2.404      3.194      7.914
REMARK INTER + INTRA:         -12.131
REMARK INTER:                  -7.643
REMARK INTRA:                  -4.487
REMARK UNBOUND:                -5.792
REMARK SMILES CCCCCCCCCCCCCCCCCCCCCCCCCCCCCC(=O)[O-]
REMARK SMILES IDX 16 1 17 2 18 3 19 4 20 5 21 6 22 7 23 8 24 9 25 10 26 11
REMARK SMILES IDX 27 12 28 13 29 14 30 15 31 16 32 17 15 18 14 19 13 20 12 21
REMARK SMILES IDX 11 22 10 23 9 24 8 25 7 26 6 27 5 28 4 29 3 30 2 31 1 32
REMARK H PARENT
REMARK Flexibility Score: inf
ROOT
ATOM      1  C   UNL     1       7.872   0.316   4.300  1.00  0.00     0.000 C 
ENDROOT
BRANCH   1   2
ATOM      2  C   UNL     1       7.751   1.785   4.747  1.00  0.00     0.000 C 
BRANCH   2   3
ATOM      3  C   UNL     1       6.378   2.397   4.420  1.00  0.00     0.000 C 
BRANCH   3   4
ATOM      4  C   UNL     1       6.430   3.925   4.241  1.00  0.00     0.000 C 
BRANCH   4   5
ATOM      5  C   UNL     1       6.382   4.742   5.548  1.00  0.00     0.000 C 
BRANCH   5   6
ATOM      6  C   UNL     1       7.710   5.410   5.954  1.00  0.00     0.000 C 
BRANCH   6   7
ATOM      7  C   UNL     1       8.680   4.510   6.747  1.00  0.00     0.000 C 
BRANCH   7   8
ATOM      8  C   UNL     1       8.026   3.659   7.850  1.00  0.00     0.000 C 
BRANCH   8   9
ATOM      9  C   UNL     1       7.677   4.478   9.105  1.00  0.00     0.000 C 
BRANCH   9  10
ATOM     10  C   UNL     1       6.162   4.554   9.359  1.00  0.00     0.000 C 
BRANCH  10  11
ATOM     11  C   UNL     1       5.405   3.343   8.788  1.00  0.00     0.000 C 
BRANCH  11  12
ATOM     12  C   UNL     1       5.310   2.182   9.790  1.00  0.00     0.000 C 
BRANCH  12  13
ATOM     13  C   UNL     1       4.307   1.099   9.352  1.00  0.00     0.006 C 
BRANCH  13  14
ATOM     14  C   UNL     1       3.705   1.397   7.973  1.00  0.00     0.053 C 
BRANCH  14  15
ATOM     15  C   UNL     1       2.207   1.369   8.005  1.00  0.00     0.041 C 
ATOM     16  O   UNL     1       1.591   1.628   9.072  1.00  0.00    -0.550 OA
ATOM     17  O   UNL     1       1.491   1.093   6.847  1.00  0.00    -0.550 OA
ENDBRANCH  14  15
ENDBRANCH  13  14
ENDBRANCH  12  13
ENDBRANCH  11  12
ENDBRANCH  10  11
ENDBRANCH   9  10
ENDBRANCH   8   9
ENDBRANCH   7   8
ENDBRANCH   6   7
ENDBRANCH   5   6
ENDBRANCH   4   5
ENDBRANCH   3   4
ENDBRANCH   2   3
ENDBRANCH   1   2
BRANCH   1  18
ATOM     18  C   UNL     1       9.311  -0.185   4.078  1.00  0.00     0.000 C 
BRANCH  18  19
ATOM     19  C   UNL     1       9.545  -1.600   4.624  1.00  0.00     0.000 C 
BRANCH  19  20
ATOM     20  C   UNL     1       9.042  -1.716   6.071  1.00  0.00     0.000 C 
BRANCH  20  21
ATOM     21  C   UNL     1       9.880  -0.894   7.062  1.00  0.00     0.000 C 
BRANCH  21  22
ATOM     22  C   UNL     1       9.014   0.006   7.960  1.00  0.00     0.000 C 
BRANCH  22  23
ATOM     23  C   UNL     1       7.516  -0.343   7.898  1.00  0.00     0.000 C 
BRANCH  23  24
ATOM     24  C   UNL     1       7.021  -1.316   8.985  1.00  0.00    -0.000 C 
BRANCH  24  25
ATOM     25  C   UNL     1       8.064  -1.693  10.056  1.00  0.00    -0.000 C 
BRANCH  25  26
ATOM     26  C   UNL     1       8.749  -3.056   9.814  1.00  0.00    -0.000 C 
BRANCH  26  27
ATOM     27  C   UNL     1       7.856  -4.041   9.038  1.00  0.00    -0.000 C 
BRANCH  27  28
ATOM     28  C   UNL     1       8.431  -5.466   9.012  1.00  0.00    -0.000 C 
BRANCH  28  29
ATOM     29  C   UNL     1       9.049  -5.829   7.652  1.00  0.00    -0.000 C 
BRANCH  29  30
ATOM     30  C   UNL     1       8.203  -5.339   6.463  1.00  0.00    -0.000 C 
BRANCH  30  31
ATOM     31  C   UNL     1       7.357  -6.451   5.809  1.00  0.00    -0.003 C 
ATOM     32  C   UNL     1       7.874  -7.850   6.142  1.00  0.00     0.004 C 
ENDBRANCH  30  31
ENDBRANCH  29  30
ENDBRANCH  28  29
ENDBRANCH  27  28
ENDBRANCH  26  27
ENDBRANCH  25  26
ENDBRANCH  24  25
ENDBRANCH  23  24
ENDBRANCH  22  23
ENDBRANCH  21  22
ENDBRANCH  20  21
ENDBRANCH  19  20
ENDBRANCH  18  19
ENDBRANCH   1  18
TORSDOF 28
ENDMDL
MODEL 4
REMARK VINA RESULT:    -2.394      8.191     12.931
REMARK INTER + INTRA:         -12.104
REMARK INTER:                  -9.784
REMARK INTRA:                  -2.320
REMARK UNBOUND:                -5.792
REMARK SMILES CCCCCCCCCCCCCCCCCCCCCCCCCCCCCC(=O)[O-]
REMARK SMILES IDX 16 1 17 2 18 3 19 4 20 5 21 6 22 7 23 8 24 9 25 10 26 11
REMARK SMILES IDX 27 12 28 13 29 14 30 15 31 16 32 17 15 18 14 19 13 20 12 21
REMARK SMILES IDX 11 22 10 23 9 24 8 25 7 26 6 27 5 28 4 29 3 30 2 31 1 32
REMARK H PARENT
REMARK Flexibility Score: inf
ROOT
ATOM      1  C   UNL     1       3.714  -9.560   7.138  1.00  0.00     0.000 C 
ENDROOT
BRANCH   1   2
ATOM      2  C   UNL     1       3.866  -8.950   8.544  1.00  0.00     0.000 C 
BRANCH   2   3
ATOM      3  C   UNL     1       4.878  -7.792   8.586  1.00  0.00     0.000 C 
BRANCH   3   4
ATOM      4  C   UNL     1       5.260  -7.279   7.186  1.00  0.00     0.000 C 
BRANCH   4   5
ATOM      5  C   UNL     1       6.759  -7.383   6.833  1.00  0.00     0.000 C 
BRANCH   5   6
ATOM      6  C   UNL     1       7.254  -6.380   5.773  1.00  0.00     0.000 C 
BRANCH   6   7
ATOM      7  C   UNL     1       8.638  -5.759   6.056  1.00  0.00     0.000 C 
BRANCH   7   8
ATOM      8  C   UNL     1       8.893  -5.376   7.525  1.00  0.00     0.000 C 
BRANCH   8   9
ATOM      9  C   UNL     1       8.612  -3.891   7.810  1.00  0.00     0.000 C 
BRANCH   9  10
ATOM     10  C   UNL     1       8.833  -3.000   6.576  1.00  0.00     0.000 C 
BRANCH  10  11
ATOM     11  C   UNL     1       8.135  -1.635   6.698  1.00  0.00     0.000 C 
BRANCH  11  12
ATOM     12  C   UNL     1       8.757  -0.571   5.780  1.00  0.00     0.000 C 
BRANCH  12  13
ATOM     13  C   UNL     1       7.998   0.768   5.822  1.00  0.00     0.006 C 
BRANCH  13  14
ATOM     14  C   UNL     1       7.813   1.369   4.423  1.00  0.00     0.053 C 
BRANCH  14  15
ATOM     15  C   UNL     1       6.718   2.392   4.401  1.00  0.00     0.041 C 
ATOM     16  O   UNL     1       6.624   3.241   5.326  1.00  0.00    -0.550 OA
ATOM     17  O   UNL     1       5.822   2.430   3.339  1.00  0.00    -0.550 OA
ENDBRANCH  14  15
ENDBRANCH  13  14
ENDBRANCH  12  13
ENDBRANCH  11  12
ENDBRANCH  10  11
ENDBRANCH   9  10
ENDBRANCH   8   9
ENDBRANCH   7   8
ENDBRANCH   6   7
ENDBRANCH   5   6
ENDBRANCH   4   5
ENDBRANCH   3   4
ENDBRANCH   2   3
ENDBRANCH   1   2
BRANCH   1  18
ATOM     18  C   UNL     1       3.614 -11.096   7.097  1.00  0.00     0.000 C 
BRANCH  18  19
ATOM     19  C   UNL     1       3.031 -11.694   8.385  1.00  0.00     0.000 C 
BRANCH  19  20
ATOM     20  C   UNL     1       1.791 -12.547   8.076  1.00  0.00     0.000 C 
BRANCH  20  21
ATOM     21  C   UNL     1       0.489 -11.731   8.075  1.00  0.00     0.000 C 
BRANCH  21  22
ATOM     22  C   UNL     1       0.468 -10.656   9.176  1.00  0.00     0.000 C 
BRANCH  22  23
ATOM     23  C   UNL     1       0.015  -9.277   8.662  1.00  0.00     0.000 C 
BRANCH  23  24
ATOM     24  C   UNL     1      -1.225  -8.689   9.363  1.00  0.00    -0.000 C 
BRANCH  24  25
ATOM     25  C   UNL     1      -2.560  -8.897   8.623  1.00  0.00    -0.000 C 
BRANCH  25  26
ATOM     26  C   UNL     1      -3.692  -7.956   9.093  1.00  0.00    -0.000 C 
BRANCH  26  27
ATOM     27  C   UNL     1      -4.528  -7.402   7.925  1.00  0.00    -0.000 C 
BRANCH  27  28
ATOM     28  C   UNL     1      -4.354  -8.216   6.634  1.00  0.00    -0.000 C 
BRANCH  28  29
ATOM     29  C   UNL     1      -5.582  -9.082   6.311  1.00  0.00    -0.000 C 
BRANCH  29  30
ATOM     30  C   UNL     1      -5.575 -10.428   7.056  1.00  0.00    -0.000 C 
BRANCH  30  31
ATOM     31  C   UNL     1      -6.900 -10.739   7.783  1.00  0.00    -0.003 C 
ATOM     32  C   UNL     1      -7.304  -9.631   8.756  1.00  0.00     0.004 C 
ENDBRANCH  30  31
ENDBRANCH  29  30
ENDBRANCH  28  29
ENDBRANCH  27  28
ENDBRANCH  26  27
ENDBRANCH  25  26
ENDBRANCH  24  25
ENDBRANCH  23  24
ENDBRANCH  22  23
ENDBRANCH  21  22
ENDBRANCH  20  21
ENDBRANCH  19  20
ENDBRANCH  18  19
ENDBRANCH   1  18
TORSDOF 28
ENDMDL
MODEL 5
REMARK VINA RESULT:    -2.350      2.389      3.208
REMARK INTER + INTRA:         -11.990
REMARK INTER:                  -8.334
REMARK INTRA:                  -3.656
REMARK UNBOUND:                -5.792
REMARK SMILES CCCCCCCCCCCCCCCCCCCCCCCCCCCCCC(=O)[O-]
REMARK SMILES IDX 16 1 17 2 18 3 19 4 20 5 21 6 22 7 23 8 24 9 25 10 26 11
REMARK SMILES IDX 27 12 28 13 29 14 30 15 31 16 32 17 15 18 14 19 13 20 12 21
REMARK SMILES IDX 11 22 10 23 9 24 8 25 7 26 6 27 5 28 4 29 3 30 2 31 1 32
REMARK H PARENT
REMARK Flexibility Score: inf
ROOT
ATOM      1  C   UNL     1       6.771   2.174   4.785  1.00  0.00     0.000 C 
ENDROOT
BRANCH   1   2
ATOM      2  C   UNL     1       7.985   1.415   4.219  1.00  0.00     0.000 C 
BRANCH   2   3
ATOM      3  C   UNL     1       8.123  -0.005   4.795  1.00  0.00     0.000 C 
BRANCH   3   4
ATOM      4  C   UNL     1       9.205  -0.837   4.085  1.00  0.00     0.000 C 
BRANCH   4   5
ATOM      5  C   UNL     1       9.675  -2.094   4.847  1.00  0.00     0.000 C 
BRANCH   5   6
ATOM      6  C   UNL     1       9.599  -1.996   6.383  1.00  0.00     0.000 C 
BRANCH   6   7
ATOM      7  C   UNL     1       8.599  -2.962   7.051  1.00  0.00     0.000 C 
BRANCH   7   8
ATOM      8  C   UNL     1       8.607  -4.397   6.495  1.00  0.00     0.000 C 
BRANCH   8   9
ATOM      9  C   UNL     1       8.067  -5.429   7.500  1.00  0.00     0.000 C 
BRANCH   9  10
ATOM     10  C   UNL     1       8.231  -6.876   7.008  1.00  0.00     0.000 C 
BRANCH  10  11
ATOM     11  C   UNL     1       6.908  -7.660   7.020  1.00  0.00     0.000 C 
BRANCH  11  12
ATOM     12  C   UNL     1       5.865  -7.040   7.962  1.00  0.00     0.000 C 
BRANCH  12  13
ATOM     13  C   UNL     1       4.840  -8.069   8.474  1.00  0.00     0.006 C 
BRANCH  13  14
ATOM     14  C   UNL     1       4.184  -8.847   7.326  1.00  0.00     0.053 C 
BRANCH  14  15
ATOM     15  C   UNL     1       2.885  -9.465   7.748  1.00  0.00     0.041 C 
ATOM     16  O   UNL     1       1.904  -9.480   6.960  1.00  0.00    -0.550 OA
ATOM     17  O   UNL     1       2.771 -10.057   9.000  1.00  0.00    -0.550 OA
ENDBRANCH  14  15
ENDBRANCH  13  14
ENDBRANCH  12  13
ENDBRANCH  11  12
ENDBRANCH  10  11
ENDBRANCH   9  10
ENDBRANCH   8   9
ENDBRANCH   7   8
ENDBRANCH   6   7
ENDBRANCH   5   6
ENDBRANCH   4   5
ENDBRANCH   3   4
ENDBRANCH   2   3
ENDBRANCH   1   2
BRANCH   1  18
ATOM     18  C   UNL     1       6.003   3.036   3.765  1.00  0.00     0.000 C 
BRANCH  18  19
ATOM     19  C   UNL     1       6.011   4.531   4.116  1.00  0.00     0.000 C 
BRANCH  19  20
ATOM     20  C   UNL     1       6.745   4.775   5.443  1.00  0.00     0.000 C 
BRANCH  20  21
ATOM     21  C   UNL     1       7.993   5.657   5.283  1.00  0.00     0.000 C 
BRANCH  21  22
ATOM     22  C   UNL     1       9.295   4.837   5.262  1.00  0.00     0.000 C 
BRANCH  22  23
ATOM     23  C   UNL     1       9.811   4.490   6.670  1.00  0.00     0.000 C 
BRANCH  23  24
ATOM     24  C   UNL     1       9.656   3.014   7.083  1.00  0.00    -0.000 C 
BRANCH  24  25
ATOM     25  C   UNL     1       8.450   2.707   7.992  1.00  0.00    -0.000 C 
BRANCH  25  26
ATOM     26  C   UNL     1       8.111   3.836   8.989  1.00  0.00    -0.000 C 
BRANCH  26  27
ATOM     27  C   UNL     1       6.710   3.683   9.608  1.00  0.00    -0.000 C 
BRANCH  27  28
ATOM     28  C   UNL     1       5.585   3.868   8.579  1.00  0.00    -0.000 C 
BRANCH  28  29
ATOM     29  C   UNL     1       4.399   2.921   8.822  1.00  0.00    -0.000 C 
BRANCH  29  30
ATOM     30  C   UNL     1       4.562   1.568   8.109  1.00  0.00    -0.000 C 
BRANCH  30  31
ATOM     31  C   UNL     1       4.932   0.410   9.059  1.00  0.00    -0.003 C 
ATOM     32  C   UNL     1       6.336  -0.133   8.797  1.00  0.00     0.004 C 
ENDBRANCH  30  31
ENDBRANCH  29  30
ENDBRANCH  28  29
ENDBRANCH  27  28
ENDBRANCH  26  27
ENDBRANCH  25  26
ENDBRANCH  24  25
ENDBRANCH  23  24
ENDBRANCH  22  23
ENDBRANCH  21  22
ENDBRANCH  20  21
ENDBRANCH  19  20
ENDBRANCH  18  19
ENDBRANCH   1  18
TORSDOF 28
ENDMDL
MODEL 6
REMARK VINA RESULT:    -2.347      1.395      2.179
REMARK INTER + INTRA:         -11.981
REMARK INTER:                  -7.355
REMARK INTRA:                  -4.626
REMARK UNBOUND:                -5.792
REMARK SMILES CCCCCCCCCCCCCCCCCCCCCCCCCCCCCC(=O)[O-]
REMARK SMILES IDX 16 1 17 2 18 3 19 4 20 5 21 6 22 7 23 8 24 9 25 10 26 11
REMARK SMILES IDX 27 12 28 13 29 14 30 15 31 16 32 17 15 18 14 19 13 20 12 21
REMARK SMILES IDX 11 22 10 23 9 24 8 25 7 26 6 27 5 28 4 29 3 30 2 31 1 32
REMARK H PARENT
REMARK Flexibility Score: inf
ROOT
ATOM      1  C   UNL     1       6.935   2.886   4.560  1.00  0.00     0.000 C 
ENDROOT
BRANCH   1   2
ATOM      2  C   UNL     1       7.511   1.472   4.362  1.00  0.00     0.000 C 
BRANCH   2   3
ATOM      3  C   UNL     1       9.037   1.417   4.552  1.00  0.00     0.000 C 
BRANCH   3   4
ATOM      4  C   UNL     1       9.470   0.412   5.634  1.00  0.00     0.000 C 
BRANCH   4   5
ATOM      5  C   UNL     1       8.805  -0.977   5.547  1.00  0.00     0.000 C 
BRANCH   5   6
ATOM      6  C   UNL     1       7.883  -1.338   6.729  1.00  0.00     0.000 C 
BRANCH   6   7
ATOM      7  C   UNL     1       8.475  -2.348   7.734  1.00  0.00     0.000 C 
BRANCH   7   8
ATOM      8  C   UNL     1       7.849  -2.311   9.140  1.00  0.00     0.000 C 
BRANCH   8   9
ATOM      9  C   UNL     1       7.979  -3.651   9.885  1.00  0.00     0.000 C 
BRANCH   9  10
ATOM     10  C   UNL     1       7.924  -4.861   8.937  1.00  0.00     0.000 C 
BRANCH  10  11
ATOM     11  C   UNL     1       6.781  -5.831   9.282  1.00  0.00     0.000 C 
BRANCH  11  12
ATOM     12  C   UNL     1       7.025  -7.247   8.734  1.00  0.00     0.000 C 
BRANCH  12  13
ATOM     13  C   UNL     1       6.390  -7.465   7.349  1.00  0.00     0.006 C 
BRANCH  13  14
ATOM     14  C   UNL     1       7.411  -7.965   6.320  1.00  0.00     0.053 C 
BRANCH  14  15
ATOM     15  C   UNL     1       7.811  -6.881   5.365  1.00  0.00     0.041 C 
ATOM     16  O   UNL     1       7.637  -5.672   5.670  1.00  0.00    -0.550 OA
ATOM     17  O   UNL     1       8.410  -7.207   4.154  1.00  0.00    -0.550 OA
ENDBRANCH  14  15
ENDBRANCH  13  14
ENDBRANCH  12  13
ENDBRANCH  11  12
ENDBRANCH  10  11
ENDBRANCH   9  10
ENDBRANCH   8   9
ENDBRANCH   7   8
ENDBRANCH   6   7
ENDBRANCH   5   6
ENDBRANCH   4   5
ENDBRANCH   3   4
ENDBRANCH   2   3
ENDBRANCH   1   2
BRANCH   1  18
ATOM     18  C   UNL     1       7.785   3.823   5.438  1.00  0.00     0.000 C 
BRANCH  18  19
ATOM     19  C   UNL     1       7.427   5.304   5.258  1.00  0.00     0.000 C 
BRANCH  19  20
ATOM     20  C   UNL     1       7.134   5.963   6.614  1.00  0.00     0.000 C 
BRANCH  20  21
ATOM     21  C   UNL     1       5.942   5.325   7.344  1.00  0.00     0.000 C 
BRANCH  21  22
ATOM     22  C   UNL     1       6.144   5.273   8.868  1.00  0.00     0.000 C 
BRANCH  22  23
ATOM     23  C   UNL     1       7.627   5.304   9.280  1.00  0.00     0.000 C 
BRANCH  23  24
ATOM     24  C   UNL     1       8.168   3.997   9.892  1.00  0.00    -0.000 C 
BRANCH  24  25
ATOM     25  C   UNL     1       8.958   3.095   8.925  1.00  0.00    -0.000 C 
BRANCH  25  26
ATOM     26  C   UNL     1       8.536   1.610   8.965  1.00  0.00    -0.000 C 
BRANCH  26  27
ATOM     27  C   UNL     1       7.324   1.360   9.882  1.00  0.00    -0.000 C 
BRANCH  27  28
ATOM     28  C   UNL     1       6.085   0.884   9.108  1.00  0.00    -0.000 C 
BRANCH  28  29
ATOM     29  C   UNL     1       5.901   1.624   7.774  1.00  0.00    -0.000 C 
BRANCH  29  30
ATOM     30  C   UNL     1       4.446   2.065   7.533  1.00  0.00    -0.000 C 
BRANCH  30  31
ATOM     31  C   UNL     1       3.485   1.672   8.675  1.00  0.00    -0.003 C 
ATOM     32  C   UNL     1       2.075   1.367   8.171  1.00  0.00     0.004 C 
ENDBRANCH  30  31
ENDBRANCH  29  30
ENDBRANCH  28  29
ENDBRANCH  27  28
ENDBRANCH  26  27
ENDBRANCH  25  26
ENDBRANCH  24  25
ENDBRANCH  23  24
ENDBRANCH  22  23
ENDBRANCH  21  22
ENDBRANCH  20  21
ENDBRANCH  19  20
ENDBRANCH  18  19
ENDBRANCH   1  18
TORSDOF 28
ENDMDL
MODEL 7
REMARK VINA RESULT:    -2.306      3.111      8.486
REMARK INTER + INTRA:         -11.872
REMARK INTER:                  -6.807
REMARK INTRA:                  -5.064
REMARK UNBOUND:                -5.792
REMARK SMILES CCCCCCCCCCCCCCCCCCCCCCCCCCCCCC(=O)[O-]
REMARK SMILES IDX 16 1 17 2 18 3 19 4 20 5 21 6 22 7 23 8 24 9 25 10 26 11
REMARK SMILES IDX 27 12 28 13 29 14 30 15 31 16 32 17 15 18 14 19 13 20 12 21
REMARK SMILES IDX 11 22 10 23 9 24 8 25 7 26 6 27 5 28 4 29 3 30 2 31 1 32
REMARK H PARENT
REMARK Flexibility Score: inf
ROOT
ATOM      1  C   UNL     1       8.373  -1.043   5.620  1.00  0.00     0.000 C 
ENDROOT
BRANCH   1   2
ATOM      2  C   UNL     1       8.913  -0.524   4.274  1.00  0.00     0.000 C 
BRANCH   2   3
ATOM      3  C   UNL     1       8.717   0.992   4.096  1.00  0.00     0.000 C 
BRANCH   3   4
ATOM      4  C   UNL     1       7.336   1.477   4.571  1.00  0.00     0.000 C 
BRANCH   4   5
ATOM      5  C   UNL     1       7.351   2.740   5.457  1.00  0.00     0.000 C 
BRANCH   5   6
ATOM      6  C   UNL     1       8.745   3.188   5.938  1.00  0.00     0.000 C 
BRANCH   6   7
ATOM      7  C   UNL     1       8.816   3.633   7.413  1.00  0.00     0.000 C 
BRANCH   7   8
ATOM      8  C   UNL     1       7.515   3.446   8.214  1.00  0.00     0.000 C 
BRANCH   8   9
ATOM      9  C   UNL     1       6.868   4.782   8.619  1.00  0.00     0.000 C 
BRANCH   9  10
ATOM     10  C   UNL     1       5.650   5.136   7.750  1.00  0.00     0.000 C 
BRANCH  10  11
ATOM     11  C   UNL     1       4.424   5.540   8.586  1.00  0.00     0.000 C 
BRANCH  11  12
ATOM     12  C   UNL     1       4.359   4.802   9.932  1.00  0.00     0.000 C 
BRANCH  12  13
ATOM     13  C   UNL     1       3.304   3.681   9.945  1.00  0.00     0.006 C 
BRANCH  13  14
ATOM     14  C   UNL     1       3.930   2.299   9.718  1.00  0.00     0.053 C 
BRANCH  14  15
ATOM     15  C   UNL     1       3.651   1.785   8.339  1.00  0.00     0.041 C 
ATOM     16  O   UNL     1       4.550   1.814   7.457  1.00  0.00    -0.550 OA
ATOM     17  O   UNL     1       2.409   1.240   8.037  1.00  0.00    -0.550 OA
ENDBRANCH  14  15
ENDBRANCH  13  14
ENDBRANCH  12  13
ENDBRANCH  11  12
ENDBRANCH  10  11
ENDBRANCH   9  10
ENDBRANCH   8   9
ENDBRANCH   7   8
ENDBRANCH   6   7
ENDBRANCH   5   6
ENDBRANCH   4   5
ENDBRANCH   3   4
ENDBRANCH   2   3
ENDBRANCH   1   2
BRANCH   1  18
ATOM     18  C   UNL     1       9.366  -0.975   6.795  1.00  0.00     0.000 C 
BRANCH  18  19
ATOM     19  C   UNL     1       8.879  -0.080   7.942  1.00  0.00     0.000 C 
BRANCH  19  20
ATOM     20  C   UNL     1       7.352  -0.166   8.090  1.00  0.00     0.000 C 
BRANCH  20  21
ATOM     21  C   UNL     1       6.905  -1.315   9.007  1.00  0.00     0.000 C 
BRANCH  21  22
ATOM     22  C   UNL     1       7.954  -1.652  10.081  1.00  0.00     0.000 C 
BRANCH  22  23
ATOM     23  C   UNL     1       8.496  -3.089   9.963  1.00  0.00     0.000 C 
BRANCH  23  24
ATOM     24  C   UNL     1       7.947  -3.904   8.777  1.00  0.00    -0.000 C 
BRANCH  24  25
ATOM     25  C   UNL     1       8.998  -4.709   7.988  1.00  0.00    -0.000 C 
BRANCH  25  26
ATOM     26  C   UNL     1       8.815  -4.647   6.455  1.00  0.00    -0.000 C 
BRANCH  26  27
ATOM     27  C   UNL     1       8.514  -6.024   5.835  1.00  0.00    -0.000 C 
BRANCH  27  28
ATOM     28  C   UNL     1       7.022  -6.385   5.893  1.00  0.00    -0.000 C 
BRANCH  28  29
ATOM     29  C   UNL     1       6.731  -7.541   6.862  1.00  0.00    -0.000 C 
BRANCH  29  30
ATOM     30  C   UNL     1       5.944  -7.093   8.106  1.00  0.00    -0.000 C 
BRANCH  30  31
ATOM     31  C   UNL     1       6.676  -7.377   9.434  1.00  0.00    -0.003 C 
ATOM     32  C   UNL     1       8.052  -8.006   9.219  1.00  0.00     0.004 C 
ENDBRANCH  30  31
ENDBRANCH  29  30
ENDBRANCH  28  29
ENDBRANCH  27  28
ENDBRANCH  26  27
ENDBRANCH  25  26
ENDBRANCH  24  25
ENDBRANCH  23  24
ENDBRANCH  22  23
ENDBRANCH  21  22
ENDBRANCH  20  21
ENDBRANCH  19  20
ENDBRANCH  18  19
ENDBRANCH   1  18
TORSDOF 28
ENDMDL
MODEL 8
REMARK VINA RESULT:    -2.303      2.981      7.953
REMARK INTER + INTRA:         -11.864
REMARK INTER:                  -7.063
REMARK INTRA:                  -4.802
REMARK UNBOUND:                -5.792
REMARK SMILES CCCCCCCCCCCCCCCCCCCCCCCCCCCCCC(=O)[O-]
REMARK SMILES IDX 16 1 17 2 18 3 19 4 20 5 21 6 22 7 23 8 24 9 25 10 26 11
REMARK SMILES IDX 27 12 28 13 29 14 30 15 31 16 32 17 15 18 14 19 13 20 12 21
REMARK SMILES IDX 11 22 10 23 9 24 8 25 7 26 6 27 5 28 4 29 3 30 2 31 1 32
REMARK H PARENT
REMARK Flexibility Score: inf
ROOT
ATOM      1  C   UNL     1       7.630   0.961   4.170  1.00  0.00     0.000 C 
ENDROOT
BRANCH   1   2
ATOM      2  C   UNL     1       6.873   2.106   4.869  1.00  0.00     0.000 C 
BRANCH   2   3
ATOM      3  C   UNL     1       6.050   2.962   3.892  1.00  0.00     0.000 C 
BRANCH   3   4
ATOM      4  C   UNL     1       6.216   4.473   4.132  1.00  0.00     0.000 C 
BRANCH   4   5
ATOM      5  C   UNL     1       6.678   4.867   5.551  1.00  0.00     0.000 C 
BRANCH   5   6
ATOM      6  C   UNL     1       7.971   5.703   5.612  1.00  0.00     0.000 C 
BRANCH   6   7
ATOM      7  C   UNL     1       9.260   4.943   5.235  1.00  0.00     0.000 C 
BRANCH   7   8
ATOM      8  C   UNL     1       9.768   3.954   6.299  1.00  0.00     0.000 C 
BRANCH   8   9
ATOM      9  C   UNL     1       9.780   4.556   7.715  1.00  0.00     0.000 C 
BRANCH   9  10
ATOM     10  C   UNL     1       9.121   3.634   8.754  1.00  0.00     0.000 C 
BRANCH  10  11
ATOM     11  C   UNL     1       8.045   4.354   9.586  1.00  0.00     0.000 C 
BRANCH  11  12
ATOM     12  C   UNL     1       6.630   4.151   9.022  1.00  0.00     0.000 C 
BRANCH  12  13
ATOM     13  C   UNL     1       6.244   2.664   8.907  1.00  0.00     0.006 C 
BRANCH  13  14
ATOM     14  C   UNL     1       5.038   2.452   7.984  1.00  0.00     0.053 C 
BRANCH  14  15
ATOM     15  C   UNL     1       4.231   1.258   8.393  1.00  0.00     0.041 C 
ATOM     16  O   UNL     1       2.998   1.208   8.140  1.00  0.00    -0.550 OA
ATOM     17  O   UNL     1       4.848   0.184   9.023  1.00  0.00    -0.550 OA
ENDBRANCH  14  15
ENDBRANCH  13  14
ENDBRANCH  12  13
ENDBRANCH  11  12
ENDBRANCH  10  11
ENDBRANCH   9  10
ENDBRANCH   8   9
ENDBRANCH   7   8
ENDBRANCH   6   7
ENDBRANCH   5   6
ENDBRANCH   4   5
ENDBRANCH   3   4
ENDBRANCH   2   3
ENDBRANCH   1   2
BRANCH   1  18
ATOM     18  C   UNL     1       9.161   1.119   4.127  1.00  0.00     0.000 C 
BRANCH  18  19
ATOM     19  C   UNL     1       9.902  -0.225   4.115  1.00  0.00     0.000 C 
BRANCH  19  20
ATOM     20  C   UNL     1      10.088  -0.757   5.544  1.00  0.00     0.000 C 
BRANCH  20  21
ATOM     21  C   UNL     1      10.125   0.360   6.598  1.00  0.00     0.000 C 
BRANCH  21  22
ATOM     22  C   UNL     1       9.230   0.054   7.812  1.00  0.00     0.000 C 
BRANCH  22  23
ATOM     23  C   UNL     1       7.939  -0.696   7.435  1.00  0.00     0.000 C 
BRANCH  23  24
ATOM     24  C   UNL     1       7.744  -2.058   8.127  1.00  0.00    -0.000 C 
BRANCH  24  25
ATOM     25  C   UNL     1       9.028  -2.708   8.678  1.00  0.00    -0.000 C 
BRANCH  25  26
ATOM     26  C   UNL     1       9.399  -4.043   7.997  1.00  0.00    -0.000 C 
BRANCH  26  27
ATOM     27  C   UNL     1       8.945  -4.107   6.527  1.00  0.00    -0.000 C 
BRANCH  27  28
ATOM     28  C   UNL     1       8.252  -5.434   6.179  1.00  0.00    -0.000 C 
BRANCH  28  29
ATOM     29  C   UNL     1       7.450  -6.008   7.357  1.00  0.00    -0.000 C 
BRANCH  29  30
ATOM     30  C   UNL     1       6.671  -7.282   6.983  1.00  0.00    -0.000 C 
BRANCH  30  31
ATOM     31  C   UNL     1       5.302  -7.396   7.684  1.00  0.00    -0.003 C 
ATOM     32  C   UNL     1       4.540  -8.655   7.274  1.00  0.00     0.004 C 
ENDBRANCH  30  31
ENDBRANCH  29  30
ENDBRANCH  28  29
ENDBRANCH  27  28
ENDBRANCH  26  27
ENDBRANCH  25  26
ENDBRANCH  24  25
ENDBRANCH  23  24
ENDBRANCH  22  23
ENDBRANCH  21  22
ENDBRANCH  20  21
ENDBRANCH  19  20
ENDBRANCH  18  19
ENDBRANCH   1  18
TORSDOF 28
ENDMDL
MODEL 9
REMARK VINA RESULT:    -2.246      2.454      3.094
REMARK INTER + INTRA:         -11.715
REMARK INTER:                  -8.175
REMARK INTRA:                  -3.540
REMARK UNBOUND:                -5.792
REMARK SMILES CCCCCCCCCCCCCCCCCCCCCCCCCCCCCC(=O)[O-]
REMARK SMILES IDX 16 1 17 2 18 3 19 4 20 5 21 6 22 7 23 8 24 9 25 10 26 11
REMARK SMILES IDX 27 12 28 13 29 14 30 15 31 16 32 17 15 18 14 19 13 20 12 21
REMARK SMILES IDX 11 22 10 23 9 24 8 25 7 26 6 27 5 28 4 29 3 30 2 31 1 32
REMARK H PARENT
REMARK Flexibility Score: inf
ROOT
ATOM      1  C   UNL     1       6.376   2.249   4.373  1.00  0.00     0.000 C 
ENDROOT
BRANCH   1   2
ATOM      2  C   UNL     1       7.832   1.814   4.123  1.00  0.00     0.000 C 
BRANCH   2   3
ATOM      3  C   UNL     1       8.243   0.593   4.963  1.00  0.00     0.000 C 
BRANCH   3   4
ATOM      4  C   UNL     1       8.806  -0.558   4.111  1.00  0.00     0.000 C 
BRANCH   4   5
ATOM      5  C   UNL     1       9.624  -1.612   4.886  1.00  0.00     0.000 C 
BRANCH   5   6
ATOM      6  C   UNL     1       8.853  -2.359   5.992  1.00  0.00     0.000 C 
BRANCH   6   7
ATOM      7  C   UNL     1       9.425  -3.741   6.368  1.00  0.00     0.000 C 
BRANCH   7   8
ATOM      8  C   UNL     1       8.599  -4.530   7.400  1.00  0.00     0.000 C 
BRANCH   8   9
ATOM      9  C   UNL     1       8.130  -5.895   6.868  1.00  0.00     0.000 C 
BRANCH   9  10
ATOM     10  C   UNL     1       8.013  -6.953   7.978  1.00  0.00     0.000 C 
BRANCH  10  11
ATOM     11  C   UNL     1       6.553  -7.318   8.297  1.00  0.00     0.000 C 
BRANCH  11  12
ATOM     12  C   UNL     1       5.806  -7.879   7.077  1.00  0.00     0.000 C 
BRANCH  12  13
ATOM     13  C   UNL     1       4.388  -8.368   7.421  1.00  0.00     0.006 C 
BRANCH  13  14
ATOM     14  C   UNL     1       4.250  -9.888   7.269  1.00  0.00     0.053 C 
BRANCH  14  15
ATOM     15  C   UNL     1       2.823 -10.296   7.066  1.00  0.00     0.041 C 
ATOM     16  O   UNL     1       2.526 -11.511   6.914  1.00  0.00    -0.550 OA
ATOM     17  O   UNL     1       1.816  -9.338   7.080  1.00  0.00    -0.550 OA
ENDBRANCH  14  15
ENDBRANCH  13  14
ENDBRANCH  12  13
ENDBRANCH  11  12
ENDBRANCH  10  11
ENDBRANCH   9  10
ENDBRANCH   8   9
ENDBRANCH   7   8
ENDBRANCH   6   7
ENDBRANCH   5   6
ENDBRANCH   4   5
ENDBRANCH   3   4
ENDBRANCH   2   3
ENDBRANCH   1   2
BRANCH   1  18
ATOM     18  C   UNL     1       6.001   3.635   3.815  1.00  0.00     0.000 C 
BRANCH  18  19
ATOM     19  C   UNL     1       6.675   4.788   4.570  1.00  0.00     0.000 C 
BRANCH  19  20
ATOM     20  C   UNL     1       6.532   4.603   6.088  1.00  0.00     0.000 C 
BRANCH  20  21
ATOM     21  C   UNL     1       7.869   4.731   6.835  1.00  0.00     0.000 C 
BRANCH  21  22
ATOM     22  C   UNL     1       8.353   3.388   7.408  1.00  0.00     0.000 C 
BRANCH  22  23
ATOM     23  C   UNL     1       8.597   3.433   8.927  1.00  0.00     0.000 C 
BRANCH  23  24
ATOM     24  C   UNL     1       9.012   2.095   9.567  1.00  0.00    -0.000 C 
BRANCH  24  25
ATOM     25  C   UNL     1       9.230   0.932   8.580  1.00  0.00    -0.000 C 
BRANCH  25  26
ATOM     26  C   UNL     1       8.226  -0.230   8.746  1.00  0.00    -0.000 C 
BRANCH  26  27
ATOM     27  C   UNL     1       6.823   0.116   8.215  1.00  0.00    -0.000 C 
BRANCH  27  28
ATOM     28  C   UNL     1       5.724  -0.094   9.269  1.00  0.00    -0.000 C 
BRANCH  28  29
ATOM     29  C   UNL     1       4.458   0.726   8.974  1.00  0.00    -0.000 C 
BRANCH  29  30
ATOM     30  C   UNL     1       4.757   2.036   8.225  1.00  0.00    -0.000 C 
BRANCH  30  31
ATOM     31  C   UNL     1       5.052   3.228   9.159  1.00  0.00    -0.003 C 
ATOM     32  C   UNL     1       3.781   3.952   9.600  1.00  0.00     0.004 C 
ENDBRANCH  30  31
ENDBRANCH  29  30
ENDBRANCH  28  29
ENDBRANCH  27  28
ENDBRANCH  26  27
ENDBRANCH  25  26
ENDBRANCH  24  25
ENDBRANCH  23  24
ENDBRANCH  22  23
ENDBRANCH  21  22
ENDBRANCH  20  21
ENDBRANCH  19  20
ENDBRANCH  18  19
ENDBRANCH   1  18
TORSDOF 28
ENDMDL
