MODEL 1
REMARK VINA RESULT:    -3.596      0.000      0.000
REMARK INTER + INTRA:          -4.285
REMARK INTER:                  -4.227
REMARK INTRA:                  -0.059
REMARK UNBOUND:                -0.059
REMARK SMILES O=C([O-])CCC(=O)[O-]
REMARK SMILES IDX 4 1 2 2 1 3 3 4 5 5 6 6 7 7 8 8
REMARK H PARENT
REMARK Flexibility Score: inf
ROOT
ATOM      1  C   UNL     1       1.207  13.469  -8.051  1.00  0.00     0.059 C 
ENDROOT
BRANCH   1   2
ATOM      2  C   UNL     1       0.054  12.812  -8.747  1.00  0.00     0.042 C 
ATOM      3  O   UNL     1      -0.687  13.481  -9.514  1.00  0.00    -0.550 OA
ATOM      4  O   UNL     1      -0.226  11.471  -8.515  1.00  0.00    -0.550 OA
ENDBRANCH   1   2
BRANCH   1   5
ATOM      5  C   UNL     1       2.039  14.321  -9.017  1.00  0.00     0.059 C 
BRANCH   5   6
ATOM      6  C   UNL     1       3.394  13.725  -9.253  1.00  0.00     0.042 C 
ATOM      7  O   UNL     1       3.994  13.929 -10.340  1.00  0.00    -0.550 OA
ATOM      8  O   UNL     1       3.975  12.914  -8.287  1.00  0.00    -0.550 OA
ENDBRANCH   5   6
ENDBRANCH   1   5
TORSDOF 3
ENDMDL
MODEL 2
REMARK VINA RESULT:    -3.583      0.036      3.786
REMARK INTER + INTRA:          -4.270
REMARK INTER:                  -4.212
REMARK INTRA:                  -0.058
REMARK UNBOUND:                -0.059
REMARK SMILES O=C([O-])CCC(=O)[O-]
REMARK SMILES IDX 4 1 2 2 1 3 3 4 5 5 6 6 7 7 8 8
REMARK H PARENT
REMARK Flexibility Score: inf
ROOT
ATOM      1  C   UNL     1       2.001  14.312  -9.040  1.00  0.00     0.059 C 
ENDROOT
BRANCH   1   2
ATOM      2  C   UNL     1       3.369  13.734  -9.248  1.00  0.00     0.042 C 
ATOM      3  O   UNL     1       3.990  13.948 -10.322  1.00  0.00    -0.550 OA
ATOM      4  O   UNL     1       3.938  12.927  -8.270  1.00  0.00    -0.550 OA
ENDBRANCH   1   2
BRANCH   1   5
ATOM      5  C   UNL     1       1.173  13.467  -8.064  1.00  0.00     0.059 C 
BRANCH   5   6
ATOM      6  C   UNL     1       0.023  12.797  -8.752  1.00  0.00     0.042 C 
ATOM      7  O   UNL     1      -0.727  13.456  -9.519  1.00  0.00    -0.550 OA
ATOM      8  O   UNL     1      -0.244  11.455  -8.516  1.00  0.00    -0.550 OA
ENDBRANCH   5   6
ENDBRANCH   1   5
TORSDOF 3
ENDMDL
MODEL 3
REMARK VINA RESULT:    -3.577      0.099      3.908
REMARK INTER + INTRA:          -4.263
REMARK INTER:                  -4.198
REMARK INTRA:                  -0.066
REMARK UNBOUND:                -0.059
REMARK SMILES O=C([O-])CCC(=O)[O-]
REMARK SMILES IDX 4 1 2 2 1 3 3 4 5 5 6 6 7 7 8 8
REMARK H PARENT
REMARK Flexibility Score: inf
ROOT
ATOM      1  C   UNL     1       1.972  14.295  -8.940  1.00  0.00     0.059 C 
ENDROOT
BRANCH   1   2
ATOM      2  C   UNL     1       3.313  13.666  -9.172  1.00  0.00     0.042 C 
ATOM      3  O   UNL     1       3.825  12.924  -8.293  1.00  0.00    -0.550 OA
ATOM      4  O   UNL     1       4.014  13.934 -10.341  1.00  0.00    -0.550 OA
ENDBRANCH   1   2
BRANCH   1   5
ATOM      5  C   UNL     1       1.108  13.451  -7.996  1.00  0.00     0.059 C 
BRANCH   5   6
ATOM      6  C   UNL     1      -0.009  12.773  -8.729  1.00  0.00     0.042 C 
ATOM      7  O   UNL     1      -0.742  13.430  -9.514  1.00  0.00    -0.550 OA
ATOM      8  O   UNL     1      -0.266  11.425  -8.514  1.00  0.00    -0.550 OA
ENDBRANCH   5   6
ENDBRANCH   1   5
TORSDOF 3
ENDMDL
MODEL 4
REMARK VINA RESULT:    -3.441      2.339      3.638
REMARK INTER + INTRA:          -4.104
REMARK INTER:                  -4.042
REMARK INTRA:                  -0.061
REMARK UNBOUND:                -0.059
REMARK SMILES O=C([O-])CCC(=O)[O-]
REMARK SMILES IDX 4 1 2 2 1 3 3 4 5 5 6 6 7 7 8 8
REMARK H PARENT
REMARK Flexibility Score: inf
ROOT
ATOM      1  C   UNL     1       3.344  15.145  -8.837  1.00  0.00     0.059 C 
ENDROOT
BRANCH   1   2
ATOM      2  C   UNL     1       3.364  13.647  -8.776  1.00  0.00     0.042 C 
ATOM      3  O   UNL     1       2.398  12.982  -9.236  1.00  0.00    -0.550 OA
ATOM      4  O   UNL     1       4.430  12.989  -8.175  1.00  0.00    -0.550 OA
ENDBRANCH   1   2
BRANCH   1   5
ATOM      5  C   UNL     1       2.556  15.650 -10.051  1.00  0.00     0.059 C 
BRANCH   5   6
ATOM      6  C   UNL     1       3.443  16.362 -11.027  1.00  0.00     0.042 C 
ATOM      7  O   UNL     1       4.466  16.973 -10.624  1.00  0.00    -0.550 OA
ATOM      8  O   UNL     1       3.117  16.382 -12.377  1.00  0.00    -0.550 OA
ENDBRANCH   5   6
ENDBRANCH   1   5
TORSDOF 3
ENDMDL
MODEL 5
REMARK VINA RESULT:    -3.321      2.128      3.556
REMARK INTER + INTRA:          -3.962
REMARK INTER:                  -3.799
REMARK INTRA:                  -0.163
REMARK UNBOUND:                -0.059
REMARK SMILES O=C([O-])CCC(=O)[O-]
REMARK SMILES IDX 4 1 2 2 1 3 3 4 5 5 6 6 7 7 8 8
REMARK H PARENT
REMARK Flexibility Score: inf
ROOT
ATOM      1  C   UNL     1       3.428  15.998  -8.910  1.00  0.00     0.059 C 
ENDROOT
BRANCH   1   2
ATOM      2  C   UNL     1       3.137  15.945 -10.379  1.00  0.00     0.042 C 
ATOM      3  O   UNL     1       2.007  16.292 -10.814  1.00  0.00    -0.550 OA
ATOM      4  O   UNL     1       4.100  15.473 -11.262  1.00  0.00    -0.550 OA
ENDBRANCH   1   2
BRANCH   1   5
ATOM      5  C   UNL     1       2.649  14.924  -8.141  1.00  0.00     0.059 C 
BRANCH   5   6
ATOM      6  C   UNL     1       3.055  13.542  -8.559  1.00  0.00     0.042 C 
ATOM      7  O   UNL     1       2.241  12.802  -9.171  1.00  0.00    -0.550 OA
ATOM      8  O   UNL     1       4.317  13.060  -8.238  1.00  0.00    -0.550 OA
ENDBRANCH   5   6
ENDBRANCH   1   5
TORSDOF 3
ENDMDL
MODEL 6
REMARK VINA RESULT:    -3.306      1.627      4.035
REMARK INTER + INTRA:          -3.945
REMARK INTER:                  -3.823
REMARK INTRA:                  -0.122
REMARK UNBOUND:                -0.059
REMARK SMILES O=C([O-])CCC(=O)[O-]
REMARK SMILES IDX 4 1 2 2 1 3 3 4 5 5 6 6 7 7 8 8
REMARK H PARENT
REMARK Flexibility Score: inf
ROOT
ATOM      1  C   UNL     1       3.558  13.778  -9.289  1.00  0.00     0.059 C 
ENDROOT
BRANCH   1   2
ATOM      2  C   UNL     1       3.685  15.142  -9.898  1.00  0.00     0.042 C 
ATOM      3  O   UNL     1       3.387  16.165  -9.227  1.00  0.00    -0.550 OA
ATOM      4  O   UNL     1       4.094  15.279 -11.218  1.00  0.00    -0.550 OA
ENDBRANCH   1   2
BRANCH   1   5
ATOM      5  C   UNL     1       2.472  13.741  -8.208  1.00  0.00     0.059 C 
BRANCH   5   6
ATOM      6  C   UNL     1       1.120  13.459  -8.792  1.00  0.00     0.042 C 
ATOM      7  O   UNL     1       0.732  12.271  -8.943  1.00  0.00    -0.550 OA
ATOM      8  O   UNL     1       0.308  14.506  -9.207  1.00  0.00    -0.550 OA
ENDBRANCH   5   6
ENDBRANCH   1   5
TORSDOF 3
ENDMDL
MODEL 7
REMARK VINA RESULT:    -3.294      2.858      3.510
REMARK INTER + INTRA:          -3.931
REMARK INTER:                  -3.809
REMARK INTRA:                  -0.121
REMARK UNBOUND:                -0.059
REMARK SMILES O=C([O-])CCC(=O)[O-]
REMARK SMILES IDX 4 1 2 2 1 3 3 4 5 5 6 6 7 7 8 8
REMARK H PARENT
REMARK Flexibility Score: inf
ROOT
ATOM      1  C   UNL     1       4.020  13.455  -8.392  1.00  0.00     0.059 C 
ENDROOT
BRANCH   1   2
ATOM      2  C   UNL     1       3.644  13.804  -6.984  1.00  0.00     0.042 C 
ATOM      3  O   UNL     1       2.560  14.397  -6.746  1.00  0.00    -0.550 OA
ATOM      4  O   UNL     1       4.512  13.509  -5.940  1.00  0.00    -0.550 OA
ENDBRANCH   1   2
BRANCH   1   5
ATOM      5  C   UNL     1       3.054  14.082  -9.406  1.00  0.00     0.059 C 
BRANCH   5   6
ATOM      6  C   UNL     1       3.623  15.329 -10.012  1.00  0.00     0.042 C 
ATOM      7  O   UNL     1       4.183  15.287 -11.138  1.00  0.00    -0.550 OA
ATOM      8  O   UNL     1       3.570  16.529  -9.314  1.00  0.00    -0.550 OA
ENDBRANCH   5   6
ENDBRANCH   1   5
TORSDOF 3
ENDMDL
MODEL 8
REMARK VINA RESULT:    -3.287      2.793      4.014
REMARK INTER + INTRA:          -3.922
REMARK INTER:                  -3.811
REMARK INTRA:                  -0.111
REMARK UNBOUND:                -0.059
REMARK SMILES O=C([O-])CCC(=O)[O-]
REMARK SMILES IDX 4 1 2 2 1 3 3 4 5 5 6 6 7 7 8 8
REMARK H PARENT
REMARK Flexibility Score: inf
ROOT
ATOM      1  C   UNL     1       3.121  13.950  -9.407  1.00  0.00     0.059 C 
ENDROOT
BRANCH   1   2
ATOM      2  C   UNL     1       3.601  15.264  -9.945  1.00  0.00     0.042 C 
ATOM      3  O   UNL     1       3.453  16.317  -9.271  1.00  0.00    -0.550 OA
ATOM      4  O   UNL     1       4.176  15.330 -11.208  1.00  0.00    -0.550 OA
ENDBRANCH   1   2
BRANCH   1   5
ATOM      5  C   UNL     1       4.098  13.370  -8.379  1.00  0.00     0.059 C 
BRANCH   5   6
ATOM      6  C   UNL     1       3.688  13.705  -6.976  1.00  0.00     0.042 C 
ATOM      7  O   UNL     1       4.488  13.521  -6.022  1.00  0.00    -0.550 OA
ATOM      8  O   UNL     1       2.410  14.184  -6.720  1.00  0.00    -0.550 OA
ENDBRANCH   5   6
ENDBRANCH   1   5
TORSDOF 3
ENDMDL
MODEL 9
REMARK VINA RESULT:    -3.226      1.741      2.500
REMARK INTER + INTRA:          -3.850
REMARK INTER:                  -3.740
REMARK INTRA:                  -0.110
REMARK UNBOUND:                -0.059
REMARK SMILES O=C([O-])CCC(=O)[O-]
REMARK SMILES IDX 4 1 2 2 1 3 3 4 5 5 6 6 7 7 8 8
REMARK H PARENT
REMARK Flexibility Score: inf
ROOT
ATOM      1  C   UNL     1       2.934  13.804  -8.144  1.00  0.00     0.059 C 
ENDROOT
BRANCH   1   2
ATOM      2  C   UNL     1       1.461  13.625  -8.355  1.00  0.00     0.042 C 
ATOM      3  O   UNL     1       1.026  12.604  -8.950  1.00  0.00    -0.550 OA
ATOM      4  O   UNL     1       0.573  14.606  -7.931  1.00  0.00    -0.550 OA
ENDBRANCH   1   2
BRANCH   1   5
ATOM      5  C   UNL     1       3.690  13.885  -9.475  1.00  0.00     0.059 C 
BRANCH   5   6
ATOM      6  C   UNL     1       3.745  15.290  -9.994  1.00  0.00     0.042 C 
ATOM      7  O   UNL     1       3.523  16.259  -9.222  1.00  0.00    -0.550 OA
ATOM      8  O   UNL     1       4.003  15.526 -11.338  1.00  0.00    -0.550 OA
ENDBRANCH   5   6
ENDBRANCH   1   5
TORSDOF 3
ENDMDL
