MODEL 1
REMARK VINA RESULT:    -4.480      0.000      0.000
REMARK INTER + INTRA:          -6.698
REMARK INTER:                  -6.183
REMARK INTRA:                  -0.516
REMARK UNBOUND:                -0.516
REMARK SMILES OC[C@@H](O)[C@@H](O)[C@@H](O)CO
REMARK SMILES IDX 5 1 3 2 2 3 1 4 4 6 7 8 9 9 10 10 8 12 6 14
REMARK H PARENT 1 5 4 7 10 11 8 13 6 15
REMARK Flexibility Score: inf
ROOT
ATOM      1  C   UNL     1     -16.335  -8.829 -29.971  1.00  0.00     0.176 C 
ENDROOT
BRANCH   1   2
ATOM      2  C   UNL     1     -16.899  -8.102 -28.717  1.00  0.00     0.171 C 
BRANCH   2   3
ATOM      3  C   UNL     1     -16.830  -8.937 -27.420  1.00  0.00     0.190 C 
BRANCH   3   4
ATOM      4  O   UNL     1     -15.537  -8.886 -26.878  1.00  0.00    -0.394 OA
ATOM      5  H   UNL     1     -15.067  -9.703 -27.187  1.00  0.00     0.210 HD
ENDBRANCH   3   4
ENDBRANCH   2   3
BRANCH   2   6
ATOM      6  O   UNL     1     -16.248  -6.867 -28.540  1.00  0.00    -0.388 OA
ATOM      7  H   UNL     1     -15.271  -7.028 -28.604  1.00  0.00     0.211 HD
ENDBRANCH   2   6
ENDBRANCH   1   2
BRANCH   1   8
ATOM      8  C   UNL     1     -17.221 -10.011 -30.458  1.00  0.00     0.171 C 
BRANCH   8   9
ATOM      9  C   UNL     1     -16.480 -10.889 -31.485  1.00  0.00     0.190 C 
BRANCH   9  10
ATOM     10  O   UNL     1     -15.823 -10.107 -32.446  1.00  0.00    -0.394 OA
ATOM     11  H   UNL     1     -16.165  -9.181 -32.341  1.00  0.00     0.210 HD
ENDBRANCH   9  10
ENDBRANCH   8   9
BRANCH   8  12
ATOM     12  O   UNL     1     -18.388  -9.505 -31.054  1.00  0.00    -0.388 OA
ATOM     13  H   UNL     1     -18.736 -10.213 -31.658  1.00  0.00     0.211 HD
ENDBRANCH   8  12
ENDBRANCH   1   8
BRANCH   1  14
ATOM     14  O   UNL     1     -15.003  -9.231 -29.763  1.00  0.00    -0.388 OA
ATOM     15  H   UNL     1     -14.452  -8.853 -30.497  1.00  0.00     0.211 HD
ENDBRANCH   1  14
TORSDOF 9
ENDMDL
MODEL 2
REMARK VINA RESULT:    -4.382      0.697      1.813
REMARK INTER + INTRA:          -6.563
REMARK INTER:                  -5.854
REMARK INTRA:                  -0.709
REMARK UNBOUND:                -0.516
REMARK SMILES OC[C@@H](O)[C@@H](O)[C@@H](O)CO
REMARK SMILES IDX 5 1 3 2 2 3 1 4 4 6 7 8 9 9 10 10 8 12 6 14
REMARK H PARENT 1 5 4 7 10 11 8 13 6 15
REMARK Flexibility Score: inf
ROOT
ATOM      1  C   UNL     1     -16.965  -9.475 -29.986  1.00  0.00     0.176 C 
ENDROOT
BRANCH   1   2
ATOM      2  C   UNL     1     -17.072  -8.391 -28.875  1.00  0.00     0.171 C 
BRANCH   2   3
ATOM      3  C   UNL     1     -16.886  -8.936 -27.443  1.00  0.00     0.190 C 
BRANCH   3   4
ATOM      4  O   UNL     1     -15.542  -8.829 -27.053  1.00  0.00    -0.394 OA
ATOM      5  H   UNL     1     -15.303  -7.868 -27.116  1.00  0.00     0.210 HD
ENDBRANCH   3   4
ENDBRANCH   2   3
BRANCH   2   6
ATOM      6  O   UNL     1     -16.160  -7.350 -29.126  1.00  0.00    -0.388 OA
ATOM      7  H   UNL     1     -15.288  -7.609 -28.729  1.00  0.00     0.211 HD
ENDBRANCH   2   6
ENDBRANCH   1   2
BRANCH   1   8
ATOM      8  C   UNL     1     -15.636  -9.417 -30.790  1.00  0.00     0.171 C 
BRANCH   8   9
ATOM      9  C   UNL     1     -15.544 -10.563 -31.817  1.00  0.00     0.190 C 
BRANCH   9  10
ATOM     10  O   UNL     1     -16.182 -10.225 -33.018  1.00  0.00    -0.394 OA
ATOM     11  H   UNL     1     -15.743  -9.398 -33.350  1.00  0.00     0.210 HD
ENDBRANCH   9  10
ENDBRANCH   8   9
BRANCH   8  12
ATOM     12  O   UNL     1     -14.550  -9.516 -29.904  1.00  0.00    -0.388 OA
ATOM     13  H   UNL     1     -14.905  -9.873 -29.048  1.00  0.00     0.211 HD
ENDBRANCH   8  12
ENDBRANCH   1   8
BRANCH   1  14
ATOM     14  O   UNL     1     -18.087  -9.436 -30.835  1.00  0.00    -0.388 OA
ATOM     15  H   UNL     1     -18.891  -9.635 -30.289  1.00  0.00     0.211 HD
ENDBRANCH   1  14
TORSDOF 9
ENDMDL
MODEL 3
REMARK VINA RESULT:    -4.300      8.041      9.573
REMARK INTER + INTRA:          -6.450
REMARK INTER:                  -5.896
REMARK INTRA:                  -0.554
REMARK UNBOUND:                -0.516
REMARK SMILES OC[C@@H](O)[C@@H](O)[C@@H](O)CO
REMARK SMILES IDX 5 1 3 2 2 3 1 4 4 6 7 8 9 9 10 10 8 12 6 14
REMARK H PARENT 1 5 4 7 10 11 8 13 6 15
REMARK Flexibility Score: inf
ROOT
ATOM      1  C   UNL     1     -16.989  -0.977 -29.691  1.00  0.00     0.176 C 
ENDROOT
BRANCH   1   2
ATOM      2  C   UNL     1     -17.657  -0.902 -31.094  1.00  0.00     0.171 C 
BRANCH   2   3
ATOM      3  C   UNL     1     -18.732   0.199 -31.222  1.00  0.00     0.190 C 
BRANCH   3   4
ATOM      4  O   UNL     1     -19.951  -0.250 -30.691  1.00  0.00    -0.394 OA
ATOM      5  H   UNL     1     -19.959   0.013 -29.734  1.00  0.00     0.210 HD
ENDBRANCH   3   4
ENDBRANCH   2   3
BRANCH   2   6
ATOM      6  O   UNL     1     -16.676  -0.747 -32.090  1.00  0.00    -0.388 OA
ATOM      7  H   UNL     1     -16.840  -1.437 -32.785  1.00  0.00     0.211 HD
ENDBRANCH   2   6
ENDBRANCH   1   2
BRANCH   1   8
ATOM      8  C   UNL     1     -16.588   0.411 -29.115  1.00  0.00     0.171 C 
BRANCH   8   9
ATOM      9  C   UNL     1     -15.072   0.658 -29.235  1.00  0.00     0.190 C 
BRANCH   9  10
ATOM     10  O   UNL     1     -14.628   0.479 -30.553  1.00  0.00    -0.394 OA
ATOM     11  H   UNL     1     -15.437   0.481 -31.128  1.00  0.00     0.210 HD
ENDBRANCH   9  10
ENDBRANCH   8   9
BRANCH   8  12
ATOM     12  O   UNL     1     -16.951   0.476 -27.760  1.00  0.00    -0.388 OA
ATOM     13  H   UNL     1     -17.025  -0.460 -27.434  1.00  0.00     0.211 HD
ENDBRANCH   8  12
ENDBRANCH   1   8
BRANCH   1  14
ATOM     14  O   UNL     1     -15.900  -1.869 -29.700  1.00  0.00    -0.388 OA
ATOM     15  H   UNL     1     -15.744  -2.151 -30.639  1.00  0.00     0.211 HD
ENDBRANCH   1  14
TORSDOF 9
ENDMDL
MODEL 4
REMARK VINA RESULT:    -4.293      8.088      9.952
REMARK INTER + INTRA:          -6.440
REMARK INTER:                  -5.724
REMARK INTRA:                  -0.716
REMARK UNBOUND:                -0.516
REMARK SMILES OC[C@@H](O)[C@@H](O)[C@@H](O)CO
REMARK SMILES IDX 5 1 3 2 2 3 1 4 4 6 7 8 9 9 10 10 8 12 6 14
REMARK H PARENT 1 5 4 7 10 11 8 13 6 15
REMARK Flexibility Score: inf
ROOT
ATOM      1  C   UNL     1     -16.790   0.206 -29.296  1.00  0.00     0.176 C 
ENDROOT
BRANCH   1   2
ATOM      2  C   UNL     1     -17.446  -0.908 -30.161  1.00  0.00     0.171 C 
BRANCH   2   3
ATOM      3  C   UNL     1     -18.062  -0.400 -31.482  1.00  0.00     0.190 C 
BRANCH   3   4
ATOM      4  O   UNL     1     -17.124  -0.492 -32.522  1.00  0.00    -0.394 OA
ATOM      5  H   UNL     1     -16.624   0.365 -32.532  1.00  0.00     0.210 HD
ENDBRANCH   3   4
ENDBRANCH   2   3
BRANCH   2   6
ATOM      6  O   UNL     1     -16.518  -1.935 -30.414  1.00  0.00    -0.388 OA
ATOM      7  H   UNL     1     -16.512  -2.538 -29.626  1.00  0.00     0.211 HD
ENDBRANCH   2   6
ENDBRANCH   1   2
BRANCH   1   8
ATOM      8  C   UNL     1     -15.236   0.194 -29.337  1.00  0.00     0.171 C 
BRANCH   8   9
ATOM      9  C   UNL     1     -14.638   1.348 -28.508  1.00  0.00     0.190 C 
BRANCH   9  10
ATOM     10  O   UNL     1     -14.488   0.985 -27.162  1.00  0.00    -0.394 OA
ATOM     11  H   UNL     1     -13.531   0.751 -27.036  1.00  0.00     0.210 HD
ENDBRANCH   9  10
ENDBRANCH   8   9
BRANCH   8  12
ATOM     12  O   UNL     1     -14.803   0.322 -30.667  1.00  0.00    -0.388 OA
ATOM     13  H   UNL     1     -14.310   1.182 -30.731  1.00  0.00     0.211 HD
ENDBRANCH   8  12
ENDBRANCH   1   8
BRANCH   1  14
ATOM     14  O   UNL     1     -17.274   0.167 -27.975  1.00  0.00    -0.388 OA
ATOM     15  H   UNL     1     -17.525  -0.771 -27.769  1.00  0.00     0.211 HD
ENDBRANCH   1  14
TORSDOF 9
ENDMDL
MODEL 5
REMARK VINA RESULT:    -4.233      1.549      4.292
REMARK INTER + INTRA:          -6.357
REMARK INTER:                  -5.700
REMARK INTRA:                  -0.657
REMARK UNBOUND:                -0.516
REMARK SMILES OC[C@@H](O)[C@@H](O)[C@@H](O)CO
REMARK SMILES IDX 5 1 3 2 2 3 1 4 4 6 7 8 9 9 10 10 8 12 6 14
REMARK H PARENT 1 5 4 7 10 11 8 13 6 15
REMARK Flexibility Score: inf
ROOT
ATOM      1  C   UNL     1     -15.870  -9.786 -30.381  1.00  0.00     0.176 C 
ENDROOT
BRANCH   1   2
ATOM      2  C   UNL     1     -16.369 -10.646 -31.577  1.00  0.00     0.171 C 
BRANCH   2   3
ATOM      3  C   UNL     1     -15.330 -10.817 -32.707  1.00  0.00     0.190 C 
BRANCH   3   4
ATOM      4  O   UNL     1     -15.408  -9.740 -33.604  1.00  0.00    -0.394 OA
ATOM      5  H   UNL     1     -15.693  -8.950 -33.076  1.00  0.00     0.210 HD
ENDBRANCH   3   4
ENDBRANCH   2   3
BRANCH   2   6
ATOM      6  O   UNL     1     -16.808 -11.903 -31.121  1.00  0.00    -0.388 OA
ATOM      7  H   UNL     1     -16.004 -12.459 -30.946  1.00  0.00     0.211 HD
ENDBRANCH   2   6
ENDBRANCH   1   2
BRANCH   1   8
ATOM      8  C   UNL     1     -16.902  -9.670 -29.223  1.00  0.00     0.171 C 
BRANCH   8   9
ATOM      9  C   UNL     1     -16.620  -8.443 -28.334  1.00  0.00     0.190 C 
BRANCH   9  10
ATOM     10  O   UNL     1     -15.391  -8.565 -27.669  1.00  0.00    -0.394 OA
ATOM     11  H   UNL     1     -15.203  -7.683 -27.255  1.00  0.00     0.210 HD
ENDBRANCH   9  10
ENDBRANCH   8   9
BRANCH   8  12
ATOM     12  O   UNL     1     -16.844 -10.827 -28.428  1.00  0.00    -0.388 OA
ATOM     13  H   UNL     1     -15.956 -11.244 -28.587  1.00  0.00     0.211 HD
ENDBRANCH   8  12
ENDBRANCH   1   8
BRANCH   1  14
ATOM     14  O   UNL     1     -15.436  -8.521 -30.817  1.00  0.00    -0.388 OA
ATOM     15  H   UNL     1     -16.166  -7.871 -30.643  1.00  0.00     0.211 HD
ENDBRANCH   1  14
TORSDOF 9
ENDMDL
MODEL 6
REMARK VINA RESULT:    -4.183      1.255      1.546
REMARK INTER + INTRA:          -6.288
REMARK INTER:                  -5.594
REMARK INTRA:                  -0.694
REMARK UNBOUND:                -0.516
REMARK SMILES OC[C@@H](O)[C@@H](O)[C@@H](O)CO
REMARK SMILES IDX 5 1 3 2 2 3 1 4 4 6 7 8 9 9 10 10 8 12 6 14
REMARK H PARENT 1 5 4 7 10 11 8 13 6 15
REMARK Flexibility Score: inf
ROOT
ATOM      1  C   UNL     1     -16.234 -10.235 -30.027  1.00  0.00     0.176 C 
ENDROOT
BRANCH   1   2
ATOM      2  C   UNL     1     -16.584  -8.730 -29.848  1.00  0.00     0.171 C 
BRANCH   2   3
ATOM      3  C   UNL     1     -16.574  -8.251 -28.380  1.00  0.00     0.190 C 
BRANCH   3   4
ATOM      4  O   UNL     1     -15.369  -8.611 -27.760  1.00  0.00    -0.394 OA
ATOM      5  H   UNL     1     -14.701  -8.732 -28.484  1.00  0.00     0.210 HD
ENDBRANCH   3   4
ENDBRANCH   2   3
BRANCH   2   6
ATOM      6  O   UNL     1     -15.725  -7.936 -30.629  1.00  0.00    -0.388 OA
ATOM      7  H   UNL     1     -15.435  -8.480 -31.407  1.00  0.00     0.211 HD
ENDBRANCH   2   6
ENDBRANCH   1   2
BRANCH   1   8
ATOM      8  C   UNL     1     -16.739 -10.838 -31.368  1.00  0.00     0.171 C 
BRANCH   8   9
ATOM      9  C   UNL     1     -15.606 -10.931 -32.410  1.00  0.00     0.190 C 
BRANCH   9  10
ATOM     10  O   UNL     1     -15.474  -9.735 -33.128  1.00  0.00    -0.394 OA
ATOM     11  H   UNL     1     -14.500  -9.563 -33.216  1.00  0.00     0.210 HD
ENDBRANCH   9  10
ENDBRANCH   8   9
BRANCH   8  12
ATOM     12  O   UNL     1     -17.764 -10.031 -31.887  1.00  0.00    -0.388 OA
ATOM     13  H   UNL     1     -17.329  -9.321 -32.429  1.00  0.00     0.211 HD
ENDBRANCH   8  12
ENDBRANCH   1   8
BRANCH   1  14
ATOM     14  O   UNL     1     -16.672 -10.988 -28.922  1.00  0.00    -0.388 OA
ATOM     15  H   UNL     1     -17.660 -10.903 -28.867  1.00  0.00     0.211 HD
ENDBRANCH   1  14
TORSDOF 9
ENDMDL
MODEL 7
REMARK VINA RESULT:    -4.172      8.609      9.868
REMARK INTER + INTRA:          -6.273
REMARK INTER:                  -5.617
REMARK INTRA:                  -0.655
REMARK UNBOUND:                -0.516
REMARK SMILES OC[C@@H](O)[C@@H](O)[C@@H](O)CO
REMARK SMILES IDX 5 1 3 2 2 3 1 4 4 6 7 8 9 9 10 10 8 12 6 14
REMARK H PARENT 1 5 4 7 10 11 8 13 6 15
REMARK Flexibility Score: inf
ROOT
ATOM      1  C   UNL     1     -15.656   0.527 -29.525  1.00  0.00     0.176 C 
ENDROOT
BRANCH   1   2
ATOM      2  C   UNL     1     -15.497   1.389 -28.240  1.00  0.00     0.171 C 
BRANCH   2   3
ATOM      3  C   UNL     1     -14.034   1.580 -27.786  1.00  0.00     0.190 C 
BRANCH   3   4
ATOM      4  O   UNL     1     -13.629   0.500 -26.988  1.00  0.00    -0.394 OA
ATOM      5  H   UNL     1     -14.083   0.607 -26.112  1.00  0.00     0.210 HD
ENDBRANCH   3   4
ENDBRANCH   2   3
BRANCH   2   6
ATOM      6  O   UNL     1     -16.125   2.636 -28.413  1.00  0.00    -0.388 OA
ATOM      7  H   UNL     1     -15.785   3.030 -29.259  1.00  0.00     0.211 HD
ENDBRANCH   2   6
ENDBRANCH   1   2
BRANCH   1   8
ATOM      8  C   UNL     1     -17.132   0.354 -29.983  1.00  0.00     0.171 C 
BRANCH   8   9
ATOM      9  C   UNL     1     -17.301  -0.876 -30.897  1.00  0.00     0.190 C 
BRANCH   9  10
ATOM     10  O   UNL     1     -16.613  -0.711 -32.107  1.00  0.00    -0.394 OA
ATOM     11  H   UNL     1     -17.083   0.007 -32.606  1.00  0.00     0.210 HD
ENDBRANCH   9  10
ENDBRANCH   8   9
BRANCH   8  12
ATOM     12  O   UNL     1     -17.540   1.499 -30.686  1.00  0.00    -0.388 OA
ATOM     13  H   UNL     1     -16.896   2.222 -30.462  1.00  0.00     0.211 HD
ENDBRANCH   8  12
ENDBRANCH   1   8
BRANCH   1  14
ATOM     14  O   UNL     1     -15.009  -0.715 -29.380  1.00  0.00    -0.388 OA
ATOM     15  H   UNL     1     -15.369  -1.329 -30.072  1.00  0.00     0.211 HD
ENDBRANCH   1  14
TORSDOF 9
ENDMDL
MODEL 8
REMARK VINA RESULT:    -4.095      1.705      3.668
REMARK INTER + INTRA:          -6.166
REMARK INTER:                  -5.359
REMARK INTRA:                  -0.807
REMARK UNBOUND:                -0.516
REMARK SMILES OC[C@@H](O)[C@@H](O)[C@@H](O)CO
REMARK SMILES IDX 5 1 3 2 2 3 1 4 4 6 7 8 9 9 10 10 8 12 6 14
REMARK H PARENT 1 5 4 7 10 11 8 13 6 15
REMARK Flexibility Score: inf
ROOT
ATOM      1  C   UNL     1     -17.370  -9.754 -28.333  1.00  0.00     0.176 C 
ENDROOT
BRANCH   1   2
ATOM      2  C   UNL     1     -18.745  -9.612 -29.045  1.00  0.00     0.171 C 
BRANCH   2   3
ATOM      3  C   UNL     1     -18.869 -10.432 -30.347  1.00  0.00     0.190 C 
BRANCH   3   4
ATOM      4  O   UNL     1     -18.157  -9.808 -31.383  1.00  0.00    -0.394 OA
ATOM      5  H   UNL     1     -18.477 -10.211 -32.231  1.00  0.00     0.210 HD
ENDBRANCH   3   4
ENDBRANCH   2   3
BRANCH   2   6
ATOM      6  O   UNL     1     -19.786  -9.940 -28.158  1.00  0.00    -0.388 OA
ATOM      7  H   UNL     1     -20.471 -10.445 -28.669  1.00  0.00     0.211 HD
ENDBRANCH   2   6
ENDBRANCH   1   2
BRANCH   1   8
ATOM      8  C   UNL     1     -16.654  -8.397 -28.080  1.00  0.00     0.171 C 
BRANCH   8   9
ATOM      9  C   UNL     1     -16.583  -7.546 -29.364  1.00  0.00     0.190 C 
BRANCH   9  10
ATOM     10  O   UNL     1     -15.826  -8.183 -30.357  1.00  0.00    -0.394 OA
ATOM     11  H   UNL     1     -15.958  -9.159 -30.233  1.00  0.00     0.210 HD
ENDBRANCH   9  10
ENDBRANCH   8   9
BRANCH   8  12
ATOM     12  O   UNL     1     -15.347  -8.636 -27.623  1.00  0.00    -0.388 OA
ATOM     13  H   UNL     1     -15.421  -8.954 -26.685  1.00  0.00     0.211 HD
ENDBRANCH   8  12
ENDBRANCH   1   8
BRANCH   1  14
ATOM     14  O   UNL     1     -16.539 -10.658 -29.019  1.00  0.00    -0.388 OA
ATOM     15  H   UNL     1     -17.011 -11.530 -29.069  1.00  0.00     0.211 HD
ENDBRANCH   1  14
TORSDOF 9
ENDMDL
MODEL 9
REMARK VINA RESULT:    -4.031      1.677      3.676
REMARK INTER + INTRA:          -6.079
REMARK INTER:                  -5.250
REMARK INTRA:                  -0.829
REMARK UNBOUND:                -0.516
REMARK SMILES OC[C@@H](O)[C@@H](O)[C@@H](O)CO
REMARK SMILES IDX 5 1 3 2 2 3 1 4 4 6 7 8 9 9 10 10 8 12 6 14
REMARK H PARENT 1 5 4 7 10 11 8 13 6 15
REMARK Flexibility Score: inf
ROOT
ATOM      1  C   UNL     1     -17.603 -10.347 -29.236  1.00  0.00     0.176 C 
ENDROOT
BRANCH   1   2
ATOM      2  C   UNL     1     -16.986  -9.796 -30.553  1.00  0.00     0.171 C 
BRANCH   2   3
ATOM      3  C   UNL     1     -15.490 -10.133 -30.737  1.00  0.00     0.190 C 
BRANCH   3   4
ATOM      4  O   UNL     1     -14.711  -9.392 -29.835  1.00  0.00    -0.394 OA
ATOM      5  H   UNL     1     -14.925  -9.733 -28.928  1.00  0.00     0.210 HD
ENDBRANCH   3   4
ENDBRANCH   2   3
BRANCH   2   6
ATOM      6  O   UNL     1     -17.729 -10.243 -31.661  1.00  0.00    -0.388 OA
ATOM      7  H   UNL     1     -17.502 -11.198 -31.812  1.00  0.00     0.211 HD
ENDBRANCH   2   6
ENDBRANCH   1   2
BRANCH   1   8
ATOM      8  C   UNL     1     -18.167  -9.240 -28.301  1.00  0.00     0.171 C 
BRANCH   8   9
ATOM      9  C   UNL     1     -17.303  -9.072 -27.036  1.00  0.00     0.190 C 
BRANCH   9  10
ATOM     10  O   UNL     1     -16.010  -8.633 -27.356  1.00  0.00    -0.394 OA
ATOM     11  H   UNL     1     -15.997  -7.652 -27.203  1.00  0.00     0.210 HD
ENDBRANCH   9  10
ENDBRANCH   8   9
BRANCH   8  12
ATOM     12  O   UNL     1     -19.474  -9.578 -27.913  1.00  0.00    -0.388 OA
ATOM     13  H   UNL     1     -19.915  -9.989 -28.703  1.00  0.00     0.211 HD
ENDBRANCH   8  12
ENDBRANCH   1   8
BRANCH   1  14
ATOM     14  O   UNL     1     -16.691 -11.180 -28.562  1.00  0.00    -0.388 OA
ATOM     15  H   UNL     1     -16.890 -12.118 -28.815  1.00  0.00     0.211 HD
ENDBRANCH   1  14
TORSDOF 9
ENDMDL
