MODEL 1
REMARK VINA RESULT:    -3.817      0.000      0.000
REMARK INTER + INTRA:          -4.528
REMARK INTER:                  -4.375
REMARK INTRA:                  -0.153
REMARK UNBOUND:                -0.153
REMARK SMILES O=C([O-])C=Cc1ccc(O)cc1
REMARK SMILES IDX 6 1 7 2 12 3 8 4 11 5 9 6 5 7 4 8 2 9 1 10 3 11 10 12
REMARK H PARENT 10 13
REMARK Flexibility Score: inf
ROOT
ATOM      1  C   UNL     1      -4.095  85.725  -8.669  1.00  0.00    -0.025 A 
ATOM      2  C   UNL     1      -3.338  84.561  -8.423  1.00  0.00     0.012 A 
ATOM      3  C   UNL     1      -5.239  85.631  -9.480  1.00  0.00     0.012 A 
ATOM      4  C   UNL     1      -3.709  83.342  -9.000  1.00  0.00     0.047 A 
ATOM      5  C   UNL     1      -5.606  84.411 -10.055  1.00  0.00     0.047 A 
ATOM      6  C   UNL     1      -4.839  83.263  -9.819  1.00  0.00     0.115 A 
ENDROOT
BRANCH   1   7
ATOM      7  C   UNL     1      -3.754  87.041  -8.073  1.00  0.00     0.010 C 
ATOM      8  C   UNL     1      -4.455  88.163  -8.291  1.00  0.00     0.025 C 
BRANCH   8   9
ATOM      9  C   UNL     1      -4.093  89.448  -7.673  1.00  0.00     0.064 C 
ATOM     10  O   UNL     1      -3.586  89.499  -6.520  1.00  0.00    -0.545 OA
ATOM     11  O   UNL     1      -4.311  90.628  -8.374  1.00  0.00    -0.545 OA
ENDBRANCH   8   9
ENDBRANCH   1   7
BRANCH   6  12
ATOM     12  O   UNL     1      -5.194  82.042 -10.386  1.00  0.00    -0.508 OA
ATOM     13  H   UNL     1      -5.746  81.362  -9.877  1.00  0.00     0.293 HD
ENDBRANCH   6  12
TORSDOF 3
ENDMDL
MODEL 2
REMARK VINA RESULT:    -3.794      6.963      7.793
REMARK INTER + INTRA:          -4.501
REMARK INTER:                  -4.359
REMARK INTRA:                  -0.143
REMARK UNBOUND:                -0.153
REMARK SMILES O=C([O-])C=Cc1ccc(O)cc1
REMARK SMILES IDX 6 1 7 2 12 3 8 4 11 5 9 6 5 7 4 8 2 9 1 10 3 11 10 12
REMARK H PARENT 10 13
REMARK Flexibility Score: inf
ROOT
ATOM      1  C   UNL     1      -4.207  92.336 -13.349  1.00  0.00    -0.025 A 
ATOM      2  C   UNL     1      -4.695  92.787 -14.593  1.00  0.00     0.012 A 
ATOM      3  C   UNL     1      -3.950  90.965 -13.178  1.00  0.00     0.012 A 
ATOM      4  C   UNL     1      -4.940  91.877 -15.627  1.00  0.00     0.047 A 
ATOM      5  C   UNL     1      -4.197  90.060 -14.213  1.00  0.00     0.047 A 
ATOM      6  C   UNL     1      -4.696  90.514 -15.441  1.00  0.00     0.115 A 
ENDROOT
BRANCH   1   7
ATOM      7  C   UNL     1      -3.919  93.259 -12.223  1.00  0.00     0.010 C 
ATOM      8  C   UNL     1      -4.367  93.072 -10.973  1.00  0.00     0.025 C 
BRANCH   8   9
ATOM      9  C   UNL     1      -4.051  94.003  -9.878  1.00  0.00     0.064 C 
ATOM     10  O   UNL     1      -2.906  94.518  -9.768  1.00  0.00    -0.545 OA
ATOM     11  O   UNL     1      -5.033  94.323  -8.949  1.00  0.00    -0.545 OA
ENDBRANCH   8   9
ENDBRANCH   1   7
BRANCH   6  12
ATOM     12  O   UNL     1      -4.946  89.621 -16.480  1.00  0.00    -0.508 OA
ATOM     13  H   UNL     1      -5.732  88.982 -16.452  1.00  0.00     0.293 HD
ENDBRANCH   6  12
TORSDOF 3
ENDMDL
MODEL 3
REMARK VINA RESULT:    -3.782      7.942      9.420
REMARK INTER + INTRA:          -4.488
REMARK INTER:                  -4.346
REMARK INTRA:                  -0.142
REMARK UNBOUND:                -0.153
REMARK SMILES O=C([O-])C=Cc1ccc(O)cc1
REMARK SMILES IDX 6 1 7 2 12 3 8 4 11 5 9 6 5 7 4 8 2 9 1 10 3 11 10 12
REMARK H PARENT 10 13
REMARK Flexibility Score: inf
ROOT
ATOM      1  C   UNL     1     -11.923  82.375  -9.481  1.00  0.00    -0.025 A 
ATOM      2  C   UNL     1     -12.855  83.411  -9.694  1.00  0.00     0.012 A 
ATOM      3  C   UNL     1     -11.830  81.341 -10.429  1.00  0.00     0.012 A 
ATOM      4  C   UNL     1     -13.687  83.393 -10.818  1.00  0.00     0.047 A 
ATOM      5  C   UNL     1     -12.664  81.326 -11.550  1.00  0.00     0.047 A 
ATOM      6  C   UNL     1     -13.598  82.352 -11.746  1.00  0.00     0.115 A 
ENDROOT
BRANCH   1   7
ATOM      7  C   UNL     1     -11.008  82.352  -8.312  1.00  0.00     0.010 C 
ATOM      8  C   UNL     1     -10.924  81.327  -7.451  1.00  0.00     0.025 C 
BRANCH   8   9
ATOM      9  C   UNL     1      -9.996  81.334  -6.309  1.00  0.00     0.064 C 
ATOM     10  O   UNL     1      -8.943  82.028  -6.328  1.00  0.00    -0.545 OA
ATOM     11  O   UNL     1     -10.285  80.565  -5.190  1.00  0.00    -0.545 OA
ENDBRANCH   8   9
ENDBRANCH   1   7
BRANCH   6  12
ATOM     12  O   UNL     1     -14.434  82.347 -12.859  1.00  0.00    -0.508 OA
ATOM     13  H   UNL     1     -14.375  81.621 -13.564  1.00  0.00     0.293 HD
ENDBRANCH   6  12
TORSDOF 3
ENDMDL
MODEL 4
REMARK VINA RESULT:    -3.719     11.763     13.595
REMARK INTER + INTRA:          -4.415
REMARK INTER:                  -4.275
REMARK INTRA:                  -0.140
REMARK UNBOUND:                -0.153
REMARK SMILES O=C([O-])C=Cc1ccc(O)cc1
REMARK SMILES IDX 6 1 7 2 12 3 8 4 11 5 9 6 5 7 4 8 2 9 1 10 3 11 10 12
REMARK H PARENT 10 13
REMARK Flexibility Score: inf
ROOT
ATOM      1  C   UNL     1     -15.077  78.687  -6.750  1.00  0.00    -0.025 A 
ATOM      2  C   UNL     1     -14.002  79.519  -7.123  1.00  0.00     0.012 A 
ATOM      3  C   UNL     1     -14.806  77.365  -6.354  1.00  0.00     0.012 A 
ATOM      4  C   UNL     1     -12.693  79.025  -7.124  1.00  0.00     0.047 A 
ATOM      5  C   UNL     1     -13.497  76.876  -6.357  1.00  0.00     0.047 A 
ATOM      6  C   UNL     1     -12.437  77.705  -6.745  1.00  0.00     0.115 A 
ENDROOT
BRANCH   1   7
ATOM      7  C   UNL     1     -16.483  79.163  -6.720  1.00  0.00     0.010 C 
ATOM      8  C   UNL     1     -16.849  80.424  -6.993  1.00  0.00     0.025 C 
BRANCH   8   9
ATOM      9  C   UNL     1     -18.255  80.857  -6.965  1.00  0.00     0.064 C 
ATOM     10  O   UNL     1     -19.165  80.157  -7.486  1.00  0.00    -0.545 OA
ATOM     11  O   UNL     1     -18.587  82.058  -6.351  1.00  0.00    -0.545 OA
ENDBRANCH   8   9
ENDBRANCH   1   7
BRANCH   6  12
ATOM     12  O   UNL     1     -11.128  77.228  -6.751  1.00  0.00    -0.508 OA
ATOM     13  H   UNL     1     -10.352  77.815  -7.034  1.00  0.00     0.293 HD
ENDBRANCH   6  12
TORSDOF 3
ENDMDL
MODEL 5
REMARK VINA RESULT:    -3.677      6.563      7.688
REMARK INTER + INTRA:          -4.367
REMARK INTER:                  -4.217
REMARK INTRA:                  -0.150
REMARK UNBOUND:                -0.153
REMARK SMILES O=C([O-])C=Cc1ccc(O)cc1
REMARK SMILES IDX 6 1 7 2 12 3 8 4 11 5 9 6 5 7 4 8 2 9 1 10 3 11 10 12
REMARK H PARENT 10 13
REMARK Flexibility Score: inf
ROOT
ATOM      1  C   UNL     1      -4.907  90.406 -14.167  1.00  0.00    -0.025 A 
ATOM      2  C   UNL     1      -5.822  90.151 -15.209  1.00  0.00     0.012 A 
ATOM      3  C   UNL     1      -3.600  90.805 -14.496  1.00  0.00     0.012 A 
ATOM      4  C   UNL     1      -5.424  90.269 -16.545  1.00  0.00     0.047 A 
ATOM      5  C   UNL     1      -3.206  90.922 -15.832  1.00  0.00     0.047 A 
ATOM      6  C   UNL     1      -4.117  90.651 -16.861  1.00  0.00     0.115 A 
ENDROOT
BRANCH   1   7
ATOM      7  C   UNL     1      -5.280  90.307 -12.734  1.00  0.00     0.010 C 
ATOM      8  C   UNL     1      -4.713  91.039 -11.764  1.00  0.00     0.025 C 
BRANCH   8   9
ATOM      9  C   UNL     1      -5.117  90.921 -10.353  1.00  0.00     0.064 C 
ATOM     10  O   UNL     1      -5.709  89.893  -9.927  1.00  0.00    -0.545 OA
ATOM     11  O   UNL     1      -4.839  91.961  -9.475  1.00  0.00    -0.545 OA
ENDBRANCH   8   9
ENDBRANCH   1   7
BRANCH   6  12
ATOM     12  O   UNL     1      -3.736  90.763 -18.195  1.00  0.00    -0.508 OA
ATOM     13  H   UNL     1      -3.005  90.182 -18.588  1.00  0.00     0.293 HD
ENDBRANCH   6  12
TORSDOF 3
ENDMDL
MODEL 6
REMARK VINA RESULT:    -3.675      6.828      7.856
REMARK INTER + INTRA:          -4.365
REMARK INTER:                  -4.217
REMARK INTRA:                  -0.148
REMARK UNBOUND:                -0.153
REMARK SMILES O=C([O-])C=Cc1ccc(O)cc1
REMARK SMILES IDX 6 1 7 2 12 3 8 4 11 5 9 6 5 7 4 8 2 9 1 10 3 11 10 12
REMARK H PARENT 10 13
REMARK Flexibility Score: inf
ROOT
ATOM      1  C   UNL     1      -4.977  90.096 -14.293  1.00  0.00    -0.025 A 
ATOM      2  C   UNL     1      -3.641  90.499 -14.493  1.00  0.00     0.012 A 
ATOM      3  C   UNL     1      -5.821  89.969 -15.411  1.00  0.00     0.012 A 
ATOM      4  C   UNL     1      -3.174  90.788 -15.780  1.00  0.00     0.047 A 
ATOM      5  C   UNL     1      -5.351  90.260 -16.694  1.00  0.00     0.047 A 
ATOM      6  C   UNL     1      -4.026  90.674 -16.882  1.00  0.00     0.115 A 
ENDROOT
BRANCH   1   7
ATOM      7  C   UNL     1      -5.520  89.765 -12.952  1.00  0.00     0.010 C 
ATOM      8  C   UNL     1      -6.536  88.914 -12.748  1.00  0.00     0.025 C 
BRANCH   8   9
ATOM      9  C   UNL     1      -7.041  88.602 -11.402  1.00  0.00     0.064 C 
ATOM     10  O   UNL     1      -6.514  87.696 -10.701  1.00  0.00    -0.545 OA
ATOM     11  O   UNL     1      -8.115  89.318 -10.892  1.00  0.00    -0.545 OA
ENDBRANCH   8   9
ENDBRANCH   1   7
BRANCH   6  12
ATOM     12  O   UNL     1      -3.547  90.967 -18.156  1.00  0.00    -0.508 OA
ATOM     13  H   UNL     1      -2.875  91.710 -18.311  1.00  0.00     0.293 HD
ENDBRANCH   6  12
TORSDOF 3
ENDMDL
MODEL 7
REMARK VINA RESULT:    -3.636      3.552      6.344
REMARK INTER + INTRA:          -4.320
REMARK INTER:                  -4.169
REMARK INTRA:                  -0.151
REMARK UNBOUND:                -0.153
REMARK SMILES O=C([O-])C=Cc1ccc(O)cc1
REMARK SMILES IDX 6 1 7 2 12 3 8 4 11 5 9 6 5 7 4 8 2 9 1 10 3 11 10 12
REMARK H PARENT 10 13
REMARK Flexibility Score: inf
ROOT
ATOM      1  C   UNL     1      -7.024  83.971  -9.354  1.00  0.00    -0.025 A 
ATOM      2  C   UNL     1      -6.484  85.273  -9.361  1.00  0.00     0.012 A 
ATOM      3  C   UNL     1      -6.155  82.877  -9.195  1.00  0.00     0.012 A 
ATOM      4  C   UNL     1      -5.105  85.467  -9.236  1.00  0.00     0.047 A 
ATOM      5  C   UNL     1      -4.777  83.076  -9.071  1.00  0.00     0.047 A 
ATOM      6  C   UNL     1      -4.248  84.372  -9.094  1.00  0.00     0.115 A 
ENDROOT
BRANCH   1   7
ATOM      7  C   UNL     1      -8.480  83.709  -9.472  1.00  0.00     0.010 C 
ATOM      8  C   UNL     1      -9.040  82.507  -9.272  1.00  0.00     0.025 C 
BRANCH   8   9
ATOM      9  C   UNL     1     -10.491  82.287  -9.386  1.00  0.00     0.064 C 
ATOM     10  O   UNL     1     -11.298  82.820  -8.577  1.00  0.00    -0.545 OA
ATOM     11  O   UNL     1     -10.981  81.479 -10.404  1.00  0.00    -0.545 OA
ENDBRANCH   8   9
ENDBRANCH   1   7
BRANCH   6  12
ATOM     12  O   UNL     1      -2.877  84.582  -8.972  1.00  0.00    -0.508 OA
ATOM     13  H   UNL     1      -2.211  84.092  -9.558  1.00  0.00     0.293 HD
ENDBRANCH   6  12
TORSDOF 3
ENDMDL
MODEL 8
REMARK VINA RESULT:    -3.575      2.172      2.920
REMARK INTER + INTRA:          -4.251
REMARK INTER:                  -4.102
REMARK INTRA:                  -0.149
REMARK UNBOUND:                -0.153
REMARK SMILES O=C([O-])C=Cc1ccc(O)cc1
REMARK SMILES IDX 6 1 7 2 12 3 8 4 11 5 9 6 5 7 4 8 2 9 1 10 3 11 10 12
REMARK H PARENT 10 13
REMARK Flexibility Score: inf
ROOT
ATOM      1  C   UNL     1      -5.147  84.911  -9.716  1.00  0.00    -0.025 A 
ATOM      2  C   UNL     1      -5.504  83.611 -10.129  1.00  0.00     0.012 A 
ATOM      3  C   UNL     1      -4.004  85.078  -8.915  1.00  0.00     0.012 A 
ATOM      4  C   UNL     1      -4.745  82.507  -9.725  1.00  0.00     0.047 A 
ATOM      5  C   UNL     1      -3.249  83.972  -8.513  1.00  0.00     0.047 A 
ATOM      6  C   UNL     1      -3.620  82.683  -8.915  1.00  0.00     0.115 A 
ENDROOT
BRANCH   1   7
ATOM      7  C   UNL     1      -5.910  86.116 -10.125  1.00  0.00     0.010 C 
ATOM      8  C   UNL     1      -5.875  87.282  -9.461  1.00  0.00     0.025 C 
BRANCH   8   9
ATOM      9  C   UNL     1      -6.636  88.461  -9.904  1.00  0.00     0.064 C 
ATOM     10  O   UNL     1      -6.114  89.608  -9.918  1.00  0.00    -0.545 OA
ATOM     11  O   UNL     1      -7.954  88.307 -10.314  1.00  0.00    -0.545 OA
ENDBRANCH   8   9
ENDBRANCH   1   7
BRANCH   6  12
ATOM     12  O   UNL     1      -2.876  81.574  -8.520  1.00  0.00    -0.508 OA
ATOM     13  H   UNL     1      -2.716  81.364  -7.542  1.00  0.00     0.293 HD
ENDBRANCH   6  12
TORSDOF 3
ENDMDL
MODEL 9
REMARK VINA RESULT:    -2.292      1.107      5.878
REMARK INTER + INTRA:          -2.779
REMARK INTER:                  -2.630
REMARK INTRA:                  -0.150
REMARK UNBOUND:                -0.153
REMARK SMILES O=C([O-])C=Cc1ccc(O)cc1
REMARK SMILES IDX 6 1 7 2 12 3 8 4 11 5 9 6 5 7 4 8 2 9 1 10 3 11 10 12
REMARK H PARENT 10 13
REMARK Flexibility Score: inf
ROOT
ATOM      1  C   UNL     1      -4.252  86.347  -8.272  1.00  0.00    -0.025 A 
ATOM      2  C   UNL     1      -4.997  87.485  -8.643  1.00  0.00     0.012 A 
ATOM      3  C   UNL     1      -3.197  86.496  -7.355  1.00  0.00     0.012 A 
ATOM      4  C   UNL     1      -4.672  88.743  -8.123  1.00  0.00     0.047 A 
ATOM      5  C   UNL     1      -2.875  87.754  -6.839  1.00  0.00     0.047 A 
ATOM      6  C   UNL     1      -3.610  88.883  -7.224  1.00  0.00     0.115 A 
ENDROOT
BRANCH   1   7
ATOM      7  C   UNL     1      -4.561  84.989  -8.783  1.00  0.00     0.010 C 
ATOM      8  C   UNL     1      -3.664  83.994  -8.847  1.00  0.00     0.025 C 
BRANCH   8   9
ATOM      9  C   UNL     1      -4.011  82.655  -9.350  1.00  0.00     0.064 C 
ATOM     10  O   UNL     1      -3.284  81.655  -9.101  1.00  0.00    -0.545 OA
ATOM     11  O   UNL     1      -5.160  82.488 -10.112  1.00  0.00    -0.545 OA
ENDBRANCH   8   9
ENDBRANCH   1   7
BRANCH   6  12
ATOM     12  O   UNL     1      -3.299  90.141  -6.717  1.00  0.00    -0.508 OA
ATOM     13  H   UNL     1      -3.974  90.681  -6.187  1.00  0.00     0.293 HD
ENDBRANCH   6  12
TORSDOF 3
ENDMDL
