MODEL 1
REMARK VINA RESULT:    -2.800      0.000      0.000
REMARK INTER + INTRA:          -3.692
REMARK INTER:                  -3.291
REMARK INTRA:                  -0.401
REMARK UNBOUND:                -0.401
REMARK SMILES [NH3+][C@@H](CO)C(=O)[O-]
REMARK SMILES IDX 3 1 2 2 1 3 5 7 6 8 7 9 4 10
REMARK H PARENT 1 4 1 5 1 6 4 11
REMARK Flexibility Score: inf
ROOT
ATOM      1  C   UNL     1     145.517 150.833 146.440  1.00  0.00     0.227 C 
ENDROOT
BRANCH   1   2
ATOM      2  C   UNL     1     144.001 150.884 146.689  1.00  0.00     0.253 C 
BRANCH   2   3
ATOM      3  N   UNL     1     143.693 151.582 147.943  1.00  0.00    -0.348 N 
ATOM      4  H   UNL     1     144.577 151.931 148.381  1.00  0.00     0.345 HD
ATOM      5  H   UNL     1     143.236 150.923 148.615  1.00  0.00     0.345 HD
ATOM      6  H   UNL     1     143.054 152.392 147.770  1.00  0.00     0.345 HD
ENDBRANCH   2   3
BRANCH   2   7
ATOM      7  C   UNL     1     143.431 149.491 146.708  1.00  0.00     0.102 C 
ATOM      8  O   UNL     1     143.433 148.815 147.770  1.00  0.00    -0.544 OA
ATOM      9  O   UNL     1     142.912 148.937 145.544  1.00  0.00    -0.544 OA
ENDBRANCH   2   7
ENDBRANCH   1   2
BRANCH   1  10
ATOM     10  O   UNL     1     145.882 149.566 145.967  1.00  0.00    -0.390 OA
ATOM     11  H   UNL     1     146.872 149.573 145.895  1.00  0.00     0.210 HD
ENDBRANCH   1  10
TORSDOF 4
ENDMDL
MODEL 2
REMARK VINA RESULT:    -2.775      2.550      3.461
REMARK INTER + INTRA:          -3.662
REMARK INTER:                  -3.260
REMARK INTRA:                  -0.403
REMARK UNBOUND:                -0.401
REMARK SMILES [NH3+][C@@H](CO)C(=O)[O-]
REMARK SMILES IDX 3 1 2 2 1 3 5 7 6 8 7 9 4 10
REMARK H PARENT 1 4 1 5 1 6 4 11
REMARK Flexibility Score: inf
ROOT
ATOM      1  C   UNL     1     144.013 151.021 146.704  1.00  0.00     0.227 C 
ENDROOT
BRANCH   1   2
ATOM      2  C   UNL     1     145.539 150.839 146.681  1.00  0.00     0.253 C 
BRANCH   2   3
ATOM      3  N   UNL     1     145.910 149.549 146.085  1.00  0.00    -0.348 N 
ATOM      4  H   UNL     1     145.892 149.622 145.041  1.00  0.00     0.345 HD
ATOM      5  H   UNL     1     145.224 148.813 146.371  1.00  0.00     0.345 HD
ATOM      6  H   UNL     1     146.869 149.261 146.391  1.00  0.00     0.345 HD
ENDBRANCH   2   3
BRANCH   2   7
ATOM      7  C   UNL     1     146.097 150.955 148.074  1.00  0.00     0.102 C 
ATOM      8  O   UNL     1     146.136 149.950 148.832  1.00  0.00    -0.544 OA
ATOM      9  O   UNL     1     146.558 152.181 148.537  1.00  0.00    -0.544 OA
ENDBRANCH   2   7
ENDBRANCH   1   2
BRANCH   1  10
ATOM     10  O   UNL     1     143.614 151.558 147.935  1.00  0.00    -0.390 OA
ATOM     11  H   UNL     1     143.273 152.470 147.740  1.00  0.00     0.210 HD
ENDBRANCH   1  10
TORSDOF 4
ENDMDL
MODEL 3
REMARK VINA RESULT:    -2.733      2.153      3.065
REMARK INTER + INTRA:          -3.613
REMARK INTER:                  -3.216
REMARK INTRA:                  -0.397
REMARK UNBOUND:                -0.401
REMARK SMILES [NH3+][C@@H](CO)C(=O)[O-]
REMARK SMILES IDX 3 1 2 2 1 3 5 7 6 8 7 9 4 10
REMARK H PARENT 1 4 1 5 1 6 4 11
REMARK Flexibility Score: inf
ROOT
ATOM      1  C   UNL     1     144.776 151.735 148.816  1.00  0.00     0.227 C 
ENDROOT
BRANCH   1   2
ATOM      2  C   UNL     1     145.972 151.384 147.916  1.00  0.00     0.253 C 
BRANCH   2   3
ATOM      3  N   UNL     1     146.826 152.556 147.689  1.00  0.00    -0.348 N 
ATOM      4  H   UNL     1     146.296 153.430 147.912  1.00  0.00     0.345 HD
ATOM      5  H   UNL     1     147.114 152.599 146.684  1.00  0.00     0.345 HD
ATOM      6  H   UNL     1     147.683 152.513 148.288  1.00  0.00     0.345 HD
ENDBRANCH   2   3
BRANCH   2   7
ATOM      7  C   UNL     1     145.488 150.823 146.606  1.00  0.00     0.102 C 
ATOM      8  O   UNL     1     145.261 151.586 145.630  1.00  0.00    -0.544 OA
ATOM      9  O   UNL     1     145.275 149.457 146.471  1.00  0.00    -0.544 OA
ENDBRANCH   2   7
ENDBRANCH   1   2
BRANCH   1  10
ATOM     10  O   UNL     1     143.580 151.591 148.100  1.00  0.00    -0.390 OA
ATOM     11  H   UNL     1     143.740 152.005 147.212  1.00  0.00     0.210 HD
ENDBRANCH   1  10
TORSDOF 4
ENDMDL
MODEL 4
REMARK VINA RESULT:    -2.699      1.889      3.015
REMARK INTER + INTRA:          -3.573
REMARK INTER:                  -3.156
REMARK INTRA:                  -0.418
REMARK UNBOUND:                -0.401
REMARK SMILES [NH3+][C@@H](CO)C(=O)[O-]
REMARK SMILES IDX 3 1 2 2 1 3 5 7 6 8 7 9 4 10
REMARK H PARENT 1 4 1 5 1 6 4 11
REMARK Flexibility Score: inf
ROOT
ATOM      1  C   UNL     1     144.696 149.372 146.685  1.00  0.00     0.227 C 
ENDROOT
BRANCH   1   2
ATOM      2  C   UNL     1     144.651 150.424 147.806  1.00  0.00     0.253 C 
BRANCH   2   3
ATOM      3  N   UNL     1     143.470 151.286 147.677  1.00  0.00    -0.348 N 
ATOM      4  H   UNL     1     143.698 152.252 148.008  1.00  0.00     0.345 HD
ATOM      5  H   UNL     1     142.691 150.916 148.269  1.00  0.00     0.345 HD
ATOM      6  H   UNL     1     143.152 151.333 146.681  1.00  0.00     0.345 HD
ENDBRANCH   2   3
BRANCH   2   7
ATOM      7  C   UNL     1     145.909 151.249 147.793  1.00  0.00     0.102 C 
ATOM      8  O   UNL     1     145.959 152.327 147.144  1.00  0.00    -0.544 OA
ATOM      9  O   UNL     1     147.032 150.816 148.488  1.00  0.00    -0.544 OA
ENDBRANCH   2   7
ENDBRANCH   1   2
BRANCH   1  10
ATOM     10  O   UNL     1     145.888 149.495 145.961  1.00  0.00    -0.390 OA
ATOM     11  H   UNL     1     145.749 150.245 145.326  1.00  0.00     0.210 HD
ENDBRANCH   1  10
TORSDOF 4
ENDMDL
MODEL 5
REMARK VINA RESULT:    -2.677      2.284      3.320
REMARK INTER + INTRA:          -3.547
REMARK INTER:                  -3.151
REMARK INTRA:                  -0.397
REMARK UNBOUND:                -0.401
REMARK SMILES [NH3+][C@@H](CO)C(=O)[O-]
REMARK SMILES IDX 3 1 2 2 1 3 5 7 6 8 7 9 4 10
REMARK H PARENT 1 4 1 5 1 6 4 11
REMARK Flexibility Score: inf
ROOT
ATOM      1  C   UNL     1     143.778 149.937 147.645  1.00  0.00     0.227 C 
ENDROOT
BRANCH   1   2
ATOM      2  C   UNL     1     145.023 149.962 146.744  1.00  0.00     0.253 C 
BRANCH   2   3
ATOM      3  N   UNL     1     146.220 149.538 147.481  1.00  0.00    -0.348 N 
ATOM      4  H   UNL     1     146.442 150.236 148.229  1.00  0.00     0.345 HD
ATOM      5  H   UNL     1     147.039 149.486 146.833  1.00  0.00     0.345 HD
ATOM      6  H   UNL     1     146.071 148.601 147.922  1.00  0.00     0.345 HD
ENDBRANCH   2   3
BRANCH   2   7
ATOM      7  C   UNL     1     145.220 151.340 146.170  1.00  0.00     0.102 C 
ATOM      8  O   UNL     1     144.810 151.613 145.011  1.00  0.00    -0.544 OA
ATOM      9  O   UNL     1     145.871 152.316 146.914  1.00  0.00    -0.544 OA
ENDBRANCH   2   7
ENDBRANCH   1   2
BRANCH   1  10
ATOM     10  O   UNL     1     143.233 151.224 147.745  1.00  0.00    -0.390 OA
ATOM     11  H   UNL     1     142.927 151.321 148.685  1.00  0.00     0.210 HD
ENDBRANCH   1  10
TORSDOF 4
ENDMDL
MODEL 6
REMARK VINA RESULT:    -2.677      2.310      2.466
REMARK INTER + INTRA:          -3.547
REMARK INTER:                  -3.299
REMARK INTRA:                  -0.248
REMARK UNBOUND:                -0.401
REMARK SMILES [NH3+][C@@H](CO)C(=O)[O-]
REMARK SMILES IDX 3 1 2 2 1 3 5 7 6 8 7 9 4 10
REMARK H PARENT 1 4 1 5 1 6 4 11
REMARK Flexibility Score: inf
ROOT
ATOM      1  C   UNL     1     146.430 151.658 147.775  1.00  0.00     0.227 C 
ENDROOT
BRANCH   1   2
ATOM      2  C   UNL     1     145.694 150.351 147.438  1.00  0.00     0.253 C 
BRANCH   2   3
ATOM      3  N   UNL     1     145.795 150.041 146.006  1.00  0.00    -0.348 N 
ATOM      4  H   UNL     1     145.137 150.649 145.465  1.00  0.00     0.345 HD
ATOM      5  H   UNL     1     145.527 149.043 145.838  1.00  0.00     0.345 HD
ATOM      6  H   UNL     1     146.769 150.198 145.660  1.00  0.00     0.345 HD
ENDBRANCH   2   3
BRANCH   2   7
ATOM      7  C   UNL     1     144.252 150.445 147.856  1.00  0.00     0.102 C 
ATOM      8  O   UNL     1     143.941 150.953 148.966  1.00  0.00    -0.544 OA
ATOM      9  O   UNL     1     143.254 149.957 147.023  1.00  0.00    -0.544 OA
ENDBRANCH   2   7
ENDBRANCH   1   2
BRANCH   1  10
ATOM     10  O   UNL     1     145.622 152.758 147.461  1.00  0.00    -0.390 OA
ATOM     11  H   UNL     1     145.053 152.919 148.259  1.00  0.00     0.210 HD
ENDBRANCH   1  10
TORSDOF 4
ENDMDL
MODEL 7
REMARK VINA RESULT:    -2.642      1.847      2.372
REMARK INTER + INTRA:          -3.506
REMARK INTER:                  -3.107
REMARK INTRA:                  -0.399
REMARK UNBOUND:                -0.401
REMARK SMILES [NH3+][C@@H](CO)C(=O)[O-]
REMARK SMILES IDX 3 1 2 2 1 3 5 7 6 8 7 9 4 10
REMARK H PARENT 1 4 1 5 1 6 4 11
REMARK Flexibility Score: inf
ROOT
ATOM      1  C   UNL     1     144.855 151.156 147.893  1.00  0.00     0.227 C 
ENDROOT
BRANCH   1   2
ATOM      2  C   UNL     1     145.035 149.808 147.176  1.00  0.00     0.253 C 
BRANCH   2   3
ATOM      3  N   UNL     1     145.894 149.946 145.994  1.00  0.00    -0.348 N 
ATOM      4  H   UNL     1     146.784 150.429 146.257  1.00  0.00     0.345 HD
ATOM      5  H   UNL     1     145.413 150.526 145.269  1.00  0.00     0.345 HD
ATOM      6  H   UNL     1     146.120 149.008 145.589  1.00  0.00     0.345 HD
ENDBRANCH   2   3
BRANCH   2   7
ATOM      7  C   UNL     1     143.694 149.244 146.790  1.00  0.00     0.102 C 
ATOM      8  O   UNL     1     143.299 149.298 145.595  1.00  0.00    -0.544 OA
ATOM      9  O   UNL     1     142.875 148.673 147.756  1.00  0.00    -0.544 OA
ENDBRANCH   2   7
ENDBRANCH   1   2
BRANCH   1  10
ATOM     10  O   UNL     1     143.531 151.595 147.763  1.00  0.00    -0.390 OA
ATOM     11  H   UNL     1     143.052 150.882 147.266  1.00  0.00     0.210 HD
ENDBRANCH   1  10
TORSDOF 4
ENDMDL
MODEL 8
REMARK VINA RESULT:    -2.616      2.220      2.551
REMARK INTER + INTRA:          -3.475
REMARK INTER:                  -3.229
REMARK INTRA:                  -0.246
REMARK UNBOUND:                -0.401
REMARK SMILES [NH3+][C@@H](CO)C(=O)[O-]
REMARK SMILES IDX 3 1 2 2 1 3 5 7 6 8 7 9 4 10
REMARK H PARENT 1 4 1 5 1 6 4 11
REMARK Flexibility Score: inf
ROOT
ATOM      1  C   UNL     1     144.728 148.268 146.255  1.00  0.00     0.227 C 
ENDROOT
BRANCH   1   2
ATOM      2  C   UNL     1     143.690 149.348 145.905  1.00  0.00     0.253 C 
BRANCH   2   3
ATOM      3  N   UNL     1     143.525 149.474 144.452  1.00  0.00    -0.348 N 
ATOM      4  H   UNL     1     143.832 150.425 144.142  1.00  0.00     0.345 HD
ATOM      5  H   UNL     1     142.518 149.358 144.196  1.00  0.00     0.345 HD
ATOM      6  H   UNL     1     144.091 148.751 143.950  1.00  0.00     0.345 HD
ENDBRANCH   2   3
BRANCH   2   7
ATOM      7  C   UNL     1     144.093 150.667 146.506  1.00  0.00     0.102 C 
ATOM      8  O   UNL     1     143.607 151.044 147.605  1.00  0.00    -0.544 OA
ATOM      9  O   UNL     1     144.996 151.486 145.840  1.00  0.00    -0.544 OA
ENDBRANCH   2   7
ENDBRANCH   1   2
BRANCH   1  10
ATOM     10  O   UNL     1     146.012 148.709 145.909  1.00  0.00    -0.390 OA
ATOM     11  H   UNL     1     146.643 148.035 146.275  1.00  0.00     0.210 HD
ENDBRANCH   1  10
TORSDOF 4
ENDMDL
MODEL 9
REMARK VINA RESULT:    -2.523      3.179      3.700
REMARK INTER + INTRA:          -3.366
REMARK INTER:                  -3.140
REMARK INTRA:                  -0.226
REMARK UNBOUND:                -0.401
REMARK SMILES [NH3+][C@@H](CO)C(=O)[O-]
REMARK SMILES IDX 3 1 2 2 1 3 5 7 6 8 7 9 4 10
REMARK H PARENT 1 4 1 5 1 6 4 11
REMARK Flexibility Score: inf
ROOT
ATOM      1  C   UNL     1     143.459 146.641 143.995  1.00  0.00     0.227 C 
ENDROOT
BRANCH   1   2
ATOM      2  C   UNL     1     142.971 148.035 144.421  1.00  0.00     0.253 C 
BRANCH   2   3
ATOM      3  N   UNL     1     143.164 149.016 143.346  1.00  0.00    -0.348 N 
ATOM      4  H   UNL     1     142.715 148.671 142.466  1.00  0.00     0.345 HD
ATOM      5  H   UNL     1     144.186 149.144 143.159  1.00  0.00     0.345 HD
ATOM      6  H   UNL     1     142.745 149.938 143.605  1.00  0.00     0.345 HD
ENDBRANCH   2   3
BRANCH   2   7
ATOM      7  C   UNL     1     143.686 148.475 145.670  1.00  0.00     0.102 C 
ATOM      8  O   UNL     1     144.834 148.033 145.938  1.00  0.00    -0.544 OA
ATOM      9  O   UNL     1     143.073 149.364 146.544  1.00  0.00    -0.544 OA
ENDBRANCH   2   7
ENDBRANCH   1   2
BRANCH   1  10
ATOM     10  O   UNL     1     144.682 146.747 143.321  1.00  0.00    -0.390 OA
ATOM     11  H   UNL     1     145.353 147.006 144.005  1.00  0.00     0.210 HD
ENDBRANCH   1  10
TORSDOF 4
ENDMDL
