MODEL 1
REMARK VINA RESULT:     1.786      0.000      0.000
REMARK INTER + INTRA:           2.952
REMARK INTER:                   3.247
REMARK INTRA:                  -0.295
REMARK UNBOUND:                -0.295
REMARK SMILES CCCCCC=CCC=CCCCCCCCC(=O)[O-]
REMARK SMILES IDX 11 1 12 2 13 3 14 4 15 5 16 6 17 7 18 8 19 9 20 10 10 11
REMARK SMILES IDX 9 12 8 13 7 14 6 15 5 16 4 17 3 18 2 19 1 20
REMARK H PARENT
REMARK Flexibility Score: inf
ROOT
ATOM      1  C   UNL     1      30.954 -20.110 -29.788  1.00  0.00     0.027 C 
ENDROOT
BRANCH   1   2
ATOM      2  C   UNL     1      30.728 -18.592 -29.725  1.00  0.00     0.004 C 
BRANCH   2   3
ATOM      3  C   UNL     1      31.501 -17.919 -28.577  1.00  0.00     0.000 C 
BRANCH   3   4
ATOM      4  C   UNL     1      32.283 -18.885 -27.667  1.00  0.00     0.000 C 
BRANCH   4   5
ATOM      5  C   UNL     1      33.805 -18.665 -27.730  1.00  0.00     0.000 C 
BRANCH   5   6
ATOM      6  C   UNL     1      34.190 -17.453 -28.592  1.00  0.00     0.006 C 
BRANCH   6   7
ATOM      7  C   UNL     1      34.161 -16.137 -27.804  1.00  0.00     0.053 C 
BRANCH   7   8
ATOM      8  C   UNL     1      34.492 -14.985 -28.700  1.00  0.00     0.041 C 
ATOM      9  O   UNL     1      35.189 -15.166 -29.734  1.00  0.00    -0.550 OA
ATOM     10  O   UNL     1      34.075 -13.703 -28.367  1.00  0.00    -0.550 OA
ENDBRANCH   7   8
ENDBRANCH   6   7
ENDBRANCH   5   6
ENDBRANCH   4   5
ENDBRANCH   3   4
ENDBRANCH   2   3
ENDBRANCH   1   2
BRANCH   1  11
ATOM     11  C   UNL     1      32.285 -20.435 -30.408  1.00  0.00    -0.031 C 
ATOM     12  C   UNL     1      32.904 -19.577 -31.233  1.00  0.00    -0.027 C 
BRANCH  12  13
ATOM     13  C   UNL     1      34.248 -19.885 -31.828  1.00  0.00     0.054 C 
BRANCH  13  14
ATOM     14  C   UNL     1      35.311 -19.031 -31.199  1.00  0.00    -0.027 C 
ATOM     15  C   UNL     1      36.046 -18.175 -31.924  1.00  0.00    -0.031 C 
BRANCH  15  16
ATOM     16  C   UNL     1      37.123 -17.334 -31.295  1.00  0.00     0.027 C 
BRANCH  16  17
ATOM     17  C   UNL     1      37.183 -17.558 -29.776  1.00  0.00     0.004 C 
BRANCH  17  18
ATOM     18  C   UNL     1      37.610 -18.998 -29.416  1.00  0.00     0.000 C 
BRANCH  18  19
ATOM     19  C   UNL     1      38.785 -19.520 -30.261  1.00  0.00    -0.003 C 
ATOM     20  C   UNL     1      38.875 -21.045 -30.280  1.00  0.00     0.004 C 
ENDBRANCH  18  19
ENDBRANCH  17  18
ENDBRANCH  16  17
ENDBRANCH  15  16
ENDBRANCH  13  14
ENDBRANCH  12  13
ENDBRANCH   1  11
TORSDOF 14
ENDMDL
MODEL 2
REMARK VINA RESULT:     2.298      1.876      3.908
REMARK INTER + INTRA:           3.883
REMARK INTER:                   3.700
REMARK INTRA:                   0.183
REMARK UNBOUND:                -0.295
REMARK SMILES CCCCCC=CCC=CCCCCCCCC(=O)[O-]
REMARK SMILES IDX 11 1 12 2 13 3 14 4 15 5 16 6 17 7 18 8 19 9 20 10 10 11
REMARK SMILES IDX 9 12 8 13 7 14 6 15 5 16 4 17 3 18 2 19 1 20
REMARK H PARENT
REMARK Flexibility Score: inf
ROOT
ATOM      1  C   UNL     1      33.769 -18.761 -27.631  1.00  0.00     0.027 C 
ENDROOT
BRANCH   1   2
ATOM      2  C   UNL     1      32.233 -18.779 -27.618  1.00  0.00     0.004 C 
BRANCH   2   3
ATOM      3  C   UNL     1      31.614 -17.775 -28.607  1.00  0.00     0.000 C 
BRANCH   3   4
ATOM      4  C   UNL     1      31.027 -18.402 -29.885  1.00  0.00     0.000 C 
BRANCH   4   5
ATOM      5  C   UNL     1      30.797 -19.918 -29.755  1.00  0.00     0.000 C 
BRANCH   5   6
ATOM      6  C   UNL     1      31.785 -20.739 -30.598  1.00  0.00     0.006 C 
BRANCH   6   7
ATOM      7  C   UNL     1      33.236 -20.274 -30.424  1.00  0.00     0.053 C 
BRANCH   7   8
ATOM      8  C   UNL     1      33.806 -19.839 -31.738  1.00  0.00     0.041 C 
ATOM      9  O   UNL     1      34.674 -18.927 -31.782  1.00  0.00    -0.550 OA
ATOM     10  O   UNL     1      33.340 -20.403 -32.918  1.00  0.00    -0.550 OA
ENDBRANCH   7   8
ENDBRANCH   6   7
ENDBRANCH   5   6
ENDBRANCH   4   5
ENDBRANCH   3   4
ENDBRANCH   2   3
ENDBRANCH   1   2
BRANCH   1  11
ATOM     11  C   UNL     1      34.291 -17.575 -28.394  1.00  0.00    -0.031 C 
ATOM     12  C   UNL     1      34.112 -16.321 -27.951  1.00  0.00    -0.027 C 
BRANCH  12  13
ATOM     13  C   UNL     1      34.660 -15.137 -28.695  1.00  0.00     0.054 C 
BRANCH  13  14
ATOM     14  C   UNL     1      35.481 -15.586 -29.870  1.00  0.00    -0.027 C 
ATOM     15  C   UNL     1      36.544 -16.390 -29.720  1.00  0.00    -0.031 C 
BRANCH  15  16
ATOM     16  C   UNL     1      37.375 -16.823 -30.896  1.00  0.00     0.027 C 
BRANCH  16  17
ATOM     17  C   UNL     1      37.442 -18.355 -30.992  1.00  0.00     0.004 C 
BRANCH  17  18
ATOM     18  C   UNL     1      37.112 -19.038 -29.647  1.00  0.00     0.000 C 
BRANCH  18  19
ATOM     19  C   UNL     1      37.705 -20.451 -29.514  1.00  0.00    -0.003 C 
ATOM     20  C   UNL     1      39.012 -20.626 -30.285  1.00  0.00     0.004 C 
ENDBRANCH  18  19
ENDBRANCH  17  18
ENDBRANCH  16  17
ENDBRANCH  15  16
ENDBRANCH  13  14
ENDBRANCH  12  13
ENDBRANCH   1  11
TORSDOF 14
ENDMDL
MODEL 3
REMARK VINA RESULT:     2.360      2.171      4.102
REMARK INTER + INTRA:           3.997
REMARK INTER:                   4.436
REMARK INTRA:                  -0.440
REMARK UNBOUND:                -0.295
REMARK SMILES CCCCCC=CCC=CCCCCCCCC(=O)[O-]
REMARK SMILES IDX 11 1 12 2 13 3 14 4 15 5 16 6 17 7 18 8 19 9 20 10 10 11
REMARK SMILES IDX 9 12 8 13 7 14 6 15 5 16 4 17 3 18 2 19 1 20
REMARK H PARENT
REMARK Flexibility Score: inf
ROOT
ATOM      1  C   UNL     1      32.823 -18.247 -27.592  1.00  0.00     0.027 C 
ENDROOT
BRANCH   1   2
ATOM      2  C   UNL     1      34.045 -19.156 -27.395  1.00  0.00     0.004 C 
BRANCH   2   3
ATOM      3  C   UNL     1      35.084 -19.016 -28.523  1.00  0.00     0.000 C 
BRANCH   3   4
ATOM      4  C   UNL     1      34.819 -19.893 -29.761  1.00  0.00     0.000 C 
BRANCH   4   5
ATOM      5  C   UNL     1      34.131 -19.123 -30.902  1.00  0.00     0.000 C 
BRANCH   5   6
ATOM      6  C   UNL     1      32.915 -19.871 -31.469  1.00  0.00     0.006 C 
BRANCH   6   7
ATOM      7  C   UNL     1      32.099 -20.580 -30.380  1.00  0.00     0.053 C 
BRANCH   7   8
ATOM      8  C   UNL     1      31.130 -19.629 -29.752  1.00  0.00     0.041 C 
ATOM      9  O   UNL     1      30.492 -19.964 -28.718  1.00  0.00    -0.550 OA
ATOM     10  O   UNL     1      30.890 -18.393 -30.338  1.00  0.00    -0.550 OA
ENDBRANCH   7   8
ENDBRANCH   6   7
ENDBRANCH   5   6
ENDBRANCH   4   5
ENDBRANCH   3   4
ENDBRANCH   2   3
ENDBRANCH   1   2
BRANCH   1  11
ATOM     11  C   UNL     1      33.181 -17.021 -28.387  1.00  0.00    -0.031 C 
ATOM     12  C   UNL     1      34.101 -16.146 -27.951  1.00  0.00    -0.027 C 
BRANCH  12  13
ATOM     13  C   UNL     1      34.484 -14.939 -28.758  1.00  0.00     0.054 C 
BRANCH  13  14
ATOM     14  C   UNL     1      35.582 -15.277 -29.725  1.00  0.00    -0.027 C 
ATOM     15  C   UNL     1      36.321 -16.389 -29.590  1.00  0.00    -0.031 C 
BRANCH  15  16
ATOM     16  C   UNL     1      37.432 -16.716 -30.550  1.00  0.00     0.027 C 
BRANCH  16  17
ATOM     17  C   UNL     1      36.932 -17.619 -31.688  1.00  0.00     0.004 C 
BRANCH  17  18
ATOM     18  C   UNL     1      37.457 -19.065 -31.559  1.00  0.00     0.000 C 
BRANCH  18  19
ATOM     19  C   UNL     1      38.311 -19.298 -30.301  1.00  0.00    -0.003 C 
ATOM     20  C   UNL     1      39.004 -20.660 -30.293  1.00  0.00     0.004 C 
ENDBRANCH  18  19
ENDBRANCH  17  18
ENDBRANCH  16  17
ENDBRANCH  15  16
ENDBRANCH  13  14
ENDBRANCH  12  13
ENDBRANCH   1  11
TORSDOF 14
ENDMDL
MODEL 4
REMARK VINA RESULT:     2.806      1.085      5.082
REMARK INTER + INTRA:           4.807
REMARK INTER:                   5.219
REMARK INTRA:                  -0.411
REMARK UNBOUND:                -0.295
REMARK SMILES CCCCCC=CCC=CCCCCCCCC(=O)[O-]
REMARK SMILES IDX 11 1 12 2 13 3 14 4 15 5 16 6 17 7 18 8 19 9 20 10 10 11
REMARK SMILES IDX 9 12 8 13 7 14 6 15 5 16 4 17 3 18 2 19 1 20
REMARK H PARENT
REMARK Flexibility Score: inf
ROOT
ATOM      1  C   UNL     1      37.304 -20.064 -29.490  1.00  0.00     0.027 C 
ENDROOT
BRANCH   1   2
ATOM      2  C   UNL     1      38.122 -19.219 -30.479  1.00  0.00     0.004 C 
BRANCH   2   3
ATOM      3  C   UNL     1      37.337 -18.865 -31.755  1.00  0.00     0.000 C 
BRANCH   3   4
ATOM      4  C   UNL     1      36.670 -17.477 -31.742  1.00  0.00     0.000 C 
BRANCH   4   5
ATOM      5  C   UNL     1      37.345 -16.499 -30.764  1.00  0.00     0.000 C 
BRANCH   5   6
ATOM      6  C   UNL     1      36.512 -16.264 -29.495  1.00  0.00     0.006 C 
BRANCH   6   7
ATOM      7  C   UNL     1      35.048 -15.928 -29.806  1.00  0.00     0.053 C 
BRANCH   7   8
ATOM      8  C   UNL     1      34.480 -15.038 -28.745  1.00  0.00     0.041 C 
ATOM      9  O   UNL     1      34.042 -15.531 -27.672  1.00  0.00    -0.550 OA
ATOM     10  O   UNL     1      34.387 -13.670 -28.962  1.00  0.00    -0.550 OA
ENDBRANCH   7   8
ENDBRANCH   6   7
ENDBRANCH   5   6
ENDBRANCH   4   5
ENDBRANCH   3   4
ENDBRANCH   2   3
ENDBRANCH   1   2
BRANCH   1  11
ATOM     11  C   UNL     1      36.433 -19.195 -28.626  1.00  0.00    -0.031 C 
ATOM     12  C   UNL     1      35.112 -19.407 -28.523  1.00  0.00    -0.027 C 
BRANCH  12  13
ATOM     13  C   UNL     1      34.245 -18.561 -27.635  1.00  0.00     0.054 C 
BRANCH  13  14
ATOM     14  C   UNL     1      32.798 -18.716 -28.009  1.00  0.00    -0.027 C 
ATOM     15  C   UNL     1      32.276 -18.093 -29.076  1.00  0.00    -0.031 C 
BRANCH  15  16
ATOM     16  C   UNL     1      30.823 -18.236 -29.437  1.00  0.00     0.027 C 
BRANCH  16  17
ATOM     17  C   UNL     1      30.497 -19.676 -29.862  1.00  0.00     0.004 C 
BRANCH  17  18
ATOM     18  C   UNL     1      31.770 -20.497 -30.161  1.00  0.00     0.000 C 
BRANCH  18  19
ATOM     19  C   UNL     1      32.418 -20.157 -31.514  1.00  0.00    -0.003 C 
ATOM     20  C   UNL     1      33.902 -19.814 -31.396  1.00  0.00     0.004 C 
ENDBRANCH  18  19
ENDBRANCH  17  18
ENDBRANCH  16  17
ENDBRANCH  15  16
ENDBRANCH  13  14
ENDBRANCH  12  13
ENDBRANCH   1  11
TORSDOF 14
ENDMDL
MODEL 5
REMARK VINA RESULT:     2.878      2.205      5.748
REMARK INTER + INTRA:           4.939
REMARK INTER:                   4.195
REMARK INTRA:                   0.744
REMARK UNBOUND:                -0.295
REMARK SMILES CCCCCC=CCC=CCCCCCCCC(=O)[O-]
REMARK SMILES IDX 11 1 12 2 13 3 14 4 15 5 16 6 17 7 18 8 19 9 20 10 10 11
REMARK SMILES IDX 9 12 8 13 7 14 6 15 5 16 4 17 3 18 2 19 1 20
REMARK H PARENT
REMARK Flexibility Score: inf
ROOT
ATOM      1  C   UNL     1      34.435 -15.131 -28.220  1.00  0.00     0.027 C 
ENDROOT
BRANCH   1   2
ATOM      2  C   UNL     1      35.044 -15.338 -29.615  1.00  0.00     0.004 C 
BRANCH   2   3
ATOM      3  C   UNL     1      36.060 -16.494 -29.659  1.00  0.00     0.000 C 
BRANCH   3   4
ATOM      4  C   UNL     1      37.062 -16.433 -30.827  1.00  0.00     0.000 C 
BRANCH   4   5
ATOM      5  C   UNL     1      36.686 -17.374 -31.985  1.00  0.00     0.000 C 
BRANCH   5   6
ATOM      6  C   UNL     1      37.416 -18.723 -31.909  1.00  0.00     0.006 C 
BRANCH   6   7
ATOM      7  C   UNL     1      38.355 -18.818 -30.699  1.00  0.00     0.053 C 
BRANCH   7   8
ATOM      8  C   UNL     1      38.167 -20.124 -29.994  1.00  0.00     0.041 C 
ATOM      9  O   UNL     1      38.969 -21.075 -30.197  1.00  0.00    -0.550 OA
ATOM     10  O   UNL     1      37.078 -20.310 -29.153  1.00  0.00    -0.550 OA
ENDBRANCH   7   8
ENDBRANCH   6   7
ENDBRANCH   5   6
ENDBRANCH   4   5
ENDBRANCH   3   4
ENDBRANCH   2   3
ENDBRANCH   1   2
BRANCH   1  11
ATOM     11  C   UNL     1      33.814 -16.400 -27.706  1.00  0.00    -0.031 C 
ATOM     12  C   UNL     1      34.357 -17.601 -27.958  1.00  0.00    -0.027 C 
BRANCH  12  13
ATOM     13  C   UNL     1      33.757 -18.867 -27.418  1.00  0.00     0.054 C 
BRANCH  13  14
ATOM     14  C   UNL     1      32.396 -19.100 -28.012  1.00  0.00    -0.027 C 
ATOM     15  C   UNL     1      31.948 -18.377 -29.048  1.00  0.00    -0.031 C 
BRANCH  15  16
ATOM     16  C   UNL     1      30.578 -18.600 -29.628  1.00  0.00     0.027 C 
BRANCH  16  17
ATOM     17  C   UNL     1      30.534 -19.889 -30.463  1.00  0.00     0.004 C 
BRANCH  17  18
ATOM     18  C   UNL     1      31.911 -20.584 -30.535  1.00  0.00     0.000 C 
BRANCH  18  19
ATOM     19  C   UNL     1      32.861 -19.961 -31.572  1.00  0.00    -0.003 C 
ATOM     20  C   UNL     1      34.293 -19.816 -31.060  1.00  0.00     0.004 C 
ENDBRANCH  18  19
ENDBRANCH  17  18
ENDBRANCH  16  17
ENDBRANCH  15  16
ENDBRANCH  13  14
ENDBRANCH  12  13
ENDBRANCH   1  11
TORSDOF 14
ENDMDL
MODEL 6
REMARK VINA RESULT:     3.209      2.843      6.059
REMARK INTER + INTRA:           5.540
REMARK INTER:                   6.071
REMARK INTRA:                  -0.530
REMARK UNBOUND:                -0.295
REMARK SMILES CCCCCC=CCC=CCCCCCCCC(=O)[O-]
REMARK SMILES IDX 11 1 12 2 13 3 14 4 15 5 16 6 17 7 18 8 19 9 20 10 10 11
REMARK SMILES IDX 9 12 8 13 7 14 6 15 5 16 4 17 3 18 2 19 1 20
REMARK H PARENT
REMARK Flexibility Score: inf
ROOT
ATOM      1  C   UNL     1      36.640 -19.313 -29.681  1.00  0.00     0.027 C 
ENDROOT
BRANCH   1   2
ATOM      2  C   UNL     1      37.747 -18.306 -30.028  1.00  0.00     0.004 C 
BRANCH   2   3
ATOM      3  C   UNL     1      37.271 -17.199 -30.985  1.00  0.00     0.000 C 
BRANCH   3   4
ATOM      4  C   UNL     1      36.650 -17.702 -32.301  1.00  0.00     0.000 C 
BRANCH   4   5
ATOM      5  C   UNL     1      36.128 -16.559 -33.190  1.00  0.00     0.000 C 
BRANCH   5   6
ATOM      6  C   UNL     1      34.660 -16.753 -33.598  1.00  0.00     0.006 C 
BRANCH   6   7
ATOM      7  C   UNL     1      34.179 -15.687 -34.592  1.00  0.00     0.053 C 
BRANCH   7   8
ATOM      8  C   UNL     1      33.120 -16.249 -35.488  1.00  0.00     0.041 C 
ATOM      9  O   UNL     1      32.213 -16.983 -35.014  1.00  0.00    -0.550 OA
ATOM     10  O   UNL     1      33.166 -16.006 -36.854  1.00  0.00    -0.550 OA
ENDBRANCH   7   8
ENDBRANCH   6   7
ENDBRANCH   5   6
ENDBRANCH   4   5
ENDBRANCH   3   4
ENDBRANCH   2   3
ENDBRANCH   1   2
BRANCH   1  11
ATOM     11  C   UNL     1      35.535 -18.656 -28.900  1.00  0.00    -0.031 C 
ATOM     12  C   UNL     1      35.450 -17.321 -28.790  1.00  0.00    -0.027 C 
BRANCH  12  13
ATOM     13  C   UNL     1      34.330 -16.662 -28.038  1.00  0.00     0.054 C 
BRANCH  13  14
ATOM     14  C   UNL     1      33.017 -17.312 -28.371  1.00  0.00    -0.027 C 
ATOM     15  C   UNL     1      32.680 -18.511 -27.872  1.00  0.00    -0.031 C 
BRANCH  15  16
ATOM     16  C   UNL     1      31.373 -19.168 -28.221  1.00  0.00     0.027 C 
BRANCH  16  17
ATOM     17  C   UNL     1      31.118 -19.122 -29.736  1.00  0.00     0.004 C 
BRANCH  17  18
ATOM     18  C   UNL     1      31.703 -20.352 -30.463  1.00  0.00     0.000 C 
BRANCH  18  19
ATOM     19  C   UNL     1      33.212 -20.242 -30.742  1.00  0.00    -0.003 C 
ATOM     20  C   UNL     1      33.525 -19.816 -32.175  1.00  0.00     0.004 C 
ENDBRANCH  18  19
ENDBRANCH  17  18
ENDBRANCH  16  17
ENDBRANCH  15  16
ENDBRANCH  13  14
ENDBRANCH  12  13
ENDBRANCH   1  11
TORSDOF 14
ENDMDL
MODEL 7
REMARK VINA RESULT:     3.345      2.519      5.770
REMARK INTER + INTRA:           5.788
REMARK INTER:                   5.532
REMARK INTRA:                   0.256
REMARK UNBOUND:                -0.295
REMARK SMILES CCCCCC=CCC=CCCCCCCCC(=O)[O-]
REMARK SMILES IDX 11 1 12 2 13 3 14 4 15 5 16 6 17 7 18 8 19 9 20 10 10 11
REMARK SMILES IDX 9 12 8 13 7 14 6 15 5 16 4 17 3 18 2 19 1 20
REMARK H PARENT
REMARK Flexibility Score: inf
ROOT
ATOM      1  C   UNL     1      35.446 -18.418 -28.551  1.00  0.00     0.027 C 
ENDROOT
BRANCH   1   2
ATOM      2  C   UNL     1      35.132 -16.920 -28.421  1.00  0.00     0.004 C 
BRANCH   2   3
ATOM      3  C   UNL     1      35.620 -16.099 -29.629  1.00  0.00     0.000 C 
BRANCH   3   4
ATOM      4  C   UNL     1      36.991 -16.520 -30.188  1.00  0.00     0.000 C 
BRANCH   4   5
ATOM      5  C   UNL     1      36.891 -17.202 -31.564  1.00  0.00     0.000 C 
BRANCH   5   6
ATOM      6  C   UNL     1      37.466 -18.626 -31.560  1.00  0.00     0.006 C 
BRANCH   6   7
ATOM      7  C   UNL     1      38.327 -18.911 -30.323  1.00  0.00     0.053 C 
BRANCH   7   8
ATOM      8  C   UNL     1      38.398 -20.383 -30.064  1.00  0.00     0.041 C 
ATOM      9  O   UNL     1      39.294 -21.080 -30.612  1.00  0.00    -0.550 OA
ATOM     10  O   UNL     1      37.445 -20.994 -29.260  1.00  0.00    -0.550 OA
ENDBRANCH   7   8
ENDBRANCH   6   7
ENDBRANCH   5   6
ENDBRANCH   4   5
ENDBRANCH   3   4
ENDBRANCH   2   3
ENDBRANCH   1   2
BRANCH   1  11
ATOM     11  C   UNL     1      34.409 -19.120 -29.382  1.00  0.00    -0.031 C 
ATOM     12  C   UNL     1      34.651 -19.479 -30.653  1.00  0.00    -0.027 C 
BRANCH  12  13
ATOM     13  C   UNL     1      33.629 -20.209 -31.475  1.00  0.00     0.054 C 
BRANCH  13  14
ATOM     14  C   UNL     1      32.358 -20.393 -30.694  1.00  0.00    -0.027 C 
ATOM     15  C   UNL     1      31.481 -19.391 -30.531  1.00  0.00    -0.031 C 
BRANCH  15  16
ATOM     16  C   UNL     1      30.219 -19.573 -29.733  1.00  0.00     0.027 C 
BRANCH  16  17
ATOM     17  C   UNL     1      30.515 -20.217 -28.370  1.00  0.00     0.004 C 
BRANCH  17  18
ATOM     18  C   UNL     1      31.788 -19.639 -27.716  1.00  0.00     0.000 C 
BRANCH  18  19
ATOM     19  C   UNL     1      31.622 -18.191 -27.223  1.00  0.00    -0.003 C 
ATOM     20  C   UNL     1      32.155 -17.158 -28.214  1.00  0.00     0.004 C 
ENDBRANCH  18  19
ENDBRANCH  17  18
ENDBRANCH  16  17
ENDBRANCH  15  16
ENDBRANCH  13  14
ENDBRANCH  12  13
ENDBRANCH   1  11
TORSDOF 14
ENDMDL
MODEL 8
REMARK VINA RESULT:     3.391      2.171      5.083
REMARK INTER + INTRA:           5.871
REMARK INTER:                   5.790
REMARK INTRA:                   0.081
REMARK UNBOUND:                -0.295
REMARK SMILES CCCCCC=CCC=CCCCCCCCC(=O)[O-]
REMARK SMILES IDX 11 1 12 2 13 3 14 4 15 5 16 6 17 7 18 8 19 9 20 10 10 11
REMARK SMILES IDX 9 12 8 13 7 14 6 15 5 16 4 17 3 18 2 19 1 20
REMARK H PARENT
REMARK Flexibility Score: inf
ROOT
ATOM      1  C   UNL     1      32.325 -20.724 -31.332  1.00  0.00     0.027 C 
ENDROOT
BRANCH   1   2
ATOM      2  C   UNL     1      33.511 -20.149 -32.120  1.00  0.00     0.004 C 
BRANCH   2   3
ATOM      3  C   UNL     1      34.606 -19.563 -31.210  1.00  0.00     0.000 C 
BRANCH   3   4
ATOM      4  C   UNL     1      35.167 -18.202 -31.662  1.00  0.00     0.000 C 
BRANCH   4   5
ATOM      5  C   UNL     1      36.699 -18.204 -31.803  1.00  0.00     0.000 C 
BRANCH   5   6
ATOM      6  C   UNL     1      37.402 -17.547 -30.606  1.00  0.00     0.006 C 
BRANCH   6   7
ATOM      7  C   UNL     1      38.569 -18.389 -30.073  1.00  0.00     0.053 C 
BRANCH   7   8
ATOM      8  C   UNL     1      38.160 -19.822 -29.941  1.00  0.00     0.041 C 
ATOM      9  O   UNL     1      37.102 -20.126 -29.329  1.00  0.00    -0.550 OA
ATOM     10  O   UNL     1      38.975 -20.827 -30.447  1.00  0.00    -0.550 OA
ENDBRANCH   7   8
ENDBRANCH   6   7
ENDBRANCH   5   6
ENDBRANCH   4   5
ENDBRANCH   3   4
ENDBRANCH   2   3
ENDBRANCH   1   2
BRANCH   1  11
ATOM     11  C   UNL     1      32.097 -19.959 -30.058  1.00  0.00    -0.031 C 
ATOM     12  C   UNL     1      31.003 -19.203 -29.878  1.00  0.00    -0.027 C 
BRANCH  12  13
ATOM     13  C   UNL     1      30.757 -18.464 -28.595  1.00  0.00     0.054 C 
BRANCH  13  14
ATOM     14  C   UNL     1      32.055 -18.179 -27.894  1.00  0.00    -0.027 C 
ATOM     15  C   UNL     1      33.215 -18.697 -28.324  1.00  0.00    -0.031 C 
BRANCH  15  16
ATOM     16  C   UNL     1      34.511 -18.424 -27.609  1.00  0.00     0.027 C 
BRANCH  16  17
ATOM     17  C   UNL     1      35.313 -17.324 -28.321  1.00  0.00     0.004 C 
BRANCH  17  18
ATOM     18  C   UNL     1      34.760 -15.914 -28.023  1.00  0.00     0.000 C 
BRANCH  18  19
ATOM     19  C   UNL     1      34.788 -14.973 -29.241  1.00  0.00    -0.003 C 
ATOM     20  C   UNL     1      34.393 -13.539 -28.896  1.00  0.00     0.004 C 
ENDBRANCH  18  19
ENDBRANCH  17  18
ENDBRANCH  16  17
ENDBRANCH  15  16
ENDBRANCH  13  14
ENDBRANCH  12  13
ENDBRANCH   1  11
TORSDOF 14
ENDMDL
MODEL 9
REMARK VINA RESULT:     3.518      2.337      6.073
REMARK INTER + INTRA:           6.102
REMARK INTER:                   6.079
REMARK INTRA:                   0.023
REMARK UNBOUND:                -0.295
REMARK SMILES CCCCCC=CCC=CCCCCCCCC(=O)[O-]
REMARK SMILES IDX 11 1 12 2 13 3 14 4 15 5 16 6 17 7 18 8 19 9 20 10 10 11
REMARK SMILES IDX 9 12 8 13 7 14 6 15 5 16 4 17 3 18 2 19 1 20
REMARK H PARENT
REMARK Flexibility Score: inf
ROOT
ATOM      1  C   UNL     1      37.332 -16.617 -31.060  1.00  0.00     0.027 C 
ENDROOT
BRANCH   1   2
ATOM      2  C   UNL     1      37.033 -18.003 -31.650  1.00  0.00     0.004 C 
BRANCH   2   3
ATOM      3  C   UNL     1      38.045 -19.074 -31.205  1.00  0.00     0.000 C 
BRANCH   3   4
ATOM      4  C   UNL     1      37.735 -19.737 -29.850  1.00  0.00     0.000 C 
BRANCH   4   5
ATOM      5  C   UNL     1      36.554 -19.076 -29.119  1.00  0.00     0.000 C 
BRANCH   5   6
ATOM      6  C   UNL     1      35.222 -19.796 -29.378  1.00  0.00     0.006 C 
BRANCH   6   7
ATOM      7  C   UNL     1      34.364 -19.086 -30.433  1.00  0.00     0.053 C 
BRANCH   7   8
ATOM      8  C   UNL     1      33.688 -20.087 -31.316  1.00  0.00     0.041 C 
ATOM      9  O   UNL     1      33.344 -21.208 -30.856  1.00  0.00    -0.550 OA
ATOM     10  O   UNL     1      33.483 -19.802 -32.660  1.00  0.00    -0.550 OA
ENDBRANCH   7   8
ENDBRANCH   6   7
ENDBRANCH   5   6
ENDBRANCH   4   5
ENDBRANCH   3   4
ENDBRANCH   2   3
ENDBRANCH   1   2
BRANCH   1  11
ATOM     11  C   UNL     1      36.473 -16.343 -29.856  1.00  0.00    -0.031 C 
ATOM     12  C   UNL     1      35.512 -15.407 -29.877  1.00  0.00    -0.027 C 
BRANCH  12  13
ATOM     13  C   UNL     1      34.632 -15.154 -28.687  1.00  0.00     0.054 C 
BRANCH  13  14
ATOM     14  C   UNL     1      34.348 -16.437 -27.959  1.00  0.00    -0.027 C 
ATOM     15  C   UNL     1      33.217 -17.128 -28.168  1.00  0.00    -0.031 C 
BRANCH  15  16
ATOM     16  C   UNL     1      32.927 -18.403 -27.424  1.00  0.00     0.027 C 
BRANCH  16  17
ATOM     17  C   UNL     1      31.458 -18.821 -27.596  1.00  0.00     0.004 C 
BRANCH  17  18
ATOM     18  C   UNL     1      31.305 -20.045 -28.523  1.00  0.00     0.000 C 
BRANCH  18  19
ATOM     19  C   UNL     1      30.679 -19.709 -29.887  1.00  0.00    -0.003 C 
ATOM     20  C   UNL     1      30.681 -18.212 -30.193  1.00  0.00     0.004 C 
ENDBRANCH  18  19
ENDBRANCH  17  18
ENDBRANCH  16  17
ENDBRANCH  15  16
ENDBRANCH  13  14
ENDBRANCH  12  13
ENDBRANCH   1  11
TORSDOF 14
ENDMDL
