MODEL 1
REMARK VINA RESULT:    -3.868      0.000      0.000
REMARK INTER + INTRA:          -4.912
REMARK INTER:                  -4.773
REMARK INTRA:                  -0.139
REMARK UNBOUND:                -0.139
REMARK SMILES CCCCCC(=O)[O-]
REMARK SMILES IDX 4 1 5 2 6 3 7 4 8 5 3 6 2 7 1 8
REMARK H PARENT
REMARK Flexibility Score: inf
ROOT
ATOM      1  C   UNL     1     -27.856 -11.417  17.829  1.00  0.00     0.006 C 
ENDROOT
BRANCH   1   2
ATOM      2  C   UNL     1     -29.228 -11.240  17.165  1.00  0.00     0.053 C 
BRANCH   2   3
ATOM      3  C   UNL     1     -29.932 -12.550  16.984  1.00  0.00     0.041 C 
ATOM      4  O   UNL     1     -29.677 -13.272  15.984  1.00  0.00    -0.550 OA
ATOM      5  O   UNL     1     -30.842 -12.990  17.937  1.00  0.00    -0.550 OA
ENDBRANCH   2   3
ENDBRANCH   1   2
BRANCH   1   6
ATOM      6  C   UNL     1     -26.715 -11.467  16.797  1.00  0.00     0.000 C 
BRANCH   6   7
ATOM      7  C   UNL     1     -25.514 -12.289  17.288  1.00  0.00    -0.003 C 
ATOM      8  C   UNL     1     -25.922 -13.637  17.878  1.00  0.00     0.004 C 
ENDBRANCH   6   7
ENDBRANCH   1   6
TORSDOF 4
ENDMDL
MODEL 2
REMARK VINA RESULT:    -3.812      0.456      1.155
REMARK INTER + INTRA:          -4.842
REMARK INTER:                  -4.656
REMARK INTRA:                  -0.186
REMARK UNBOUND:                -0.139
REMARK SMILES CCCCCC(=O)[O-]
REMARK SMILES IDX 4 1 5 2 6 3 7 4 8 5 3 6 2 7 1 8
REMARK H PARENT
REMARK Flexibility Score: inf
ROOT
ATOM      1  C   UNL     1     -27.828 -11.431  17.828  1.00  0.00     0.006 C 
ENDROOT
BRANCH   1   2
ATOM      2  C   UNL     1     -29.252 -11.461  17.257  1.00  0.00     0.053 C 
BRANCH   2   3
ATOM      3  C   UNL     1     -29.866 -12.823  17.364  1.00  0.00     0.041 C 
ATOM      4  O   UNL     1     -30.982 -12.972  17.929  1.00  0.00    -0.550 OA
ATOM      5  O   UNL     1     -29.224 -13.923  16.808  1.00  0.00    -0.550 OA
ENDBRANCH   2   3
ENDBRANCH   1   2
BRANCH   1   6
ATOM      6  C   UNL     1     -26.759 -11.445  16.721  1.00  0.00     0.000 C 
BRANCH   6   7
ATOM      7  C   UNL     1     -25.530 -12.285  17.099  1.00  0.00    -0.003 C 
ATOM      8  C   UNL     1     -25.894 -13.540  17.890  1.00  0.00     0.004 C 
ENDBRANCH   6   7
ENDBRANCH   1   6
TORSDOF 4
ENDMDL
MODEL 3
REMARK VINA RESULT:    -3.677      1.009      1.683
REMARK INTER + INTRA:          -4.676
REMARK INTER:                  -4.505
REMARK INTRA:                  -0.172
REMARK UNBOUND:                -0.139
REMARK SMILES CCCCCC(=O)[O-]
REMARK SMILES IDX 4 1 5 2 6 3 7 4 8 5 3 6 2 7 1 8
REMARK H PARENT
REMARK Flexibility Score: inf
ROOT
ATOM      1  C   UNL     1     -29.163 -10.963  17.479  1.00  0.00     0.006 C 
ENDROOT
BRANCH   1   2
ATOM      2  C   UNL     1     -29.604 -12.163  16.630  1.00  0.00     0.053 C 
BRANCH   2   3
ATOM      3  C   UNL     1     -30.028 -13.320  17.481  1.00  0.00     0.041 C 
ATOM      4  O   UNL     1     -31.165 -13.326  18.022  1.00  0.00    -0.550 OA
ATOM      5  O   UNL     1     -29.182 -14.410  17.647  1.00  0.00    -0.550 OA
ENDBRANCH   2   3
ENDBRANCH   1   2
BRANCH   1   6
ATOM      6  C   UNL     1     -27.644 -10.954  17.725  1.00  0.00     0.000 C 
BRANCH   6   7
ATOM      7  C   UNL     1     -26.864 -11.678  16.617  1.00  0.00    -0.003 C 
ATOM      8  C   UNL     1     -25.539 -12.257  17.109  1.00  0.00     0.004 C 
ENDBRANCH   6   7
ENDBRANCH   1   6
TORSDOF 4
ENDMDL
MODEL 4
REMARK VINA RESULT:    -3.590      0.956      1.479
REMARK INTER + INTRA:          -4.569
REMARK INTER:                  -4.460
REMARK INTRA:                  -0.109
REMARK UNBOUND:                -0.139
REMARK SMILES CCCCCC(=O)[O-]
REMARK SMILES IDX 4 1 5 2 6 3 7 4 8 5 3 6 2 7 1 8
REMARK H PARENT
REMARK Flexibility Score: inf
ROOT
ATOM      1  C   UNL     1     -29.240 -11.433  17.313  1.00  0.00     0.006 C 
ENDROOT
BRANCH   1   2
ATOM      2  C   UNL     1     -29.394 -12.790  16.612  1.00  0.00     0.053 C 
BRANCH   2   3
ATOM      3  C   UNL     1     -30.737 -13.401  16.872  1.00  0.00     0.041 C 
ATOM      4  O   UNL     1     -31.316 -14.063  15.971  1.00  0.00    -0.550 OA
ATOM      5  O   UNL     1     -31.332 -13.269  18.120  1.00  0.00    -0.550 OA
ENDBRANCH   2   3
ENDBRANCH   1   2
BRANCH   1   6
ATOM      6  C   UNL     1     -27.786 -11.162  17.739  1.00  0.00     0.000 C 
BRANCH   6   7
ATOM      7  C   UNL     1     -26.770 -11.583  16.667  1.00  0.00    -0.003 C 
ATOM      8  C   UNL     1     -25.462 -12.099  17.263  1.00  0.00     0.004 C 
ENDBRANCH   6   7
ENDBRANCH   1   6
TORSDOF 4
ENDMDL
MODEL 5
REMARK VINA RESULT:    -3.555      1.204      2.087
REMARK INTER + INTRA:          -4.526
REMARK INTER:                  -4.357
REMARK INTRA:                  -0.169
REMARK UNBOUND:                -0.139
REMARK SMILES CCCCCC(=O)[O-]
REMARK SMILES IDX 4 1 5 2 6 3 7 4 8 5 3 6 2 7 1 8
REMARK H PARENT
REMARK Flexibility Score: inf
ROOT
ATOM      1  C   UNL     1     -27.347 -13.365  18.125  1.00  0.00     0.006 C 
ENDROOT
BRANCH   1   2
ATOM      2  C   UNL     1     -28.562 -13.942  17.386  1.00  0.00     0.053 C 
BRANCH   2   3
ATOM      3  C   UNL     1     -29.674 -12.943  17.281  1.00  0.00     0.041 C 
ATOM      4  O   UNL     1     -30.792 -13.182  17.810  1.00  0.00    -0.550 OA
ATOM      5  O   UNL     1     -29.465 -11.734  16.630  1.00  0.00    -0.550 OA
ENDBRANCH   2   3
ENDBRANCH   1   2
BRANCH   1   6
ATOM      6  C   UNL     1     -26.035 -13.606  17.359  1.00  0.00     0.000 C 
BRANCH   6   7
ATOM      7  C   UNL     1     -25.160 -12.346  17.280  1.00  0.00    -0.003 C 
ATOM      8  C   UNL     1     -25.964 -11.086  16.967  1.00  0.00     0.004 C 
ENDBRANCH   6   7
ENDBRANCH   1   6
TORSDOF 4
ENDMDL
MODEL 6
REMARK VINA RESULT:    -3.531      1.449      2.112
REMARK INTER + INTRA:          -4.495
REMARK INTER:                  -4.314
REMARK INTRA:                  -0.181
REMARK UNBOUND:                -0.139
REMARK SMILES CCCCCC(=O)[O-]
REMARK SMILES IDX 4 1 5 2 6 3 7 4 8 5 3 6 2 7 1 8
REMARK H PARENT
REMARK Flexibility Score: inf
ROOT
ATOM      1  C   UNL     1     -27.385 -13.310  18.109  1.00  0.00     0.006 C 
ENDROOT
BRANCH   1   2
ATOM      2  C   UNL     1     -28.473 -14.191  17.481  1.00  0.00     0.053 C 
BRANCH   2   3
ATOM      3  C   UNL     1     -29.380 -13.402  16.587  1.00  0.00     0.041 C 
ATOM      4  O   UNL     1     -29.347 -12.143  16.603  1.00  0.00    -0.550 OA
ATOM      5  O   UNL     1     -30.237 -14.057  15.712  1.00  0.00    -0.550 OA
ENDBRANCH   2   3
ENDBRANCH   1   2
BRANCH   1   6
ATOM      6  C   UNL     1     -25.999 -13.573  17.494  1.00  0.00     0.000 C 
BRANCH   6   7
ATOM      7  C   UNL     1     -25.162 -12.293  17.358  1.00  0.00    -0.003 C 
ATOM      8  C   UNL     1     -25.984 -11.097  16.881  1.00  0.00     0.004 C 
ENDBRANCH   6   7
ENDBRANCH   1   6
TORSDOF 4
ENDMDL
MODEL 7
REMARK VINA RESULT:    -3.484      2.445      3.869
REMARK INTER + INTRA:          -4.438
REMARK INTER:                  -4.263
REMARK INTRA:                  -0.174
REMARK UNBOUND:                -0.139
REMARK SMILES CCCCCC(=O)[O-]
REMARK SMILES IDX 4 1 5 2 6 3 7 4 8 5 3 6 2 7 1 8
REMARK H PARENT
REMARK Flexibility Score: inf
ROOT
ATOM      1  C   UNL     1     -27.983 -11.430  17.736  1.00  0.00     0.006 C 
ENDROOT
BRANCH   1   2
ATOM      2  C   UNL     1     -26.813 -11.484  16.744  1.00  0.00     0.053 C 
BRANCH   2   3
ATOM      3  C   UNL     1     -25.759 -12.456  17.178  1.00  0.00     0.041 C 
ATOM      4  O   UNL     1     -24.570 -12.073  17.337  1.00  0.00    -0.550 OA
ATOM      5  O   UNL     1     -26.097 -13.778  17.443  1.00  0.00    -0.550 OA
ENDBRANCH   2   3
ENDBRANCH   1   2
BRANCH   1   6
ATOM      6  C   UNL     1     -29.345 -11.568  17.033  1.00  0.00     0.000 C 
BRANCH   6   7
ATOM      7  C   UNL     1     -30.178 -12.733  17.588  1.00  0.00    -0.003 C 
ATOM      8  C   UNL     1     -29.633 -14.099  17.175  1.00  0.00     0.004 C 
ENDBRANCH   6   7
ENDBRANCH   1   6
TORSDOF 4
ENDMDL
MODEL 8
REMARK VINA RESULT:    -3.363      2.074      2.773
REMARK INTER + INTRA:          -4.288
REMARK INTER:                  -4.199
REMARK INTRA:                  -0.089
REMARK UNBOUND:                -0.139
REMARK SMILES CCCCCC(=O)[O-]
REMARK SMILES IDX 4 1 5 2 6 3 7 4 8 5 3 6 2 7 1 8
REMARK H PARENT
REMARK Flexibility Score: inf
ROOT
ATOM      1  C   UNL     1     -27.237 -13.316  18.055  1.00  0.00     0.006 C 
ENDROOT
BRANCH   1   2
ATOM      2  C   UNL     1     -27.057 -11.937  17.409  1.00  0.00     0.053 C 
BRANCH   2   3
ATOM      3  C   UNL     1     -28.322 -11.135  17.446  1.00  0.00     0.041 C 
ATOM      4  O   UNL     1     -28.274  -9.876  17.449  1.00  0.00    -0.550 OA
ATOM      5  O   UNL     1     -29.554 -11.777  17.441  1.00  0.00    -0.550 OA
ENDBRANCH   2   3
ENDBRANCH   1   2
BRANCH   1   6
ATOM      6  C   UNL     1     -25.927 -14.124  18.074  1.00  0.00     0.000 C 
BRANCH   6   7
ATOM      7  C   UNL     1     -26.081 -15.510  17.430  1.00  0.00    -0.003 C 
ATOM      8  C   UNL     1     -27.529 -15.995  17.409  1.00  0.00     0.004 C 
ENDBRANCH   6   7
ENDBRANCH   1   6
TORSDOF 4
ENDMDL
MODEL 9
REMARK VINA RESULT:    -3.197      2.553      3.958
REMARK INTER + INTRA:          -4.083
REMARK INTER:                  -3.978
REMARK INTRA:                  -0.105
REMARK UNBOUND:                -0.139
REMARK SMILES CCCCCC(=O)[O-]
REMARK SMILES IDX 4 1 5 2 6 3 7 4 8 5 3 6 2 7 1 8
REMARK H PARENT
REMARK Flexibility Score: inf
ROOT
ATOM      1  C   UNL     1     -29.639 -12.035  16.842  1.00  0.00     0.006 C 
ENDROOT
BRANCH   1   2
ATOM      2  C   UNL     1     -28.170 -12.404  17.085  1.00  0.00     0.053 C 
BRANCH   2   3
ATOM      3  C   UNL     1     -27.281 -11.198  17.055  1.00  0.00     0.041 C 
ATOM      4  O   UNL     1     -26.070 -11.312  16.727  1.00  0.00    -0.550 OA
ATOM      5  O   UNL     1     -27.798  -9.944  17.354  1.00  0.00    -0.550 OA
ENDBRANCH   2   3
ENDBRANCH   1   2
BRANCH   1   6
ATOM      6  C   UNL     1     -30.554 -13.273  16.831  1.00  0.00     0.000 C 
BRANCH   6   7
ATOM      7  C   UNL     1     -29.832 -14.534  16.333  1.00  0.00    -0.003 C 
ATOM      8  C   UNL     1     -30.448 -15.104  15.058  1.00  0.00     0.004 C 
ENDBRANCH   6   7
ENDBRANCH   1   6
TORSDOF 4
ENDMDL
