MODEL 1
REMARK VINA RESULT:    -5.211      0.000      0.000
REMARK INTER + INTRA:          -5.211
REMARK INTER:                  -5.211
REMARK INTRA:                   0.000
REMARK UNBOUND:                 0.000
REMARK SMILES CC(C)=C1CC[C@H](C)CC1=O
REMARK SMILES IDX 8 1 7 2 6 3 5 4 4 5 2 6 1 7 3 8 10 9 11 10 9 11
REMARK H PARENT
REMARK Flexibility Score: inf
ROOT
ATOM      1  C   UNL     1     -13.032  -7.474 -18.032  1.00  0.00     0.008 C 
ATOM      2  C   UNL     1     -11.802  -7.341 -17.126  1.00  0.00    -0.006 C 
ATOM      3  C   UNL     1     -12.057  -8.009 -15.766  1.00  0.00     0.008 C 
ATOM      4  C   UNL     1     -10.876  -7.798 -14.810  1.00  0.00     0.039 C 
ATOM      5  C   UNL     1      -9.546  -8.212 -15.425  1.00  0.00    -0.006 C 
ATOM      6  C   UNL     1      -8.535  -8.715 -14.657  1.00  0.00    -0.070 C 
ATOM      7  C   UNL     1      -8.687  -8.863 -13.160  1.00  0.00     0.039 C 
ATOM      8  C   UNL     1      -7.232  -9.183 -15.262  1.00  0.00     0.039 C 
ATOM      9  C   UNL     1      -9.380  -7.930 -16.882  1.00  0.00     0.159 C 
ATOM     10  O   UNL     1      -8.253  -7.648 -17.370  1.00  0.00    -0.295 OA
ATOM     11  C   UNL     1     -10.571  -7.968 -17.796  1.00  0.00     0.084 C 
ENDROOT
TORSDOF 0
ENDMDL
MODEL 2
REMARK VINA RESULT:    -4.775      1.177      3.997
REMARK INTER + INTRA:          -4.775
REMARK INTER:                  -4.775
REMARK INTRA:                   0.000
REMARK UNBOUND:                 0.000
REMARK SMILES CC(C)=C1CC[C@H](C)CC1=O
REMARK SMILES IDX 8 1 7 2 6 3 5 4 4 5 2 6 1 7 3 8 10 9 11 10 9 11
REMARK H PARENT
REMARK Flexibility Score: inf
ROOT
ATOM      1  C   UNL     1      -8.380  -8.698 -12.527  1.00  0.00     0.008 C 
ATOM      2  C   UNL     1      -9.096  -8.845 -13.875  1.00  0.00    -0.006 C 
ATOM      3  C   UNL     1      -9.996  -7.630 -14.144  1.00  0.00     0.008 C 
ATOM      4  C   UNL     1     -10.798  -7.806 -15.440  1.00  0.00     0.039 C 
ATOM      5  C   UNL     1      -9.915  -8.154 -16.631  1.00  0.00    -0.006 C 
ATOM      6  C   UNL     1     -10.234  -7.747 -17.895  1.00  0.00    -0.070 C 
ATOM      7  C   UNL     1     -11.489  -6.950 -18.167  1.00  0.00     0.039 C 
ATOM      8  C   UNL     1      -9.337  -8.037 -19.075  1.00  0.00     0.039 C 
ATOM      9  C   UNL     1      -8.756  -9.053 -16.347  1.00  0.00     0.159 C 
ATOM     10  O   UNL     1      -8.336  -9.870 -17.210  1.00  0.00    -0.295 OA
ATOM     11  C   UNL     1      -8.074  -9.003 -15.011  1.00  0.00     0.084 C 
ENDROOT
TORSDOF 0
ENDMDL
MODEL 3
REMARK VINA RESULT:    -4.727      2.168      2.797
REMARK INTER + INTRA:          -4.727
REMARK INTER:                  -4.727
REMARK INTRA:                   0.000
REMARK UNBOUND:                 0.000
REMARK SMILES CC(C)=C1CC[C@H](C)CC1=O
REMARK SMILES IDX 8 1 7 2 6 3 5 4 4 5 2 6 1 7 3 8 10 9 11 10 9 11
REMARK H PARENT
REMARK Flexibility Score: inf
ROOT
ATOM      1  C   UNL     1     -12.994  -8.031 -15.205  1.00  0.00     0.008 C 
ATOM      2  C   UNL     1     -11.661  -8.608 -15.694  1.00  0.00    -0.006 C 
ATOM      3  C   UNL     1     -10.482  -7.807 -15.120  1.00  0.00     0.008 C 
ATOM      4  C   UNL     1      -9.144  -8.306 -15.680  1.00  0.00     0.039 C 
ATOM      5  C   UNL     1      -8.965  -9.809 -15.514  1.00  0.00    -0.006 C 
ATOM      6  C   UNL     1      -7.730 -10.362 -15.326  1.00  0.00    -0.070 C 
ATOM      7  C   UNL     1      -6.486  -9.504 -15.292  1.00  0.00     0.039 C 
ATOM      8  C   UNL     1      -7.547 -11.845 -15.103  1.00  0.00     0.039 C 
ATOM      9  C   UNL     1     -10.196 -10.639 -15.685  1.00  0.00     0.159 C 
ATOM     10  O   UNL     1     -10.139 -11.804 -16.161  1.00  0.00    -0.295 OA
ATOM     11  C   UNL     1     -11.536 -10.086 -15.294  1.00  0.00     0.084 C 
ENDROOT
TORSDOF 0
ENDMDL
MODEL 4
REMARK VINA RESULT:    -4.658      1.292      1.750
REMARK INTER + INTRA:          -4.658
REMARK INTER:                  -4.658
REMARK INTRA:                   0.000
REMARK UNBOUND:                 0.000
REMARK SMILES CC(C)=C1CC[C@H](C)CC1=O
REMARK SMILES IDX 8 1 7 2 6 3 5 4 4 5 2 6 1 7 3 8 10 9 11 10 9 11
REMARK H PARENT
REMARK Flexibility Score: inf
ROOT
ATOM      1  C   UNL     1     -15.036  -7.578 -17.267  1.00  0.00     0.008 C 
ATOM      2  C   UNL     1     -13.612  -7.286 -16.779  1.00  0.00    -0.006 C 
ATOM      3  C   UNL     1     -13.315  -8.058 -15.484  1.00  0.00     0.008 C 
ATOM      4  C   UNL     1     -11.932  -7.700 -14.926  1.00  0.00     0.039 C 
ATOM      5  C   UNL     1     -10.826  -7.849 -15.963  1.00  0.00    -0.006 C 
ATOM      6  C   UNL     1      -9.560  -8.212 -15.603  1.00  0.00    -0.070 C 
ATOM      7  C   UNL     1      -9.197  -8.463 -14.157  1.00  0.00     0.039 C 
ATOM      8  C   UNL     1      -8.470  -8.419 -16.629  1.00  0.00     0.039 C 
ATOM      9  C   UNL     1     -11.184  -7.466 -17.362  1.00  0.00     0.159 C 
ATOM     10  O   UNL     1     -10.328  -6.972 -18.143  1.00  0.00    -0.295 OA
ATOM     11  C   UNL     1     -12.587  -7.659 -17.860  1.00  0.00     0.084 C 
ENDROOT
TORSDOF 0
ENDMDL
MODEL 5
REMARK VINA RESULT:    -4.530      2.936      4.196
REMARK INTER + INTRA:          -4.530
REMARK INTER:                  -4.530
REMARK INTRA:                   0.000
REMARK UNBOUND:                 0.000
REMARK SMILES CC(C)=C1CC[C@H](C)CC1=O
REMARK SMILES IDX 8 1 7 2 6 3 5 4 4 5 2 6 1 7 3 8 10 9 11 10 9 11
REMARK H PARENT
REMARK Flexibility Score: inf
ROOT
ATOM      1  C   UNL     1     -10.343  -7.633 -14.588  1.00  0.00     0.008 C 
ATOM      2  C   UNL     1      -9.548  -8.818 -15.150  1.00  0.00    -0.006 C 
ATOM      3  C   UNL     1      -8.196  -8.951 -14.433  1.00  0.00     0.008 C 
ATOM      4  C   UNL     1      -7.344 -10.067 -15.051  1.00  0.00     0.039 C 
ATOM      5  C   UNL     1      -8.091 -11.391 -15.140  1.00  0.00    -0.006 C 
ATOM      6  C   UNL     1      -7.437 -12.585 -15.031  1.00  0.00    -0.070 C 
ATOM      7  C   UNL     1      -5.939 -12.642 -14.836  1.00  0.00     0.039 C 
ATOM      8  C   UNL     1      -8.175 -13.903 -15.061  1.00  0.00     0.039 C 
ATOM      9  C   UNL     1      -9.547 -11.302 -15.466  1.00  0.00     0.159 C 
ATOM     10  O   UNL     1     -10.124 -12.202 -16.131  1.00  0.00    -0.295 OA
ATOM     11  C   UNL     1     -10.350 -10.120 -15.006  1.00  0.00     0.084 C 
ENDROOT
TORSDOF 0
ENDMDL
MODEL 6
REMARK VINA RESULT:    -4.527      1.488      4.465
REMARK INTER + INTRA:          -4.527
REMARK INTER:                  -4.527
REMARK INTRA:                   0.000
REMARK UNBOUND:                 0.000
REMARK SMILES CC(C)=C1CC[C@H](C)CC1=O
REMARK SMILES IDX 8 1 7 2 6 3 5 4 4 5 2 6 1 7 3 8 10 9 11 10 9 11
REMARK H PARENT
REMARK Flexibility Score: inf
ROOT
ATOM      1  C   UNL     1      -6.257  -9.697 -15.739  1.00  0.00     0.008 C 
ATOM      2  C   UNL     1      -7.487  -8.799 -15.915  1.00  0.00    -0.006 C 
ATOM      3  C   UNL     1      -8.304  -9.233 -17.141  1.00  0.00     0.008 C 
ATOM      4  C   UNL     1      -9.482  -8.283 -17.392  1.00  0.00     0.039 C 
ATOM      5  C   UNL     1     -10.347  -8.086 -16.154  1.00  0.00    -0.006 C 
ATOM      6  C   UNL     1     -11.690  -7.860 -16.254  1.00  0.00    -0.070 C 
ATOM      7  C   UNL     1     -12.372  -7.778 -17.601  1.00  0.00     0.039 C 
ATOM      8  C   UNL     1     -12.567  -7.719 -15.032  1.00  0.00     0.039 C 
ATOM      9  C   UNL     1      -9.622  -8.040 -14.848  1.00  0.00     0.159 C 
ATOM     10  O   UNL     1     -10.039  -7.332 -13.893  1.00  0.00    -0.295 OA
ATOM     11  C   UNL     1      -8.367  -8.841 -14.656  1.00  0.00     0.084 C 
ENDROOT
TORSDOF 0
ENDMDL
MODEL 7
REMARK VINA RESULT:    -4.343      1.338      2.403
REMARK INTER + INTRA:          -4.343
REMARK INTER:                  -4.343
REMARK INTRA:                   0.000
REMARK UNBOUND:                 0.000
REMARK SMILES CC(C)=C1CC[C@H](C)CC1=O
REMARK SMILES IDX 8 1 7 2 6 3 5 4 4 5 2 6 1 7 3 8 10 9 11 10 9 11
REMARK H PARENT
REMARK Flexibility Score: inf
ROOT
ATOM      1  C   UNL     1     -12.208  -8.267 -15.317  1.00  0.00     0.008 C 
ATOM      2  C   UNL     1     -10.691  -8.052 -15.369  1.00  0.00    -0.006 C 
ATOM      3  C   UNL     1      -9.953  -9.247 -14.745  1.00  0.00     0.008 C 
ATOM      4  C   UNL     1      -8.440  -9.004 -14.695  1.00  0.00     0.039 C 
ATOM      5  C   UNL     1      -7.867  -8.606 -16.049  1.00  0.00    -0.006 C 
ATOM      6  C   UNL     1      -6.596  -8.950 -16.412  1.00  0.00    -0.070 C 
ATOM      7  C   UNL     1      -5.697  -9.725 -15.476  1.00  0.00     0.039 C 
ATOM      8  C   UNL     1      -6.037  -8.610 -17.774  1.00  0.00     0.039 C 
ATOM      9  C   UNL     1      -8.732  -7.729 -16.894  1.00  0.00     0.159 C 
ATOM     10  O   UNL     1      -8.232  -6.875 -17.675  1.00  0.00    -0.295 OA
ATOM     11  C   UNL     1     -10.226  -7.847 -16.818  1.00  0.00     0.084 C 
ENDROOT
TORSDOF 0
ENDMDL
MODEL 8
REMARK VINA RESULT:    -4.250      1.979      4.038
REMARK INTER + INTRA:          -4.250
REMARK INTER:                  -4.250
REMARK INTRA:                   0.000
REMARK UNBOUND:                 0.000
REMARK SMILES CC(C)=C1CC[C@H](C)CC1=O
REMARK SMILES IDX 8 1 7 2 6 3 5 4 4 5 2 6 1 7 3 8 10 9 11 10 9 11
REMARK H PARENT
REMARK Flexibility Score: inf
ROOT
ATOM      1  C   UNL     1      -5.388  -8.953 -18.829  1.00  0.00     0.008 C 
ATOM      2  C   UNL     1      -6.469  -9.249 -17.783  1.00  0.00    -0.006 C 
ATOM      3  C   UNL     1      -5.908  -9.084 -16.362  1.00  0.00     0.008 C 
ATOM      4  C   UNL     1      -6.946  -9.476 -15.304  1.00  0.00     0.039 C 
ATOM      5  C   UNL     1      -8.275  -8.757 -15.494  1.00  0.00    -0.006 C 
ATOM      6  C   UNL     1      -9.066  -8.432 -14.429  1.00  0.00    -0.070 C 
ATOM      7  C   UNL     1      -8.664  -8.791 -13.017  1.00  0.00     0.039 C 
ATOM      8  C   UNL     1     -10.359  -7.668 -14.601  1.00  0.00     0.039 C 
ATOM      9  C   UNL     1      -8.704  -8.536 -16.908  1.00  0.00     0.159 C 
ATOM     10  O   UNL     1      -9.923  -8.532 -17.228  1.00  0.00    -0.295 OA
ATOM     11  C   UNL     1      -7.677  -8.321 -17.982  1.00  0.00     0.084 C 
ENDROOT
TORSDOF 0
ENDMDL
