MODEL 1
REMARK VINA RESULT:    -4.728      0.000      0.000
REMARK INTER + INTRA:          -7.267
REMARK INTER:                  -6.939
REMARK INTRA:                  -0.328
REMARK UNBOUND:                -0.328
REMARK SMILES O=C([O-])CCCCCCCC(=O)[O-]
REMARK SMILES IDX 7 1 6 2 5 3 4 4 2 5 1 6 3 7 8 8 9 9 10 10 11 11 12 12 13 13
REMARK H PARENT
REMARK Flexibility Score: inf
ROOT
ATOM      1  C   UNL     1       5.262 -36.771  21.477  1.00  0.00     0.000 C 
ENDROOT
BRANCH   1   2
ATOM      2  C   UNL     1       6.017 -35.873  22.468  1.00  0.00     0.000 C 
BRANCH   2   3
ATOM      3  C   UNL     1       5.455 -35.960  23.895  1.00  0.00     0.006 C 
BRANCH   3   4
ATOM      4  C   UNL     1       6.084 -37.128  24.660  1.00  0.00     0.053 C 
BRANCH   4   5
ATOM      5  C   UNL     1       5.071 -38.203  24.902  1.00  0.00     0.041 C 
ATOM      6  O   UNL     1       4.321 -38.152  25.911  1.00  0.00    -0.550 OA
ATOM      7  O   UNL     1       4.923 -39.235  23.985  1.00  0.00    -0.550 OA
ENDBRANCH   4   5
ENDBRANCH   3   4
ENDBRANCH   2   3
ENDBRANCH   1   2
BRANCH   1   8
ATOM      8  C   UNL     1       5.498 -36.367  20.013  1.00  0.00     0.000 C 
BRANCH   8   9
ATOM      9  C   UNL     1       4.233 -36.589  19.171  1.00  0.00     0.006 C 
BRANCH   9  10
ATOM     10  C   UNL     1       3.538 -37.915  19.505  1.00  0.00     0.053 C 
BRANCH  10  11
ATOM     11  C   UNL     1       2.389 -38.187  18.583  1.00  0.00     0.041 C 
ATOM     12  O   UNL     1       2.496 -37.956  17.350  1.00  0.00    -0.550 OA
ATOM     13  O   UNL     1       1.187 -38.665  19.092  1.00  0.00    -0.550 OA
ENDBRANCH  10  11
ENDBRANCH   9  10
ENDBRANCH   8   9
ENDBRANCH   1   8
TORSDOF 8
ENDMDL
MODEL 2
REMARK VINA RESULT:    -4.726      1.684      6.824
REMARK INTER + INTRA:          -7.265
REMARK INTER:                  -7.003
REMARK INTRA:                  -0.262
REMARK UNBOUND:                -0.328
REMARK SMILES O=C([O-])CCCCCCCC(=O)[O-]
REMARK SMILES IDX 7 1 6 2 5 3 4 4 2 5 1 6 3 7 8 8 9 9 10 10 11 11 12 12 13 13
REMARK H PARENT
REMARK Flexibility Score: inf
ROOT
ATOM      1  C   UNL     1       4.298 -36.425  19.555  1.00  0.00     0.000 C 
ENDROOT
BRANCH   1   2
ATOM      2  C   UNL     1       3.927 -37.854  19.132  1.00  0.00     0.000 C 
BRANCH   2   3
ATOM      3  C   UNL     1       2.822 -37.890  18.065  1.00  0.00     0.006 C 
BRANCH   3   4
ATOM      4  C   UNL     1       3.147 -36.938  16.910  1.00  0.00     0.053 C 
BRANCH   4   5
ATOM      5  C   UNL     1       2.749 -37.547  15.602  1.00  0.00     0.041 C 
ATOM      6  O   UNL     1       1.742 -37.115  14.982  1.00  0.00    -0.550 OA
ATOM      7  O   UNL     1       3.520 -38.558  15.043  1.00  0.00    -0.550 OA
ENDBRANCH   4   5
ENDBRANCH   3   4
ENDBRANCH   2   3
ENDBRANCH   1   2
BRANCH   1   8
ATOM      8  C   UNL     1       5.292 -36.393  20.726  1.00  0.00     0.000 C 
BRANCH   8   9
ATOM      9  C   UNL     1       5.004 -37.525  21.722  1.00  0.00     0.006 C 
BRANCH   9  10
ATOM     10  C   UNL     1       5.421 -37.162  23.153  1.00  0.00     0.053 C 
BRANCH  10  11
ATOM     11  C   UNL     1       4.983 -38.201  24.140  1.00  0.00     0.041 C 
ATOM     12  O   UNL     1       4.815 -39.393  23.773  1.00  0.00    -0.550 OA
ATOM     13  O   UNL     1       4.730 -37.843  25.458  1.00  0.00    -0.550 OA
ENDBRANCH  10  11
ENDBRANCH   9  10
ENDBRANCH   8   9
ENDBRANCH   1   8
TORSDOF 8
ENDMDL
MODEL 3
REMARK VINA RESULT:    -4.716      1.352      2.011
REMARK INTER + INTRA:          -7.250
REMARK INTER:                  -6.875
REMARK INTRA:                  -0.375
REMARK UNBOUND:                -0.328
REMARK SMILES O=C([O-])CCCCCCCC(=O)[O-]
REMARK SMILES IDX 7 1 6 2 5 3 4 4 2 5 1 6 3 7 8 8 9 9 10 10 11 11 12 12 13 13
REMARK H PARENT
REMARK Flexibility Score: inf
ROOT
ATOM      1  C   UNL     1       4.857 -36.506  19.916  1.00  0.00     0.000 C 
ENDROOT
BRANCH   1   2
ATOM      2  C   UNL     1       5.781 -36.245  21.116  1.00  0.00     0.000 C 
BRANCH   2   3
ATOM      3  C   UNL     1       5.012 -36.112  22.439  1.00  0.00     0.006 C 
BRANCH   3   4
ATOM      4  C   UNL     1       5.800 -36.734  23.595  1.00  0.00     0.053 C 
BRANCH   4   5
ATOM      5  C   UNL     1       5.061 -37.903  24.164  1.00  0.00     0.041 C 
ATOM      6  O   UNL     1       4.842 -38.921  23.456  1.00  0.00    -0.550 OA
ATOM      7  O   UNL     1       4.657 -37.890  25.493  1.00  0.00    -0.550 OA
ENDBRANCH   4   5
ENDBRANCH   3   4
ENDBRANCH   2   3
ENDBRANCH   1   2
BRANCH   1   8
ATOM      8  C   UNL     1       4.111 -37.845  20.023  1.00  0.00     0.000 C 
BRANCH   8   9
ATOM      9  C   UNL     1       3.133 -38.023  18.853  1.00  0.00     0.006 C 
BRANCH   9  10
ATOM     10  C   UNL     1       3.433 -37.064  17.693  1.00  0.00     0.053 C 
BRANCH  10  11
ATOM     11  C   UNL     1       2.676 -37.436  16.455  1.00  0.00     0.041 C 
ATOM     12  O   UNL     1       3.110 -38.340  15.694  1.00  0.00    -0.550 OA
ATOM     13  O   UNL     1       1.508 -36.760  16.125  1.00  0.00    -0.550 OA
ENDBRANCH  10  11
ENDBRANCH   9  10
ENDBRANCH   8   9
ENDBRANCH   1   8
TORSDOF 8
ENDMDL
MODEL 4
REMARK VINA RESULT:    -4.696      1.676      2.311
REMARK INTER + INTRA:          -7.221
REMARK INTER:                  -6.959
REMARK INTRA:                  -0.262
REMARK UNBOUND:                -0.328
REMARK SMILES O=C([O-])CCCCCCCC(=O)[O-]
REMARK SMILES IDX 7 1 6 2 5 3 4 4 2 5 1 6 3 7 8 8 9 9 10 10 11 11 12 12 13 13
REMARK H PARENT
REMARK Flexibility Score: inf
ROOT
ATOM      1  C   UNL     1       4.499 -36.446  20.004  1.00  0.00     0.000 C 
ENDROOT
BRANCH   1   2
ATOM      2  C   UNL     1       5.639 -36.426  21.034  1.00  0.00     0.000 C 
BRANCH   2   3
ATOM      3  C   UNL     1       5.138 -36.204  22.469  1.00  0.00     0.006 C 
BRANCH   3   4
ATOM      4  C   UNL     1       4.962 -37.539  23.199  1.00  0.00     0.053 C 
BRANCH   4   5
ATOM      5  C   UNL     1       5.282 -37.387  24.653  1.00  0.00     0.041 C 
ATOM      6  O   UNL     1       6.082 -36.494  25.037  1.00  0.00    -0.550 OA
ATOM      7  O   UNL     1       4.658 -38.200  25.590  1.00  0.00    -0.550 OA
ENDBRANCH   4   5
ENDBRANCH   3   4
ENDBRANCH   2   3
ENDBRANCH   1   2
BRANCH   1   8
ATOM      8  C   UNL     1       4.195 -37.860  19.483  1.00  0.00     0.000 C 
BRANCH   8   9
ATOM      9  C   UNL     1       3.101 -37.824  18.406  1.00  0.00     0.006 C 
BRANCH   9  10
ATOM     10  C   UNL     1       3.447 -36.868  17.258  1.00  0.00     0.053 C 
BRANCH  10  11
ATOM     11  C   UNL     1       2.606 -37.129  16.045  1.00  0.00     0.041 C 
ATOM     12  O   UNL     1       1.419 -36.717  15.996  1.00  0.00    -0.550 OA
ATOM     13  O   UNL     1       3.127 -37.859  14.983  1.00  0.00    -0.550 OA
ENDBRANCH  10  11
ENDBRANCH   9  10
ENDBRANCH   8   9
ENDBRANCH   1   8
TORSDOF 8
ENDMDL
MODEL 5
REMARK VINA RESULT:    -4.695      2.063      7.049
REMARK INTER + INTRA:          -7.220
REMARK INTER:                  -6.901
REMARK INTRA:                  -0.319
REMARK UNBOUND:                -0.328
REMARK SMILES O=C([O-])CCCCCCCC(=O)[O-]
REMARK SMILES IDX 7 1 6 2 5 3 4 4 2 5 1 6 3 7 8 8 9 9 10 10 11 11 12 12 13 13
REMARK H PARENT
REMARK Flexibility Score: inf
ROOT
ATOM      1  C   UNL     1       4.250 -36.615  19.129  1.00  0.00     0.000 C 
ENDROOT
BRANCH   1   2
ATOM      2  C   UNL     1       3.545 -37.953  18.859  1.00  0.00     0.000 C 
BRANCH   2   3
ATOM      3  C   UNL     1       2.526 -37.866  17.712  1.00  0.00     0.006 C 
BRANCH   3   4
ATOM      4  C   UNL     1       3.038 -36.956  16.593  1.00  0.00     0.053 C 
BRANCH   4   5
ATOM      5  C   UNL     1       2.925 -37.640  15.267  1.00  0.00     0.041 C 
ATOM      6  O   UNL     1       3.527 -38.727  15.061  1.00  0.00    -0.550 OA
ATOM      7  O   UNL     1       2.114 -37.103  14.276  1.00  0.00    -0.550 OA
ENDBRANCH   4   5
ENDBRANCH   3   4
ENDBRANCH   2   3
ENDBRANCH   1   2
BRANCH   1   8
ATOM      8  C   UNL     1       4.217 -36.218  20.614  1.00  0.00     0.000 C 
BRANCH   8   9
ATOM      9  C   UNL     1       5.454 -36.750  21.351  1.00  0.00     0.006 C 
BRANCH   9  10
ATOM     10  C   UNL     1       5.082 -37.569  22.594  1.00  0.00     0.053 C 
BRANCH  10  11
ATOM     11  C   UNL     1       5.271 -36.781  23.855  1.00  0.00     0.041 C 
ATOM     12  O   UNL     1       5.750 -35.617  23.810  1.00  0.00    -0.550 OA
ATOM     13  O   UNL     1       4.949 -37.346  25.083  1.00  0.00    -0.550 OA
ENDBRANCH  10  11
ENDBRANCH   9  10
ENDBRANCH   8   9
ENDBRANCH   1   8
TORSDOF 8
ENDMDL
MODEL 6
REMARK VINA RESULT:    -4.690      0.613      6.008
REMARK INTER + INTRA:          -7.211
REMARK INTER:                  -6.819
REMARK INTRA:                  -0.392
REMARK UNBOUND:                -0.328
REMARK SMILES O=C([O-])CCCCCCCC(=O)[O-]
REMARK SMILES IDX 7 1 6 2 5 3 4 4 2 5 1 6 3 7 8 8 9 9 10 10 11 11 12 12 13 13
REMARK H PARENT
REMARK Flexibility Score: inf
ROOT
ATOM      1  C   UNL     1       5.157 -36.376  21.166  1.00  0.00     0.000 C 
ENDROOT
BRANCH   1   2
ATOM      2  C   UNL     1       4.859 -37.875  21.014  1.00  0.00     0.000 C 
BRANCH   2   3
ATOM      3  C   UNL     1       4.642 -38.293  19.552  1.00  0.00     0.006 C 
BRANCH   3   4
ATOM      4  C   UNL     1       3.734 -37.295  18.827  1.00  0.00     0.053 C 
BRANCH   4   5
ATOM      5  C   UNL     1       2.544 -37.993  18.250  1.00  0.00     0.041 C 
ATOM      6  O   UNL     1       2.354 -38.000  17.005  1.00  0.00    -0.550 OA
ATOM      7  O   UNL     1       1.669 -38.680  19.083  1.00  0.00    -0.550 OA
ENDBRANCH   4   5
ENDBRANCH   3   4
ENDBRANCH   2   3
ENDBRANCH   1   2
BRANCH   1   8
ATOM      8  C   UNL     1       6.114 -36.076  22.330  1.00  0.00     0.000 C 
BRANCH   8   9
ATOM      9  C   UNL     1       5.355 -36.015  23.663  1.00  0.00     0.006 C 
BRANCH   9  10
ATOM     10  C   UNL     1       5.948 -36.964  24.713  1.00  0.00     0.053 C 
BRANCH  10  11
ATOM     11  C   UNL     1       5.042 -38.126  24.985  1.00  0.00     0.041 C 
ATOM     12  O   UNL     1       4.307 -38.132  26.007  1.00  0.00    -0.550 OA
ATOM     13  O   UNL     1       5.036 -39.218  24.126  1.00  0.00    -0.550 OA
ENDBRANCH  10  11
ENDBRANCH   9  10
ENDBRANCH   8   9
ENDBRANCH   1   8
TORSDOF 8
ENDMDL
MODEL 7
REMARK VINA RESULT:    -4.272      1.590      5.140
REMARK INTER + INTRA:          -6.598
REMARK INTER:                  -6.106
REMARK INTRA:                  -0.492
REMARK UNBOUND:                -0.328
REMARK SMILES O=C([O-])CCCCCCCC(=O)[O-]
REMARK SMILES IDX 7 1 6 2 5 3 4 4 2 5 1 6 3 7 8 8 9 9 10 10 11 11 12 12 13 13
REMARK H PARENT
REMARK Flexibility Score: inf
ROOT
ATOM      1  C   UNL     1       5.702 -35.987  23.286  1.00  0.00     0.000 C 
ENDROOT
BRANCH   1   2
ATOM      2  C   UNL     1       5.915 -36.095  21.768  1.00  0.00     0.000 C 
BRANCH   2   3
ATOM      3  C   UNL     1       4.625 -36.447  21.012  1.00  0.00     0.006 C 
BRANCH   3   4
ATOM      4  C   UNL     1       4.909 -36.685  19.526  1.00  0.00     0.053 C 
BRANCH   4   5
ATOM      5  C   UNL     1       3.708 -37.267  18.849  1.00  0.00     0.041 C 
ATOM      6  O   UNL     1       2.947 -38.051  19.473  1.00  0.00    -0.550 OA
ATOM      7  O   UNL     1       3.402 -36.903  17.544  1.00  0.00    -0.550 OA
ENDBRANCH   4   5
ENDBRANCH   3   4
ENDBRANCH   2   3
ENDBRANCH   1   2
BRANCH   1   8
ATOM      8  C   UNL     1       6.113 -37.265  24.034  1.00  0.00     0.000 C 
BRANCH   8   9
ATOM      9  C   UNL     1       4.879 -38.077  24.453  1.00  0.00     0.006 C 
BRANCH   9  10
ATOM     10  C   UNL     1       5.101 -39.588  24.308  1.00  0.00     0.053 C 
BRANCH  10  11
ATOM     11  C   UNL     1       4.883 -40.049  22.899  1.00  0.00     0.041 C 
ATOM     12  O   UNL     1       3.917 -39.602  22.227  1.00  0.00    -0.550 OA
ATOM     13  O   UNL     1       5.730 -40.998  22.340  1.00  0.00    -0.550 OA
ENDBRANCH  10  11
ENDBRANCH   9  10
ENDBRANCH   8   9
ENDBRANCH   1   8
TORSDOF 8
ENDMDL
MODEL 8
REMARK VINA RESULT:    -3.836      2.209      2.682
REMARK INTER + INTRA:          -5.958
REMARK INTER:                  -5.784
REMARK INTRA:                  -0.174
REMARK UNBOUND:                -0.328
REMARK SMILES O=C([O-])CCCCCCCC(=O)[O-]
REMARK SMILES IDX 7 1 6 2 5 3 4 4 2 5 1 6 3 7 8 8 9 9 10 10 11 11 12 12 13 13
REMARK H PARENT
REMARK Flexibility Score: inf
ROOT
ATOM      1  C   UNL     1       3.941 -37.024  19.940  1.00  0.00     0.000 C 
ENDROOT
BRANCH   1   2
ATOM      2  C   UNL     1       4.879 -38.168  20.358  1.00  0.00     0.000 C 
BRANCH   2   3
ATOM      3  C   UNL     1       4.993 -38.314  21.882  1.00  0.00     0.006 C 
BRANCH   3   4
ATOM      4  C   UNL     1       5.083 -39.789  22.285  1.00  0.00     0.053 C 
BRANCH   4   5
ATOM      5  C   UNL     1       5.044 -39.929  23.774  1.00  0.00     0.041 C 
ATOM      6  O   UNL     1       5.369 -41.017  24.317  1.00  0.00    -0.550 OA
ATOM      7  O   UNL     1       4.695 -38.842  24.565  1.00  0.00    -0.550 OA
ENDBRANCH   4   5
ENDBRANCH   3   4
ENDBRANCH   2   3
ENDBRANCH   1   2
BRANCH   1   8
ATOM      8  C   UNL     1       4.622 -36.011  19.005  1.00  0.00     0.000 C 
BRANCH   8   9
ATOM      9  C   UNL     1       3.999 -36.054  17.603  1.00  0.00     0.006 C 
BRANCH   9  10
ATOM     10  C   UNL     1       3.166 -37.322  17.375  1.00  0.00     0.053 C 
BRANCH  10  11
ATOM     11  C   UNL     1       2.630 -37.391  15.978  1.00  0.00     0.041 C 
ATOM     12  O   UNL     1       3.308 -37.927  15.064  1.00  0.00    -0.550 OA
ATOM     13  O   UNL     1       1.393 -36.832  15.679  1.00  0.00    -0.550 OA
ENDBRANCH  10  11
ENDBRANCH   9  10
ENDBRANCH   8   9
ENDBRANCH   1   8
TORSDOF 8
ENDMDL
