MODEL 1
REMARK VINA RESULT:     7.295      0.000      0.000
REMARK INTER + INTRA:          17.044
REMARK INTER:                  18.383
REMARK INTRA:                  -1.339
REMARK UNBOUND:                -1.339
REMARK SMILES CCCCCCCCCCCCCCCCCCCCCCCCCCCC(=O)[O-]
REMARK SMILES IDX 15 1 16 2 17 3 18 4 19 5 20 6 21 7 22 8 23 9 24 10 25 11
REMARK SMILES IDX 26 12 27 13 28 14 29 15 30 16 14 17 13 18 12 19 11 20 10 21
REMARK SMILES IDX 9 22 8 23 7 24 6 25 5 26 4 27 3 28 2 29 1 30
REMARK H PARENT
REMARK Flexibility Score: inf
ROOT
ATOM      1  C   UNL     1      15.095  26.300   8.573  1.00  0.00     0.000 C 
ENDROOT
BRANCH   1   2
ATOM      2  C   UNL     1      14.898  25.421   7.324  1.00  0.00     0.000 C 
BRANCH   2   3
ATOM      3  C   UNL     1      14.969  26.221   6.012  1.00  0.00     0.000 C 
BRANCH   3   4
ATOM      4  C   UNL     1      16.398  26.278   5.436  1.00  0.00     0.000 C 
BRANCH   4   5
ATOM      5  C   UNL     1      16.538  25.677   4.023  1.00  0.00     0.000 C 
BRANCH   5   6
ATOM      6  C   UNL     1      17.921  25.892   3.378  1.00  0.00     0.000 C 
BRANCH   6   7
ATOM      7  C   UNL     1      19.039  26.015   4.425  1.00  0.00     0.000 C 
BRANCH   7   8
ATOM      8  C   UNL     1      20.154  24.990   4.177  1.00  0.00     0.000 C 
BRANCH   8   9
ATOM      9  C   UNL     1      21.426  25.283   4.991  1.00  0.00     0.000 C 
BRANCH   9  10
ATOM     10  C   UNL     1      22.447  26.165   4.244  1.00  0.00     0.000 C 
BRANCH  10  11
ATOM     11  C   UNL     1      23.872  26.002   4.797  1.00  0.00     0.000 C 
BRANCH  11  12
ATOM     12  C   UNL     1      24.914  26.137   3.678  1.00  0.00     0.006 C 
BRANCH  12  13
ATOM     13  C   UNL     1      26.178  25.314   3.960  1.00  0.00     0.053 C 
BRANCH  13  14
ATOM     14  C   UNL     1      26.817  24.814   2.699  1.00  0.00     0.041 C 
ATOM     15  O   UNL     1      27.451  23.725   2.696  1.00  0.00    -0.550 OA
ATOM     16  O   UNL     1      26.717  25.554   1.527  1.00  0.00    -0.550 OA
ENDBRANCH  13  14
ENDBRANCH  12  13
ENDBRANCH  11  12
ENDBRANCH  10  11
ENDBRANCH   9  10
ENDBRANCH   8   9
ENDBRANCH   7   8
ENDBRANCH   6   7
ENDBRANCH   5   6
ENDBRANCH   4   5
ENDBRANCH   3   4
ENDBRANCH   2   3
ENDBRANCH   1   2
BRANCH   1  17
ATOM     17  C   UNL     1      15.020  25.546   9.912  1.00  0.00     0.000 C 
BRANCH  17  18
ATOM     18  C   UNL     1      15.015  26.491  11.127  1.00  0.00     0.000 C 
BRANCH  18  19
ATOM     19  C   UNL     1      15.317  25.759  12.445  1.00  0.00     0.000 C 
BRANCH  19  20
ATOM     20  C   UNL     1      15.868  26.700  13.526  1.00  0.00     0.000 C 
BRANCH  20  21
ATOM     21  C   UNL     1      17.043  27.529  12.986  1.00  0.00     0.000 C 
BRANCH  21  22
ATOM     22  C   UNL     1      18.282  26.669  12.688  1.00  0.00    -0.000 C 
BRANCH  22  23
ATOM     23  C   UNL     1      18.806  26.868  11.254  1.00  0.00    -0.000 C 
BRANCH  23  24
ATOM     24  C   UNL     1      19.875  27.972  11.156  1.00  0.00    -0.000 C 
BRANCH  24  25
ATOM     25  C   UNL     1      21.328  27.483  11.308  1.00  0.00    -0.000 C 
BRANCH  25  26
ATOM     26  C   UNL     1      22.053  28.123  12.506  1.00  0.00    -0.000 C 
BRANCH  26  27
ATOM     27  C   UNL     1      22.812  29.404  12.125  1.00  0.00    -0.000 C 
BRANCH  27  28
ATOM     28  C   UNL     1      24.126  29.112  11.375  1.00  0.00    -0.000 C 
BRANCH  28  29
ATOM     29  C   UNL     1      25.160  30.237  11.539  1.00  0.00    -0.003 C 
ATOM     30  C   UNL     1      26.575  29.796  11.163  1.00  0.00     0.004 C 
ENDBRANCH  28  29
ENDBRANCH  27  28
ENDBRANCH  26  27
ENDBRANCH  25  26
ENDBRANCH  24  25
ENDBRANCH  23  24
ENDBRANCH  22  23
ENDBRANCH  21  22
ENDBRANCH  20  21
ENDBRANCH  19  20
ENDBRANCH  18  19
ENDBRANCH  17  18
ENDBRANCH   1  17
TORSDOF 26
ENDMDL
MODEL 2
REMARK VINA RESULT:     7.782      2.337      4.357
REMARK INTER + INTRA:          18.271
REMARK INTER:                  18.785
REMARK INTRA:                  -0.514
REMARK UNBOUND:                -1.339
REMARK SMILES CCCCCCCCCCCCCCCCCCCCCCCCCCCC(=O)[O-]
REMARK SMILES IDX 15 1 16 2 17 3 18 4 19 5 20 6 21 7 22 8 23 9 24 10 25 11
REMARK SMILES IDX 26 12 27 13 28 14 29 15 30 16 14 17 13 18 12 19 11 20 10 21
REMARK SMILES IDX 9 22 8 23 7 24 6 25 5 26 4 27 3 28 2 29 1 30
REMARK H PARENT
REMARK Flexibility Score: inf
ROOT
ATOM      1  C   UNL     1      16.258  27.054  11.396  1.00  0.00     0.000 C 
ENDROOT
BRANCH   1   2
ATOM      2  C   UNL     1      14.876  26.453  11.080  1.00  0.00     0.000 C 
BRANCH   2   3
ATOM      3  C   UNL     1      14.906  25.475   9.893  1.00  0.00     0.000 C 
BRANCH   3   4
ATOM      4  C   UNL     1      14.903  26.202   8.533  1.00  0.00     0.000 C 
BRANCH   4   5
ATOM      5  C   UNL     1      14.971  25.264   7.311  1.00  0.00     0.000 C 
BRANCH   5   6
ATOM      6  C   UNL     1      14.980  25.994   5.953  1.00  0.00     0.000 C 
BRANCH   6   7
ATOM      7  C   UNL     1      16.403  26.332   5.484  1.00  0.00     0.000 C 
BRANCH   7   8
ATOM      8  C   UNL     1      16.773  25.557   4.213  1.00  0.00     0.000 C 
BRANCH   8   9
ATOM      9  C   UNL     1      18.048  26.090   3.538  1.00  0.00     0.000 C 
BRANCH   9  10
ATOM     10  C   UNL     1      19.272  26.132   4.476  1.00  0.00     0.000 C 
BRANCH  10  11
ATOM     11  C   UNL     1      20.222  24.945   4.249  1.00  0.00     0.000 C 
BRANCH  11  12
ATOM     12  C   UNL     1      21.681  25.417   4.173  1.00  0.00     0.006 C 
BRANCH  12  13
ATOM     13  C   UNL     1      22.230  25.821   5.549  1.00  0.00     0.053 C 
BRANCH  13  14
ATOM     14  C   UNL     1      22.250  24.669   6.508  1.00  0.00     0.041 C 
ATOM     15  O   UNL     1      23.143  24.595   7.394  1.00  0.00    -0.550 OA
ATOM     16  O   UNL     1      21.283  23.673   6.421  1.00  0.00    -0.550 OA
ENDBRANCH  13  14
ENDBRANCH  12  13
ENDBRANCH  11  12
ENDBRANCH  10  11
ENDBRANCH   9  10
ENDBRANCH   8   9
ENDBRANCH   7   8
ENDBRANCH   6   7
ENDBRANCH   5   6
ENDBRANCH   4   5
ENDBRANCH   3   4
ENDBRANCH   2   3
ENDBRANCH   1   2
BRANCH   1  17
ATOM     17  C   UNL     1      16.742  26.837  12.840  1.00  0.00     0.000 C 
BRANCH  17  18
ATOM     18  C   UNL     1      18.152  27.403  13.086  1.00  0.00     0.000 C 
BRANCH  18  19
ATOM     19  C   UNL     1      19.122  27.095  11.934  1.00  0.00     0.000 C 
BRANCH  19  20
ATOM     20  C   UNL     1      20.092  28.252  11.656  1.00  0.00     0.000 C 
BRANCH  20  21
ATOM     21  C   UNL     1      21.377  27.743  10.987  1.00  0.00     0.000 C 
BRANCH  21  22
ATOM     22  C   UNL     1      22.542  27.601  11.980  1.00  0.00    -0.000 C 
BRANCH  22  23
ATOM     23  C   UNL     1      23.876  28.104  11.397  1.00  0.00    -0.000 C 
BRANCH  23  24
ATOM     24  C   UNL     1      23.861  29.610  11.080  1.00  0.00    -0.000 C 
BRANCH  24  25
ATOM     25  C   UNL     1      24.602  30.495  12.100  1.00  0.00    -0.000 C 
BRANCH  25  26
ATOM     26  C   UNL     1      26.130  30.473  11.912  1.00  0.00    -0.000 C 
BRANCH  26  27
ATOM     27  C   UNL     1      26.560  29.734  10.635  1.00  0.00    -0.000 C 
BRANCH  27  28
ATOM     28  C   UNL     1      28.069  29.865  10.354  1.00  0.00    -0.000 C 
BRANCH  28  29
ATOM     29  C   UNL     1      28.483  29.194   9.035  1.00  0.00    -0.003 C 
ATOM     30  C   UNL     1      29.430  28.013   9.249  1.00  0.00     0.004 C 
ENDBRANCH  28  29
ENDBRANCH  27  28
ENDBRANCH  26  27
ENDBRANCH  25  26
ENDBRANCH  24  25
ENDBRANCH  23  24
ENDBRANCH  22  23
ENDBRANCH  21  22
ENDBRANCH  20  21
ENDBRANCH  19  20
ENDBRANCH  18  19
ENDBRANCH  17  18
ENDBRANCH   1  17
TORSDOF 26
ENDMDL
MODEL 3
REMARK VINA RESULT:     7.915      2.310      5.163
REMARK INTER + INTRA:          18.606
REMARK INTER:                  19.980
REMARK INTRA:                  -1.374
REMARK UNBOUND:                -1.339
REMARK SMILES CCCCCCCCCCCCCCCCCCCCCCCCCCCC(=O)[O-]
REMARK SMILES IDX 15 1 16 2 17 3 18 4 19 5 20 6 21 7 22 8 23 9 24 10 25 11
REMARK SMILES IDX 26 12 27 13 28 14 29 15 30 16 14 17 13 18 12 19 11 20 10 21
REMARK SMILES IDX 9 22 8 23 7 24 6 25 5 26 4 27 3 28 2 29 1 30
REMARK H PARENT
REMARK Flexibility Score: inf
ROOT
ATOM      1  C   UNL     1      16.689  26.623  12.519  1.00  0.00     0.000 C 
ENDROOT
BRANCH   1   2
ATOM      2  C   UNL     1      15.273  26.918  11.991  1.00  0.00     0.000 C 
BRANCH   2   3
ATOM      3  C   UNL     1      15.258  27.307  10.503  1.00  0.00     0.000 C 
BRANCH   3   4
ATOM      4  C   UNL     1      14.911  26.115   9.589  1.00  0.00     0.000 C 
BRANCH   4   5
ATOM      5  C   UNL     1      14.884  26.454   8.085  1.00  0.00     0.000 C 
BRANCH   5   6
ATOM      6  C   UNL     1      14.970  25.226   7.157  1.00  0.00     0.000 C 
BRANCH   6   7
ATOM      7  C   UNL     1      14.875  25.611   5.673  1.00  0.00     0.000 C 
BRANCH   7   8
ATOM      8  C   UNL     1      16.195  26.204   5.163  1.00  0.00     0.000 C 
BRANCH   8   9
ATOM      9  C   UNL     1      16.891  25.308   4.124  1.00  0.00     0.000 C 
BRANCH   9  10
ATOM     10  C   UNL     1      18.069  25.996   3.404  1.00  0.00     0.000 C 
BRANCH  10  11
ATOM     11  C   UNL     1      19.013  26.711   4.385  1.00  0.00     0.000 C 
BRANCH  11  12
ATOM     12  C   UNL     1      20.466  26.264   4.170  1.00  0.00     0.006 C 
BRANCH  12  13
ATOM     13  C   UNL     1      20.685  24.798   4.567  1.00  0.00     0.053 C 
BRANCH  13  14
ATOM     14  C   UNL     1      21.782  24.646   5.578  1.00  0.00     0.041 C 
ATOM     15  O   UNL     1      22.843  25.317   5.469  1.00  0.00    -0.550 OA
ATOM     16  O   UNL     1      21.635  23.761   6.639  1.00  0.00    -0.550 OA
ENDBRANCH  13  14
ENDBRANCH  12  13
ENDBRANCH  11  12
ENDBRANCH  10  11
ENDBRANCH   9  10
ENDBRANCH   8   9
ENDBRANCH   7   8
ENDBRANCH   6   7
ENDBRANCH   5   6
ENDBRANCH   4   5
ENDBRANCH   3   4
ENDBRANCH   2   3
ENDBRANCH   1   2
BRANCH   1  17
ATOM     17  C   UNL     1      17.803  26.709  11.461  1.00  0.00     0.000 C 
BRANCH  17  18
ATOM     18  C   UNL     1      19.169  27.083  12.064  1.00  0.00     0.000 C 
BRANCH  18  19
ATOM     19  C   UNL     1      20.177  27.549  11.001  1.00  0.00     0.000 C 
BRANCH  19  20
ATOM     20  C   UNL     1      21.188  28.564  11.554  1.00  0.00     0.000 C 
BRANCH  20  21
ATOM     21  C   UNL     1      22.437  27.855  12.096  1.00  0.00     0.000 C 
BRANCH  21  22
ATOM     22  C   UNL     1      23.624  28.814  12.284  1.00  0.00    -0.000 C 
BRANCH  22  23
ATOM     23  C   UNL     1      24.064  29.472  10.964  1.00  0.00    -0.000 C 
BRANCH  23  24
ATOM     24  C   UNL     1      25.131  30.564  11.166  1.00  0.00    -0.000 C 
BRANCH  24  25
ATOM     25  C   UNL     1      26.341  30.139  12.019  1.00  0.00    -0.000 C 
BRANCH  25  26
ATOM     26  C   UNL     1      27.664  30.157  11.231  1.00  0.00    -0.000 C 
BRANCH  26  27
ATOM     27  C   UNL     1      27.506  29.634   9.795  1.00  0.00    -0.000 C 
BRANCH  27  28
ATOM     28  C   UNL     1      28.844  29.584   9.032  1.00  0.00    -0.000 C 
BRANCH  28  29
ATOM     29  C   UNL     1      29.717  28.391   9.451  1.00  0.00    -0.003 C 
ATOM     30  C   UNL     1      29.134  27.050   9.005  1.00  0.00     0.004 C 
ENDBRANCH  28  29
ENDBRANCH  27  28
ENDBRANCH  26  27
ENDBRANCH  25  26
ENDBRANCH  24  25
ENDBRANCH  23  24
ENDBRANCH  22  23
ENDBRANCH  21  22
ENDBRANCH  20  21
ENDBRANCH  19  20
ENDBRANCH  18  19
ENDBRANCH  17  18
ENDBRANCH   1  17
TORSDOF 26
ENDMDL
MODEL 4
REMARK VINA RESULT:     8.010      2.964      8.238
REMARK INTER + INTRA:          18.846
REMARK INTER:                  19.648
REMARK INTRA:                  -0.802
REMARK UNBOUND:                -1.339
REMARK SMILES CCCCCCCCCCCCCCCCCCCCCCCCCCCC(=O)[O-]
REMARK SMILES IDX 15 1 16 2 17 3 18 4 19 5 20 6 21 7 22 8 23 9 24 10 25 11
REMARK SMILES IDX 26 12 27 13 28 14 29 15 30 16 14 17 13 18 12 19 11 20 10 21
REMARK SMILES IDX 9 22 8 23 7 24 6 25 5 26 4 27 3 28 2 29 1 30
REMARK H PARENT
REMARK Flexibility Score: inf
ROOT
ATOM      1  C   UNL     1      15.760  25.960   8.434  1.00  0.00     0.000 C 
ENDROOT
BRANCH   1   2
ATOM      2  C   UNL     1      14.877  25.679   9.664  1.00  0.00     0.000 C 
BRANCH   2   3
ATOM      3  C   UNL     1      15.514  26.157  10.980  1.00  0.00     0.000 C 
BRANCH   3   4
ATOM      4  C   UNL     1      15.037  27.565  11.386  1.00  0.00     0.000 C 
BRANCH   4   5
ATOM      5  C   UNL     1      15.204  27.886  12.885  1.00  0.00     0.000 C 
BRANCH   5   6
ATOM      6  C   UNL     1      16.668  28.064  13.335  1.00  0.00     0.000 C 
BRANCH   6   7
ATOM      7  C   UNL     1      17.430  26.731  13.380  1.00  0.00     0.000 C 
BRANCH   7   8
ATOM      8  C   UNL     1      18.321  26.553  12.143  1.00  0.00     0.000 C 
BRANCH   8   9
ATOM      9  C   UNL     1      18.966  27.870  11.677  1.00  0.00     0.000 C 
BRANCH   9  10
ATOM     10  C   UNL     1      20.313  27.675  10.952  1.00  0.00     0.000 C 
BRANCH  10  11
ATOM     11  C   UNL     1      21.486  27.517  11.934  1.00  0.00     0.000 C 
BRANCH  11  12
ATOM     12  C   UNL     1      22.773  28.116  11.351  1.00  0.00     0.006 C 
BRANCH  12  13
ATOM     13  C   UNL     1      23.489  29.034  12.351  1.00  0.00     0.053 C 
BRANCH  13  14
ATOM     14  C   UNL     1      24.672  29.722  11.738  1.00  0.00     0.041 C 
ATOM     15  O   UNL     1      25.451  29.088  10.977  1.00  0.00    -0.550 OA
ATOM     16  O   UNL     1      24.915  31.063  12.008  1.00  0.00    -0.550 OA
ENDBRANCH  13  14
ENDBRANCH  12  13
ENDBRANCH  11  12
ENDBRANCH  10  11
ENDBRANCH   9  10
ENDBRANCH   8   9
ENDBRANCH   7   8
ENDBRANCH   6   7
ENDBRANCH   5   6
ENDBRANCH   4   5
ENDBRANCH   3   4
ENDBRANCH   2   3
ENDBRANCH   1   2
BRANCH   1  17
ATOM     17  C   UNL     1      14.987  26.245   7.135  1.00  0.00     0.000 C 
BRANCH  17  18
ATOM     18  C   UNL     1      15.641  25.600   5.900  1.00  0.00     0.000 C 
BRANCH  18  19
ATOM     19  C   UNL     1      16.835  26.411   5.372  1.00  0.00     0.000 C 
BRANCH  19  20
ATOM     20  C   UNL     1      17.401  25.840   4.063  1.00  0.00     0.000 C 
BRANCH  20  21
ATOM     21  C   UNL     1      18.901  26.145   3.935  1.00  0.00     0.000 C 
BRANCH  21  22
ATOM     22  C   UNL     1      19.737  24.883   3.664  1.00  0.00    -0.000 C 
BRANCH  22  23
ATOM     23  C   UNL     1      20.875  24.700   4.685  1.00  0.00    -0.000 C 
BRANCH  23  24
ATOM     24  C   UNL     1      21.279  26.017   5.373  1.00  0.00    -0.000 C 
BRANCH  24  25
ATOM     25  C   UNL     1      22.520  26.707   4.775  1.00  0.00    -0.000 C 
BRANCH  25  26
ATOM     26  C   UNL     1      23.775  25.817   4.813  1.00  0.00    -0.000 C 
BRANCH  26  27
ATOM     27  C   UNL     1      24.511  25.772   3.465  1.00  0.00    -0.000 C 
BRANCH  27  28
ATOM     28  C   UNL     1      26.043  25.827   3.624  1.00  0.00    -0.000 C 
BRANCH  28  29
ATOM     29  C   UNL     1      26.780  25.124   2.474  1.00  0.00    -0.003 C 
ATOM     30  C   UNL     1      27.447  23.820   2.912  1.00  0.00     0.004 C 
ENDBRANCH  28  29
ENDBRANCH  27  28
ENDBRANCH  26  27
ENDBRANCH  25  26
ENDBRANCH  24  25
ENDBRANCH  23  24
ENDBRANCH  22  23
ENDBRANCH  21  22
ENDBRANCH  20  21
ENDBRANCH  19  20
ENDBRANCH  18  19
ENDBRANCH  17  18
ENDBRANCH   1  17
TORSDOF 26
ENDMDL
MODEL 5
REMARK VINA RESULT:     8.842      3.031      8.034
REMARK INTER + INTRA:          20.941
REMARK INTER:                  22.388
REMARK INTRA:                  -1.447
REMARK UNBOUND:                -1.339
REMARK SMILES CCCCCCCCCCCCCCCCCCCCCCCCCCCC(=O)[O-]
REMARK SMILES IDX 15 1 16 2 17 3 18 4 19 5 20 6 21 7 22 8 23 9 24 10 25 11
REMARK SMILES IDX 26 12 27 13 28 14 29 15 30 16 14 17 13 18 12 19 11 20 10 21
REMARK SMILES IDX 9 22 8 23 7 24 6 25 5 26 4 27 3 28 2 29 1 30
REMARK H PARENT
REMARK Flexibility Score: inf
ROOT
ATOM      1  C   UNL     1      15.640  26.589   9.867  1.00  0.00     0.000 C 
ENDROOT
BRANCH   1   2
ATOM      2  C   UNL     1      15.718  25.655  11.089  1.00  0.00     0.000 C 
BRANCH   2   3
ATOM      3  C   UNL     1      14.880  26.155  12.278  1.00  0.00     0.000 C 
BRANCH   3   4
ATOM      4  C   UNL     1      14.970  27.683  12.460  1.00  0.00     0.000 C 
BRANCH   4   5
ATOM      5  C   UNL     1      15.985  28.138  13.527  1.00  0.00     0.000 C 
BRANCH   5   6
ATOM      6  C   UNL     1      16.709  26.982  14.246  1.00  0.00     0.000 C 
BRANCH   6   7
ATOM      7  C   UNL     1      17.963  26.520  13.488  1.00  0.00     0.000 C 
BRANCH   7   8
ATOM      8  C   UNL     1      18.561  27.657  12.649  1.00  0.00     0.000 C 
BRANCH   8   9
ATOM      9  C   UNL     1      19.407  27.148  11.470  1.00  0.00     0.000 C 
BRANCH   9  10
ATOM     10  C   UNL     1      20.927  27.220  11.725  1.00  0.00     0.000 C 
BRANCH  10  11
ATOM     11  C   UNL     1      21.632  28.202  10.775  1.00  0.00     0.000 C 
BRANCH  11  12
ATOM     12  C   UNL     1      22.479  29.212  11.562  1.00  0.00     0.006 C 
BRANCH  12  13
ATOM     13  C   UNL     1      23.907  28.704  11.805  1.00  0.00     0.053 C 
BRANCH  13  14
ATOM     14  C   UNL     1      24.921  29.803  11.700  1.00  0.00     0.041 C 
ATOM     15  O   UNL     1      24.673  30.944  12.173  1.00  0.00    -0.550 OA
ATOM     16  O   UNL     1      26.141  29.568  11.076  1.00  0.00    -0.550 OA
ENDBRANCH  13  14
ENDBRANCH  12  13
ENDBRANCH  11  12
ENDBRANCH  10  11
ENDBRANCH   9  10
ENDBRANCH   8   9
ENDBRANCH   7   8
ENDBRANCH   6   7
ENDBRANCH   5   6
ENDBRANCH   4   5
ENDBRANCH   3   4
ENDBRANCH   2   3
ENDBRANCH   1   2
BRANCH   1  17
ATOM     17  C   UNL     1      14.877  26.012   8.662  1.00  0.00     0.000 C 
BRANCH  17  18
ATOM     18  C   UNL     1      15.602  26.259   7.326  1.00  0.00     0.000 C 
BRANCH  18  19
ATOM     19  C   UNL     1      15.028  25.413   6.178  1.00  0.00     0.000 C 
BRANCH  19  20
ATOM     20  C   UNL     1      15.679  25.739   4.826  1.00  0.00     0.000 C 
BRANCH  20  21
ATOM     21  C   UNL     1      17.003  26.493   5.021  1.00  0.00     0.000 C 
BRANCH  21  22
ATOM     22  C   UNL     1      18.096  26.026   4.046  1.00  0.00    -0.000 C 
BRANCH  22  23
ATOM     23  C   UNL     1      19.485  25.959   4.706  1.00  0.00    -0.000 C 
BRANCH  23  24
ATOM     24  C   UNL     1      20.303  24.736   4.255  1.00  0.00    -0.000 C 
BRANCH  24  25
ATOM     25  C   UNL     1      21.509  24.395   5.151  1.00  0.00    -0.000 C 
BRANCH  25  26
ATOM     26  C   UNL     1      22.374  25.625   5.483  1.00  0.00    -0.000 C 
BRANCH  26  27
ATOM     27  C   UNL     1      22.753  26.438   4.234  1.00  0.00    -0.000 C 
BRANCH  27  28
ATOM     28  C   UNL     1      24.270  26.684   4.126  1.00  0.00    -0.000 C 
BRANCH  28  29
ATOM     29  C   UNL     1      25.083  25.382   4.183  1.00  0.00    -0.003 C 
ATOM     30  C   UNL     1      26.301  25.407   3.259  1.00  0.00     0.004 C 
ENDBRANCH  28  29
ENDBRANCH  27  28
ENDBRANCH  26  27
ENDBRANCH  25  26
ENDBRANCH  24  25
ENDBRANCH  23  24
ENDBRANCH  22  23
ENDBRANCH  21  22
ENDBRANCH  20  21
ENDBRANCH  19  20
ENDBRANCH  18  19
ENDBRANCH  17  18
ENDBRANCH   1  17
TORSDOF 26
ENDMDL
MODEL 6
REMARK VINA RESULT:     8.982      1.880      3.539
REMARK INTER + INTRA:          21.294
REMARK INTER:                  20.909
REMARK INTRA:                   0.385
REMARK UNBOUND:                -1.339
REMARK SMILES CCCCCCCCCCCCCCCCCCCCCCCCCCCC(=O)[O-]
REMARK SMILES IDX 15 1 16 2 17 3 18 4 19 5 20 6 21 7 22 8 23 9 24 10 25 11
REMARK SMILES IDX 26 12 27 13 28 14 29 15 30 16 14 17 13 18 12 19 11 20 10 21
REMARK SMILES IDX 9 22 8 23 7 24 6 25 5 26 4 27 3 28 2 29 1 30
REMARK H PARENT
REMARK Flexibility Score: inf
ROOT
ATOM      1  C   UNL     1      16.169  26.768  10.710  1.00  0.00     0.000 C 
ENDROOT
BRANCH   1   2
ATOM      2  C   UNL     1      14.875  26.715   9.878  1.00  0.00     0.000 C 
BRANCH   2   3
ATOM      3  C   UNL     1      14.934  25.676   8.745  1.00  0.00     0.000 C 
BRANCH   3   4
ATOM      4  C   UNL     1      14.875  26.326   7.348  1.00  0.00     0.000 C 
BRANCH   4   5
ATOM      5  C   UNL     1      15.404  25.432   6.208  1.00  0.00     0.000 C 
BRANCH   5   6
ATOM      6  C   UNL     1      16.294  26.169   5.188  1.00  0.00     0.000 C 
BRANCH   6   7
ATOM      7  C   UNL     1      16.450  25.382   3.878  1.00  0.00     0.000 C 
BRANCH   7   8
ATOM      8  C   UNL     1      17.828  25.616   3.245  1.00  0.00     0.000 C 
BRANCH   8   9
ATOM      9  C   UNL     1      18.820  26.292   4.207  1.00  0.00     0.000 C 
BRANCH   9  10
ATOM     10  C   UNL     1      20.284  25.860   3.988  1.00  0.00     0.000 C 
BRANCH  10  11
ATOM     11  C   UNL     1      20.465  24.338   4.097  1.00  0.00     0.000 C 
BRANCH  11  12
ATOM     12  C   UNL     1      21.545  23.986   5.130  1.00  0.00     0.006 C 
BRANCH  12  13
ATOM     13  C   UNL     1      21.935  25.194   5.992  1.00  0.00     0.053 C 
BRANCH  13  14
ATOM     14  C   UNL     1      22.661  26.240   5.201  1.00  0.00     0.041 C 
ATOM     15  O   UNL     1      23.660  25.927   4.499  1.00  0.00    -0.550 OA
ATOM     16  O   UNL     1      22.237  27.563   5.239  1.00  0.00    -0.550 OA
ENDBRANCH  13  14
ENDBRANCH  12  13
ENDBRANCH  11  12
ENDBRANCH  10  11
ENDBRANCH   9  10
ENDBRANCH   8   9
ENDBRANCH   7   8
ENDBRANCH   6   7
ENDBRANCH   5   6
ENDBRANCH   4   5
ENDBRANCH   3   4
ENDBRANCH   2   3
ENDBRANCH   1   2
BRANCH   1  17
ATOM     17  C   UNL     1      16.099  26.035  12.061  1.00  0.00     0.000 C 
BRANCH  17  18
ATOM     18  C   UNL     1      16.419  26.954  13.254  1.00  0.00     0.000 C 
BRANCH  18  19
ATOM     19  C   UNL     1      17.826  27.567  13.168  1.00  0.00     0.000 C 
BRANCH  19  20
ATOM     20  C   UNL     1      18.785  26.718  12.321  1.00  0.00     0.000 C 
BRANCH  20  21
ATOM     21  C   UNL     1      19.717  27.609  11.487  1.00  0.00     0.000 C 
BRANCH  21  22
ATOM     22  C   UNL     1      21.203  27.365  11.801  1.00  0.00    -0.000 C 
BRANCH  22  23
ATOM     23  C   UNL     1      22.043  28.651  11.711  1.00  0.00    -0.000 C 
BRANCH  23  24
ATOM     24  C   UNL     1      23.538  28.409  11.987  1.00  0.00    -0.000 C 
BRANCH  24  25
ATOM     25  C   UNL     1      24.502  29.186  11.070  1.00  0.00    -0.000 C 
BRANCH  25  26
ATOM     26  C   UNL     1      25.655  29.853  11.842  1.00  0.00    -0.000 C 
BRANCH  26  27
ATOM     27  C   UNL     1      26.703  30.485  10.912  1.00  0.00    -0.000 C 
BRANCH  27  28
ATOM     28  C   UNL     1      27.076  29.569   9.730  1.00  0.00    -0.000 C 
BRANCH  28  29
ATOM     29  C   UNL     1      28.595  29.395   9.578  1.00  0.00    -0.003 C 
ATOM     30  C   UNL     1      29.306  30.703   9.233  1.00  0.00     0.004 C 
ENDBRANCH  28  29
ENDBRANCH  27  28
ENDBRANCH  26  27
ENDBRANCH  25  26
ENDBRANCH  24  25
ENDBRANCH  23  24
ENDBRANCH  22  23
ENDBRANCH  21  22
ENDBRANCH  20  21
ENDBRANCH  19  20
ENDBRANCH  18  19
ENDBRANCH  17  18
ENDBRANCH   1  17
TORSDOF 26
ENDMDL
MODEL 7
REMARK VINA RESULT:     9.291      2.512      7.570
REMARK INTER + INTRA:          22.073
REMARK INTER:                  22.897
REMARK INTRA:                  -0.824
REMARK UNBOUND:                -1.339
REMARK SMILES CCCCCCCCCCCCCCCCCCCCCCCCCCCC(=O)[O-]
REMARK SMILES IDX 15 1 16 2 17 3 18 4 19 5 20 6 21 7 22 8 23 9 24 10 25 11
REMARK SMILES IDX 26 12 27 13 28 14 29 15 30 16 14 17 13 18 12 19 11 20 10 21
REMARK SMILES IDX 9 22 8 23 7 24 6 25 5 26 4 27 3 28 2 29 1 30
REMARK H PARENT
REMARK Flexibility Score: inf
ROOT
ATOM      1  C   UNL     1      15.993  26.353  11.132  1.00  0.00     0.000 C 
ENDROOT
BRANCH   1   2
ATOM      2  C   UNL     1      15.481  27.457  12.074  1.00  0.00     0.000 C 
BRANCH   2   3
ATOM      3  C   UNL     1      16.380  27.657  13.306  1.00  0.00     0.000 C 
BRANCH   3   4
ATOM      4  C   UNL     1      17.571  26.678  13.329  1.00  0.00     0.000 C 
BRANCH   4   5
ATOM      5  C   UNL     1      18.954  27.360  13.336  1.00  0.00     0.000 C 
BRANCH   5   6
ATOM      6  C   UNL     1      19.618  27.462  11.949  1.00  0.00     0.000 C 
BRANCH   6   7
ATOM      7  C   UNL     1      21.148  27.346  12.026  1.00  0.00     0.000 C 
BRANCH   7   8
ATOM      8  C   UNL     1      21.832  28.314  11.051  1.00  0.00     0.000 C 
BRANCH   8   9
ATOM      9  C   UNL     1      23.363  28.167  11.040  1.00  0.00     0.000 C 
BRANCH   9  10
ATOM     10  C   UNL     1      24.112  29.515  11.022  1.00  0.00     0.000 C 
BRANCH  10  11
ATOM     11  C   UNL     1      25.480  29.431  11.720  1.00  0.00     0.000 C 
BRANCH  11  12
ATOM     12  C   UNL     1      26.480  30.407  11.085  1.00  0.00     0.006 C 
BRANCH  12  13
ATOM     13  C   UNL     1      27.852  29.759  10.852  1.00  0.00     0.053 C 
BRANCH  13  14
ATOM     14  C   UNL     1      28.360  30.002   9.463  1.00  0.00     0.041 C 
ATOM     15  O   UNL     1      27.938  29.305   8.501  1.00  0.00    -0.550 OA
ATOM     16  O   UNL     1      29.303  30.996   9.229  1.00  0.00    -0.550 OA
ENDBRANCH  13  14
ENDBRANCH  12  13
ENDBRANCH  11  12
ENDBRANCH  10  11
ENDBRANCH   9  10
ENDBRANCH   8   9
ENDBRANCH   7   8
ENDBRANCH   6   7
ENDBRANCH   5   6
ENDBRANCH   4   5
ENDBRANCH   3   4
ENDBRANCH   2   3
ENDBRANCH   1   2
BRANCH   1  17
ATOM     17  C   UNL     1      14.920  25.733  10.220  1.00  0.00     0.000 C 
BRANCH  17  18
ATOM     18  C   UNL     1      14.876  26.383   8.825  1.00  0.00     0.000 C 
BRANCH  18  19
ATOM     19  C   UNL     1      15.663  25.581   7.775  1.00  0.00     0.000 C 
BRANCH  19  20
ATOM     20  C   UNL     1      14.987  25.597   6.397  1.00  0.00     0.000 C 
BRANCH  20  21
ATOM     21  C   UNL     1      15.800  26.431   5.396  1.00  0.00     0.000 C 
BRANCH  21  22
ATOM     22  C   UNL     1      16.946  25.629   4.756  1.00  0.00    -0.000 C 
BRANCH  22  23
ATOM     23  C   UNL     1      18.152  26.514   4.392  1.00  0.00    -0.000 C 
BRANCH  23  24
ATOM     24  C   UNL     1      19.023  25.908   3.276  1.00  0.00    -0.000 C 
BRANCH  24  25
ATOM     25  C   UNL     1      20.513  25.748   3.631  1.00  0.00    -0.000 C 
BRANCH  25  26
ATOM     26  C   UNL     1      20.792  24.499   4.488  1.00  0.00    -0.000 C 
BRANCH  26  27
ATOM     27  C   UNL     1      21.803  24.768   5.615  1.00  0.00    -0.000 C 
BRANCH  27  28
ATOM     28  C   UNL     1      22.577  26.085   5.416  1.00  0.00    -0.000 C 
BRANCH  28  29
ATOM     29  C   UNL     1      23.441  26.074   4.146  1.00  0.00    -0.003 C 
ATOM     30  C   UNL     1      24.936  25.981   4.451  1.00  0.00     0.004 C 
ENDBRANCH  28  29
ENDBRANCH  27  28
ENDBRANCH  26  27
ENDBRANCH  25  26
ENDBRANCH  24  25
ENDBRANCH  23  24
ENDBRANCH  22  23
ENDBRANCH  21  22
ENDBRANCH  20  21
ENDBRANCH  19  20
ENDBRANCH  18  19
ENDBRANCH  17  18
ENDBRANCH   1  17
TORSDOF 26
ENDMDL
MODEL 8
REMARK VINA RESULT:     9.462      1.271      1.738
REMARK INTER + INTRA:          22.504
REMARK INTER:                  21.393
REMARK INTRA:                   1.111
REMARK UNBOUND:                -1.339
REMARK SMILES CCCCCCCCCCCCCCCCCCCCCCCCCCCC(=O)[O-]
REMARK SMILES IDX 15 1 16 2 17 3 18 4 19 5 20 6 21 7 22 8 23 9 24 10 25 11
REMARK SMILES IDX 26 12 27 13 28 14 29 15 30 16 14 17 13 18 12 19 11 20 10 21
REMARK SMILES IDX 9 22 8 23 7 24 6 25 5 26 4 27 3 28 2 29 1 30
REMARK H PARENT
REMARK Flexibility Score: inf
ROOT
ATOM      1  C   UNL     1      15.432  26.520   9.048  1.00  0.00     0.000 C 
ENDROOT
BRANCH   1   2
ATOM      2  C   UNL     1      15.022  25.480   7.990  1.00  0.00     0.000 C 
BRANCH   2   3
ATOM      3  C   UNL     1      14.960  26.064   6.568  1.00  0.00     0.000 C 
BRANCH   3   4
ATOM      4  C   UNL     1      16.344  26.107   5.890  1.00  0.00     0.000 C 
BRANCH   4   5
ATOM      5  C   UNL     1      16.399  25.411   4.515  1.00  0.00     0.000 C 
BRANCH   5   6
ATOM      6  C   UNL     1      17.285  26.129   3.478  1.00  0.00     0.000 C 
BRANCH   6   7
ATOM      7  C   UNL     1      18.719  26.343   3.985  1.00  0.00     0.000 C 
BRANCH   7   8
ATOM      8  C   UNL     1      19.469  25.012   4.121  1.00  0.00     0.000 C 
BRANCH   8   9
ATOM      9  C   UNL     1      20.998  25.183   4.102  1.00  0.00     0.000 C 
BRANCH   9  10
ATOM     10  C   UNL     1      21.587  25.616   5.461  1.00  0.00     0.000 C 
BRANCH  10  11
ATOM     11  C   UNL     1      22.279  24.455   6.192  1.00  0.00     0.000 C 
BRANCH  11  12
ATOM     12  C   UNL     1      23.713  24.834   6.588  1.00  0.00     0.006 C 
BRANCH  12  13
ATOM     13  C   UNL     1      24.721  24.532   5.471  1.00  0.00     0.053 C 
BRANCH  13  14
ATOM     14  C   UNL     1      24.805  25.647   4.472  1.00  0.00     0.041 C 
ATOM     15  O   UNL     1      23.838  26.440   4.322  1.00  0.00    -0.550 OA
ATOM     16  O   UNL     1      25.952  25.809   3.704  1.00  0.00    -0.550 OA
ENDBRANCH  13  14
ENDBRANCH  12  13
ENDBRANCH  11  12
ENDBRANCH  10  11
ENDBRANCH   9  10
ENDBRANCH   8   9
ENDBRANCH   7   8
ENDBRANCH   6   7
ENDBRANCH   5   6
ENDBRANCH   4   5
ENDBRANCH   3   4
ENDBRANCH   2   3
ENDBRANCH   1   2
BRANCH   1  17
ATOM     17  C   UNL     1      15.879  25.929  10.396  1.00  0.00     0.000 C 
BRANCH  17  18
ATOM     18  C   UNL     1      15.653  26.894  11.574  1.00  0.00     0.000 C 
BRANCH  18  19
ATOM     19  C   UNL     1      15.859  26.219  12.939  1.00  0.00     0.000 C 
BRANCH  19  20
ATOM     20  C   UNL     1      16.789  27.023  13.859  1.00  0.00     0.000 C 
BRANCH  20  21
ATOM     21  C   UNL     1      18.246  26.933  13.381  1.00  0.00     0.000 C 
BRANCH  21  22
ATOM     22  C   UNL     1      18.375  27.081  11.856  1.00  0.00    -0.000 C 
BRANCH  22  23
ATOM     23  C   UNL     1      19.830  26.941  11.372  1.00  0.00    -0.000 C 
BRANCH  23  24
ATOM     24  C   UNL     1      20.722  28.116  11.812  1.00  0.00    -0.000 C 
BRANCH  24  25
ATOM     25  C   UNL     1      22.233  27.894  11.611  1.00  0.00    -0.000 C 
BRANCH  25  26
ATOM     26  C   UNL     1      23.046  29.198  11.704  1.00  0.00    -0.000 C 
BRANCH  26  27
ATOM     27  C   UNL     1      24.532  28.996  11.364  1.00  0.00    -0.000 C 
BRANCH  27  28
ATOM     28  C   UNL     1      25.373  30.263  11.608  1.00  0.00    -0.000 C 
BRANCH  28  29
ATOM     29  C   UNL     1      26.877  30.019  11.410  1.00  0.00    -0.003 C 
ATOM     30  C   UNL     1      27.245  29.769   9.947  1.00  0.00     0.004 C 
ENDBRANCH  28  29
ENDBRANCH  27  28
ENDBRANCH  26  27
ENDBRANCH  25  26
ENDBRANCH  24  25
ENDBRANCH  23  24
ENDBRANCH  22  23
ENDBRANCH  21  22
ENDBRANCH  20  21
ENDBRANCH  19  20
ENDBRANCH  18  19
ENDBRANCH  17  18
ENDBRANCH   1  17
TORSDOF 26
ENDMDL
