MODEL 1
REMARK VINA RESULT:    -5.593      0.000      0.000
REMARK INTER + INTRA:         -11.538
REMARK INTER:                 -10.825
REMARK INTRA:                  -0.713
REMARK UNBOUND:                -0.713
REMARK SMILES CCCCCCCCCCCCCCCCCC(=O)[O-]
REMARK SMILES IDX 10 1 11 2 12 3 13 4 14 5 15 6 16 7 17 8 18 9 19 10 20 11
REMARK SMILES IDX 9 12 8 13 7 14 6 15 5 16 4 17 3 18 2 19 1 20
REMARK H PARENT
REMARK Flexibility Score: inf
ROOT
ATOM      1  C   UNL     1     -18.041  39.117  18.886  1.00  0.00     0.000 C 
ENDROOT
BRANCH   1   2
ATOM      2  C   UNL     1     -16.920  38.096  18.654  1.00  0.00     0.000 C 
BRANCH   2   3
ATOM      3  C   UNL     1     -16.765  37.781  17.159  1.00  0.00     0.000 C 
BRANCH   3   4
ATOM      4  C   UNL     1     -16.133  36.403  16.909  1.00  0.00     0.000 C 
BRANCH   4   5
ATOM      5  C   UNL     1     -16.025  36.068  15.410  1.00  0.00     0.000 C 
BRANCH   5   6
ATOM      6  C   UNL     1     -14.614  36.310  14.851  1.00  0.00     0.000 C 
BRANCH   6   7
ATOM      7  C   UNL     1     -14.618  36.598  13.341  1.00  0.00     0.006 C 
BRANCH   7   8
ATOM      8  C   UNL     1     -16.051  36.683  12.807  1.00  0.00     0.053 C 
BRANCH   8   9
ATOM      9  C   UNL     1     -16.263  35.689  11.709  1.00  0.00     0.041 C 
ATOM     10  O   UNL     1     -15.734  35.867  10.579  1.00  0.00    -0.550 OA
ATOM     11  O   UNL     1     -17.011  34.542  11.947  1.00  0.00    -0.550 OA
ENDBRANCH   8   9
ENDBRANCH   7   8
ENDBRANCH   6   7
ENDBRANCH   5   6
ENDBRANCH   4   5
ENDBRANCH   3   4
ENDBRANCH   2   3
ENDBRANCH   1   2
BRANCH   1  12
ATOM     12  C   UNL     1     -17.518  40.551  18.746  1.00  0.00     0.000 C 
BRANCH  12  13
ATOM     13  C   UNL     1     -18.388  41.534  19.544  1.00  0.00    -0.000 C 
BRANCH  13  14
ATOM     14  C   UNL     1     -18.134  41.465  21.061  1.00  0.00    -0.000 C 
BRANCH  14  15
ATOM     15  C   UNL     1     -16.929  42.287  21.562  1.00  0.00    -0.000 C 
BRANCH  15  16
ATOM     16  C   UNL     1     -17.169  43.805  21.659  1.00  0.00    -0.000 C 
BRANCH  16  17
ATOM     17  C   UNL     1     -16.253  44.543  22.652  1.00  0.00    -0.000 C 
BRANCH  17  18
ATOM     18  C   UNL     1     -17.007  45.517  23.584  1.00  0.00    -0.000 C 
BRANCH  18  19
ATOM     19  C   UNL     1     -16.415  46.934  23.557  1.00  0.00    -0.003 C 
ATOM     20  C   UNL     1     -15.941  47.306  22.155  1.00  0.00     0.004 C 
ENDBRANCH  18  19
ENDBRANCH  17  18
ENDBRANCH  16  17
ENDBRANCH  15  16
ENDBRANCH  14  15
ENDBRANCH  13  14
ENDBRANCH  12  13
ENDBRANCH   1  12
TORSDOF 16
ENDMDL
MODEL 2
REMARK VINA RESULT:    -5.541      4.564     10.099
REMARK INTER + INTRA:         -11.437
REMARK INTER:                  -9.656
REMARK INTRA:                  -1.781
REMARK UNBOUND:                -0.713
REMARK SMILES CCCCCCCCCCCCCCCCCC(=O)[O-]
REMARK SMILES IDX 10 1 11 2 12 3 13 4 14 5 15 6 16 7 17 8 18 9 19 10 20 11
REMARK SMILES IDX 9 12 8 13 7 14 6 15 5 16 4 17 3 18 2 19 1 20
REMARK H PARENT
REMARK Flexibility Score: inf
ROOT
ATOM      1  C   UNL     1     -15.993  35.962  16.637  1.00  0.00     0.000 C 
ENDROOT
BRANCH   1   2
ATOM      2  C   UNL     1     -16.497  37.404  16.772  1.00  0.00     0.000 C 
BRANCH   2   3
ATOM      3  C   UNL     1     -16.919  37.705  18.218  1.00  0.00     0.000 C 
BRANCH   3   4
ATOM      4  C   UNL     1     -17.135  39.205  18.470  1.00  0.00     0.000 C 
BRANCH   4   5
ATOM      5  C   UNL     1     -18.201  39.474  19.548  1.00  0.00     0.000 C 
BRANCH   5   6
ATOM      6  C   UNL     1     -18.780  40.894  19.466  1.00  0.00     0.000 C 
BRANCH   6   7
ATOM      7  C   UNL     1     -18.667  41.657  20.795  1.00  0.00     0.006 C 
BRANCH   7   8
ATOM      8  C   UNL     1     -17.254  41.537  21.373  1.00  0.00     0.053 C 
BRANCH   8   9
ATOM      9  C   UNL     1     -16.655  42.892  21.583  1.00  0.00     0.041 C 
ATOM     10  O   UNL     1     -15.419  43.015  21.791  1.00  0.00    -0.550 OA
ATOM     11  O   UNL     1     -17.457  44.024  21.507  1.00  0.00    -0.550 OA
ENDBRANCH   8   9
ENDBRANCH   7   8
ENDBRANCH   6   7
ENDBRANCH   5   6
ENDBRANCH   4   5
ENDBRANCH   3   4
ENDBRANCH   2   3
ENDBRANCH   1   2
BRANCH   1  12
ATOM     12  C   UNL     1     -14.944  35.845  15.526  1.00  0.00     0.000 C 
BRANCH  12  13
ATOM     13  C   UNL     1     -14.821  37.161  14.745  1.00  0.00    -0.000 C 
BRANCH  13  14
ATOM     14  C   UNL     1     -14.546  36.946  13.246  1.00  0.00    -0.000 C 
BRANCH  14  15
ATOM     15  C   UNL     1     -15.678  37.397  12.300  1.00  0.00    -0.000 C 
BRANCH  15  16
ATOM     16  C   UNL     1     -16.644  38.442  12.888  1.00  0.00    -0.000 C 
BRANCH  16  17
ATOM     17  C   UNL     1     -17.902  37.857  13.554  1.00  0.00    -0.000 C 
BRANCH  17  18
ATOM     18  C   UNL     1     -18.326  36.486  12.981  1.00  0.00    -0.000 C 
BRANCH  18  19
ATOM     19  C   UNL     1     -18.459  35.409  14.068  1.00  0.00    -0.003 C 
ATOM     20  C   UNL     1     -17.715  34.136  13.675  1.00  0.00     0.004 C 
ENDBRANCH  18  19
ENDBRANCH  17  18
ENDBRANCH  16  17
ENDBRANCH  15  16
ENDBRANCH  14  15
ENDBRANCH  13  14
ENDBRANCH  12  13
ENDBRANCH   1  12
TORSDOF 16
ENDMDL
MODEL 3
REMARK VINA RESULT:    -5.444      7.606      9.866
REMARK INTER + INTRA:         -11.249
REMARK INTER:                  -9.288
REMARK INTRA:                  -1.961
REMARK UNBOUND:                -0.713
REMARK SMILES CCCCCCCCCCCCCCCCCC(=O)[O-]
REMARK SMILES IDX 10 1 11 2 12 3 13 4 14 5 15 6 16 7 17 8 18 9 19 10 20 11
REMARK SMILES IDX 9 12 8 13 7 14 6 15 5 16 4 17 3 18 2 19 1 20
REMARK H PARENT
REMARK Flexibility Score: inf
ROOT
ATOM      1  C   UNL     1     -14.056  39.303  13.239  1.00  0.00     0.000 C 
ENDROOT
BRANCH   1   2
ATOM      2  C   UNL     1     -15.390  38.695  12.789  1.00  0.00     0.000 C 
BRANCH   2   3
ATOM      3  C   UNL     1     -16.230  39.723  12.017  1.00  0.00     0.000 C 
BRANCH   3   4
ATOM      4  C   UNL     1     -15.459  41.023  11.736  1.00  0.00     0.000 C 
BRANCH   4   5
ATOM      5  C   UNL     1     -15.094  41.181  10.249  1.00  0.00     0.000 C 
BRANCH   5   6
ATOM      6  C   UNL     1     -16.222  40.725   9.311  1.00  0.00     0.000 C 
BRANCH   6   7
ATOM      7  C   UNL     1     -17.019  41.902   8.727  1.00  0.00     0.006 C 
BRANCH   7   8
ATOM      8  C   UNL     1     -16.391  42.388   7.418  1.00  0.00     0.053 C 
BRANCH   8   9
ATOM      9  C   UNL     1     -15.780  43.743   7.599  1.00  0.00     0.041 C 
ATOM     10  O   UNL     1     -14.532  43.893   7.517  1.00  0.00    -0.550 OA
ATOM     11  O   UNL     1     -16.595  44.847   7.817  1.00  0.00    -0.550 OA
ENDBRANCH   8   9
ENDBRANCH   7   8
ENDBRANCH   6   7
ENDBRANCH   5   6
ENDBRANCH   4   5
ENDBRANCH   3   4
ENDBRANCH   2   3
ENDBRANCH   1   2
BRANCH   1  12
ATOM     12  C   UNL     1     -13.024  38.211  13.539  1.00  0.00     0.000 C 
BRANCH  12  13
ATOM     13  C   UNL     1     -13.681  36.823  13.553  1.00  0.00    -0.000 C 
BRANCH  13  14
ATOM     14  C   UNL     1     -13.777  36.218  14.965  1.00  0.00    -0.000 C 
BRANCH  14  15
ATOM     15  C   UNL     1     -15.172  36.298  15.619  1.00  0.00    -0.000 C 
BRANCH  15  16
ATOM     16  C   UNL     1     -16.259  35.442  14.945  1.00  0.00    -0.000 C 
BRANCH  16  17
ATOM     17  C   UNL     1     -17.476  36.232  14.427  1.00  0.00    -0.000 C 
BRANCH  17  18
ATOM     18  C   UNL     1     -17.706  36.089  12.907  1.00  0.00    -0.000 C 
BRANCH  18  19
ATOM     19  C   UNL     1     -16.814  35.010  12.275  1.00  0.00    -0.003 C 
ATOM     20  C   UNL     1     -16.058  35.558  11.069  1.00  0.00     0.004 C 
ENDBRANCH  18  19
ENDBRANCH  17  18
ENDBRANCH  16  17
ENDBRANCH  15  16
ENDBRANCH  14  15
ENDBRANCH  13  14
ENDBRANCH  12  13
ENDBRANCH   1  12
TORSDOF 16
ENDMDL
MODEL 4
REMARK VINA RESULT:    -5.441      5.491     10.827
REMARK INTER + INTRA:         -11.242
REMARK INTER:                 -10.137
REMARK INTRA:                  -1.105
REMARK UNBOUND:                -0.713
REMARK SMILES CCCCCCCCCCCCCCCCCC(=O)[O-]
REMARK SMILES IDX 10 1 11 2 12 3 13 4 14 5 15 6 16 7 17 8 18 9 19 10 20 11
REMARK SMILES IDX 9 12 8 13 7 14 6 15 5 16 4 17 3 18 2 19 1 20
REMARK H PARENT
REMARK Flexibility Score: inf
ROOT
ATOM      1  C   UNL     1     -17.290  39.475  18.668  1.00  0.00     0.000 C 
ENDROOT
BRANCH   1   2
ATOM      2  C   UNL     1     -18.600  39.737  19.421  1.00  0.00     0.000 C 
BRANCH   2   3
ATOM      3  C   UNL     1     -18.362  40.648  20.635  1.00  0.00     0.000 C 
BRANCH   3   4
ATOM      4  C   UNL     1     -17.086  40.280  21.408  1.00  0.00     0.000 C 
BRANCH   4   5
ATOM      5  C   UNL     1     -16.545  41.453  22.243  1.00  0.00     0.000 C 
BRANCH   5   6
ATOM      6  C   UNL     1     -16.608  42.793  21.493  1.00  0.00     0.000 C 
BRANCH   6   7
ATOM      7  C   UNL     1     -15.905  43.930  22.251  1.00  0.00     0.006 C 
BRANCH   7   8
ATOM      8  C   UNL     1     -16.927  44.844  22.932  1.00  0.00     0.053 C 
BRANCH   8   9
ATOM      9  C   UNL     1     -16.243  46.002  23.588  1.00  0.00     0.041 C 
ATOM     10  O   UNL     1     -15.267  45.809  24.360  1.00  0.00    -0.550 OA
ATOM     11  O   UNL     1     -16.658  47.299  23.312  1.00  0.00    -0.550 OA
ENDBRANCH   8   9
ENDBRANCH   7   8
ENDBRANCH   6   7
ENDBRANCH   5   6
ENDBRANCH   4   5
ENDBRANCH   3   4
ENDBRANCH   2   3
ENDBRANCH   1   2
BRANCH   1  12
ATOM     12  C   UNL     1     -17.030  37.972  18.519  1.00  0.00     0.000 C 
BRANCH  12  13
ATOM     13  C   UNL     1     -16.669  37.616  17.070  1.00  0.00    -0.000 C 
BRANCH  13  14
ATOM     14  C   UNL     1     -16.026  36.225  16.935  1.00  0.00    -0.000 C 
BRANCH  14  15
ATOM     15  C   UNL     1     -15.679  35.799  15.493  1.00  0.00    -0.000 C 
BRANCH  15  16
ATOM     16  C   UNL     1     -16.836  35.159  14.705  1.00  0.00    -0.000 C 
BRANCH  16  17
ATOM     17  C   UNL     1     -17.051  35.732  13.292  1.00  0.00    -0.000 C 
BRANCH  17  18
ATOM     18  C   UNL     1     -18.197  36.765  13.210  1.00  0.00    -0.000 C 
BRANCH  18  19
ATOM     19  C   UNL     1     -17.720  38.197  13.492  1.00  0.00    -0.003 C 
ATOM     20  C   UNL     1     -16.344  38.449  12.883  1.00  0.00     0.004 C 
ENDBRANCH  18  19
ENDBRANCH  17  18
ENDBRANCH  16  17
ENDBRANCH  15  16
ENDBRANCH  14  15
ENDBRANCH  13  14
ENDBRANCH  12  13
ENDBRANCH   1  12
TORSDOF 16
ENDMDL
MODEL 5
REMARK VINA RESULT:    -5.386      7.108      9.143
REMARK INTER + INTRA:         -11.136
REMARK INTER:                  -8.791
REMARK INTRA:                  -2.344
REMARK UNBOUND:                -0.713
REMARK SMILES CCCCCCCCCCCCCCCCCC(=O)[O-]
REMARK SMILES IDX 10 1 11 2 12 3 13 4 14 5 15 6 16 7 17 8 18 9 19 10 20 11
REMARK SMILES IDX 9 12 8 13 7 14 6 15 5 16 4 17 3 18 2 19 1 20
REMARK H PARENT
REMARK Flexibility Score: inf
ROOT
ATOM      1  C   UNL     1     -17.416  40.797  10.225  1.00  0.00     0.000 C 
ENDROOT
BRANCH   1   2
ATOM      2  C   UNL     1     -17.191  40.809  11.743  1.00  0.00     0.000 C 
BRANCH   2   3
ATOM      3  C   UNL     1     -15.918  40.033  12.114  1.00  0.00     0.000 C 
BRANCH   3   4
ATOM      4  C   UNL     1     -16.219  38.617  12.629  1.00  0.00     0.000 C 
BRANCH   4   5
ATOM      5  C   UNL     1     -17.634  38.495  13.223  1.00  0.00     0.000 C 
BRANCH   5   6
ATOM      6  C   UNL     1     -18.142  37.045  13.248  1.00  0.00     0.000 C 
BRANCH   6   7
ATOM      7  C   UNL     1     -17.004  36.018  13.135  1.00  0.00     0.006 C 
BRANCH   7   8
ATOM      8  C   UNL     1     -16.797  35.286  14.463  1.00  0.00     0.053 C 
BRANCH   8   9
ATOM      9  C   UNL     1     -15.845  36.041  15.337  1.00  0.00     0.041 C 
ATOM     10  O   UNL     1     -16.277  36.758  16.278  1.00  0.00    -0.550 OA
ATOM     11  O   UNL     1     -14.475  35.919  15.137  1.00  0.00    -0.550 OA
ENDBRANCH   8   9
ENDBRANCH   7   8
ENDBRANCH   6   7
ENDBRANCH   5   6
ENDBRANCH   4   5
ENDBRANCH   3   4
ENDBRANCH   2   3
ENDBRANCH   1   2
BRANCH   1  12
ATOM     12  C   UNL     1     -17.786  42.193   9.712  1.00  0.00     0.000 C 
BRANCH  12  13
ATOM     13  C   UNL     1     -17.042  42.514   8.407  1.00  0.00    -0.000 C 
BRANCH  13  14
ATOM     14  C   UNL     1     -15.931  41.499   8.084  1.00  0.00    -0.000 C 
BRANCH  14  15
ATOM     15  C   UNL     1     -14.492  42.048   8.180  1.00  0.00    -0.000 C 
BRANCH  15  16
ATOM     16  C   UNL     1     -13.808  41.851   9.545  1.00  0.00    -0.000 C 
BRANCH  16  17
ATOM     17  C   UNL     1     -13.561  43.148  10.338  1.00  0.00    -0.000 C 
BRANCH  17  18
ATOM     18  C   UNL     1     -14.758  43.575  11.215  1.00  0.00    -0.000 C 
BRANCH  18  19
ATOM     19  C   UNL     1     -15.116  45.059  11.040  1.00  0.00    -0.003 C 
ATOM     20  C   UNL     1     -15.142  45.449   9.565  1.00  0.00     0.004 C 
ENDBRANCH  18  19
ENDBRANCH  17  18
ENDBRANCH  16  17
ENDBRANCH  15  16
ENDBRANCH  14  15
ENDBRANCH  13  14
ENDBRANCH  12  13
ENDBRANCH   1  12
TORSDOF 16
ENDMDL
MODEL 6
REMARK VINA RESULT:    -5.362      5.103     10.797
REMARK INTER + INTRA:         -11.091
REMARK INTER:                  -9.831
REMARK INTRA:                  -1.260
REMARK UNBOUND:                -0.713
REMARK SMILES CCCCCCCCCCCCCCCCCC(=O)[O-]
REMARK SMILES IDX 10 1 11 2 12 3 13 4 14 5 15 6 16 7 17 8 18 9 19 10 20 11
REMARK SMILES IDX 9 12 8 13 7 14 6 15 5 16 4 17 3 18 2 19 1 20
REMARK H PARENT
REMARK Flexibility Score: inf
ROOT
ATOM      1  C   UNL     1     -16.632  37.382  17.948  1.00  0.00     0.000 C 
ENDROOT
BRANCH   1   2
ATOM      2  C   UNL     1     -17.005  38.839  18.253  1.00  0.00     0.000 C 
BRANCH   2   3
ATOM      3  C   UNL     1     -17.521  38.983  19.692  1.00  0.00     0.000 C 
BRANCH   3   4
ATOM      4  C   UNL     1     -18.486  40.167  19.858  1.00  0.00     0.000 C 
BRANCH   4   5
ATOM      5  C   UNL     1     -17.749  41.504  20.055  1.00  0.00     0.000 C 
BRANCH   5   6
ATOM      6  C   UNL     1     -17.104  41.626  21.444  1.00  0.00     0.000 C 
BRANCH   6   7
ATOM      7  C   UNL     1     -16.314  42.932  21.617  1.00  0.00     0.006 C 
BRANCH   7   8
ATOM      8  C   UNL     1     -17.261  44.127  21.755  1.00  0.00     0.053 C 
BRANCH   8   9
ATOM      9  C   UNL     1     -16.575  45.267  22.439  1.00  0.00     0.041 C 
ATOM     10  O   UNL     1     -16.133  46.238  21.768  1.00  0.00    -0.550 OA
ATOM     11  O   UNL     1     -16.460  45.277  23.824  1.00  0.00    -0.550 OA
ENDBRANCH   8   9
ENDBRANCH   7   8
ENDBRANCH   6   7
ENDBRANCH   5   6
ENDBRANCH   4   5
ENDBRANCH   3   4
ENDBRANCH   2   3
ENDBRANCH   1   2
BRANCH   1  12
ATOM     12  C   UNL     1     -16.609  37.123  16.438  1.00  0.00     0.000 C 
BRANCH  12  13
ATOM     13  C   UNL     1     -15.631  35.992  16.089  1.00  0.00    -0.000 C 
BRANCH  13  14
ATOM     14  C   UNL     1     -14.363  36.493  15.376  1.00  0.00    -0.000 C 
BRANCH  14  15
ATOM     15  C   UNL     1     -14.334  36.265  13.850  1.00  0.00    -0.000 C 
BRANCH  15  16
ATOM     16  C   UNL     1     -15.372  37.074  13.050  1.00  0.00    -0.000 C 
BRANCH  16  17
ATOM     17  C   UNL     1     -16.531  36.244  12.470  1.00  0.00    -0.000 C 
BRANCH  17  18
ATOM     18  C   UNL     1     -17.903  36.570  13.100  1.00  0.00    -0.000 C 
BRANCH  18  19
ATOM     19  C   UNL     1     -18.525  35.362  13.817  1.00  0.00    -0.003 C 
ATOM     20  C   UNL     1     -17.677  34.110  13.620  1.00  0.00     0.004 C 
ENDBRANCH  18  19
ENDBRANCH  17  18
ENDBRANCH  16  17
ENDBRANCH  15  16
ENDBRANCH  14  15
ENDBRANCH  13  14
ENDBRANCH  12  13
ENDBRANCH   1  12
TORSDOF 16
ENDMDL
MODEL 7
REMARK VINA RESULT:    -5.298      7.124      9.653
REMARK INTER + INTRA:         -10.967
REMARK INTER:                  -8.462
REMARK INTRA:                  -2.504
REMARK UNBOUND:                -0.713
REMARK SMILES CCCCCCCCCCCCCCCCCC(=O)[O-]
REMARK SMILES IDX 10 1 11 2 12 3 13 4 14 5 15 6 16 7 17 8 18 9 19 10 20 11
REMARK SMILES IDX 9 12 8 13 7 14 6 15 5 16 4 17 3 18 2 19 1 20
REMARK H PARENT
REMARK Flexibility Score: inf
ROOT
ATOM      1  C   UNL     1     -17.066  41.666   9.471  1.00  0.00     0.000 C 
ENDROOT
BRANCH   1   2
ATOM      2  C   UNL     1     -17.974  41.911  10.682  1.00  0.00     0.000 C 
BRANCH   2   3
ATOM      3  C   UNL     1     -17.390  41.264  11.946  1.00  0.00     0.000 C 
BRANCH   3   4
ATOM      4  C   UNL     1     -16.104  40.471  11.663  1.00  0.00     0.000 C 
BRANCH   4   5
ATOM      5  C   UNL     1     -16.078  39.113  12.387  1.00  0.00     0.000 C 
BRANCH   5   6
ATOM      6  C   UNL     1     -17.420  38.773  13.055  1.00  0.00     0.000 C 
BRANCH   6   7
ATOM      7  C   UNL     1     -17.723  37.267  13.041  1.00  0.00     0.006 C 
BRANCH   7   8
ATOM      8  C   UNL     1     -16.429  36.451  12.988  1.00  0.00     0.053 C 
BRANCH   8   9
ATOM      9  C   UNL     1     -16.437  35.528  11.809  1.00  0.00     0.041 C 
ATOM     10  O   UNL     1     -15.846  35.851  10.745  1.00  0.00    -0.550 OA
ATOM     11  O   UNL     1     -17.062  34.291  11.903  1.00  0.00    -0.550 OA
ENDBRANCH   8   9
ENDBRANCH   7   8
ENDBRANCH   6   7
ENDBRANCH   5   6
ENDBRANCH   4   5
ENDBRANCH   3   4
ENDBRANCH   2   3
ENDBRANCH   1   2
BRANCH   1  12
ATOM     12  C   UNL     1     -17.083  42.865   8.517  1.00  0.00     0.000 C 
BRANCH  12  13
ATOM     13  C   UNL     1     -16.354  42.535   7.206  1.00  0.00    -0.000 C 
BRANCH  13  14
ATOM     14  C   UNL     1     -15.264  41.461   7.379  1.00  0.00    -0.000 C 
BRANCH  14  15
ATOM     15  C   UNL     1     -13.827  41.929   7.070  1.00  0.00    -0.000 C 
BRANCH  15  16
ATOM     16  C   UNL     1     -13.086  42.584   8.250  1.00  0.00    -0.000 C 
BRANCH  16  17
ATOM     17  C   UNL     1     -13.314  41.904   9.613  1.00  0.00    -0.000 C 
BRANCH  17  18
ATOM     18  C   UNL     1     -13.421  42.898  10.791  1.00  0.00    -0.000 C 
BRANCH  18  19
ATOM     19  C   UNL     1     -14.200  44.169  10.419  1.00  0.00    -0.003 C 
ATOM     20  C   UNL     1     -15.296  44.460  11.439  1.00  0.00     0.004 C 
ENDBRANCH  18  19
ENDBRANCH  17  18
ENDBRANCH  16  17
ENDBRANCH  15  16
ENDBRANCH  14  15
ENDBRANCH  13  14
ENDBRANCH  12  13
ENDBRANCH   1  12
TORSDOF 16
ENDMDL
MODEL 8
REMARK VINA RESULT:    -5.273      6.980      9.055
REMARK INTER + INTRA:         -10.918
REMARK INTER:                  -8.932
REMARK INTRA:                  -1.987
REMARK UNBOUND:                -0.713
REMARK SMILES CCCCCCCCCCCCCCCCCC(=O)[O-]
REMARK SMILES IDX 10 1 11 2 12 3 13 4 14 5 15 6 16 7 17 8 18 9 19 10 20 11
REMARK SMILES IDX 9 12 8 13 7 14 6 15 5 16 4 17 3 18 2 19 1 20
REMARK H PARENT
REMARK Flexibility Score: inf
ROOT
ATOM      1  C   UNL     1     -17.228  41.269  11.704  1.00  0.00     0.000 C 
ENDROOT
BRANCH   1   2
ATOM      2  C   UNL     1     -15.917  40.473  11.743  1.00  0.00     0.000 C 
BRANCH   2   3
ATOM      3  C   UNL     1     -16.099  39.152  12.504  1.00  0.00     0.000 C 
BRANCH   3   4
ATOM      4  C   UNL     1     -14.812  38.693  13.206  1.00  0.00     0.000 C 
BRANCH   4   5
ATOM      5  C   UNL     1     -14.491  37.212  12.937  1.00  0.00     0.000 C 
BRANCH   5   6
ATOM      6  C   UNL     1     -14.278  36.408  14.229  1.00  0.00     0.000 C 
BRANCH   6   7
ATOM      7  C   UNL     1     -15.386  36.652  15.266  1.00  0.00     0.006 C 
BRANCH   7   8
ATOM      8  C   UNL     1     -16.235  35.393  15.461  1.00  0.00     0.053 C 
BRANCH   8   9
ATOM      9  C   UNL     1     -17.241  35.261  14.361  1.00  0.00     0.041 C 
ATOM     10  O   UNL     1     -17.548  34.124  13.914  1.00  0.00    -0.550 OA
ATOM     11  O   UNL     1     -17.871  36.393  13.858  1.00  0.00    -0.550 OA
ENDBRANCH   8   9
ENDBRANCH   7   8
ENDBRANCH   6   7
ENDBRANCH   5   6
ENDBRANCH   4   5
ENDBRANCH   3   4
ENDBRANCH   2   3
ENDBRANCH   1   2
BRANCH   1  12
ATOM     12  C   UNL     1     -17.697  41.491  10.262  1.00  0.00     0.000 C 
BRANCH  12  13
ATOM     13  C   UNL     1     -16.564  41.202   9.265  1.00  0.00    -0.000 C 
BRANCH  13  14
ATOM     14  C   UNL     1     -16.546  42.181   8.077  1.00  0.00    -0.000 C 
BRANCH  14  15
ATOM     15  C   UNL     1     -17.162  43.567   8.359  1.00  0.00    -0.000 C 
BRANCH  15  16
ATOM     16  C   UNL     1     -16.279  44.765   7.966  1.00  0.00    -0.000 C 
BRANCH  16  17
ATOM     17  C   UNL     1     -14.994  44.924   8.800  1.00  0.00    -0.000 C 
BRANCH  17  18
ATOM     18  C   UNL     1     -15.245  44.958  10.323  1.00  0.00    -0.000 C 
BRANCH  18  19
ATOM     19  C   UNL     1     -14.556  43.800  11.060  1.00  0.00    -0.003 C 
ATOM     20  C   UNL     1     -13.455  43.182  10.204  1.00  0.00     0.004 C 
ENDBRANCH  18  19
ENDBRANCH  17  18
ENDBRANCH  16  17
ENDBRANCH  15  16
ENDBRANCH  14  15
ENDBRANCH  13  14
ENDBRANCH  12  13
ENDBRANCH   1  12
TORSDOF 16
ENDMDL
MODEL 9
REMARK VINA RESULT:    -5.270      1.365      2.222
REMARK INTER + INTRA:         -10.912
REMARK INTER:                  -9.829
REMARK INTRA:                  -1.083
REMARK UNBOUND:                -0.713
REMARK SMILES CCCCCCCCCCCCCCCCCC(=O)[O-]
REMARK SMILES IDX 10 1 11 2 12 3 13 4 14 5 15 6 16 7 17 8 18 9 19 10 20 11
REMARK SMILES IDX 9 12 8 13 7 14 6 15 5 16 4 17 3 18 2 19 1 20
REMARK H PARENT
REMARK Flexibility Score: inf
ROOT
ATOM      1  C   UNL     1     -16.989  38.097  17.482  1.00  0.00     0.000 C 
ENDROOT
BRANCH   1   2
ATOM      2  C   UNL     1     -16.272  36.747  17.599  1.00  0.00     0.000 C 
BRANCH   2   3
ATOM      3  C   UNL     1     -16.179  36.054  16.231  1.00  0.00     0.000 C 
BRANCH   3   4
ATOM      4  C   UNL     1     -14.826  36.290  15.541  1.00  0.00     0.000 C 
BRANCH   4   5
ATOM      5  C   UNL     1     -14.924  37.304  14.387  1.00  0.00     0.000 C 
BRANCH   5   6
ATOM      6  C   UNL     1     -14.694  36.659  13.012  1.00  0.00     0.000 C 
BRANCH   6   7
ATOM      7  C   UNL     1     -15.914  36.788  12.086  1.00  0.00     0.006 C 
BRANCH   7   8
ATOM      8  C   UNL     1     -16.573  35.424  11.862  1.00  0.00     0.053 C 
BRANCH   8   9
ATOM      9  C   UNL     1     -17.490  35.090  12.997  1.00  0.00     0.041 C 
ATOM     10  O   UNL     1     -17.464  33.945  13.520  1.00  0.00    -0.550 OA
ATOM     11  O   UNL     1     -18.345  36.061  13.506  1.00  0.00    -0.550 OA
ENDBRANCH   8   9
ENDBRANCH   7   8
ENDBRANCH   6   7
ENDBRANCH   5   6
ENDBRANCH   4   5
ENDBRANCH   3   4
ENDBRANCH   2   3
ENDBRANCH   1   2
BRANCH   1  12
ATOM     12  C   UNL     1     -17.370  38.641  18.864  1.00  0.00     0.000 C 
BRANCH  12  13
ATOM     13  C   UNL     1     -17.456  40.175  18.846  1.00  0.00    -0.000 C 
BRANCH  13  14
ATOM     14  C   UNL     1     -18.712  40.714  19.553  1.00  0.00    -0.000 C 
BRANCH  14  15
ATOM     15  C   UNL     1     -18.474  41.291  20.964  1.00  0.00    -0.000 C 
BRANCH  15  16
ATOM     16  C   UNL     1     -17.011  41.264  21.442  1.00  0.00    -0.000 C 
BRANCH  16  17
ATOM     17  C   UNL     1     -16.489  42.601  22.002  1.00  0.00    -0.000 C 
BRANCH  17  18
ATOM     18  C   UNL     1     -17.260  43.833  21.480  1.00  0.00    -0.000 C 
BRANCH  18  19
ATOM     19  C   UNL     1     -17.010  45.087  22.331  1.00  0.00    -0.003 C 
ATOM     20  C   UNL     1     -15.943  44.830  23.391  1.00  0.00     0.004 C 
ENDBRANCH  18  19
ENDBRANCH  17  18
ENDBRANCH  16  17
ENDBRANCH  15  16
ENDBRANCH  14  15
ENDBRANCH  13  14
ENDBRANCH  12  13
ENDBRANCH   1  12
TORSDOF 16
ENDMDL
