MODEL 1
REMARK VINA RESULT:    -3.419      0.000      0.000
REMARK INTER + INTRA:          -6.277
REMARK INTER:                  -5.218
REMARK INTRA:                  -1.059
REMARK UNBOUND:                -1.059
REMARK SMILES CCCCCCCCCCC(=O)[O-]
REMARK SMILES IDX 7 1 8 2 9 3 10 4 11 5 12 6 13 7 6 8 5 9 4 10 3 11 2 12 1 13
REMARK H PARENT
REMARK Flexibility Score: inf
ROOT
ATOM      1  C   UNL     1      12.487  12.708   8.810  1.00  0.00     0.000 C 
ENDROOT
BRANCH   1   2
ATOM      2  C   UNL     1      12.630  11.213   9.150  1.00  0.00     0.000 C 
BRANCH   2   3
ATOM      3  C   UNL     1      12.134  10.846  10.566  1.00  0.00     0.006 C 
BRANCH   3   4
ATOM      4  C   UNL     1      12.658  11.810  11.638  1.00  0.00     0.053 C 
BRANCH   4   5
ATOM      5  C   UNL     1      12.373  11.274  13.006  1.00  0.00     0.041 C 
ATOM      6  O   UNL     1      11.205  10.920  13.316  1.00  0.00    -0.550 OA
ATOM      7  O   UNL     1      13.387  11.213  13.954  1.00  0.00    -0.550 OA
ENDBRANCH   4   5
ENDBRANCH   3   4
ENDBRANCH   2   3
ENDBRANCH   1   2
BRANCH   1   8
ATOM      8  C   UNL     1      11.083  13.139   8.345  1.00  0.00     0.000 C 
BRANCH   8   9
ATOM      9  C   UNL     1      10.505  14.367   9.074  1.00  0.00    -0.000 C 
BRANCH   9  10
ATOM     10  C   UNL     1      11.533  15.065   9.977  1.00  0.00    -0.000 C 
BRANCH  10  11
ATOM     11  C   UNL     1      11.107  14.996  11.448  1.00  0.00    -0.000 C 
BRANCH  11  12
ATOM     12  C   UNL     1       9.652  14.530  11.578  1.00  0.00    -0.003 C 
ATOM     13  C   UNL     1       9.407  13.860  12.927  1.00  0.00     0.004 C 
ENDBRANCH  11  12
ENDBRANCH  10  11
ENDBRANCH   9  10
ENDBRANCH   8   9
ENDBRANCH   1   8
TORSDOF 9
ENDMDL
MODEL 2
REMARK VINA RESULT:    -3.419      1.442      2.240
REMARK INTER + INTRA:          -6.276
REMARK INTER:                  -4.941
REMARK INTRA:                  -1.336
REMARK UNBOUND:                -1.059
REMARK SMILES CCCCCCCCCCC(=O)[O-]
REMARK SMILES IDX 7 1 8 2 9 3 10 4 11 5 12 6 13 7 6 8 5 9 4 10 3 11 2 12 1 13
REMARK H PARENT
REMARK Flexibility Score: inf
ROOT
ATOM      1  C   UNL     1      12.367  10.963   9.991  1.00  0.00     0.000 C 
ENDROOT
BRANCH   1   2
ATOM      2  C   UNL     1      10.839  11.074  10.159  1.00  0.00     0.000 C 
BRANCH   2   3
ATOM      3  C   UNL     1      10.320  10.522  11.504  1.00  0.00     0.006 C 
BRANCH   3   4
ATOM      4  C   UNL     1      10.042  11.633  12.525  1.00  0.00     0.053 C 
BRANCH   4   5
ATOM      5  C   UNL     1      10.943  11.489  13.711  1.00  0.00     0.041 C 
ATOM      6  O   UNL     1      10.481  11.614  14.876  1.00  0.00    -0.550 OA
ATOM      7  O   UNL     1      12.302  11.267  13.529  1.00  0.00    -0.550 OA
ENDBRANCH   4   5
ENDBRANCH   3   4
ENDBRANCH   2   3
ENDBRANCH   1   2
BRANCH   1   8
ATOM      8  C   UNL     1      13.076  12.274   9.603  1.00  0.00     0.000 C 
BRANCH   8   9
ATOM      9  C   UNL     1      13.097  13.352  10.703  1.00  0.00    -0.000 C 
BRANCH   9  10
ATOM     10  C   UNL     1      12.361  14.637  10.295  1.00  0.00    -0.000 C 
BRANCH  10  11
ATOM     11  C   UNL     1      11.105  14.845  11.150  1.00  0.00    -0.000 C 
BRANCH  11  12
ATOM     12  C   UNL     1       9.834  14.645  10.317  1.00  0.00    -0.003 C 
ATOM     13  C   UNL     1      10.161  14.533   8.830  1.00  0.00     0.004 C 
ENDBRANCH  11  12
ENDBRANCH  10  11
ENDBRANCH   9  10
ENDBRANCH   8   9
ENDBRANCH   1   8
TORSDOF 9
ENDMDL
MODEL 3
REMARK VINA RESULT:    -3.398      1.309      3.515
REMARK INTER + INTRA:          -6.245
REMARK INTER:                  -5.172
REMARK INTRA:                  -1.073
REMARK UNBOUND:                -1.059
REMARK SMILES CCCCCCCCCCC(=O)[O-]
REMARK SMILES IDX 7 1 8 2 9 3 10 4 11 5 12 6 13 7 6 8 5 9 4 10 3 11 2 12 1 13
REMARK H PARENT
REMARK Flexibility Score: inf
ROOT
ATOM      1  C   UNL     1      10.829  14.982  12.018  1.00  0.00     0.000 C 
ENDROOT
BRANCH   1   2
ATOM      2  C   UNL     1       9.382  14.607  12.392  1.00  0.00     0.000 C 
BRANCH   2   3
ATOM      3  C   UNL     1       9.257  13.246  13.110  1.00  0.00     0.006 C 
BRANCH   3   4
ATOM      4  C   UNL     1      10.194  12.184  12.520  1.00  0.00     0.053 C 
BRANCH   4   5
ATOM      5  C   UNL     1      11.020  11.559  13.600  1.00  0.00     0.041 C 
ATOM      6  O   UNL     1      10.634  11.603  14.798  1.00  0.00    -0.550 OA
ATOM      7  O   UNL     1      12.239  10.971  13.290  1.00  0.00    -0.550 OA
ENDBRANCH   4   5
ENDBRANCH   3   4
ENDBRANCH   2   3
ENDBRANCH   1   2
BRANCH   1   8
ATOM      8  C   UNL     1      11.052  15.317  10.532  1.00  0.00     0.000 C 
BRANCH   8   9
ATOM      9  C   UNL     1      12.370  14.787   9.936  1.00  0.00    -0.000 C 
BRANCH   9  10
ATOM     10  C   UNL     1      13.051  13.739  10.829  1.00  0.00    -0.000 C 
BRANCH  10  11
ATOM     11  C   UNL     1      13.147  12.387  10.111  1.00  0.00    -0.000 C 
BRANCH  11  12
ATOM     12  C   UNL     1      12.342  12.399   8.807  1.00  0.00    -0.003 C 
ATOM     13  C   UNL     1      11.091  11.534   8.924  1.00  0.00     0.004 C 
ENDBRANCH  11  12
ENDBRANCH  10  11
ENDBRANCH   9  10
ENDBRANCH   8   9
ENDBRANCH   1   8
TORSDOF 9
ENDMDL
MODEL 4
REMARK VINA RESULT:    -3.381      1.629      3.544
REMARK INTER + INTRA:          -6.219
REMARK INTER:                  -5.060
REMARK INTRA:                  -1.159
REMARK UNBOUND:                -1.059
REMARK SMILES CCCCCCCCCCC(=O)[O-]
REMARK SMILES IDX 7 1 8 2 9 3 10 4 11 5 12 6 13 7 6 8 5 9 4 10 3 11 2 12 1 13
REMARK H PARENT
REMARK Flexibility Score: inf
ROOT
ATOM      1  C   UNL     1       8.990  13.750  13.222  1.00  0.00     0.000 C 
ENDROOT
BRANCH   1   2
ATOM      2  C   UNL     1       9.724  12.397  13.300  1.00  0.00     0.000 C 
BRANCH   2   3
ATOM      3  C   UNL     1       9.732  11.617  11.967  1.00  0.00     0.006 C 
BRANCH   3   4
ATOM      4  C   UNL     1      10.295  10.198  12.122  1.00  0.00     0.053 C 
BRANCH   4   5
ATOM      5  C   UNL     1      11.762  10.184  11.827  1.00  0.00     0.041 C 
ATOM      6  O   UNL     1      12.586  10.577  12.695  1.00  0.00    -0.550 OA
ATOM      7  O   UNL     1      12.216   9.784  10.577  1.00  0.00    -0.550 OA
ENDBRANCH   4   5
ENDBRANCH   3   4
ENDBRANCH   2   3
ENDBRANCH   1   2
BRANCH   1   8
ATOM      8  C   UNL     1       9.322  14.600  11.982  1.00  0.00     0.000 C 
BRANCH   8   9
ATOM      9  C   UNL     1      10.716  15.254  11.995  1.00  0.00    -0.000 C 
BRANCH   9  10
ATOM     10  C   UNL     1      11.479  15.064  10.676  1.00  0.00    -0.000 C 
BRANCH  10  11
ATOM     11  C   UNL     1      12.527  13.952  10.804  1.00  0.00    -0.000 C 
BRANCH  11  12
ATOM     12  C   UNL     1      12.520  13.045   9.568  1.00  0.00    -0.003 C 
ATOM     13  C   UNL     1      11.166  13.082   8.866  1.00  0.00     0.004 C 
ENDBRANCH  11  12
ENDBRANCH  10  11
ENDBRANCH   9  10
ENDBRANCH   8   9
ENDBRANCH   1   8
TORSDOF 9
ENDMDL
MODEL 5
REMARK VINA RESULT:    -3.379      2.687      4.458
REMARK INTER + INTRA:          -6.217
REMARK INTER:                  -4.939
REMARK INTRA:                  -1.277
REMARK UNBOUND:                -1.059
REMARK SMILES CCCCCCCCCCC(=O)[O-]
REMARK SMILES IDX 7 1 8 2 9 3 10 4 11 5 12 6 13 7 6 8 5 9 4 10 3 11 2 12 1 13
REMARK H PARENT
REMARK Flexibility Score: inf
ROOT
ATOM      1  C   UNL     1      12.998  13.284  10.656  1.00  0.00     0.000 C 
ENDROOT
BRANCH   1   2
ATOM      2  C   UNL     1      12.287  14.604  10.299  1.00  0.00     0.000 C 
BRANCH   2   3
ATOM      3  C   UNL     1      10.985  14.844  11.096  1.00  0.00     0.006 C 
BRANCH   3   4
ATOM      4  C   UNL     1       9.882  13.842  10.731  1.00  0.00     0.053 C 
BRANCH   4   5
ATOM      5  C   UNL     1       9.569  13.918   9.271  1.00  0.00     0.041 C 
ATOM      6  O   UNL     1       9.134  14.989   8.771  1.00  0.00    -0.550 OA
ATOM      7  O   UNL     1       9.708  12.791   8.470  1.00  0.00    -0.550 OA
ENDBRANCH   4   5
ENDBRANCH   3   4
ENDBRANCH   2   3
ENDBRANCH   1   2
BRANCH   1   8
ATOM      8  C   UNL     1      13.042  12.242   9.523  1.00  0.00     0.000 C 
BRANCH   8   9
ATOM      9  C   UNL     1      12.370  10.895   9.852  1.00  0.00    -0.000 C 
BRANCH   9  10
ATOM     10  C   UNL     1      12.232  10.648  11.362  1.00  0.00    -0.000 C 
BRANCH  10  11
ATOM     11  C   UNL     1      10.937   9.890  11.678  1.00  0.00    -0.000 C 
BRANCH  11  12
ATOM     12  C   UNL     1      10.085  10.658  12.695  1.00  0.00    -0.003 C 
ATOM     13  C   UNL     1      10.951  11.560  13.570  1.00  0.00     0.004 C 
ENDBRANCH  11  12
ENDBRANCH  10  11
ENDBRANCH   9  10
ENDBRANCH   8   9
ENDBRANCH   1   8
TORSDOF 9
ENDMDL
MODEL 6
REMARK VINA RESULT:    -3.339      1.152      3.382
REMARK INTER + INTRA:          -6.155
REMARK INTER:                  -5.008
REMARK INTRA:                  -1.147
REMARK UNBOUND:                -1.059
REMARK SMILES CCCCCCCCCCC(=O)[O-]
REMARK SMILES IDX 7 1 8 2 9 3 10 4 11 5 12 6 13 7 6 8 5 9 4 10 3 11 2 12 1 13
REMARK H PARENT
REMARK Flexibility Score: inf
ROOT
ATOM      1  C   UNL     1      11.504  14.751  11.211  1.00  0.00     0.000 C 
ENDROOT
BRANCH   1   2
ATOM      2  C   UNL     1      10.257  14.878  12.107  1.00  0.00     0.000 C 
BRANCH   2   3
ATOM      3  C   UNL     1       9.790  13.538  12.716  1.00  0.00     0.006 C 
BRANCH   3   4
ATOM      4  C   UNL     1      10.630  12.349  12.232  1.00  0.00     0.053 C 
BRANCH   4   5
ATOM      5  C   UNL     1      11.173  11.583  13.397  1.00  0.00     0.041 C 
ATOM      6  O   UNL     1      10.576  11.611  14.506  1.00  0.00    -0.550 OA
ATOM      7  O   UNL     1      12.363  10.880  13.273  1.00  0.00    -0.550 OA
ENDBRANCH   4   5
ENDBRANCH   3   4
ENDBRANCH   2   3
ENDBRANCH   1   2
BRANCH   1   8
ATOM      8  C   UNL     1      11.364  15.372   9.809  1.00  0.00     0.000 C 
BRANCH   8   9
ATOM      9  C   UNL     1      10.086  14.974   9.046  1.00  0.00    -0.000 C 
BRANCH   9  10
ATOM     10  C   UNL     1       9.973  13.460   8.818  1.00  0.00    -0.000 C 
BRANCH  10  11
ATOM     11  C   UNL     1      11.119  12.950   7.936  1.00  0.00    -0.000 C 
BRANCH  11  12
ATOM     12  C   UNL     1      11.744  11.681   8.526  1.00  0.00    -0.003 C 
ATOM     13  C   UNL     1      13.028  12.001   9.286  1.00  0.00     0.004 C 
ENDBRANCH  11  12
ENDBRANCH  10  11
ENDBRANCH   9  10
ENDBRANCH   8   9
ENDBRANCH   1   8
TORSDOF 9
ENDMDL
MODEL 7
REMARK VINA RESULT:    -3.333      2.469      4.303
REMARK INTER + INTRA:          -6.145
REMARK INTER:                  -4.722
REMARK INTRA:                  -1.423
REMARK UNBOUND:                -1.059
REMARK SMILES CCCCCCCCCCC(=O)[O-]
REMARK SMILES IDX 7 1 8 2 9 3 10 4 11 5 12 6 13 7 6 8 5 9 4 10 3 11 2 12 1 13
REMARK H PARENT
REMARK Flexibility Score: inf
ROOT
ATOM      1  C   UNL     1      10.127  14.270  11.911  1.00  0.00     0.000 C 
ENDROOT
BRANCH   1   2
ATOM      2  C   UNL     1      11.224  15.194  11.350  1.00  0.00     0.000 C 
BRANCH   2   3
ATOM      3  C   UNL     1      11.729  14.781   9.950  1.00  0.00     0.006 C 
BRANCH   3   4
ATOM      4  C   UNL     1      12.613  13.528   9.993  1.00  0.00     0.053 C 
BRANCH   4   5
ATOM      5  C   UNL     1      12.293  12.623   8.845  1.00  0.00     0.041 C 
ATOM      6  O   UNL     1      11.346  12.903   8.063  1.00  0.00    -0.550 OA
ATOM      7  O   UNL     1      13.007  11.445   8.669  1.00  0.00    -0.550 OA
ENDBRANCH   4   5
ENDBRANCH   3   4
ENDBRANCH   2   3
ENDBRANCH   1   2
BRANCH   1   8
ATOM      8  C   UNL     1       9.079  13.803  10.884  1.00  0.00     0.000 C 
BRANCH   8   9
ATOM      9  C   UNL     1       8.984  12.277  10.699  1.00  0.00    -0.000 C 
BRANCH   9  10
ATOM     10  C   UNL     1       9.738  11.495  11.785  1.00  0.00    -0.000 C 
BRANCH  10  11
ATOM     11  C   UNL     1      10.509  10.317  11.176  1.00  0.00    -0.000 C 
BRANCH  11  12
ATOM     12  C   UNL     1      11.923  10.225  11.762  1.00  0.00    -0.003 C 
ATOM     13  C   UNL     1      12.105  11.203  12.918  1.00  0.00     0.004 C 
ENDBRANCH  11  12
ENDBRANCH  10  11
ENDBRANCH   9  10
ENDBRANCH   8   9
ENDBRANCH   1   8
TORSDOF 9
ENDMDL
MODEL 8
REMARK VINA RESULT:    -3.329      2.266      3.817
REMARK INTER + INTRA:          -6.140
REMARK INTER:                  -5.054
REMARK INTRA:                  -1.086
REMARK UNBOUND:                -1.059
REMARK SMILES CCCCCCCCCCC(=O)[O-]
REMARK SMILES IDX 7 1 8 2 9 3 10 4 11 5 12 6 13 7 6 8 5 9 4 10 3 11 2 12 1 13
REMARK H PARENT
REMARK Flexibility Score: inf
ROOT
ATOM      1  C   UNL     1      12.588  11.367   9.798  1.00  0.00     0.000 C 
ENDROOT
BRANCH   1   2
ATOM      2  C   UNL     1      12.734  12.830   9.337  1.00  0.00     0.000 C 
BRANCH   2   3
ATOM      3  C   UNL     1      12.777  13.846  10.499  1.00  0.00     0.006 C 
BRANCH   3   4
ATOM      4  C   UNL     1      11.770  14.990  10.315  1.00  0.00     0.053 C 
BRANCH   4   5
ATOM      5  C   UNL     1      10.554  14.755  11.154  1.00  0.00     0.041 C 
ATOM      6  O   UNL     1       9.608  14.049  10.714  1.00  0.00    -0.550 OA
ATOM      7  O   UNL     1      10.443  15.356  12.401  1.00  0.00    -0.550 OA
ENDBRANCH   4   5
ENDBRANCH   3   4
ENDBRANCH   2   3
ENDBRANCH   1   2
BRANCH   1   8
ATOM      8  C   UNL     1      11.144  10.915  10.086  1.00  0.00     0.000 C 
BRANCH   8   9
ATOM      9  C   UNL     1      10.928  10.272  11.469  1.00  0.00    -0.000 C 
BRANCH   9  10
ATOM     10  C   UNL     1      12.116  10.481  12.419  1.00  0.00    -0.000 C 
BRANCH  10  11
ATOM     11  C   UNL     1      11.815  11.586  13.438  1.00  0.00    -0.000 C 
BRANCH  11  12
ATOM     12  C   UNL     1      10.304  11.797  13.590  1.00  0.00    -0.003 C 
ATOM     13  C   UNL     1       9.868  11.630  15.043  1.00  0.00     0.004 C 
ENDBRANCH  11  12
ENDBRANCH  10  11
ENDBRANCH   9  10
ENDBRANCH   8   9
ENDBRANCH   1   8
TORSDOF 9
ENDMDL
MODEL 9
REMARK VINA RESULT:    -3.297      2.795      4.625
REMARK INTER + INTRA:          -6.091
REMARK INTER:                  -4.769
REMARK INTRA:                  -1.322
REMARK UNBOUND:                -1.059
REMARK SMILES CCCCCCCCCCC(=O)[O-]
REMARK SMILES IDX 7 1 8 2 9 3 10 4 11 5 12 6 13 7 6 8 5 9 4 10 3 11 2 12 1 13
REMARK H PARENT
REMARK Flexibility Score: inf
ROOT
ATOM      1  C   UNL     1      11.126  15.006  11.374  1.00  0.00     0.000 C 
ENDROOT
BRANCH   1   2
ATOM      2  C   UNL     1       9.781  14.280  11.183  1.00  0.00     0.000 C 
BRANCH   2   3
ATOM      3  C   UNL     1       9.342  14.160   9.708  1.00  0.00     0.006 C 
BRANCH   3   4
ATOM      4  C   UNL     1       9.277  12.703   9.232  1.00  0.00     0.053 C 
BRANCH   4   5
ATOM      5  C   UNL     1      10.094  12.521   7.992  1.00  0.00     0.041 C 
ATOM      6  O   UNL     1      10.537  13.524   7.372  1.00  0.00    -0.550 OA
ATOM      7  O   UNL     1      10.325  11.246   7.493  1.00  0.00    -0.550 OA
ENDBRANCH   4   5
ENDBRANCH   3   4
ENDBRANCH   2   3
ENDBRANCH   1   2
BRANCH   1   8
ATOM      8  C   UNL     1      12.167  14.750  10.269  1.00  0.00     0.000 C 
BRANCH   8   9
ATOM      9  C   UNL     1      12.956  13.435  10.410  1.00  0.00    -0.000 C 
BRANCH   9  10
ATOM     10  C   UNL     1      13.224  13.053  11.874  1.00  0.00    -0.000 C 
BRANCH  10  11
ATOM     11  C   UNL     1      12.564  11.713  12.220  1.00  0.00    -0.000 C 
BRANCH  11  12
ATOM     12  C   UNL     1      12.205  10.933  10.950  1.00  0.00    -0.003 C 
ATOM     13  C   UNL     1      10.943  10.099  11.153  1.00  0.00     0.004 C 
ENDBRANCH  11  12
ENDBRANCH  10  11
ENDBRANCH   9  10
ENDBRANCH   8   9
ENDBRANCH   1   8
TORSDOF 9
ENDMDL
