MODEL 1
REMARK VINA RESULT:    -3.471      0.000      0.000
REMARK INTER + INTRA:          -5.644
REMARK INTER:                  -5.297
REMARK INTRA:                  -0.346
REMARK UNBOUND:                -0.346
REMARK SMILES CC1=CCC[C@H](C)C(=O)C[C@@H](C(C)C)C(=O)C1
REMARK SMILES IDX 8 1 9 2 6 3 7 4 5 5 4 6 3 7 2 8 1 9 10 11 11 12 15 13 16 14
REMARK SMILES IDX 17 15 12 17 13 18 14 19
REMARK H PARENT
REMARK Flexibility Score: 70.00
ROOT
ATOM      1  C   UNL     1      40.902 -40.856  -4.769  1.00  0.00     0.136 C 
ATOM      2  O   UNL     1      40.701 -41.232  -5.917  1.00  0.00    -0.299 OA
ENDROOT
BRANCH   1   3
ATOM      3  C   UNL     1      42.321 -40.523  -4.331  1.00  0.00     0.053 C 
ATOM      4  C   UNL     1      43.377 -41.198  -5.231  1.00  0.00     0.016 C 
BRANCH   3   5
ATOM      5  C   UNL     1      42.623 -39.004  -4.157  1.00  0.00     0.015 C 
BRANCH   5   6
ATOM      6  C   UNL     1      42.946 -38.458  -2.745  1.00  0.00     0.028 C 
BRANCH   6   7
ATOM      7  C   UNL     1      42.477 -39.325  -1.601  1.00  0.00    -0.028 C 
ATOM      8  C   UNL     1      41.256 -39.291  -1.009  1.00  0.00    -0.070 CG0
ATOM      9  C   UNL     1      41.000 -40.270   0.111  1.00  0.00     0.039 C 
ATOM     10  G   UNL     1      40.133 -38.334  -1.389  1.00  0.00     0.000 G0
ENDBRANCH   6   7
ENDBRANCH   5   6
ENDBRANCH   3   5
ENDBRANCH   1   3
BRANCH   1  11
ATOM     11  C   UNL     1      39.761 -40.887  -3.773  1.00  0.00     0.087 C 
BRANCH  11  12
ATOM     12  C   UNL     1      39.092 -39.502  -3.569  1.00  0.00     0.066 C 
BRANCH  12  13
ATOM     13  C   UNL     1      39.010 -39.074  -2.107  1.00  0.00     0.140 C 
ATOM     14  O   UNL     1      38.000 -39.351  -1.477  1.00  0.00    -0.299 OA
BRANCH  13  15
ATOM     15  C   UNL     1      40.124 -38.343  -1.393  1.00  0.00     0.106 CG0
ATOM     16  G   UNL     1      41.260 -39.286  -1.018  1.00  0.00     0.000 G0
ENDBRANCH  13  15
ENDBRANCH  12  13
BRANCH  12  17
ATOM     17  C   UNL     1      37.731 -39.383  -4.320  1.00  0.00    -0.006 C 
ATOM     18  C   UNL     1      37.800 -38.565  -5.620  1.00  0.00     0.008 C 
ATOM     19  C   UNL     1      37.129 -40.767  -4.608  1.00  0.00     0.008 C 
ENDBRANCH  12  17
ENDBRANCH  11  12
ENDBRANCH   1  11
TORSDOF 1
ENDMDL
MODEL 2
REMARK VINA RESULT:    -3.370      2.088      2.558
REMARK INTER + INTRA:          -5.490
REMARK INTER:                  -5.438
REMARK INTRA:                  -0.051
REMARK UNBOUND:                -0.346
REMARK SMILES CC1=CCC[C@H](C)C(=O)C[C@@H](C(C)C)C(=O)C1
REMARK SMILES IDX 8 1 9 2 6 3 7 4 5 5 4 6 3 7 2 8 1 9 10 11 11 12 15 13 16 14
REMARK SMILES IDX 17 15 12 17 13 18 14 19
REMARK H PARENT
REMARK Flexibility Score: 70.00
ROOT
ATOM      1  C   UNL     1      41.126 -40.978  -5.179  1.00  0.00     0.136 C 
ATOM      2  O   UNL     1      40.852 -41.834  -6.010  1.00  0.00    -0.299 OA
ENDROOT
BRANCH   1   3
ATOM      3  C   UNL     1      42.551 -40.876  -4.654  1.00  0.00     0.053 C 
ATOM      4  C   UNL     1      43.566 -41.540  -5.607  1.00  0.00     0.016 C 
BRANCH   3   5
ATOM      5  C   UNL     1      43.011 -39.441  -4.259  1.00  0.00     0.015 C 
BRANCH   5   6
ATOM      6  C   UNL     1      42.602 -38.873  -2.879  1.00  0.00     0.028 C 
BRANCH   6   7
ATOM      7  C   UNL     1      42.371 -37.381  -2.844  1.00  0.00    -0.028 C 
ATOM      8  C   UNL     1      41.192 -36.740  -3.045  1.00  0.00    -0.070 CG0
ATOM      9  C   UNL     1      41.194 -35.234  -2.941  1.00  0.00     0.039 C 
ATOM     10  G   UNL     1      39.874 -37.430  -3.374  1.00  0.00     0.000 G0
ENDBRANCH   6   7
ENDBRANCH   5   6
ENDBRANCH   3   5
ENDBRANCH   1   3
BRANCH   1  11
ATOM     11  C   UNL     1      40.007 -40.153  -4.575  1.00  0.00     0.087 C 
BRANCH  11  12
ATOM     12  C   UNL     1      39.537 -38.998  -5.498  1.00  0.00     0.066 C 
BRANCH  12  13
ATOM     13  C   UNL     1      39.659 -37.618  -4.857  1.00  0.00     0.140 C 
ATOM     14  O   UNL     1      39.582 -36.634  -5.578  1.00  0.00    -0.299 OA
BRANCH  13  15
ATOM     15  C   UNL     1      39.852 -37.407  -3.373  1.00  0.00     0.106 CG0
ATOM     16  G   UNL     1      41.197 -36.760  -3.072  1.00  0.00     0.000 G0
ENDBRANCH  13  15
ENDBRANCH  12  13
BRANCH  12  17
ATOM     17  C   UNL     1      38.130 -39.265  -6.115  1.00  0.00    -0.006 C 
ATOM     18  C   UNL     1      38.127 -39.377  -7.648  1.00  0.00     0.008 C 
ATOM     19  C   UNL     1      37.478 -40.514  -5.500  1.00  0.00     0.008 C 
ENDBRANCH  12  17
ENDBRANCH  11  12
ENDBRANCH   1  11
TORSDOF 1
ENDMDL
MODEL 3
REMARK VINA RESULT:    -3.331      2.200      4.407
REMARK INTER + INTRA:          -5.429
REMARK INTER:                  -5.284
REMARK INTRA:                  -0.145
REMARK UNBOUND:                -0.346
REMARK SMILES CC1=CCC[C@H](C)C(=O)C[C@@H](C(C)C)C(=O)C1
REMARK SMILES IDX 8 1 9 2 6 3 7 4 5 5 4 6 3 7 2 8 1 9 10 11 11 12 15 13 16 14
REMARK SMILES IDX 17 15 12 17 13 18 14 19
REMARK H PARENT
REMARK Flexibility Score: 70.00
ROOT
ATOM      1  C   UNL     1      42.645 -39.972  -3.821  1.00  0.00     0.136 C 
ATOM      2  O   UNL     1      43.049 -40.610  -2.857  1.00  0.00    -0.299 OA
ENDROOT
BRANCH   1   3
ATOM      3  C   UNL     1      42.602 -40.636  -5.190  1.00  0.00     0.053 C 
ATOM      4  C   UNL     1      43.744 -41.656  -5.374  1.00  0.00     0.016 C 
BRANCH   3   5
ATOM      5  C   UNL     1      41.229 -41.258  -5.584  1.00  0.00     0.015 C 
BRANCH   5   6
ATOM      6  C   UNL     1      40.015 -41.055  -4.646  1.00  0.00     0.028 C 
BRANCH   6   7
ATOM      7  C   UNL     1      38.841 -40.335  -5.264  1.00  0.00    -0.028 C 
ATOM      8  C   UNL     1      38.734 -38.998  -5.479  1.00  0.00    -0.070 CG0
ATOM      9  C   UNL     1      37.469 -38.500  -6.134  1.00  0.00     0.039 C 
ATOM     10  G   UNL     1      39.793 -37.971  -5.100  1.00  0.00     0.000 G0
ENDBRANCH   6   7
ENDBRANCH   5   6
ENDBRANCH   3   5
ENDBRANCH   1   3
BRANCH   1  11
ATOM     11  C   UNL     1      42.353 -38.495  -3.656  1.00  0.00     0.087 C 
BRANCH  11  12
ATOM     12  C   UNL     1      41.094 -38.215  -2.793  1.00  0.00     0.066 C 
BRANCH  12  13
ATOM     13  C   UNL     1      39.885 -37.764  -3.608  1.00  0.00     0.140 C 
ATOM     14  O   UNL     1      38.963 -37.216  -3.023  1.00  0.00    -0.299 OA
BRANCH  13  15
ATOM     15  C   UNL     1      39.780 -37.943  -5.105  1.00  0.00     0.106 CG0
ATOM     16  G   UNL     1      38.729 -38.984  -5.469  1.00  0.00     0.000 G0
ENDBRANCH  13  15
ENDBRANCH  12  13
BRANCH  12  17
ATOM     17  C   UNL     1      41.399 -37.284  -1.581  1.00  0.00    -0.006 C 
ATOM     18  C   UNL     1      41.505 -38.019  -0.235  1.00  0.00     0.008 C 
ATOM     19  C   UNL     1      42.669 -36.452  -1.821  1.00  0.00     0.008 C 
ENDBRANCH  12  17
ENDBRANCH  11  12
ENDBRANCH   1  11
TORSDOF 1
ENDMDL
MODEL 4
REMARK VINA RESULT:    -3.268      1.925      3.927
REMARK INTER + INTRA:          -5.334
REMARK INTER:                  -5.345
REMARK INTRA:                   0.011
REMARK UNBOUND:                -0.346
REMARK SMILES CC1=CCC[C@H](C)C(=O)C[C@@H](C(C)C)C(=O)C1
REMARK SMILES IDX 8 1 9 2 6 3 7 4 5 5 4 6 3 7 2 8 1 9 10 11 11 12 15 13 16 14
REMARK SMILES IDX 17 15 12 17 13 18 14 19
REMARK H PARENT
REMARK Flexibility Score: 70.00
ROOT
ATOM      1  C   UNL     1      42.877 -39.484  -3.377  1.00  0.00     0.136 C 
ATOM      2  O   UNL     1      43.255 -38.322  -3.466  1.00  0.00    -0.299 OA
ENDROOT
BRANCH   1   3
ATOM      3  C   UNL     1      42.390 -40.207  -4.625  1.00  0.00     0.053 C 
ATOM      4  C   UNL     1      43.431 -41.216  -5.150  1.00  0.00     0.016 C 
BRANCH   3   5
ATOM      5  C   UNL     1      40.984 -40.867  -4.503  1.00  0.00     0.015 C 
BRANCH   5   6
ATOM      6  C   UNL     1      39.726 -40.022  -4.814  1.00  0.00     0.028 C 
BRANCH   6   7
ATOM      7  C   UNL     1      39.914 -38.528  -4.696  1.00  0.00    -0.028 C 
ATOM      8  C   UNL     1      39.802 -37.785  -3.565  1.00  0.00    -0.070 CG0
ATOM      9  C   UNL     1      40.055 -36.302  -3.682  1.00  0.00     0.039 C 
ATOM     10  G   UNL     1      39.434 -38.340  -2.195  1.00  0.00     0.000 G0
ENDBRANCH   6   7
ENDBRANCH   5   6
ENDBRANCH   3   5
ENDBRANCH   1   3
BRANCH   1  11
ATOM     11  C   UNL     1      42.750 -40.114  -2.005  1.00  0.00     0.087 C 
BRANCH  11  12
ATOM     12  C   UNL     1      41.292 -40.127  -1.474  1.00  0.00     0.066 C 
BRANCH  12  13
ATOM     13  C   UNL     1      40.662 -38.739  -1.388  1.00  0.00     0.140 C 
ATOM     14  O   UNL     1      41.181 -37.911  -0.655  1.00  0.00    -0.299 OA
BRANCH  13  15
ATOM     15  C   UNL     1      39.440 -38.334  -2.179  1.00  0.00     0.106 CG0
ATOM     16  G   UNL     1      39.818 -37.804  -3.557  1.00  0.00     0.000 G0
ENDBRANCH  13  15
ENDBRANCH  12  13
BRANCH  12  17
ATOM     17  C   UNL     1      41.147 -40.949  -0.157  1.00  0.00    -0.006 C 
ATOM     18  C   UNL     1      40.030 -42.005  -0.195  1.00  0.00     0.008 C 
ATOM     19  C   UNL     1      42.476 -41.611   0.238  1.00  0.00     0.008 C 
ENDBRANCH  12  17
ENDBRANCH  11  12
ENDBRANCH   1  11
TORSDOF 1
ENDMDL
MODEL 5
REMARK VINA RESULT:    -3.048      2.525      3.596
REMARK INTER + INTRA:          -4.997
REMARK INTER:                  -4.701
REMARK INTRA:                  -0.296
REMARK UNBOUND:                -0.346
REMARK SMILES CC1=CCC[C@H](C)C(=O)C[C@@H](C(C)C)C(=O)C1
REMARK SMILES IDX 8 1 9 2 6 3 7 4 5 5 4 6 3 7 2 8 1 9 10 11 11 12 15 13 16 14
REMARK SMILES IDX 17 15 12 17 13 18 14 19
REMARK H PARENT
REMARK Flexibility Score: 70.00
ROOT
ATOM      1  C   UNL     1      38.820 -39.336  -5.211  1.00  0.00     0.136 C 
ATOM      2  O   UNL     1      37.978 -39.610  -6.056  1.00  0.00    -0.299 OA
ENDROOT
BRANCH   1   3
ATOM      3  C   UNL     1      39.625 -40.457  -4.568  1.00  0.00     0.053 C 
ATOM      4  C   UNL     1      38.728 -41.632  -4.128  1.00  0.00     0.016 C 
BRANCH   3   5
ATOM      5  C   UNL     1      40.841 -40.962  -5.400  1.00  0.00     0.015 C 
BRANCH   5   6
ATOM      6  C   UNL     1      42.273 -40.684  -4.885  1.00  0.00     0.028 C 
BRANCH   6   7
ATOM      7  C   UNL     1      42.354 -40.153  -3.473  1.00  0.00    -0.028 C 
ATOM      8  C   UNL     1      42.458 -38.851  -3.103  1.00  0.00    -0.070 CG0
ATOM      9  C   UNL     1      42.503 -38.551  -1.625  1.00  0.00     0.039 C 
ATOM     10  G   UNL     1      42.539 -37.678  -4.071  1.00  0.00     0.000 G0
ENDBRANCH   6   7
ENDBRANCH   5   6
ENDBRANCH   3   5
ENDBRANCH   1   3
BRANCH   1  11
ATOM     11  C   UNL     1      38.925 -37.909  -4.711  1.00  0.00     0.087 C 
BRANCH  11  12
ATOM     12  C   UNL     1      40.189 -37.174  -5.229  1.00  0.00     0.066 C 
BRANCH  12  13
ATOM     13  C   UNL     1      41.227 -36.908  -4.142  1.00  0.00     0.140 C 
ATOM     14  O   UNL     1      40.978 -36.060  -3.297  1.00  0.00    -0.299 OA
BRANCH  13  15
ATOM     15  C   UNL     1      42.539 -37.653  -4.047  1.00  0.00     0.106 CG0
ATOM     16  G   UNL     1      42.441 -38.833  -3.090  1.00  0.00     0.000 G0
ENDBRANCH  13  15
ENDBRANCH  12  13
BRANCH  12  17
ATOM     17  C   UNL     1      39.839 -35.906  -6.066  1.00  0.00    -0.006 C 
ATOM     18  C   UNL     1      41.054 -35.233  -6.724  1.00  0.00     0.008 C 
ATOM     19  C   UNL     1      38.776 -36.217  -7.131  1.00  0.00     0.008 C 
ENDBRANCH  12  17
ENDBRANCH  11  12
ENDBRANCH   1  11
TORSDOF 1
ENDMDL
MODEL 6
REMARK VINA RESULT:    -2.872      2.015      3.789
REMARK INTER + INTRA:          -4.730
REMARK INTER:                  -4.825
REMARK INTRA:                   0.096
REMARK UNBOUND:                -0.346
REMARK SMILES CC1=CCC[C@H](C)C(=O)C[C@@H](C(C)C)C(=O)C1
REMARK SMILES IDX 8 1 9 2 6 3 7 4 5 5 4 6 3 7 2 8 1 9 10 11 11 12 15 13 16 14
REMARK SMILES IDX 17 15 12 17 13 18 14 19
REMARK H PARENT
REMARK Flexibility Score: 70.00
ROOT
ATOM      1  C   UNL     1      39.619 -39.992  -1.705  1.00  0.00     0.136 C 
ATOM      2  O   UNL     1      38.808 -39.094  -1.515  1.00  0.00    -0.299 OA
ENDROOT
BRANCH   1   3
ATOM      3  C   UNL     1      40.354 -40.597  -0.517  1.00  0.00     0.053 C 
ATOM      4  C   UNL     1      39.566 -41.761   0.118  1.00  0.00     0.016 C 
BRANCH   3   5
ATOM      5  C   UNL     1      41.832 -41.007  -0.791  1.00  0.00     0.015 C 
BRANCH   5   6
ATOM      6  C   UNL     1      42.972 -40.070  -0.323  1.00  0.00     0.028 C 
BRANCH   6   7
ATOM      7  C   UNL     1      42.572 -38.628  -0.118  1.00  0.00    -0.028 C 
ATOM      8  C   UNL     1      42.495 -37.667  -1.074  1.00  0.00    -0.070 CG0
ATOM      9  C   UNL     1      42.050 -36.292  -0.640  1.00  0.00     0.039 C 
ATOM     10  G   UNL     1      42.831 -37.876  -2.544  1.00  0.00     0.000 G0
ENDBRANCH   6   7
ENDBRANCH   5   6
ENDBRANCH   3   5
ENDBRANCH   1   3
BRANCH   1  11
ATOM     11  C   UNL     1      39.987 -40.362  -3.127  1.00  0.00     0.087 C 
BRANCH  11  12
ATOM     12  C   UNL     1      41.420 -39.918  -3.520  1.00  0.00     0.066 C 
BRANCH  12  13
ATOM     13  C   UNL     1      41.662 -38.420  -3.351  1.00  0.00     0.140 C 
ATOM     14  O   UNL     1      40.868 -37.643  -3.860  1.00  0.00    -0.299 OA
BRANCH  13  15
ATOM     15  C   UNL     1      42.824 -37.851  -2.569  1.00  0.00     0.106 CG0
ATOM     16  G   UNL     1      42.472 -37.676  -1.097  1.00  0.00     0.000 G0
ENDBRANCH  13  15
ENDBRANCH  12  13
BRANCH  12  17
ATOM     17  C   UNL     1      41.845 -40.453  -4.922  1.00  0.00    -0.006 C 
ATOM     18  C   UNL     1      43.136 -41.287  -4.911  1.00  0.00     0.008 C 
ATOM     19  C   UNL     1      40.712 -41.256  -5.580  1.00  0.00     0.008 C 
ENDBRANCH  12  17
ENDBRANCH  11  12
ENDBRANCH   1  11
TORSDOF 1
ENDMDL
MODEL 7
REMARK VINA RESULT:    -2.800      2.441      5.007
REMARK INTER + INTRA:          -4.620
REMARK INTER:                  -4.411
REMARK INTRA:                  -0.209
REMARK UNBOUND:                -0.346
REMARK SMILES CC1=CCC[C@H](C)C(=O)C[C@@H](C(C)C)C(=O)C1
REMARK SMILES IDX 8 1 9 2 6 3 7 4 5 5 4 6 3 7 2 8 1 9 10 11 11 12 15 13 16 14
REMARK SMILES IDX 17 15 12 17 13 18 14 19
REMARK H PARENT
REMARK Flexibility Score: 70.00
ROOT
ATOM      1  C   UNL     1      40.404 -37.044  -4.979  1.00  0.00     0.136 C 
ATOM      2  O   UNL     1      41.323 -36.411  -5.484  1.00  0.00    -0.299 OA
ENDROOT
BRANCH   1   3
ATOM      3  C   UNL     1      38.971 -36.732  -5.386  1.00  0.00     0.053 C 
ATOM      4  C   UNL     1      38.686 -35.217  -5.381  1.00  0.00     0.016 C 
BRANCH   3   5
ATOM      5  C   UNL     1      38.503 -37.385  -6.721  1.00  0.00     0.015 C 
BRANCH   5   6
ATOM      6  C   UNL     1      37.335 -38.399  -6.694  1.00  0.00     0.028 C 
BRANCH   6   7
ATOM      7  C   UNL     1      36.648 -38.550  -5.357  1.00  0.00    -0.028 C 
ATOM      8  C   UNL     1      36.965 -39.438  -4.380  1.00  0.00    -0.070 CG0
ATOM      9  C   UNL     1      36.150 -39.393  -3.111  1.00  0.00     0.039 C 
ATOM     10  G   UNL     1      38.076 -40.475  -4.478  1.00  0.00     0.000 G0
ENDBRANCH   6   7
ENDBRANCH   5   6
ENDBRANCH   3   5
ENDBRANCH   1   3
BRANCH   1  11
ATOM     11  C   UNL     1      40.708 -38.004  -3.848  1.00  0.00     0.087 C 
BRANCH  11  12
ATOM     12  C   UNL     1      40.530 -39.493  -4.248  1.00  0.00     0.066 C 
BRANCH  12  13
ATOM     13  C   UNL     1      39.284 -40.140  -3.651  1.00  0.00     0.140 C 
ATOM     14  O   UNL     1      39.265 -40.361  -2.449  1.00  0.00    -0.299 OA
BRANCH  13  15
ATOM     15  C   UNL     1      38.066 -40.505  -4.468  1.00  0.00     0.106 CG0
ATOM     16  G   UNL     1      36.986 -39.435  -4.366  1.00  0.00     0.000 G0
ENDBRANCH  13  15
ENDBRANCH  12  13
BRANCH  12  17
ATOM     17  C   UNL     1      41.826 -40.329  -4.018  1.00  0.00    -0.006 C 
ATOM     18  C   UNL     1      42.349 -41.036  -5.279  1.00  0.00     0.008 C 
ATOM     19  C   UNL     1      42.942 -39.471  -3.402  1.00  0.00     0.008 C 
ENDBRANCH  12  17
ENDBRANCH  11  12
ENDBRANCH   1  11
TORSDOF 1
ENDMDL
MODEL 8
REMARK VINA RESULT:    -2.646      2.411      3.847
REMARK INTER + INTRA:          -4.384
REMARK INTER:                  -4.190
REMARK INTRA:                  -0.194
REMARK UNBOUND:                -0.346
REMARK SMILES CC1=CCC[C@H](C)C(=O)C[C@@H](C(C)C)C(=O)C1
REMARK SMILES IDX 8 1 9 2 6 3 7 4 5 5 4 6 3 7 2 8 1 9 10 11 11 12 15 13 16 14
REMARK SMILES IDX 17 15 12 17 13 18 14 19
REMARK H PARENT
REMARK Flexibility Score: 70.00
ROOT
ATOM      1  C   UNL     1      42.000 -37.045  -3.996  1.00  0.00     0.136 C 
ATOM      2  O   UNL     1      41.868 -36.368  -5.007  1.00  0.00    -0.299 OA
ENDROOT
BRANCH   1   3
ATOM      3  C   UNL     1      41.714 -36.420  -2.637  1.00  0.00     0.053 C 
ATOM      4  C   UNL     1      42.448 -35.076  -2.454  1.00  0.00     0.016 C 
BRANCH   3   5
ATOM      5  C   UNL     1      40.205 -36.288  -2.271  1.00  0.00     0.015 C 
BRANCH   5   6
ATOM      6  C   UNL     1      39.589 -37.276  -1.253  1.00  0.00     0.028 C 
BRANCH   6   7
ATOM      7  C   UNL     1      40.513 -37.707  -0.138  1.00  0.00    -0.028 C 
ATOM      8  C   UNL     1      41.144 -38.904  -0.028  1.00  0.00    -0.070 CG0
ATOM      9  C   UNL     1      42.042 -39.107   1.168  1.00  0.00     0.039 C 
ATOM     10  G   UNL     1      41.004 -40.053  -1.018  1.00  0.00     0.000 G0
ENDBRANCH   6   7
ENDBRANCH   5   6
ENDBRANCH   3   5
ENDBRANCH   1   3
BRANCH   1  11
ATOM     11  C   UNL     1      42.598 -38.432  -4.111  1.00  0.00     0.087 C 
BRANCH  11  12
ATOM     12  C   UNL     1      41.676 -39.542  -3.542  1.00  0.00     0.066 C 
BRANCH  12  13
ATOM     13  C   UNL     1      42.036 -39.966  -2.121  1.00  0.00     0.140 C 
ATOM     14  O   UNL     1      43.205 -40.221  -1.871  1.00  0.00    -0.299 OA
BRANCH  13  15
ATOM     15  C   UNL     1      41.024 -40.068  -1.004  1.00  0.00     0.106 CG0
ATOM     16  G   UNL     1      41.154 -38.908  -0.026  1.00  0.00     0.000 G0
ENDBRANCH  13  15
ENDBRANCH  12  13
BRANCH  12  17
ATOM     17  C   UNL     1      41.522 -40.746  -4.521  1.00  0.00    -0.006 C 
ATOM     18  C   UNL     1      40.385 -40.584  -5.543  1.00  0.00     0.008 C 
ATOM     19  C   UNL     1      42.841 -41.044  -5.252  1.00  0.00     0.008 C 
ENDBRANCH  12  17
ENDBRANCH  11  12
ENDBRANCH   1  11
TORSDOF 1
ENDMDL
MODEL 9
REMARK VINA RESULT:    -2.580      2.035      4.066
REMARK INTER + INTRA:          -4.284
REMARK INTER:                  -4.140
REMARK INTRA:                  -0.143
REMARK UNBOUND:                -0.346
REMARK SMILES CC1=CCC[C@H](C)C(=O)C[C@@H](C(C)C)C(=O)C1
REMARK SMILES IDX 8 1 9 2 6 3 7 4 5 5 4 6 3 7 2 8 1 9 10 11 11 12 15 13 16 14
REMARK SMILES IDX 17 15 12 17 13 18 14 19
REMARK H PARENT
REMARK Flexibility Score: 70.00
ROOT
ATOM      1  C   UNL     1      40.702 -40.403  -2.966  1.00  0.00     0.136 C 
ATOM      2  O   UNL     1      39.844 -41.243  -2.728  1.00  0.00    -0.299 OA
ENDROOT
BRANCH   1   3
ATOM      3  C   UNL     1      40.866 -39.885  -4.388  1.00  0.00     0.053 C 
ATOM      4  C   UNL     1      40.732 -41.012  -5.432  1.00  0.00     0.016 C 
BRANCH   3   5
ATOM      5  C   UNL     1      39.964 -38.670  -4.760  1.00  0.00     0.015 C 
BRANCH   5   6
ATOM      6  C   UNL     1      39.982 -37.415  -3.854  1.00  0.00     0.028 C 
BRANCH   6   7
ATOM      7  C   UNL     1      38.924 -37.388  -2.777  1.00  0.00    -0.028 C 
ATOM      8  C   UNL     1      39.135 -37.402  -1.436  1.00  0.00    -0.070 CG0
ATOM      9  C   UNL     1      37.920 -37.347  -0.542  1.00  0.00     0.039 C 
ATOM     10  G   UNL     1      40.504 -37.475  -0.773  1.00  0.00     0.000 G0
ENDBRANCH   6   7
ENDBRANCH   5   6
ENDBRANCH   3   5
ENDBRANCH   1   3
BRANCH   1  11
ATOM     11  C   UNL     1      41.683 -40.023  -1.876  1.00  0.00     0.087 C 
BRANCH  11  12
ATOM     12  C   UNL     1      41.065 -40.078  -0.454  1.00  0.00     0.066 C 
BRANCH  12  13
ATOM     13  C   UNL     1      40.663 -38.711   0.090  1.00  0.00     0.140 C 
ATOM     14  O   UNL     1      40.461 -38.599   1.290  1.00  0.00    -0.299 OA
BRANCH  13  15
ATOM     15  C   UNL     1      40.520 -37.482  -0.779  1.00  0.00     0.106 CG0
ATOM     16  G   UNL     1      39.142 -37.413  -1.425  1.00  0.00     0.000 G0
ENDBRANCH  13  15
ENDBRANCH  12  13
BRANCH  12  17
ATOM     17  C   UNL     1      41.937 -40.902   0.542  1.00  0.00    -0.006 C 
ATOM     18  C   UNL     1      41.262 -42.185   1.056  1.00  0.00     0.008 C 
ATOM     19  C   UNL     1      43.307 -41.243  -0.065  1.00  0.00     0.008 C 
ENDBRANCH  12  17
ENDBRANCH  11  12
ENDBRANCH   1  11
TORSDOF 1
ENDMDL
