MODEL 1
REMARK VINA RESULT:    -3.428      0.000      0.000
REMARK INTER + INTRA:          -4.918
REMARK INTER:                  -4.631
REMARK INTRA:                  -0.287
REMARK UNBOUND:                -0.287
REMARK SMILES CCCCCCCC(=O)[O-]
REMARK SMILES IDX 5 1 6 2 7 3 8 4 9 5 10 6 4 7 3 8 2 9 1 10
REMARK H PARENT
REMARK Flexibility Score: inf
ROOT
ATOM      1  C   UNL     1      -0.582   9.143   4.633  1.00  0.00     0.000 C 
ENDROOT
BRANCH   1   2
ATOM      2  C   UNL     1       0.813   9.749   4.845  1.00  0.00     0.006 C 
BRANCH   2   3
ATOM      3  C   UNL     1       1.066  10.125   6.311  1.00  0.00     0.053 C 
BRANCH   3   4
ATOM      4  C   UNL     1       2.089   9.233   6.945  1.00  0.00     0.041 C 
ATOM      5  O   UNL     1       1.909   7.987   6.978  1.00  0.00    -0.550 OA
ATOM      6  O   UNL     1       3.256   9.774   7.469  1.00  0.00    -0.550 OA
ENDBRANCH   3   4
ENDBRANCH   2   3
ENDBRANCH   1   2
BRANCH   1   7
ATOM      7  C   UNL     1      -1.655   9.960   5.365  1.00  0.00     0.000 C 
BRANCH   7   8
ATOM      8  C   UNL     1      -2.919  10.102   4.506  1.00  0.00    -0.000 C 
BRANCH   8   9
ATOM      9  C   UNL     1      -3.186   8.863   3.639  1.00  0.00    -0.003 C 
ATOM     10  C   UNL     1      -4.143   7.872   4.301  1.00  0.00     0.004 C 
ENDBRANCH   8   9
ENDBRANCH   7   8
ENDBRANCH   1   7
TORSDOF 6
ENDMDL
MODEL 2
REMARK VINA RESULT:    -3.404     15.876     16.150
REMARK INTER + INTRA:          -4.886
REMARK INTER:                  -4.747
REMARK INTRA:                  -0.139
REMARK UNBOUND:                -0.287
REMARK SMILES CCCCCCCC(=O)[O-]
REMARK SMILES IDX 5 1 6 2 7 3 8 4 9 5 10 6 4 7 3 8 2 9 1 10
REMARK H PARENT
REMARK Flexibility Score: inf
ROOT
ATOM      1  C   UNL     1       2.352  -1.898  -5.794  1.00  0.00     0.000 C 
ENDROOT
BRANCH   1   2
ATOM      2  C   UNL     1       3.244  -1.583  -7.003  1.00  0.00     0.006 C 
BRANCH   2   3
ATOM      3  C   UNL     1       4.476  -0.755  -6.616  1.00  0.00     0.053 C 
BRANCH   3   4
ATOM      4  C   UNL     1       4.470   0.592  -7.273  1.00  0.00     0.041 C 
ATOM      5  O   UNL     1       3.383   1.118  -7.631  1.00  0.00    -0.550 OA
ATOM      6  O   UNL     1       5.662   1.281  -7.459  1.00  0.00    -0.550 OA
ENDBRANCH   3   4
ENDBRANCH   2   3
ENDBRANCH   1   2
BRANCH   1   7
ATOM      7  C   UNL     1       0.867  -1.751  -6.151  1.00  0.00     0.000 C 
BRANCH   7   8
ATOM      8  C   UNL     1      -0.021  -2.433  -5.101  1.00  0.00    -0.000 C 
BRANCH   8   9
ATOM      9  C   UNL     1      -1.516  -2.163  -5.327  1.00  0.00    -0.003 C 
ATOM     10  C   UNL     1      -2.403  -3.322  -4.874  1.00  0.00     0.004 C 
ENDBRANCH   8   9
ENDBRANCH   7   8
ENDBRANCH   1   7
TORSDOF 6
ENDMDL
MODEL 3
REMARK VINA RESULT:    -3.343      3.599      5.602
REMARK INTER + INTRA:          -4.803
REMARK INTER:                  -4.583
REMARK INTRA:                  -0.220
REMARK UNBOUND:                -0.287
REMARK SMILES CCCCCCCC(=O)[O-]
REMARK SMILES IDX 5 1 6 2 7 3 8 4 9 5 10 6 4 7 3 8 2 9 1 10
REMARK H PARENT
REMARK Flexibility Score: inf
ROOT
ATOM      1  C   UNL     1      -0.881   8.496   4.338  1.00  0.00     0.000 C 
ENDROOT
BRANCH   1   2
ATOM      2  C   UNL     1      -1.766   9.700   3.986  1.00  0.00     0.006 C 
BRANCH   2   3
ATOM      3  C   UNL     1      -3.029   9.766   4.855  1.00  0.00     0.053 C 
BRANCH   3   4
ATOM      4  C   UNL     1      -4.217   9.181   4.155  1.00  0.00     0.041 C 
ATOM      5  O   UNL     1      -4.995   9.923   3.500  1.00  0.00    -0.550 OA
ATOM      6  O   UNL     1      -4.446   7.812   4.197  1.00  0.00    -0.550 OA
ENDBRANCH   3   4
ENDBRANCH   2   3
ENDBRANCH   1   2
BRANCH   1   7
ATOM      7  C   UNL     1       0.493   8.953   4.846  1.00  0.00     0.000 C 
BRANCH   7   8
ATOM      8  C   UNL     1       0.350  10.064   5.896  1.00  0.00    -0.000 C 
BRANCH   8   9
ATOM      9  C   UNL     1       1.538  10.115   6.867  1.00  0.00    -0.003 C 
ATOM     10  C   UNL     1       2.258   8.772   6.995  1.00  0.00     0.004 C 
ENDBRANCH   8   9
ENDBRANCH   7   8
ENDBRANCH   1   7
TORSDOF 6
ENDMDL
MODEL 4
REMARK VINA RESULT:    -3.237      3.240      5.372
REMARK INTER + INTRA:          -4.660
REMARK INTER:                  -4.392
REMARK INTRA:                  -0.268
REMARK UNBOUND:                -0.287
REMARK SMILES CCCCCCCC(=O)[O-]
REMARK SMILES IDX 5 1 6 2 7 3 8 4 9 5 10 6 4 7 3 8 2 9 1 10
REMARK H PARENT
REMARK Flexibility Score: inf
ROOT
ATOM      1  C   UNL     1       0.511   9.572   5.191  1.00  0.00     0.000 C 
ENDROOT
BRANCH   1   2
ATOM      2  C   UNL     1      -1.012   9.745   5.282  1.00  0.00     0.006 C 
BRANCH   2   3
ATOM      3  C   UNL     1      -1.765   8.731   4.412  1.00  0.00     0.053 C 
BRANCH   3   4
ATOM      4  C   UNL     1      -3.250   8.887   4.533  1.00  0.00     0.041 C 
ATOM      5  O   UNL     1      -4.006   7.893   4.378  1.00  0.00    -0.550 OA
ATOM      6  O   UNL     1      -3.796  10.125   4.851  1.00  0.00    -0.550 OA
ENDBRANCH   3   4
ENDBRANCH   2   3
ENDBRANCH   1   2
BRANCH   1   7
ATOM      7  C   UNL     1       1.166   9.722   6.571  1.00  0.00     0.000 C 
BRANCH   7   8
ATOM      8  C   UNL     1       2.130   8.561   6.851  1.00  0.00    -0.000 C 
BRANCH   8   9
ATOM      9  C   UNL     1       2.124   7.506   5.734  1.00  0.00    -0.003 C 
ATOM     10  C   UNL     1       3.309   6.544   5.821  1.00  0.00     0.004 C 
ENDBRANCH   8   9
ENDBRANCH   7   8
ENDBRANCH   1   7
TORSDOF 6
ENDMDL
MODEL 5
REMARK VINA RESULT:    -3.202      4.163      5.372
REMARK INTER + INTRA:          -4.612
REMARK INTER:                  -4.287
REMARK INTRA:                  -0.325
REMARK UNBOUND:                -0.287
REMARK SMILES CCCCCCCC(=O)[O-]
REMARK SMILES IDX 5 1 6 2 7 3 8 4 9 5 10 6 4 7 3 8 2 9 1 10
REMARK H PARENT
REMARK Flexibility Score: inf
ROOT
ATOM      1  C   UNL     1       1.826   5.421   5.213  1.00  0.00     0.000 C 
ENDROOT
BRANCH   1   2
ATOM      2  C   UNL     1       1.758   6.933   5.472  1.00  0.00     0.006 C 
BRANCH   2   3
ATOM      3  C   UNL     1       2.913   7.423   6.354  1.00  0.00     0.053 C 
BRANCH   3   4
ATOM      4  C   UNL     1       2.575   8.705   7.052  1.00  0.00     0.041 C 
ATOM      5  O   UNL     1       3.464   9.339   7.678  1.00  0.00    -0.550 OA
ATOM      6  O   UNL     1       1.285   9.217   6.981  1.00  0.00    -0.550 OA
ENDBRANCH   3   4
ENDBRANCH   2   3
ENDBRANCH   1   2
BRANCH   1   7
ATOM      7  C   UNL     1       2.946   4.771   6.038  1.00  0.00     0.000 C 
BRANCH   7   8
ATOM      8  C   UNL     1       2.410   3.587   6.856  1.00  0.00    -0.000 C 
BRANCH   8   9
ATOM      9  C   UNL     1       1.117   3.002   6.269  1.00  0.00    -0.003 C 
ATOM     10  C   UNL     1       0.083   2.658   7.341  1.00  0.00     0.004 C 
ENDBRANCH   8   9
ENDBRANCH   7   8
ENDBRANCH   1   7
TORSDOF 6
ENDMDL
MODEL 6
REMARK VINA RESULT:    -3.092     16.328     16.985
REMARK INTER + INTRA:          -4.464
REMARK INTER:                  -3.941
REMARK INTRA:                  -0.522
REMARK UNBOUND:                -0.287
REMARK SMILES CCCCCCCC(=O)[O-]
REMARK SMILES IDX 5 1 6 2 7 3 8 4 9 5 10 6 4 7 3 8 2 9 1 10
REMARK H PARENT
REMARK Flexibility Score: inf
ROOT
ATOM      1  C   UNL     1       6.635  -1.412  -6.930  1.00  0.00     0.000 C 
ENDROOT
BRANCH   1   2
ATOM      2  C   UNL     1       7.081  -0.032  -7.433  1.00  0.00     0.006 C 
BRANCH   2   3
ATOM      3  C   UNL     1       6.852   1.069  -6.390  1.00  0.00     0.053 C 
BRANCH   3   4
ATOM      4  C   UNL     1       5.402   1.213  -6.041  1.00  0.00     0.041 C 
ATOM      5  O   UNL     1       4.551   1.421  -6.946  1.00  0.00    -0.550 OA
ATOM      6  O   UNL     1       4.987   1.083  -4.722  1.00  0.00    -0.550 OA
ENDBRANCH   3   4
ENDBRANCH   2   3
ENDBRANCH   1   2
BRANCH   1   7
ATOM      7  C   UNL     1       6.177  -2.301  -8.093  1.00  0.00     0.000 C 
BRANCH   7   8
ATOM      8  C   UNL     1       4.718  -2.741  -7.908  1.00  0.00    -0.000 C 
BRANCH   8   9
ATOM      9  C   UNL     1       4.092  -2.183  -6.621  1.00  0.00    -0.003 C 
ATOM     10  C   UNL     1       2.762  -1.472  -6.869  1.00  0.00     0.004 C 
ENDBRANCH   8   9
ENDBRANCH   7   8
ENDBRANCH   1   7
TORSDOF 6
ENDMDL
MODEL 7
REMARK VINA RESULT:    -3.082      1.867      2.728
REMARK INTER + INTRA:          -4.450
REMARK INTER:                  -4.207
REMARK INTRA:                  -0.243
REMARK UNBOUND:                -0.287
REMARK SMILES CCCCCCCC(=O)[O-]
REMARK SMILES IDX 5 1 6 2 7 3 8 4 9 5 10 6 4 7 3 8 2 9 1 10
REMARK H PARENT
REMARK Flexibility Score: inf
ROOT
ATOM      1  C   UNL     1      -2.892  10.041   4.944  1.00  0.00     0.000 C 
ENDROOT
BRANCH   1   2
ATOM      2  C   UNL     1      -1.646   9.851   4.067  1.00  0.00     0.006 C 
BRANCH   2   3
ATOM      3  C   UNL     1      -0.683   8.807   4.645  1.00  0.00     0.053 C 
BRANCH   3   4
ATOM      4  C   UNL     1       0.517   9.445   5.276  1.00  0.00     0.041 C 
ATOM      5  O   UNL     1       1.598   9.532   4.637  1.00  0.00    -0.550 OA
ATOM      6  O   UNL     1       0.431   9.974   6.558  1.00  0.00    -0.550 OA
ENDBRANCH   3   4
ENDBRANCH   2   3
ENDBRANCH   1   2
BRANCH   1   7
ATOM      7  C   UNL     1      -4.175   9.931   4.109  1.00  0.00     0.000 C 
BRANCH   7   8
ATOM      8  C   UNL     1      -4.566   8.463   3.892  1.00  0.00    -0.000 C 
BRANCH   8   9
ATOM      9  C   UNL     1      -5.633   8.291   2.801  1.00  0.00    -0.003 C 
ATOM     10  C   UNL     1      -6.600   9.473   2.726  1.00  0.00     0.004 C 
ENDBRANCH   8   9
ENDBRANCH   7   8
ENDBRANCH   1   7
TORSDOF 6
ENDMDL
MODEL 8
REMARK VINA RESULT:    -3.043     11.918     13.703
REMARK INTER + INTRA:          -4.398
REMARK INTER:                  -3.847
REMARK INTRA:                  -0.551
REMARK UNBOUND:                -0.287
REMARK SMILES CCCCCCCC(=O)[O-]
REMARK SMILES IDX 5 1 6 2 7 3 8 4 9 5 10 6 4 7 3 8 2 9 1 10
REMARK H PARENT
REMARK Flexibility Score: inf
ROOT
ATOM      1  C   UNL     1      -8.059  -2.213   9.372  1.00  0.00     0.000 C 
ENDROOT
BRANCH   1   2
ATOM      2  C   UNL     1      -8.103  -1.844   7.882  1.00  0.00     0.006 C 
BRANCH   2   3
ATOM      3  C   UNL     1      -8.969  -0.607   7.615  1.00  0.00     0.053 C 
BRANCH   3   4
ATOM      4  C   UNL     1      -8.141   0.580   7.230  1.00  0.00     0.041 C 
ATOM      5  O   UNL     1      -8.600   1.443   6.437  1.00  0.00    -0.550 OA
ATOM      6  O   UNL     1      -6.874   0.751   7.774  1.00  0.00    -0.550 OA
ENDBRANCH   3   4
ENDBRANCH   2   3
ENDBRANCH   1   2
BRANCH   1   7
ATOM      7  C   UNL     1      -9.386  -1.873  10.063  1.00  0.00     0.000 C 
BRANCH   7   8
ATOM      8  C   UNL     1      -9.143  -1.183  11.412  1.00  0.00    -0.000 C 
BRANCH   8   9
ATOM      9  C   UNL     1      -9.317   0.341  11.335  1.00  0.00    -0.003 C 
ATOM     10  C   UNL     1      -7.997   1.078  11.110  1.00  0.00     0.004 C 
ENDBRANCH   8   9
ENDBRANCH   7   8
ENDBRANCH   1   7
TORSDOF 6
ENDMDL
MODEL 9
REMARK VINA RESULT:    -2.605      0.578      1.167
REMARK INTER + INTRA:          -3.806
REMARK INTER:                  -3.555
REMARK INTRA:                  -0.250
REMARK UNBOUND:                -0.287
REMARK SMILES CCCCCCCC(=O)[O-]
REMARK SMILES IDX 5 1 6 2 7 3 8 4 9 5 10 6 4 7 3 8 2 9 1 10
REMARK H PARENT
REMARK Flexibility Score: inf
ROOT
ATOM      1  C   UNL     1      -0.221   9.178   4.937  1.00  0.00     0.000 C 
ENDROOT
BRANCH   1   2
ATOM      2  C   UNL     1       1.187   9.780   5.039  1.00  0.00     0.006 C 
BRANCH   2   3
ATOM      3  C   UNL     1       1.569  10.125   6.484  1.00  0.00     0.053 C 
BRANCH   3   4
ATOM      4  C   UNL     1       2.765   9.349   6.944  1.00  0.00     0.041 C 
ATOM      5  O   UNL     1       3.843   9.944   7.208  1.00  0.00    -0.550 OA
ATOM      6  O   UNL     1       2.679   7.973   7.115  1.00  0.00    -0.550 OA
ENDBRANCH   3   4
ENDBRANCH   2   3
ENDBRANCH   1   2
BRANCH   1   7
ATOM      7  C   UNL     1      -1.268  10.121   5.544  1.00  0.00     0.000 C 
BRANCH   7   8
ATOM      8  C   UNL     1      -2.655   9.865   4.937  1.00  0.00    -0.000 C 
BRANCH   8   9
ATOM      9  C   UNL     1      -2.731   8.533   4.176  1.00  0.00    -0.003 C 
ATOM     10  C   UNL     1      -4.123   7.904   4.219  1.00  0.00     0.004 C 
ENDBRANCH   8   9
ENDBRANCH   7   8
ENDBRANCH   1   7
TORSDOF 6
ENDMDL
