MODEL 1
REMARK VINA RESULT:    -3.833      0.000      0.000
REMARK INTER + INTRA:          -3.833
REMARK INTER:                  -3.833
REMARK INTRA:                   0.000
REMARK UNBOUND:                 0.000
REMARK SMILES C=C1CCC[C@@]2(C)CC(=O)C(=C(C)C)C[C@H]12
REMARK SMILES IDX 13 1 12 2 11 3 15 4 16 5 2 6 1 7 3 8 4 9 5 10 6 11 8 12 9 13
REMARK SMILES IDX 10 14 7 15 14 16
REMARK H PARENT
REMARK Flexibility Score: inf
ROOT
ATOM      1  C   UNL     1     134.241  53.937  21.892  1.00  0.00     0.039 C 
ATOM      2  C   UNL     1     134.213  52.434  21.739  1.00  0.00    -0.070 C 
ATOM      3  C   UNL     1     134.448  51.608  22.802  1.00  0.00    -0.006 C 
ATOM      4  C   UNL     1     134.726  52.171  24.189  1.00  0.00     0.047 C 
ATOM      5  C   UNL     1     134.242  51.234  25.324  1.00  0.00     0.025 C 
ATOM      6  C   UNL     1     134.531  51.729  26.742  1.00  0.00    -0.073 C 
ATOM      7  C   UNL     1     135.169  52.881  27.024  1.00  0.00     0.008 C 
ATOM      8  C   UNL     1     134.017  50.864  27.869  1.00  0.00     0.031 C 
ATOM      9  C   UNL     1     134.499  49.420  27.695  1.00  0.00     0.005 C 
ATOM     10  C   UNL     1     134.180  48.880  26.290  1.00  0.00     0.008 C 
ATOM     11  C   UNL     1     134.758  49.771  25.148  1.00  0.00    -0.018 C 
ATOM     12  C   UNL     1     134.234  49.222  23.798  1.00  0.00     0.088 C 
ATOM     13  C   UNL     1     134.569  50.130  22.650  1.00  0.00     0.159 C 
ATOM     14  O   UNL     1     134.965  49.613  21.570  1.00  0.00    -0.295 OA
ATOM     15  C   UNL     1     136.309  49.699  25.165  1.00  0.00     0.012 C 
ATOM     16  C   UNL     1     133.875  51.892  20.368  1.00  0.00     0.039 C 
ENDROOT
TORSDOF 0
ENDMDL
MODEL 2
REMARK VINA RESULT:    -3.563      1.106      1.296
REMARK INTER + INTRA:          -3.563
REMARK INTER:                  -3.563
REMARK INTRA:                   0.000
REMARK UNBOUND:                 0.000
REMARK SMILES C=C1CCC[C@@]2(C)CC(=O)C(=C(C)C)C[C@H]12
REMARK SMILES IDX 13 1 12 2 11 3 15 4 16 5 2 6 1 7 3 8 4 9 5 10 6 11 8 12 9 13
REMARK SMILES IDX 10 14 7 15 14 16
REMARK H PARENT
REMARK Flexibility Score: inf
ROOT
ATOM      1  C   UNL     1     134.621  54.355  22.971  1.00  0.00     0.039 C 
ATOM      2  C   UNL     1     134.351  52.871  22.876  1.00  0.00    -0.070 C 
ATOM      3  C   UNL     1     134.499  52.051  23.960  1.00  0.00    -0.006 C 
ATOM      4  C   UNL     1     134.919  52.607  25.314  1.00  0.00     0.047 C 
ATOM      5  C   UNL     1     134.342  51.794  26.501  1.00  0.00     0.025 C 
ATOM      6  C   UNL     1     134.764  52.281  27.887  1.00  0.00    -0.073 C 
ATOM      7  C   UNL     1     135.585  53.327  28.102  1.00  0.00     0.008 C 
ATOM      8  C   UNL     1     134.169  51.544  29.064  1.00  0.00     0.031 C 
ATOM      9  C   UNL     1     134.411  50.038  28.926  1.00  0.00     0.005 C 
ATOM     10  C   UNL     1     133.954  49.511  27.556  1.00  0.00     0.008 C 
ATOM     11  C   UNL     1     134.616  50.264  26.361  1.00  0.00    -0.018 C 
ATOM     12  C   UNL     1     133.957  49.762  25.052  1.00  0.00     0.088 C 
ATOM     13  C   UNL     1     134.381  50.568  23.859  1.00  0.00     0.159 C 
ATOM     14  O   UNL     1     134.646  49.962  22.786  1.00  0.00    -0.295 OA
ATOM     15  C   UNL     1     136.136  49.949  26.324  1.00  0.00     0.012 C 
ATOM     16  C   UNL     1     133.876  52.346  21.540  1.00  0.00     0.039 C 
ENDROOT
TORSDOF 0
ENDMDL
MODEL 3
REMARK VINA RESULT:    -2.676      2.037      5.519
REMARK INTER + INTRA:          -2.676
REMARK INTER:                  -2.676
REMARK INTRA:                   0.000
REMARK UNBOUND:                 0.000
REMARK SMILES C=C1CCC[C@@]2(C)CC(=O)C(=C(C)C)C[C@H]12
REMARK SMILES IDX 13 1 12 2 11 3 15 4 16 5 2 6 1 7 3 8 4 9 5 10 6 11 8 12 9 13
REMARK SMILES IDX 10 14 7 15 14 16
REMARK H PARENT
REMARK Flexibility Score: inf
ROOT
ATOM      1  C   UNL     1     134.589  48.876  27.400  1.00  0.00     0.039 C 
ATOM      2  C   UNL     1     134.390  50.368  27.531  1.00  0.00    -0.070 C 
ATOM      3  C   UNL     1     134.511  51.197  26.451  1.00  0.00    -0.006 C 
ATOM      4  C   UNL     1     134.830  50.646  25.068  1.00  0.00     0.047 C 
ATOM      5  C   UNL     1     134.223  51.502  23.927  1.00  0.00     0.025 C 
ATOM      6  C   UNL     1     134.544  51.019  22.513  1.00  0.00    -0.073 C 
ATOM      7  C   UNL     1     135.305  49.942  22.237  1.00  0.00     0.008 C 
ATOM      8  C   UNL     1     133.915  51.799  21.382  1.00  0.00     0.031 C 
ATOM      9  C   UNL     1     134.231  53.291  21.525  1.00  0.00     0.005 C 
ATOM     10  C   UNL     1     133.875  53.815  22.927  1.00  0.00     0.008 C 
ATOM     11  C   UNL     1     134.570  53.016  24.072  1.00  0.00    -0.018 C 
ATOM     12  C   UNL     1     134.009  53.525  25.423  1.00  0.00     0.088 C 
ATOM     13  C   UNL     1     134.465  52.682  26.578  1.00  0.00     0.159 C 
ATOM     14  O   UNL     1     134.816  53.260  27.643  1.00  0.00    -0.295 OA
ATOM     15  C   UNL     1     136.102  53.265  24.025  1.00  0.00     0.012 C 
ATOM     16  C   UNL     1     134.015  50.891  28.899  1.00  0.00     0.039 C 
ENDROOT
TORSDOF 0
ENDMDL
MODEL 4
REMARK VINA RESULT:    -2.159      2.581      5.261
REMARK INTER + INTRA:          -2.159
REMARK INTER:                  -2.159
REMARK INTRA:                   0.000
REMARK UNBOUND:                 0.000
REMARK SMILES C=C1CCC[C@@]2(C)CC(=O)C(=C(C)C)C[C@H]12
REMARK SMILES IDX 13 1 12 2 11 3 15 4 16 5 2 6 1 7 3 8 4 9 5 10 6 11 8 12 9 13
REMARK SMILES IDX 10 14 7 15 14 16
REMARK H PARENT
REMARK Flexibility Score: inf
ROOT
ATOM      1  C   UNL     1     133.875  55.303  28.545  1.00  0.00     0.039 C 
ATOM      2  C   UNL     1     134.461  53.944  28.848  1.00  0.00    -0.070 C 
ATOM      3  C   UNL     1     134.653  53.017  27.862  1.00  0.00    -0.006 C 
ATOM      4  C   UNL     1     134.305  53.327  26.413  1.00  0.00     0.047 C 
ATOM      5  C   UNL     1     135.207  52.573  25.404  1.00  0.00     0.025 C 
ATOM      6  C   UNL     1     134.877  52.814  23.931  1.00  0.00    -0.073 C 
ATOM      7  C   UNL     1     133.875  53.606  23.502  1.00  0.00     0.008 C 
ATOM      8  C   UNL     1     135.779  52.138  22.925  1.00  0.00     0.031 C 
ATOM      9  C   UNL     1     135.871  50.637  23.217  1.00  0.00     0.005 C 
ATOM     10  C   UNL     1     136.246  50.365  24.683  1.00  0.00     0.008 C 
ATOM     11  C   UNL     1     135.275  51.041  25.698  1.00  0.00    -0.018 C 
ATOM     12  C   UNL     1     135.847  50.836  27.122  1.00  0.00     0.088 C 
ATOM     13  C   UNL     1     135.092  51.622  28.154  1.00  0.00     0.159 C 
ATOM     14  O   UNL     1     134.829  51.071  29.258  1.00  0.00    -0.295 OA
ATOM     15  C   UNL     1     133.876  50.373  25.605  1.00  0.00     0.012 C 
ATOM     16  C   UNL     1     134.858  53.675  30.282  1.00  0.00     0.039 C 
ENDROOT
TORSDOF 0
ENDMDL
MODEL 5
REMARK VINA RESULT:    -1.316      1.628      2.593
REMARK INTER + INTRA:          -1.316
REMARK INTER:                  -1.316
REMARK INTRA:                   0.000
REMARK UNBOUND:                 0.000
REMARK SMILES C=C1CCC[C@@]2(C)CC(=O)C(=C(C)C)C[C@H]12
REMARK SMILES IDX 13 1 12 2 11 3 15 4 16 5 2 6 1 7 3 8 4 9 5 10 6 11 8 12 9 13
REMARK SMILES IDX 10 14 7 15 14 16
REMARK H PARENT
REMARK Flexibility Score: inf
ROOT
ATOM      1  C   UNL     1     135.410  53.354  23.601  1.00  0.00     0.039 C 
ATOM      2  C   UNL     1     134.895  51.954  23.845  1.00  0.00    -0.070 C 
ATOM      3  C   UNL     1     134.888  51.409  25.099  1.00  0.00    -0.006 C 
ATOM      4  C   UNL     1     135.379  52.201  26.303  1.00  0.00     0.047 C 
ATOM      5  C   UNL     1     134.658  51.804  27.616  1.00  0.00     0.025 C 
ATOM      6  C   UNL     1     135.138  52.538  28.868  1.00  0.00    -0.073 C 
ATOM      7  C   UNL     1     136.121  53.459  28.873  1.00  0.00     0.008 C 
ATOM      8  C   UNL     1     134.412  52.214  30.153  1.00  0.00     0.031 C 
ATOM      9  C   UNL     1     134.399  50.701  30.389  1.00  0.00     0.005 C 
ATOM     10  C   UNL     1     133.876  49.938  29.159  1.00  0.00     0.008 C 
ATOM     11  C   UNL     1     134.671  50.262  27.858  1.00  0.00    -0.018 C 
ATOM     12  C   UNL     1     133.954  49.571  26.672  1.00  0.00     0.088 C 
ATOM     13  C   UNL     1     134.523  49.985  25.346  1.00  0.00     0.159 C 
ATOM     14  O   UNL     1     134.696  49.102  24.463  1.00  0.00    -0.295 OA
ATOM     15  C   UNL     1     136.117  49.707  27.978  1.00  0.00     0.012 C 
ATOM     16  C   UNL     1     134.355  51.205  22.648  1.00  0.00     0.039 C 
ENDROOT
TORSDOF 0
ENDMDL
MODEL 6
REMARK VINA RESULT:    -1.191      3.559      6.559
REMARK INTER + INTRA:          -1.191
REMARK INTER:                  -1.191
REMARK INTRA:                   0.000
REMARK UNBOUND:                 0.000
REMARK SMILES C=C1CCC[C@@]2(C)CC(=O)C(=C(C)C)C[C@H]12
REMARK SMILES IDX 13 1 12 2 11 3 15 4 16 5 2 6 1 7 3 8 4 9 5 10 6 11 8 12 9 13
REMARK SMILES IDX 10 14 7 15 14 16
REMARK H PARENT
REMARK Flexibility Score: inf
ROOT
ATOM      1  C   UNL     1     134.988  53.336  32.252  1.00  0.00     0.039 C 
ATOM      2  C   UNL     1     134.682  54.295  31.124  1.00  0.00    -0.070 C 
ATOM      3  C   UNL     1     134.735  53.895  29.818  1.00  0.00    -0.006 C 
ATOM      4  C   UNL     1     135.083  52.459  29.449  1.00  0.00     0.047 C 
ATOM      5  C   UNL     1     134.407  51.997  28.133  1.00  0.00     0.025 C 
ATOM      6  C   UNL     1     134.752  50.576  27.690  1.00  0.00    -0.073 C 
ATOM      7  C   UNL     1     135.587  49.758  28.359  1.00  0.00     0.008 C 
ATOM      8  C   UNL     1     134.060  50.079  26.442  1.00  0.00     0.031 C 
ATOM      9  C   UNL     1     134.267  51.066  25.290  1.00  0.00     0.005 C 
ATOM     10  C   UNL     1     133.884  52.500  25.694  1.00  0.00     0.008 C 
ATOM     11  C   UNL     1     134.644  53.000  26.960  1.00  0.00    -0.018 C 
ATOM     12  C   UNL     1     134.057  54.376  27.361  1.00  0.00     0.088 C 
ATOM     13  C   UNL     1     134.581  54.852  28.685  1.00  0.00     0.159 C 
ATOM     14  O   UNL     1     134.897  56.066  28.806  1.00  0.00    -0.295 OA
ATOM     15  C   UNL     1     136.153  53.161  26.633  1.00  0.00     0.012 C 
ATOM     16  C   UNL     1     134.280  55.700  31.510  1.00  0.00     0.039 C 
ENDROOT
TORSDOF 0
ENDMDL
MODEL 7
REMARK VINA RESULT:    -0.968      2.659      5.249
REMARK INTER + INTRA:          -0.968
REMARK INTER:                  -0.968
REMARK INTRA:                   0.000
REMARK UNBOUND:                 0.000
REMARK SMILES C=C1CCC[C@@]2(C)CC(=O)C(=C(C)C)C[C@H]12
REMARK SMILES IDX 13 1 12 2 11 3 15 4 16 5 2 6 1 7 3 8 4 9 5 10 6 11 8 12 9 13
REMARK SMILES IDX 10 14 7 15 14 16
REMARK H PARENT
REMARK Flexibility Score: inf
ROOT
ATOM      1  C   UNL     1     134.339  48.882  26.965  1.00  0.00     0.039 C 
ATOM      2  C   UNL     1     134.876  50.099  26.248  1.00  0.00    -0.070 C 
ATOM      3  C   UNL     1     134.952  51.314  26.870  1.00  0.00    -0.006 C 
ATOM      4  C   UNL     1     134.518  51.484  28.319  1.00  0.00     0.047 C 
ATOM      5  C   UNL     1     135.309  52.594  29.056  1.00  0.00     0.025 C 
ATOM      6  C   UNL     1     134.888  52.838  30.505  1.00  0.00    -0.073 C 
ATOM      7  C   UNL     1     133.900  52.167  31.128  1.00  0.00     0.008 C 
ATOM      8  C   UNL     1     135.682  53.874  31.266  1.00  0.00     0.031 C 
ATOM      9  C   UNL     1     135.719  55.193  30.487  1.00  0.00     0.005 C 
ATOM     10  C   UNL     1     136.183  54.984  29.036  1.00  0.00     0.008 C 
ATOM     11  C   UNL     1     135.320  53.939  28.264  1.00  0.00    -0.018 C 
ATOM     12  C   UNL     1     135.981  53.695  26.885  1.00  0.00     0.088 C 
ATOM     13  C   UNL     1     135.340  52.557  26.144  1.00  0.00     0.159 C 
ATOM     14  O   UNL     1     135.129  52.687  24.908  1.00  0.00    -0.295 OA
ATOM     15  C   UNL     1     133.887  54.500  28.056  1.00  0.00     0.012 C 
ATOM     16  C   UNL     1     135.360  49.899  24.829  1.00  0.00     0.039 C 
ENDROOT
TORSDOF 0
ENDMDL
