MODEL 1
REMARK VINA RESULT:    -6.822      0.000      0.000
REMARK INTER + INTRA:          -9.268
REMARK INTER:                  -8.816
REMARK INTRA:                  -0.452
REMARK UNBOUND:                -0.452
REMARK SMILES CCCCC(=O)c1ccccc1C(=O)[O-]
REMARK SMILES IDX 4 1 5 2 6 3 7 4 12 5 11 6 10 7 8 8 9 9 13 10 14 11 15 12
REMARK SMILES IDX 3 13 2 14 1 15
REMARK H PARENT
REMARK Flexibility Score: inf
ROOT
ATOM      1  C   UNL     1     128.988 127.963 124.448  1.00  0.00     0.081 C 
ENDROOT
BRANCH   1   2
ATOM      2  C   UNL     1     129.246 127.738 125.911  1.00  0.00     0.163 C 
ATOM      3  O   UNL     1     129.224 128.719 126.702  1.00  0.00    -0.294 OA
BRANCH   2   4
ATOM      4  C   UNL     1     129.394 126.373 126.454  1.00  0.00     0.027 A 
ATOM      5  C   UNL     1     130.537 125.567 126.204  1.00  0.00     0.008 A 
ATOM      6  C   UNL     1     130.546 124.239 126.672  1.00  0.00     0.011 A 
ATOM      7  C   UNL     1     129.469 123.728 127.397  1.00  0.00     0.001 A 
ATOM      8  C   UNL     1     128.327 125.848 127.203  1.00  0.00     0.012 A 
ATOM      9  C   UNL     1     128.365 124.535 127.671  1.00  0.00     0.001 A 
BRANCH   5  10
ATOM     10  C   UNL     1     131.746 126.087 125.517  1.00  0.00     0.072 C 
ATOM     11  O   UNL     1     132.673 126.622 126.183  1.00  0.00    -0.545 OA
ATOM     12  O   UNL     1     131.860 126.036 124.133  1.00  0.00    -0.545 OA
ENDBRANCH   5  10
ENDBRANCH   2   4
ENDBRANCH   1   2
BRANCH   1  13
ATOM     13  C   UNL     1     128.273 126.748 123.842  1.00  0.00     0.008 C 
BRANCH  13  14
ATOM     14  C   UNL     1     127.559 127.082 122.523  1.00  0.00    -0.003 C 
ATOM     15  C   UNL     1     127.957 128.450 121.966  1.00  0.00     0.004 C 
ENDBRANCH  13  14
ENDBRANCH   1  13
TORSDOF 5
ENDMDL
MODEL 2
REMARK VINA RESULT:    -6.511      1.546      2.057
REMARK INTER + INTRA:          -8.866
REMARK INTER:                  -8.330
REMARK INTRA:                  -0.537
REMARK UNBOUND:                -0.452
REMARK SMILES CCCCC(=O)c1ccccc1C(=O)[O-]
REMARK SMILES IDX 4 1 5 2 6 3 7 4 12 5 11 6 10 7 8 8 9 9 13 10 14 11 15 12
REMARK SMILES IDX 3 13 2 14 1 15
REMARK H PARENT
REMARK Flexibility Score: inf
ROOT
ATOM      1  C   UNL     1     128.279 126.699 122.693  1.00  0.00     0.081 C 
ENDROOT
BRANCH   1   2
ATOM      2  C   UNL     1     129.254 127.364 123.624  1.00  0.00     0.163 C 
ATOM      3  O   UNL     1     129.716 128.500 123.328  1.00  0.00    -0.294 OA
BRANCH   2   4
ATOM      4  C   UNL     1     129.577 126.770 124.935  1.00  0.00     0.027 A 
ATOM      5  C   UNL     1     130.669 125.881 125.128  1.00  0.00     0.008 A 
ATOM      6  C   UNL     1     130.838 125.277 126.389  1.00  0.00     0.011 A 
ATOM      7  C   UNL     1     129.971 125.568 127.443  1.00  0.00     0.001 A 
ATOM      8  C   UNL     1     128.726 127.065 126.014  1.00  0.00     0.012 A 
ATOM      9  C   UNL     1     128.922 126.468 127.259  1.00  0.00     0.001 A 
BRANCH   5  10
ATOM     10  C   UNL     1     131.671 125.608 124.068  1.00  0.00     0.072 C 
ATOM     11  O   UNL     1     132.662 126.374 123.919  1.00  0.00    -0.545 OA
ATOM     12  O   UNL     1     131.518 124.536 123.197  1.00  0.00    -0.545 OA
ENDBRANCH   5  10
ENDBRANCH   2   4
ENDBRANCH   1   2
BRANCH   1  13
ATOM     13  C   UNL     1     127.606 127.745 121.794  1.00  0.00     0.008 C 
BRANCH  13  14
ATOM     14  C   UNL     1     126.158 128.038 122.214  1.00  0.00    -0.003 C 
ATOM     15  C   UNL     1     125.754 129.492 121.968  1.00  0.00     0.004 C 
ENDBRANCH  13  14
ENDBRANCH   1  13
TORSDOF 5
ENDMDL
MODEL 3
REMARK VINA RESULT:    -6.235      1.098      2.680
REMARK INTER + INTRA:          -8.510
REMARK INTER:                  -7.937
REMARK INTRA:                  -0.573
REMARK UNBOUND:                -0.452
REMARK SMILES CCCCC(=O)c1ccccc1C(=O)[O-]
REMARK SMILES IDX 4 1 5 2 6 3 7 4 12 5 11 6 10 7 8 8 9 9 13 10 14 11 15 12
REMARK SMILES IDX 3 13 2 14 1 15
REMARK H PARENT
REMARK Flexibility Score: inf
ROOT
ATOM      1  C   UNL     1     130.931 126.364 123.958  1.00  0.00     0.081 C 
ENDROOT
BRANCH   1   2
ATOM      2  C   UNL     1     131.271 126.020 125.381  1.00  0.00     0.163 C 
ATOM      3  O   UNL     1     132.422 126.283 125.823  1.00  0.00    -0.294 OA
BRANCH   2   4
ATOM      4  C   UNL     1     130.242 125.500 126.302  1.00  0.00     0.027 A 
ATOM      5  C   UNL     1     129.644 126.297 127.315  1.00  0.00     0.008 A 
ATOM      6  C   UNL     1     128.750 125.690 128.218  1.00  0.00     0.011 A 
ATOM      7  C   UNL     1     128.428 124.336 128.104  1.00  0.00     0.001 A 
ATOM      8  C   UNL     1     129.891 124.144 126.191  1.00  0.00     0.012 A 
ATOM      9  C   UNL     1     128.990 123.567 127.086  1.00  0.00     0.001 A 
BRANCH   5  10
ATOM     10  C   UNL     1     129.883 127.758 127.425  1.00  0.00     0.072 C 
ATOM     11  O   UNL     1     129.113 128.571 126.845  1.00  0.00    -0.545 OA
ATOM     12  O   UNL     1     130.975 128.254 128.126  1.00  0.00    -0.545 OA
ENDBRANCH   5  10
ENDBRANCH   2   4
ENDBRANCH   1   2
BRANCH   1  13
ATOM     13  C   UNL     1     129.458 126.780 123.850  1.00  0.00     0.008 C 
BRANCH  13  14
ATOM     14  C   UNL     1     129.289 128.230 123.370  1.00  0.00    -0.003 C 
ATOM     15  C   UNL     1     128.268 128.364 122.241  1.00  0.00     0.004 C 
ENDBRANCH  13  14
ENDBRANCH   1  13
TORSDOF 5
ENDMDL
MODEL 4
REMARK VINA RESULT:    -5.994      2.413      3.385
REMARK INTER + INTRA:          -8.198
REMARK INTER:                  -7.708
REMARK INTRA:                  -0.490
REMARK UNBOUND:                -0.452
REMARK SMILES CCCCC(=O)c1ccccc1C(=O)[O-]
REMARK SMILES IDX 4 1 5 2 6 3 7 4 12 5 11 6 10 7 8 8 9 9 13 10 14 11 15 12
REMARK SMILES IDX 3 13 2 14 1 15
REMARK H PARENT
REMARK Flexibility Score: inf
ROOT
ATOM      1  C   UNL     1     128.190 126.731 123.256  1.00  0.00     0.081 C 
ENDROOT
BRANCH   1   2
ATOM      2  C   UNL     1     129.367 127.587 123.629  1.00  0.00     0.163 C 
ATOM      3  O   UNL     1     129.427 128.775 123.210  1.00  0.00    -0.294 OA
BRANCH   2   4
ATOM      4  C   UNL     1     130.385 127.103 124.582  1.00  0.00     0.027 A 
ATOM      5  C   UNL     1     130.315 127.359 125.978  1.00  0.00     0.008 A 
ATOM      6  C   UNL     1     131.385 126.952 126.798  1.00  0.00     0.011 A 
ATOM      7  C   UNL     1     132.483 126.280 126.259  1.00  0.00     0.001 A 
ATOM      8  C   UNL     1     131.490 126.408 124.060  1.00  0.00     0.012 A 
ATOM      9  C   UNL     1     132.531 126.000 124.894  1.00  0.00     0.001 A 
BRANCH   5  10
ATOM     10  C   UNL     1     129.131 127.989 126.614  1.00  0.00     0.072 C 
ATOM     11  O   UNL     1     128.227 127.272 127.123  1.00  0.00    -0.545 OA
ATOM     12  O   UNL     1     128.974 129.370 126.625  1.00  0.00    -0.545 OA
ENDBRANCH   5  10
ENDBRANCH   2   4
ENDBRANCH   1   2
BRANCH   1  13
ATOM     13  C   UNL     1     127.490 127.303 122.016  1.00  0.00     0.008 C 
BRANCH  13  14
ATOM     14  C   UNL     1     126.147 127.970 122.352  1.00  0.00    -0.003 C 
ATOM     15  C   UNL     1     126.023 129.376 121.765  1.00  0.00     0.004 C 
ENDBRANCH  13  14
ENDBRANCH   1  13
TORSDOF 5
ENDMDL
MODEL 5
REMARK VINA RESULT:    -5.379      2.141      3.268
REMARK INTER + INTRA:          -7.403
REMARK INTER:                  -6.998
REMARK INTRA:                  -0.405
REMARK UNBOUND:                -0.452
REMARK SMILES CCCCC(=O)c1ccccc1C(=O)[O-]
REMARK SMILES IDX 4 1 5 2 6 3 7 4 12 5 11 6 10 7 8 8 9 9 13 10 14 11 15 12
REMARK SMILES IDX 3 13 2 14 1 15
REMARK H PARENT
REMARK Flexibility Score: inf
ROOT
ATOM      1  C   UNL     1     129.234 126.514 123.942  1.00  0.00     0.081 C 
ENDROOT
BRANCH   1   2
ATOM      2  C   UNL     1     130.472 126.042 124.652  1.00  0.00     0.163 C 
ATOM      3  O   UNL     1     131.343 125.394 124.012  1.00  0.00    -0.294 OA
BRANCH   2   4
ATOM      4  C   UNL     1     130.742 126.436 126.048  1.00  0.00     0.027 A 
ATOM      5  C   UNL     1     130.073 125.847 127.156  1.00  0.00     0.008 A 
ATOM      6  C   UNL     1     130.315 126.359 128.445  1.00  0.00     0.011 A 
ATOM      7  C   UNL     1     131.219 127.404 128.642  1.00  0.00     0.001 A 
ATOM      8  C   UNL     1     131.663 127.474 126.268  1.00  0.00     0.012 A 
ATOM      9  C   UNL     1     131.899 127.954 127.556  1.00  0.00     0.001 A 
BRANCH   5  10
ATOM     10  C   UNL     1     129.171 124.677 127.012  1.00  0.00     0.072 C 
ATOM     11  O   UNL     1     127.956 124.770 127.334  1.00  0.00    -0.545 OA
ATOM     12  O   UNL     1     129.653 123.453 126.565  1.00  0.00    -0.545 OA
ENDBRANCH   5  10
ENDBRANCH   2   4
ENDBRANCH   1   2
BRANCH   1  13
ATOM     13  C   UNL     1     129.414 127.963 123.469  1.00  0.00     0.008 C 
BRANCH  13  14
ATOM     14  C   UNL     1     128.125 128.554 122.877  1.00  0.00    -0.003 C 
ATOM     15  C   UNL     1     128.033 128.371 121.362  1.00  0.00     0.004 C 
ENDBRANCH  13  14
ENDBRANCH   1  13
TORSDOF 5
ENDMDL
MODEL 6
REMARK VINA RESULT:    -5.179      1.548      2.045
REMARK INTER + INTRA:          -7.144
REMARK INTER:                  -6.842
REMARK INTRA:                  -0.302
REMARK UNBOUND:                -0.452
REMARK SMILES CCCCC(=O)c1ccccc1C(=O)[O-]
REMARK SMILES IDX 4 1 5 2 6 3 7 4 12 5 11 6 10 7 8 8 9 9 13 10 14 11 15 12
REMARK SMILES IDX 3 13 2 14 1 15
REMARK H PARENT
REMARK Flexibility Score: inf
ROOT
ATOM      1  C   UNL     1     128.897 126.531 124.722  1.00  0.00     0.081 C 
ENDROOT
BRANCH   1   2
ATOM      2  C   UNL     1     129.034 126.904 126.172  1.00  0.00     0.163 C 
ATOM      3  O   UNL     1     129.527 128.022 126.480  1.00  0.00    -0.294 OA
BRANCH   2   4
ATOM      4  C   UNL     1     128.482 126.039 127.232  1.00  0.00     0.027 A 
ATOM      5  C   UNL     1     129.010 124.753 127.528  1.00  0.00     0.008 A 
ATOM      6  C   UNL     1     128.354 123.952 128.482  1.00  0.00     0.011 A 
ATOM      7  C   UNL     1     127.224 124.421 129.154  1.00  0.00     0.001 A 
ATOM      8  C   UNL     1     127.354 126.501 127.932  1.00  0.00     0.012 A 
ATOM      9  C   UNL     1     126.731 125.697 128.886  1.00  0.00     0.001 A 
BRANCH   5  10
ATOM     10  C   UNL     1     130.260 124.243 126.909  1.00  0.00     0.072 C 
ATOM     11  O   UNL     1     131.369 124.771 127.193  1.00  0.00    -0.545 OA
ATOM     12  O   UNL     1     130.228 123.210 125.980  1.00  0.00    -0.545 OA
ENDBRANCH   5  10
ENDBRANCH   2   4
ENDBRANCH   1   2
BRANCH   1  13
ATOM     13  C   UNL     1     127.975 127.525 124.004  1.00  0.00     0.008 C 
BRANCH  13  14
ATOM     14  C   UNL     1     127.748 127.158 122.529  1.00  0.00    -0.003 C 
ATOM     15  C   UNL     1     128.007 128.330 121.581  1.00  0.00     0.004 C 
ENDBRANCH  13  14
ENDBRANCH   1  13
TORSDOF 5
ENDMDL
MODEL 7
REMARK VINA RESULT:    -5.029      8.815     10.598
REMARK INTER + INTRA:          -6.951
REMARK INTER:                  -6.455
REMARK INTRA:                  -0.496
REMARK UNBOUND:                -0.452
REMARK SMILES CCCCC(=O)c1ccccc1C(=O)[O-]
REMARK SMILES IDX 4 1 5 2 6 3 7 4 12 5 11 6 10 7 8 8 9 9 13 10 14 11 15 12
REMARK SMILES IDX 3 13 2 14 1 15
REMARK H PARENT
REMARK Flexibility Score: inf
ROOT
ATOM      1  C   UNL     1     121.729 127.479 129.975  1.00  0.00     0.081 C 
ENDROOT
BRANCH   1   2
ATOM      2  C   UNL     1     122.488 126.799 131.080  1.00  0.00     0.163 C 
ATOM      3  O   UNL     1     123.428 126.009 130.791  1.00  0.00    -0.294 OA
BRANCH   2   4
ATOM      4  C   UNL     1     122.237 127.139 132.494  1.00  0.00     0.027 A 
ATOM      5  C   UNL     1     121.170 126.573 133.243  1.00  0.00     0.008 A 
ATOM      6  C   UNL     1     120.940 127.036 134.553  1.00  0.00     0.011 A 
ATOM      7  C   UNL     1     121.761 128.010 135.122  1.00  0.00     0.001 A 
ATOM      8  C   UNL     1     123.065 128.105 133.091  1.00  0.00     0.012 A 
ATOM      9  C   UNL     1     122.828 128.536 134.396  1.00  0.00     0.001 A 
BRANCH   5  10
ATOM     10  C   UNL     1     120.324 125.472 132.718  1.00  0.00     0.072 C 
ATOM     11  O   UNL     1     119.332 125.729 131.984  1.00  0.00    -0.545 OA
ATOM     12  O   UNL     1     120.580 124.149 133.058  1.00  0.00    -0.545 OA
ENDBRANCH   5  10
ENDBRANCH   2   4
ENDBRANCH   1   2
BRANCH   1  13
ATOM     13  C   UNL     1     122.687 127.890 128.849  1.00  0.00     0.008 C 
BRANCH  13  14
ATOM     14  C   UNL     1     122.310 127.265 127.497  1.00  0.00    -0.003 C 
ATOM     15  C   UNL     1     122.371 125.737 127.516  1.00  0.00     0.004 C 
ENDBRANCH  13  14
ENDBRANCH   1  13
TORSDOF 5
ENDMDL
MODEL 8
REMARK VINA RESULT:    -4.909      9.408     11.539
REMARK INTER + INTRA:          -6.796
REMARK INTER:                  -5.955
REMARK INTRA:                  -0.841
REMARK UNBOUND:                -0.452
REMARK SMILES CCCCC(=O)c1ccccc1C(=O)[O-]
REMARK SMILES IDX 4 1 5 2 6 3 7 4 12 5 11 6 10 7 8 8 9 9 13 10 14 11 15 12
REMARK SMILES IDX 3 13 2 14 1 15
REMARK H PARENT
REMARK Flexibility Score: inf
ROOT
ATOM      1  C   UNL     1     119.265 125.711 131.930  1.00  0.00     0.081 C 
ENDROOT
BRANCH   1   2
ATOM      2  C   UNL     1     119.944 126.983 131.510  1.00  0.00     0.163 C 
ATOM      3  O   UNL     1     119.629 127.521 130.414  1.00  0.00    -0.294 OA
BRANCH   2   4
ATOM      4  C   UNL     1     120.877 127.680 132.417  1.00  0.00     0.027 A 
ATOM      5  C   UNL     1     122.280 127.721 132.193  1.00  0.00     0.008 A 
ATOM      6  C   UNL     1     123.105 128.317 133.166  1.00  0.00     0.011 A 
ATOM      7  C   UNL     1     122.558 128.887 134.317  1.00  0.00     0.001 A 
ATOM      8  C   UNL     1     120.343 128.277 133.572  1.00  0.00     0.012 A 
ATOM      9  C   UNL     1     121.178 128.876 134.514  1.00  0.00     0.001 A 
BRANCH   5  10
ATOM     10  C   UNL     1     122.904 127.211 130.946  1.00  0.00     0.072 C 
ATOM     11  O   UNL     1     123.303 126.017 130.880  1.00  0.00    -0.545 OA
ATOM     12  O   UNL     1     123.097 128.043 129.850  1.00  0.00    -0.545 OA
ENDBRANCH   5  10
ENDBRANCH   2   4
ENDBRANCH   1   2
BRANCH   1  13
ATOM     13  C   UNL     1     120.257 124.794 132.657  1.00  0.00     0.008 C 
BRANCH  13  14
ATOM     14  C   UNL     1     119.641 124.121 133.894  1.00  0.00    -0.003 C 
ATOM     15  C   UNL     1     119.608 125.042 135.113  1.00  0.00     0.004 C 
ENDBRANCH  13  14
ENDBRANCH   1  13
TORSDOF 5
ENDMDL
MODEL 9
REMARK VINA RESULT:    -4.899      9.141     11.462
REMARK INTER + INTRA:          -6.783
REMARK INTER:                  -6.078
REMARK INTRA:                  -0.705
REMARK UNBOUND:                -0.452
REMARK SMILES CCCCC(=O)c1ccccc1C(=O)[O-]
REMARK SMILES IDX 4 1 5 2 6 3 7 4 12 5 11 6 10 7 8 8 9 9 13 10 14 11 15 12
REMARK SMILES IDX 3 13 2 14 1 15
REMARK H PARENT
REMARK Flexibility Score: inf
ROOT
ATOM      1  C   UNL     1     121.021 126.889 134.044  1.00  0.00     0.081 C 
ENDROOT
BRANCH   1   2
ATOM      2  C   UNL     1     121.138 125.979 132.854  1.00  0.00     0.163 C 
ATOM      3  O   UNL     1     120.747 124.784 132.948  1.00  0.00    -0.294 OA
BRANCH   2   4
ATOM      4  C   UNL     1     121.582 126.495 131.545  1.00  0.00     0.027 A 
ATOM      5  C   UNL     1     120.673 126.927 130.541  1.00  0.00     0.008 A 
ATOM      6  C   UNL     1     121.179 127.304 129.283  1.00  0.00     0.011 A 
ATOM      7  C   UNL     1     122.552 127.285 129.029  1.00  0.00     0.001 A 
ATOM      8  C   UNL     1     122.961 126.502 131.278  1.00  0.00     0.012 A 
ATOM      9  C   UNL     1     123.442 126.894 130.028  1.00  0.00     0.001 A 
BRANCH   5  10
ATOM     10  C   UNL     1     119.214 127.051 130.787  1.00  0.00     0.072 C 
ATOM     11  O   UNL     1     118.442 126.092 130.517  1.00  0.00    -0.545 OA
ATOM     12  O   UNL     1     118.668 128.232 131.275  1.00  0.00    -0.545 OA
ENDBRANCH   5  10
ENDBRANCH   2   4
ENDBRANCH   1   2
BRANCH   1  13
ATOM     13  C   UNL     1     121.433 128.317 133.662  1.00  0.00     0.008 C 
BRANCH  13  14
ATOM     14  C   UNL     1     122.516 128.886 134.592  1.00  0.00    -0.003 C 
ATOM     15  C   UNL     1     123.896 128.926 133.936  1.00  0.00     0.004 C 
ENDBRANCH  13  14
ENDBRANCH   1  13
TORSDOF 5
ENDMDL
