MODEL 1
REMARK VINA RESULT:    -3.934      0.000      0.000
REMARK INTER + INTRA:          -4.756
REMARK INTER:                  -4.624
REMARK INTRA:                  -0.132
REMARK UNBOUND:                -0.132
REMARK SMILES O=C([O-])C=Cc1ccc(O)c(O)c1
REMARK SMILES IDX 6 1 13 2 7 3 11 4 8 5 9 6 5 7 4 8 2 9 1 10 3 11 12 12 10 14
REMARK H PARENT 12 13 10 15
REMARK Flexibility Score: inf
ROOT
ATOM      1  C   UNL     1      12.830  -2.575  11.508  1.00  0.00    -0.022 A 
ATOM      2  C   UNL     1      13.856  -3.340  12.097  1.00  0.00     0.058 A 
ATOM      3  C   UNL     1      12.919  -1.177  11.551  1.00  0.00     0.012 A 
ATOM      4  C   UNL     1      14.962  -2.722  12.695  1.00  0.00     0.157 A 
ATOM      5  C   UNL     1      14.019  -0.554  12.142  1.00  0.00     0.051 A 
ATOM      6  C   UNL     1      15.048  -1.310  12.712  1.00  0.00     0.157 A 
ENDROOT
BRANCH   1   7
ATOM      7  C   UNL     1      11.637  -3.192  10.876  1.00  0.00     0.010 C 
ATOM      8  C   UNL     1      11.436  -3.238   9.551  1.00  0.00     0.025 C 
BRANCH   8   9
ATOM      9  C   UNL     1      10.232  -3.847   8.961  1.00  0.00     0.064 C 
ATOM     10  O   UNL     1       9.226  -4.124   9.667  1.00  0.00    -0.545 OA
ATOM     11  O   UNL     1      10.206  -4.124   7.600  1.00  0.00    -0.545 OA
ENDBRANCH   8   9
ENDBRANCH   1   7
BRANCH   4  12
ATOM     12  O   UNL     1      15.941  -3.543  13.259  1.00  0.00    -0.504 OA
ATOM     13  H   UNL     1      16.833  -3.209  13.596  1.00  0.00     0.293 HD
ENDBRANCH   4  12
BRANCH   6  14
ATOM     14  O   UNL     1      16.123  -0.626  13.283  1.00  0.00    -0.504 OA
ATOM     15  H   UNL     1      17.089  -0.780  13.031  1.00  0.00     0.293 HD
ENDBRANCH   6  14
TORSDOF 4
ENDMDL
MODEL 2
REMARK VINA RESULT:    -3.389      0.810      1.826
REMARK INTER + INTRA:          -4.115
REMARK INTER:                  -3.970
REMARK INTRA:                  -0.145
REMARK UNBOUND:                -0.132
REMARK SMILES O=C([O-])C=Cc1ccc(O)c(O)c1
REMARK SMILES IDX 6 1 13 2 7 3 11 4 8 5 9 6 5 7 4 8 2 9 1 10 3 11 12 12 10 14
REMARK H PARENT 12 13 10 15
REMARK Flexibility Score: inf
ROOT
ATOM      1  C   UNL     1      12.787  -2.433  11.523  1.00  0.00    -0.022 A 
ATOM      2  C   UNL     1      13.432  -1.188  11.657  1.00  0.00     0.058 A 
ATOM      3  C   UNL     1      13.292  -3.535  12.228  1.00  0.00     0.012 A 
ATOM      4  C   UNL     1      14.543  -1.038  12.497  1.00  0.00     0.157 A 
ATOM      5  C   UNL     1      14.397  -3.394  13.069  1.00  0.00     0.051 A 
ATOM      6  C   UNL     1      15.028  -2.155  13.218  1.00  0.00     0.157 A 
ENDROOT
BRANCH   1   7
ATOM      7  C   UNL     1      11.616  -2.635  10.633  1.00  0.00     0.010 C 
ATOM      8  C   UNL     1      11.366  -3.779   9.981  1.00  0.00     0.025 C 
BRANCH   8   9
ATOM      9  C   UNL     1      10.200  -3.938   9.095  1.00  0.00     0.064 C 
ATOM     10  O   UNL     1       9.045  -4.125   9.563  1.00  0.00    -0.545 OA
ATOM     11  O   UNL     1      10.377  -3.884   7.718  1.00  0.00    -0.545 OA
ENDBRANCH   8   9
ENDBRANCH   1   7
BRANCH   4  12
ATOM     12  O   UNL     1      15.131   0.225  12.581  1.00  0.00    -0.504 OA
ATOM     13  H   UNL     1      15.696   0.535  13.359  1.00  0.00     0.293 HD
ENDBRANCH   4  12
BRANCH   6  14
ATOM     14  O   UNL     1      16.125  -2.079  14.080  1.00  0.00    -0.504 OA
ATOM     15  H   UNL     1      16.197  -1.425  14.845  1.00  0.00     0.293 HD
ENDBRANCH   6  14
TORSDOF 4
ENDMDL
