MODEL 1
REMARK VINA RESULT:    -4.072      0.000      0.000
REMARK INTER + INTRA:          -4.672
REMARK INTER:                  -4.549
REMARK INTRA:                  -0.123
REMARK UNBOUND:                -0.123
REMARK SMILES O=C([O-])c1ccccc1C(=O)[O-]
REMARK SMILES IDX 4 1 9 2 5 3 8 4 6 5 7 6 2 7 1 8 3 9 10 10 11 11 12 12
REMARK H PARENT
REMARK Flexibility Score: inf
ROOT
ATOM      1  C   UNL     1      17.456 -11.406 186.103  1.00  0.00     0.006 A 
ATOM      2  C   UNL     1      18.200 -12.376 186.830  1.00  0.00     0.006 A 
ATOM      3  C   UNL     1      17.876 -10.064 186.126  1.00  0.00     0.010 A 
ATOM      4  C   UNL     1      19.373 -11.979 187.499  1.00  0.00     0.010 A 
ATOM      5  C   UNL     1      19.030  -9.689 186.814  1.00  0.00     0.001 A 
ATOM      6  C   UNL     1      19.783 -10.646 187.489  1.00  0.00     0.001 A 
ENDROOT
BRANCH   1   7
ATOM      7  C   UNL     1      16.288 -11.752 185.259  1.00  0.00     0.072 C 
ATOM      8  O   UNL     1      16.435 -12.035 184.042  1.00  0.00    -0.545 OA
ATOM      9  O   UNL     1      15.005 -11.700 185.790  1.00  0.00    -0.545 OA
ENDBRANCH   1   7
BRANCH   2  10
ATOM     10  C   UNL     1      17.753 -13.782 186.976  1.00  0.00     0.072 C 
ATOM     11  O   UNL     1      18.505 -14.726 186.611  1.00  0.00    -0.545 OA
ATOM     12  O   UNL     1      16.536 -14.081 187.574  1.00  0.00    -0.545 OA
ENDBRANCH   2  10
TORSDOF 2
ENDMDL
MODEL 2
REMARK VINA RESULT:    -3.993      0.088      3.016
REMARK INTER + INTRA:          -4.584
REMARK INTER:                  -4.492
REMARK INTRA:                  -0.091
REMARK UNBOUND:                -0.123
REMARK SMILES O=C([O-])c1ccccc1C(=O)[O-]
REMARK SMILES IDX 4 1 9 2 5 3 8 4 6 5 7 6 2 7 1 8 3 9 10 10 11 11 12 12
REMARK H PARENT
REMARK Flexibility Score: inf
ROOT
ATOM      1  C   UNL     1      18.164 -12.366 186.834  1.00  0.00     0.006 A 
ATOM      2  C   UNL     1      17.433 -11.373 186.123  1.00  0.00     0.006 A 
ATOM      3  C   UNL     1      19.363 -12.005 187.474  1.00  0.00     0.010 A 
ATOM      4  C   UNL     1      17.894 -10.043 186.135  1.00  0.00     0.010 A 
ATOM      5  C   UNL     1      19.814 -10.684 187.454  1.00  0.00     0.001 A 
ATOM      6  C   UNL     1      19.076  -9.704 186.796  1.00  0.00     0.001 A 
ENDROOT
BRANCH   1   7
ATOM      7  C   UNL     1      17.686 -13.759 186.992  1.00  0.00     0.072 C 
ATOM      8  O   UNL     1      18.354 -14.725 186.538  1.00  0.00    -0.545 OA
ATOM      9  O   UNL     1      16.456 -14.010 187.588  1.00  0.00    -0.545 OA
ENDBRANCH   1   7
BRANCH   2  10
ATOM     10  C   UNL     1      16.238 -11.691 185.306  1.00  0.00     0.072 C 
ATOM     11  O   UNL     1      15.086 -11.610 185.811  1.00  0.00    -0.545 OA
ATOM     12  O   UNL     1      16.365 -12.016 183.962  1.00  0.00    -0.545 OA
ENDBRANCH   2  10
TORSDOF 2
ENDMDL
MODEL 3
REMARK VINA RESULT:    -3.976     16.360     17.134
REMARK INTER + INTRA:          -4.564
REMARK INTER:                  -4.389
REMARK INTRA:                  -0.175
REMARK UNBOUND:                -0.123
REMARK SMILES O=C([O-])c1ccccc1C(=O)[O-]
REMARK SMILES IDX 4 1 9 2 5 3 8 4 6 5 7 6 2 7 1 8 3 9 10 10 11 11 12 12
REMARK H PARENT
REMARK Flexibility Score: inf
ROOT
ATOM      1  C   UNL     1      17.367 -11.816 203.211  1.00  0.00     0.006 A 
ATOM      2  C   UNL     1      16.919 -10.480 203.404  1.00  0.00     0.006 A 
ATOM      3  C   UNL     1      18.738 -12.104 203.340  1.00  0.00     0.010 A 
ATOM      4  C   UNL     1      17.850  -9.493 203.783  1.00  0.00     0.010 A 
ATOM      5  C   UNL     1      19.646 -11.106 203.694  1.00  0.00     0.001 A 
ATOM      6  C   UNL     1      19.202  -9.807 203.927  1.00  0.00     0.001 A 
ENDROOT
BRANCH   1   7
ATOM      7  C   UNL     1      16.444 -12.945 202.946  1.00  0.00     0.072 C 
ATOM      8  O   UNL     1      15.982 -13.140 201.791  1.00  0.00    -0.545 OA
ATOM      9  O   UNL     1      16.026 -13.762 203.989  1.00  0.00    -0.545 OA
ENDBRANCH   1   7
BRANCH   2  10
ATOM     10  C   UNL     1      15.520 -10.060 203.153  1.00  0.00     0.072 C 
ATOM     11  O   UNL     1      14.744  -9.832 204.120  1.00  0.00    -0.545 OA
ATOM     12  O   UNL     1      15.065  -9.849 201.857  1.00  0.00    -0.545 OA
ENDBRANCH   2  10
TORSDOF 2
ENDMDL
MODEL 4
REMARK VINA RESULT:    -3.866      1.591      2.914
REMARK INTER + INTRA:          -4.442
REMARK INTER:                  -4.212
REMARK INTRA:                  -0.230
REMARK UNBOUND:                -0.123
REMARK SMILES O=C([O-])c1ccccc1C(=O)[O-]
REMARK SMILES IDX 4 1 9 2 5 3 8 4 6 5 7 6 2 7 1 8 3 9 10 10 11 11 12 12
REMARK H PARENT
REMARK Flexibility Score: inf
ROOT
ATOM      1  C   UNL     1      17.930  -9.983 186.152  1.00  0.00     0.006 A 
ATOM      2  C   UNL     1      17.509 -11.341 186.122  1.00  0.00     0.006 A 
ATOM      3  C   UNL     1      19.083  -9.639 186.882  1.00  0.00     0.010 A 
ATOM      4  C   UNL     1      18.293 -12.315 186.771  1.00  0.00     0.010 A 
ATOM      5  C   UNL     1      19.832 -10.618 187.535  1.00  0.00     0.001 A 
ATOM      6  C   UNL     1      19.445 -11.954 187.470  1.00  0.00     0.001 A 
ENDROOT
BRANCH   1   7
ATOM      7  C   UNL     1      17.249  -8.911 185.388  1.00  0.00     0.072 C 
ATOM      8  O   UNL     1      16.402  -8.164 185.943  1.00  0.00    -0.545 OA
ATOM      9  O   UNL     1      17.490  -8.764 184.027  1.00  0.00    -0.545 OA
ENDBRANCH   1   7
BRANCH   2  10
ATOM     10  C   UNL     1      16.236 -11.771 185.498  1.00  0.00     0.072 C 
ATOM     11  O   UNL     1      15.179 -11.820 186.183  1.00  0.00    -0.545 OA
ATOM     12  O   UNL     1      16.175 -12.063 184.141  1.00  0.00    -0.545 OA
ENDBRANCH   2  10
TORSDOF 2
ENDMDL
MODEL 5
REMARK VINA RESULT:    -3.866      1.587      3.548
REMARK INTER + INTRA:          -4.441
REMARK INTER:                  -4.226
REMARK INTRA:                  -0.215
REMARK UNBOUND:                -0.123
REMARK SMILES O=C([O-])c1ccccc1C(=O)[O-]
REMARK SMILES IDX 4 1 9 2 5 3 8 4 6 5 7 6 2 7 1 8 3 9 10 10 11 11 12 12
REMARK H PARENT
REMARK Flexibility Score: inf
ROOT
ATOM      1  C   UNL     1      17.507 -11.340 186.103  1.00  0.00     0.006 A 
ATOM      2  C   UNL     1      17.945  -9.987 186.151  1.00  0.00     0.006 A 
ATOM      3  C   UNL     1      18.269 -12.330 186.748  1.00  0.00     0.010 A 
ATOM      4  C   UNL     1      19.095  -9.667 186.898  1.00  0.00     0.010 A 
ATOM      5  C   UNL     1      19.418 -11.992 187.464  1.00  0.00     0.001 A 
ATOM      6  C   UNL     1      19.824 -10.663 187.549  1.00  0.00     0.001 A 
ENDROOT
BRANCH   1   7
ATOM      7  C   UNL     1      16.238 -11.753 185.459  1.00  0.00     0.072 C 
ATOM      8  O   UNL     1      15.197 -11.932 186.144  1.00  0.00    -0.545 OA
ATOM      9  O   UNL     1      16.201 -12.013 184.094  1.00  0.00    -0.545 OA
ENDBRANCH   1   7
BRANCH   2  10
ATOM     10  C   UNL     1      17.284  -8.903 185.387  1.00  0.00     0.072 C 
ATOM     11  O   UNL     1      16.529  -8.083 185.975  1.00  0.00    -0.545 OA
ATOM     12  O   UNL     1      17.537  -8.736 184.031  1.00  0.00    -0.545 OA
ENDBRANCH   2  10
TORSDOF 2
ENDMDL
MODEL 6
REMARK VINA RESULT:    -3.671     15.339     16.291
REMARK INTER + INTRA:          -4.223
REMARK INTER:                  -4.005
REMARK INTRA:                  -0.219
REMARK UNBOUND:                -0.123
REMARK SMILES O=C([O-])c1ccccc1C(=O)[O-]
REMARK SMILES IDX 4 1 9 2 5 3 8 4 6 5 7 6 2 7 1 8 3 9 10 10 11 11 12 12
REMARK H PARENT
REMARK Flexibility Score: inf
ROOT
ATOM      1  C   UNL     1      15.295 -10.895 202.078  1.00  0.00     0.006 A 
ATOM      2  C   UNL     1      15.989 -12.136 202.129  1.00  0.00     0.006 A 
ATOM      3  C   UNL     1      14.298 -10.708 201.103  1.00  0.00     0.010 A 
ATOM      4  C   UNL     1      15.615 -13.166 201.245  1.00  0.00     0.010 A 
ATOM      5  C   UNL     1      13.959 -11.736 200.223  1.00  0.00     0.001 A 
ATOM      6  C   UNL     1      14.607 -12.965 200.301  1.00  0.00     0.001 A 
ENDROOT
BRANCH   1   7
ATOM      7  C   UNL     1      15.523  -9.803 203.053  1.00  0.00     0.072 C 
ATOM      8  O   UNL     1      14.863  -9.747 204.123  1.00  0.00    -0.545 OA
ATOM      9  O   UNL     1      16.426  -8.787 202.763  1.00  0.00    -0.545 OA
ENDBRANCH   1   7
BRANCH   2  10
ATOM     10  C   UNL     1      17.144 -12.371 203.027  1.00  0.00     0.072 C 
ATOM     11  O   UNL     1      16.982 -12.975 204.122  1.00  0.00    -0.545 OA
ATOM     12  O   UNL     1      18.425 -11.989 202.649  1.00  0.00    -0.545 OA
ENDBRANCH   2  10
TORSDOF 2
ENDMDL
MODEL 7
REMARK VINA RESULT:    -3.661     15.332     16.473
REMARK INTER + INTRA:          -4.212
REMARK INTER:                  -3.999
REMARK INTRA:                  -0.213
REMARK UNBOUND:                -0.123
REMARK SMILES O=C([O-])c1ccccc1C(=O)[O-]
REMARK SMILES IDX 4 1 9 2 5 3 8 4 6 5 7 6 2 7 1 8 3 9 10 10 11 11 12 12
REMARK H PARENT
REMARK Flexibility Score: inf
ROOT
ATOM      1  C   UNL     1      15.985 -12.126 202.090  1.00  0.00     0.006 A 
ATOM      2  C   UNL     1      15.309 -10.874 202.072  1.00  0.00     0.006 A 
ATOM      3  C   UNL     1      15.589 -13.130 201.188  1.00  0.00     0.010 A 
ATOM      4  C   UNL     1      14.306 -10.651 201.109  1.00  0.00     0.010 A 
ATOM      5  C   UNL     1      14.578 -12.895 200.257  1.00  0.00     0.001 A 
ATOM      6  C   UNL     1      13.946 -11.655 200.210  1.00  0.00     0.001 A 
ENDROOT
BRANCH   1   7
ATOM      7  C   UNL     1      17.142 -12.404 202.973  1.00  0.00     0.072 C 
ATOM      8  O   UNL     1      18.297 -12.011 202.664  1.00  0.00    -0.545 OA
ATOM      9  O   UNL     1      16.973 -13.165 204.124  1.00  0.00    -0.545 OA
ENDBRANCH   1   7
BRANCH   2  10
ATOM     10  C   UNL     1      15.564  -9.812 203.074  1.00  0.00     0.072 C 
ATOM     11  O   UNL     1      14.870  -9.753 204.125  1.00  0.00    -0.545 OA
ATOM     12  O   UNL     1      16.607  -8.911 202.902  1.00  0.00    -0.545 OA
ENDBRANCH   2  10
TORSDOF 2
ENDMDL
