MODEL 1
REMARK VINA RESULT:    -4.792      0.000      0.000
REMARK INTER + INTRA:          -6.822
REMARK INTER:                  -7.313
REMARK INTRA:                   0.492
REMARK UNBOUND:                 0.492
REMARK SMILES CC1=CCC[C@H](C)C(=O)C[C@@H](C(C)C)C(=O)C1
REMARK SMILES IDX 8 1 9 2 6 3 7 4 5 5 4 6 3 7 2 8 1 9 10 11 11 12 15 13 16 14
REMARK SMILES IDX 17 15 12 17 13 18 14 19
REMARK H PARENT
REMARK Flexibility Score: 70.00
ROOT
ATOM      1  C   UNL     1       2.972  28.761  32.005  1.00  0.00     0.136 C 
ATOM      2  O   UNL     1       3.006  27.541  32.105  1.00  0.00    -0.299 OA
ENDROOT
BRANCH   1   3
ATOM      3  C   UNL     1       2.763  29.622  33.240  1.00  0.00     0.053 C 
ATOM      4  C   UNL     1       2.217  31.018  32.896  1.00  0.00     0.016 C 
BRANCH   3   5
ATOM      5  C   UNL     1       1.878  28.909  34.282  1.00  0.00     0.015 C 
BRANCH   5   6
ATOM      6  C   UNL     1       0.377  29.235  34.150  1.00  0.00     0.028 C 
BRANCH   6   7
ATOM      7  C   UNL     1      -0.345  28.134  33.417  1.00  0.00    -0.028 C 
ATOM      8  C   UNL     1      -0.686  28.176  32.107  1.00  0.00    -0.070 CG0
ATOM      9  C   UNL     1      -1.347  26.960  31.509  1.00  0.00     0.039 C 
ATOM     10  G   UNL     1      -0.451  29.396  31.228  1.00  0.00     0.000 G0
ENDBRANCH   6   7
ENDBRANCH   5   6
ENDBRANCH   3   5
ENDBRANCH   1   3
BRANCH   1  11
ATOM     11  C   UNL     1       3.142  29.387  30.643  1.00  0.00     0.087 C 
BRANCH  11  12
ATOM     12  C   UNL     1       1.855  30.111  30.166  1.00  0.00     0.066 C 
BRANCH  12  13
ATOM     13  C   UNL     1       0.651  29.179  30.196  1.00  0.00     0.140 C 
ATOM     14  O   UNL     1       0.550  28.286  29.367  1.00  0.00    -0.299 OA
BRANCH  13  15
ATOM     15  C   UNL     1      -0.461  29.385  31.196  1.00  0.00     0.106 CG0
ATOM     16  G   UNL     1      -0.685  28.163  32.075  1.00  0.00     0.000 G0
ENDBRANCH  13  15
ENDBRANCH  12  13
BRANCH  12  17
ATOM     17  C   UNL     1       2.050  30.794  28.777  1.00  0.00    -0.006 C 
ATOM     18  C   UNL     1       3.319  31.658  28.748  1.00  0.00     0.008 C 
ATOM     19  C   UNL     1       0.838  31.614  28.301  1.00  0.00     0.008 C 
ENDBRANCH  12  17
ENDBRANCH  11  12
ENDBRANCH   1  11
TORSDOF 1
ENDMDL
MODEL 2
REMARK VINA RESULT:    -4.564      2.005      3.940
REMARK INTER + INTRA:          -6.474
REMARK INTER:                  -6.463
REMARK INTRA:                  -0.010
REMARK UNBOUND:                 0.492
REMARK SMILES CC1=CCC[C@H](C)C(=O)C[C@@H](C(C)C)C(=O)C1
REMARK SMILES IDX 8 1 9 2 6 3 7 4 5 5 4 6 3 7 2 8 1 9 10 11 11 12 15 13 16 14
REMARK SMILES IDX 17 15 12 17 13 18 14 19
REMARK H PARENT
REMARK Flexibility Score: 70.00
ROOT
ATOM      1  C   UNL     1      -0.426  28.172  32.557  1.00  0.00     0.136 C 
ATOM      2  O   UNL     1      -1.008  27.111  32.739  1.00  0.00    -0.299 OA
ENDROOT
BRANCH   1   3
ATOM      3  C   UNL     1       0.131  28.950  33.737  1.00  0.00     0.053 C 
ATOM      4  C   UNL     1       1.295  28.219  34.426  1.00  0.00     0.016 C 
BRANCH   3   5
ATOM      5  C   UNL     1       0.525  30.385  33.330  1.00  0.00     0.015 C 
BRANCH   5   6
ATOM      6  C   UNL     1       2.047  30.599  33.203  1.00  0.00     0.028 C 
BRANCH   6   7
ATOM      7  C   UNL     1       2.401  31.103  31.828  1.00  0.00    -0.028 C 
ATOM      8  C   UNL     1       2.662  30.311  30.761  1.00  0.00    -0.070 CG0
ATOM      9  C   UNL     1       2.934  30.977  29.436  1.00  0.00     0.039 C 
ATOM     10  G   UNL     1       2.712  28.793  30.848  1.00  0.00     0.000 G0
ENDBRANCH   6   7
ENDBRANCH   5   6
ENDBRANCH   3   5
ENDBRANCH   1   3
BRANCH   1  11
ATOM     11  C   UNL     1      -0.271  28.686  31.146  1.00  0.00     0.087 C 
BRANCH  11  12
ATOM     12  C   UNL     1       0.415  27.650  30.218  1.00  0.00     0.066 C 
BRANCH  12  13
ATOM     13  C   UNL     1       1.817  28.097  29.827  1.00  0.00     0.140 C 
ATOM     14  O   UNL     1       2.244  27.855  28.707  1.00  0.00    -0.299 OA
BRANCH  13  15
ATOM     15  C   UNL     1       2.720  28.775  30.829  1.00  0.00     0.106 CG0
ATOM     16  G   UNL     1       2.639  30.292  30.750  1.00  0.00     0.000 G0
ENDBRANCH  13  15
ENDBRANCH  12  13
BRANCH  12  17
ATOM     17  C   UNL     1      -0.469  27.300  28.981  1.00  0.00    -0.006 C 
ATOM     18  C   UNL     1      -1.915  27.783  29.168  1.00  0.00     0.008 C 
ATOM     19  C   UNL     1      -0.453  25.811  28.593  1.00  0.00     0.008 C 
ENDBRANCH  12  17
ENDBRANCH  11  12
ENDBRANCH   1  11
TORSDOF 1
ENDMDL
MODEL 3
REMARK VINA RESULT:    -4.549      2.097      3.774
REMARK INTER + INTRA:          -6.451
REMARK INTER:                  -6.869
REMARK INTRA:                   0.419
REMARK UNBOUND:                 0.492
REMARK SMILES CC1=CCC[C@H](C)C(=O)C[C@@H](C(C)C)C(=O)C1
REMARK SMILES IDX 8 1 9 2 6 3 7 4 5 5 4 6 3 7 2 8 1 9 10 11 11 12 15 13 16 14
REMARK SMILES IDX 17 15 12 17 13 18 14 19
REMARK H PARENT
REMARK Flexibility Score: 70.00
ROOT
ATOM      1  C   UNL     1       1.283  30.234  32.906  1.00  0.00     0.136 C 
ATOM      2  O   UNL     1       2.020  31.197  32.740  1.00  0.00    -0.299 OA
ENDROOT
BRANCH   1   3
ATOM      3  C   UNL     1       1.434  29.360  34.140  1.00  0.00     0.053 C 
ATOM      4  C   UNL     1       0.092  28.783  34.620  1.00  0.00     0.016 C 
BRANCH   3   5
ATOM      5  C   UNL     1       2.481  28.249  33.918  1.00  0.00     0.015 C 
BRANCH   5   6
ATOM      6  C   UNL     1       3.544  28.599  32.858  1.00  0.00     0.028 C 
BRANCH   6   7
ATOM      7  C   UNL     1       3.609  27.532  31.796  1.00  0.00    -0.028 C 
ATOM      8  C   UNL     1       3.442  27.754  30.470  1.00  0.00    -0.070 CG0
ATOM      9  C   UNL     1       3.604  26.585  29.531  1.00  0.00     0.039 C 
ATOM     10  G   UNL     1       3.078  29.116  29.897  1.00  0.00     0.000 G0
ENDBRANCH   6   7
ENDBRANCH   5   6
ENDBRANCH   3   5
ENDBRANCH   1   3
BRANCH   1  11
ATOM     11  C   UNL     1       0.225  29.936  31.871  1.00  0.00     0.087 C 
BRANCH  11  12
ATOM     12  C   UNL     1       0.662  28.810  30.897  1.00  0.00     0.066 C 
BRANCH  12  13
ATOM     13  C   UNL     1       1.579  29.345  29.805  1.00  0.00     0.140 C 
ATOM     14  O   UNL     1       1.104  29.928  28.841  1.00  0.00    -0.299 OA
BRANCH  13  15
ATOM     15  C   UNL     1       3.068  29.104  29.860  1.00  0.00     0.106 CG0
ATOM     16  G   UNL     1       3.416  27.756  30.474  1.00  0.00     0.000 G0
ENDBRANCH  13  15
ENDBRANCH  12  13
BRANCH  12  17
ATOM     17  C   UNL     1      -0.561  28.029  30.322  1.00  0.00    -0.006 C 
ATOM     18  C   UNL     1      -1.423  27.430  31.444  1.00  0.00     0.008 C 
ATOM     19  C   UNL     1      -0.191  26.941  29.299  1.00  0.00     0.008 C 
ENDBRANCH  12  17
ENDBRANCH  11  12
ENDBRANCH   1  11
TORSDOF 1
ENDMDL
MODEL 4
REMARK VINA RESULT:    -4.546      2.145      4.045
REMARK INTER + INTRA:          -6.446
REMARK INTER:                  -6.355
REMARK INTRA:                  -0.091
REMARK UNBOUND:                 0.492
REMARK SMILES CC1=CCC[C@H](C)C(=O)C[C@@H](C(C)C)C(=O)C1
REMARK SMILES IDX 8 1 9 2 6 3 7 4 5 5 4 6 3 7 2 8 1 9 10 11 11 12 15 13 16 14
REMARK SMILES IDX 17 15 12 17 13 18 14 19
REMARK H PARENT
REMARK Flexibility Score: 70.00
ROOT
ATOM      1  C   UNL     1       3.504  27.695  31.575  1.00  0.00     0.136 C 
ATOM      2  O   UNL     1       3.677  27.075  32.616  1.00  0.00    -0.299 OA
ENDROOT
BRANCH   1   3
ATOM      3  C   UNL     1       4.098  27.183  30.273  1.00  0.00     0.053 C 
ATOM      4  C   UNL     1       4.546  25.715  30.368  1.00  0.00     0.016 C 
BRANCH   3   5
ATOM      5  C   UNL     1       3.134  27.405  29.089  1.00  0.00     0.015 C 
BRANCH   5   6
ATOM      6  C   UNL     1       1.907  26.471  29.103  1.00  0.00     0.028 C 
BRANCH   6   7
ATOM      7  C   UNL     1       0.765  27.081  28.333  1.00  0.00    -0.028 C 
ATOM      8  C   UNL     1      -0.288  27.721  28.896  1.00  0.00    -0.070 CG0
ATOM      9  C   UNL     1      -1.316  28.334  27.978  1.00  0.00     0.039 C 
ATOM     10  G   UNL     1      -0.486  27.825  30.401  1.00  0.00     0.000 G0
ENDBRANCH   6   7
ENDBRANCH   5   6
ENDBRANCH   3   5
ENDBRANCH   1   3
BRANCH   1  11
ATOM     11  C   UNL     1       2.692  28.967  31.609  1.00  0.00     0.087 C 
BRANCH  11  12
ATOM     12  C   UNL     1       1.253  28.729  32.137  1.00  0.00     0.066 C 
BRANCH  12  13
ATOM     13  C   UNL     1       0.216  28.965  31.048  1.00  0.00     0.140 C 
ATOM     14  O   UNL     1      -0.080  30.107  30.725  1.00  0.00    -0.299 OA
BRANCH  13  15
ATOM     15  C   UNL     1      -0.509  27.807  30.405  1.00  0.00     0.106 CG0
ATOM     16  G   UNL     1      -0.270  27.734  28.904  1.00  0.00     0.000 G0
ENDBRANCH  13  15
ENDBRANCH  12  13
BRANCH  12  17
ATOM     17  C   UNL     1       0.962  29.551  33.430  1.00  0.00    -0.006 C 
ATOM     18  C   UNL     1       2.177  30.394  33.846  1.00  0.00     0.008 C 
ATOM     19  C   UNL     1       0.470  28.707  34.619  1.00  0.00     0.008 C 
ENDBRANCH  12  17
ENDBRANCH  11  12
ENDBRANCH   1  11
TORSDOF 1
ENDMDL
MODEL 5
REMARK VINA RESULT:    -4.215      2.601      4.943
REMARK INTER + INTRA:          -5.941
REMARK INTER:                  -5.870
REMARK INTRA:                  -0.071
REMARK UNBOUND:                 0.492
REMARK SMILES CC1=CCC[C@H](C)C(=O)C[C@@H](C(C)C)C(=O)C1
REMARK SMILES IDX 8 1 9 2 6 3 7 4 5 5 4 6 3 7 2 8 1 9 10 11 11 12 15 13 16 14
REMARK SMILES IDX 17 15 12 17 13 18 14 19
REMARK H PARENT
REMARK Flexibility Score: 70.00
ROOT
ATOM      1  C   UNL     1      -0.252  28.774  30.459  1.00  0.00     0.136 C 
ATOM      2  O   UNL     1      -0.131  29.950  30.143  1.00  0.00    -0.299 OA
ENDROOT
BRANCH   1   3
ATOM      3  C   UNL     1      -1.150  27.853  29.649  1.00  0.00     0.053 C 
ATOM      4  C   UNL     1      -1.748  28.551  28.416  1.00  0.00     0.016 C 
BRANCH   3   5
ATOM      5  C   UNL     1      -0.419  26.551  29.263  1.00  0.00     0.015 C 
BRANCH   5   6
ATOM      6  C   UNL     1       0.826  26.775  28.381  1.00  0.00     0.028 C 
BRANCH   6   7
ATOM      7  C   UNL     1       1.951  25.868  28.807  1.00  0.00    -0.028 C 
ATOM      8  C   UNL     1       3.031  26.264  29.523  1.00  0.00    -0.070 CG0
ATOM      9  C   UNL     1       4.036  25.215  29.926  1.00  0.00     0.039 C 
ATOM     10  G   UNL     1       3.280  27.714  29.912  1.00  0.00     0.000 G0
ENDBRANCH   6   7
ENDBRANCH   5   6
ENDBRANCH   3   5
ENDBRANCH   1   3
BRANCH   1  11
ATOM     11  C   UNL     1       0.505  28.259  31.659  1.00  0.00     0.087 C 
BRANCH  11  12
ATOM     12  C   UNL     1       1.895  28.931  31.807  1.00  0.00     0.066 C 
BRANCH  12  13
ATOM     13  C   UNL     1       3.015  27.989  31.385  1.00  0.00     0.140 C 
ATOM     14  O   UNL     1       3.734  27.479  32.232  1.00  0.00    -0.299 OA
BRANCH  13  15
ATOM     15  C   UNL     1       3.297  27.728  29.925  1.00  0.00     0.106 CG0
ATOM     16  G   UNL     1       3.053  26.277  29.537  1.00  0.00     0.000 G0
ENDBRANCH  13  15
ENDBRANCH  12  13
BRANCH  12  17
ATOM     17  C   UNL     1       2.112  29.517  33.237  1.00  0.00    -0.006 C 
ATOM     18  C   UNL     1       1.188  28.847  34.265  1.00  0.00     0.008 C 
ATOM     19  C   UNL     1       1.976  31.048  33.319  1.00  0.00     0.008 C 
ENDBRANCH  12  17
ENDBRANCH  11  12
ENDBRANCH   1  11
TORSDOF 1
ENDMDL
MODEL 6
REMARK VINA RESULT:    -4.109      1.912      4.259
REMARK INTER + INTRA:          -5.779
REMARK INTER:                  -5.552
REMARK INTRA:                  -0.226
REMARK UNBOUND:                 0.492
REMARK SMILES CC1=CCC[C@H](C)C(=O)C[C@@H](C(C)C)C(=O)C1
REMARK SMILES IDX 8 1 9 2 6 3 7 4 5 5 4 6 3 7 2 8 1 9 10 11 11 12 15 13 16 14
REMARK SMILES IDX 17 15 12 17 13 18 14 19
REMARK H PARENT
REMARK Flexibility Score: 70.00
ROOT
ATOM      1  C   UNL     1       0.113  28.660  32.574  1.00  0.00     0.136 C 
ATOM      2  O   UNL     1       0.048  27.825  33.467  1.00  0.00    -0.299 OA
ENDROOT
BRANCH   1   3
ATOM      3  C   UNL     1       1.240  29.679  32.563  1.00  0.00     0.053 C 
ATOM      4  C   UNL     1       1.103  30.719  33.687  1.00  0.00     0.016 C 
BRANCH   3   5
ATOM      5  C   UNL     1       2.621  28.992  32.592  1.00  0.00     0.015 C 
BRANCH   5   6
ATOM      6  C   UNL     1       3.072  28.444  31.223  1.00  0.00     0.028 C 
BRANCH   6   7
ATOM      7  C   UNL     1       3.114  29.546  30.196  1.00  0.00    -0.028 C 
ATOM      8  C   UNL     1       2.369  29.573  29.065  1.00  0.00    -0.070 CG0
ATOM      9  C   UNL     1       2.481  30.784  28.173  1.00  0.00     0.039 C 
ATOM     10  G   UNL     1       1.451  28.433  28.650  1.00  0.00     0.000 G0
ENDBRANCH   6   7
ENDBRANCH   5   6
ENDBRANCH   3   5
ENDBRANCH   1   3
BRANCH   1  11
ATOM     11  C   UNL     1      -0.938  28.654  31.491  1.00  0.00     0.087 C 
BRANCH  11  12
ATOM     12  C   UNL     1      -0.527  27.774  30.281  1.00  0.00     0.066 C 
BRANCH  12  13
ATOM     13  C   UNL     1       0.029  28.618  29.143  1.00  0.00     0.140 C 
ATOM     14  O   UNL     1      -0.693  29.422  28.571  1.00  0.00    -0.299 OA
BRANCH  13  15
ATOM     15  C   UNL     1       1.447  28.428  28.661  1.00  0.00     0.106 CG0
ATOM     16  G   UNL     1       2.356  29.582  29.059  1.00  0.00     0.000 G0
ENDBRANCH  13  15
ENDBRANCH  12  13
BRANCH  12  17
ATOM     17  C   UNL     1      -1.686  26.837  29.821  1.00  0.00    -0.006 C 
ATOM     18  C   UNL     1      -2.545  26.379  31.009  1.00  0.00     0.008 C 
ATOM     19  C   UNL     1      -1.227  25.620  28.998  1.00  0.00     0.008 C 
ENDBRANCH  12  17
ENDBRANCH  11  12
ENDBRANCH   1  11
TORSDOF 1
ENDMDL
MODEL 7
REMARK VINA RESULT:    -4.064      1.681      4.023
REMARK INTER + INTRA:          -5.710
REMARK INTER:                  -6.135
REMARK INTRA:                   0.424
REMARK UNBOUND:                 0.492
REMARK SMILES CC1=CCC[C@H](C)C(=O)C[C@@H](C(C)C)C(=O)C1
REMARK SMILES IDX 8 1 9 2 6 3 7 4 5 5 4 6 3 7 2 8 1 9 10 11 11 12 15 13 16 14
REMARK SMILES IDX 17 15 12 17 13 18 14 19
REMARK H PARENT
REMARK Flexibility Score: 70.00
ROOT
ATOM      1  C   UNL     1       2.926  31.103  29.442  1.00  0.00     0.136 C 
ATOM      2  O   UNL     1       4.104  30.815  29.276  1.00  0.00    -0.299 OA
ENDROOT
BRANCH   1   3
ATOM      3  C   UNL     1       2.048  31.446  28.250  1.00  0.00     0.053 C 
ATOM      4  C   UNL     1       2.855  32.007  27.068  1.00  0.00     0.016 C 
BRANCH   3   5
ATOM      5  C   UNL     1       1.181  30.242  27.824  1.00  0.00     0.015 C 
BRANCH   5   6
ATOM      6  C   UNL     1      -0.229  30.241  28.447  1.00  0.00     0.028 C 
BRANCH   6   7
ATOM      7  C   UNL     1      -0.694  28.832  28.709  1.00  0.00    -0.028 C 
ATOM      8  C   UNL     1      -0.539  28.175  29.883  1.00  0.00    -0.070 CG0
ATOM      9  C   UNL     1      -1.123  26.790  30.002  1.00  0.00     0.039 C 
ATOM     10  G   UNL     1       0.211  28.764  31.069  1.00  0.00     0.000 G0
ENDBRANCH   6   7
ENDBRANCH   5   6
ENDBRANCH   3   5
ENDBRANCH   1   3
BRANCH   1  11
ATOM     11  C   UNL     1       2.366  31.108  30.844  1.00  0.00     0.087 C 
BRANCH  11  12
ATOM     12  C   UNL     1       2.589  29.754  31.568  1.00  0.00     0.066 C 
BRANCH  12  13
ATOM     13  C   UNL     1       1.698  28.663  30.990  1.00  0.00     0.140 C 
ATOM     14  O   UNL     1       2.197  27.729  30.379  1.00  0.00    -0.299 OA
BRANCH  13  15
ATOM     15  C   UNL     1       0.195  28.753  31.100  1.00  0.00     0.106 CG0
ATOM     16  G   UNL     1      -0.512  28.173  29.884  1.00  0.00     0.000 G0
ENDBRANCH  13  15
ENDBRANCH  12  13
BRANCH  12  17
ATOM     17  C   UNL     1       2.445  29.889  33.115  1.00  0.00    -0.006 C 
ATOM     18  C   UNL     1       2.323  28.514  33.791  1.00  0.00     0.008 C 
ATOM     19  C   UNL     1       1.293  30.805  33.565  1.00  0.00     0.008 C 
ENDBRANCH  12  17
ENDBRANCH  11  12
ENDBRANCH   1  11
TORSDOF 1
ENDMDL
MODEL 8
REMARK VINA RESULT:    -3.950      1.954      4.079
REMARK INTER + INTRA:          -5.536
REMARK INTER:                  -5.725
REMARK INTRA:                   0.189
REMARK UNBOUND:                 0.492
REMARK SMILES CC1=CCC[C@H](C)C(=O)C[C@@H](C(C)C)C(=O)C1
REMARK SMILES IDX 8 1 9 2 6 3 7 4 5 5 4 6 3 7 2 8 1 9 10 11 11 12 15 13 16 14
REMARK SMILES IDX 17 15 12 17 13 18 14 19
REMARK H PARENT
REMARK Flexibility Score: 70.00
ROOT
ATOM      1  C   UNL     1       2.701  29.063  30.188  1.00  0.00     0.136 C 
ATOM      2  O   UNL     1       3.448  28.286  30.767  1.00  0.00    -0.299 OA
ENDROOT
BRANCH   1   3
ATOM      3  C   UNL     1       2.864  29.311  28.697  1.00  0.00     0.053 C 
ATOM      4  C   UNL     1       4.337  29.286  28.255  1.00  0.00     0.016 C 
BRANCH   3   5
ATOM      5  C   UNL     1       2.007  28.334  27.866  1.00  0.00     0.015 C 
BRANCH   5   6
ATOM      6  C   UNL     1       0.550  28.797  27.671  1.00  0.00     0.028 C 
BRANCH   6   7
ATOM      7  C   UNL     1      -0.413  27.711  28.077  1.00  0.00    -0.028 C 
ATOM      8  C   UNL     1      -1.129  27.707  29.227  1.00  0.00    -0.070 CG0
ATOM      9  C   UNL     1      -2.101  26.576  29.451  1.00  0.00     0.039 C 
ATOM     10  G   UNL     1      -0.977  28.774  30.301  1.00  0.00     0.000 G0
ENDBRANCH   6   7
ENDBRANCH   5   6
ENDBRANCH   3   5
ENDBRANCH   1   3
BRANCH   1  11
ATOM     11  C   UNL     1       1.620  29.762  30.976  1.00  0.00     0.087 C 
BRANCH  11  12
ATOM     12  C   UNL     1       0.983  28.834  32.044  1.00  0.00     0.066 C 
BRANCH  12  13
ATOM     13  C   UNL     1      -0.365  28.298  31.580  1.00  0.00     0.140 C 
ATOM     14  O   UNL     1      -0.925  27.419  32.220  1.00  0.00    -0.299 OA
BRANCH  13  15
ATOM     15  C   UNL     1      -0.992  28.787  30.297  1.00  0.00     0.106 CG0
ATOM     16  G   UNL     1      -1.112  27.687  29.253  1.00  0.00     0.000 G0
ENDBRANCH  13  15
ENDBRANCH  12  13
BRANCH  12  17
ATOM     17  C   UNL     1       0.905  29.522  33.443  1.00  0.00    -0.006 C 
ATOM     18  C   UNL     1       1.782  30.781  33.500  1.00  0.00     0.008 C 
ATOM     19  C   UNL     1       1.234  28.592  34.623  1.00  0.00     0.008 C 
ENDBRANCH  12  17
ENDBRANCH  11  12
ENDBRANCH   1  11
TORSDOF 1
ENDMDL
MODEL 9
REMARK VINA RESULT:    -3.939      2.466      4.920
REMARK INTER + INTRA:          -5.519
REMARK INTER:                  -5.308
REMARK INTRA:                  -0.212
REMARK UNBOUND:                 0.492
REMARK SMILES CC1=CCC[C@H](C)C(=O)C[C@@H](C(C)C)C(=O)C1
REMARK SMILES IDX 8 1 9 2 6 3 7 4 5 5 4 6 3 7 2 8 1 9 10 11 11 12 15 13 16 14
REMARK SMILES IDX 17 15 12 17 13 18 14 19
REMARK H PARENT
REMARK Flexibility Score: 70.00
ROOT
ATOM      1  C   UNL     1       0.047  27.863  30.779  1.00  0.00     0.136 C 
ATOM      2  O   UNL     1      -0.569  27.846  31.837  1.00  0.00    -0.299 OA
ENDROOT
BRANCH   1   3
ATOM      3  C   UNL     1      -0.605  27.342  29.509  1.00  0.00     0.053 C 
ATOM      4  C   UNL     1      -1.618  28.337  28.918  1.00  0.00     0.016 C 
BRANCH   3   5
ATOM      5  C   UNL     1       0.452  26.923  28.465  1.00  0.00     0.015 C 
BRANCH   5   6
ATOM      6  C   UNL     1       0.570  27.896  27.275  1.00  0.00     0.028 C 
BRANCH   6   7
ATOM      7  C   UNL     1       1.992  28.367  27.112  1.00  0.00    -0.028 C 
ATOM      8  C   UNL     1       2.497  29.497  27.664  1.00  0.00    -0.070 CG0
ATOM      9  C   UNL     1       3.961  29.791  27.458  1.00  0.00     0.039 C 
ATOM     10  G   UNL     1       1.650  30.482  28.456  1.00  0.00     0.000 G0
ENDBRANCH   6   7
ENDBRANCH   5   6
ENDBRANCH   3   5
ENDBRANCH   1   3
BRANCH   1  11
ATOM     11  C   UNL     1       1.453  28.410  30.761  1.00  0.00     0.087 C 
BRANCH  11  12
ATOM     12  C   UNL     1       1.491  29.936  31.035  1.00  0.00     0.066 C 
BRANCH  12  13
ATOM     13  C   UNL     1       2.150  30.690  29.888  1.00  0.00     0.140 C 
ATOM     14  O   UNL     1       3.045  31.491  30.119  1.00  0.00    -0.299 OA
BRANCH  13  15
ATOM     15  C   UNL     1       1.666  30.515  28.469  1.00  0.00     0.106 CG0
ATOM     16  G   UNL     1       2.492  29.498  27.694  1.00  0.00     0.000 G0
ENDBRANCH  13  15
ENDBRANCH  12  13
BRANCH  12  17
ATOM     17  C   UNL     1       2.136  30.265  32.417  1.00  0.00    -0.006 C 
ATOM     18  C   UNL     1       3.047  29.126  32.899  1.00  0.00     0.008 C 
ATOM     19  C   UNL     1       1.123  30.635  33.515  1.00  0.00     0.008 C 
ENDBRANCH  12  17
ENDBRANCH  11  12
ENDBRANCH   1  11
TORSDOF 1
ENDMDL
