MODEL 1
REMARK VINA RESULT:    -7.089      0.000      0.000
REMARK INTER + INTRA:          -8.404
REMARK INTER:                  -8.125
REMARK INTRA:                  -0.279
REMARK UNBOUND:                -0.279
REMARK SMILES O=C1C[C@H](c2ccc(O)cc2)Oc2cc(O)cc(O)c21
REMARK SMILES IDX 3 1 4 2 12 3 13 4 14 5 15 6 17 7 18 8 20 9 2 10 1 11 5 12
REMARK SMILES IDX 6 13 11 14 7 15 10 16 8 17 9 18 19 20 16 22
REMARK H PARENT 9 19 19 21 16 23
REMARK Flexibility Score: inf
ROOT
ATOM      1  C   UNL     1      82.702   0.791   0.593  1.00  0.00     0.131 C 
ATOM      2  C   UNL     1      81.910   2.090   0.391  1.00  0.00     0.211 C 
ATOM      3  O   UNL     1      82.444   2.839  -0.704  1.00  0.00    -0.484 OA
ATOM      4  C   UNL     1      83.820   2.942  -0.950  1.00  0.00     0.138 A 
ATOM      5  C   UNL     1      84.276   3.903  -1.854  1.00  0.00     0.093 A 
ATOM      6  C   UNL     1      85.643   4.040  -2.109  1.00  0.00     0.123 A 
ATOM      7  C   UNL     1      86.555   3.191  -1.477  1.00  0.00     0.093 A 
ATOM      8  C   UNL     1      86.116   2.193  -0.597  1.00  0.00     0.133 A 
ATOM      9  C   UNL     1      84.733   2.083  -0.299  1.00  0.00     0.102 A 
ATOM     10  C   UNL     1      84.165   1.113   0.669  1.00  0.00     0.174 C 
ATOM     11  O   UNL     1      84.865   0.599   1.581  1.00  0.00    -0.294 OA
ENDROOT
BRANCH   2  12
ATOM     12  C   UNL     1      80.450   1.794   0.152  1.00  0.00    -0.007 A 
ATOM     13  C   UNL     1      79.477   2.773   0.416  1.00  0.00     0.011 A 
ATOM     14  C   UNL     1      80.040   0.520  -0.281  1.00  0.00     0.011 A 
ATOM     15  C   UNL     1      78.120   2.491   0.224  1.00  0.00     0.046 A 
ATOM     16  C   UNL     1      78.683   0.241  -0.472  1.00  0.00     0.046 A 
ATOM     17  C   UNL     1      77.720   1.224  -0.223  1.00  0.00     0.115 A 
BRANCH  17  18
ATOM     18  O   UNL     1      76.372   0.933  -0.417  1.00  0.00    -0.508 OA
ATOM     19  H   UNL     1      76.077   0.150  -0.990  1.00  0.00     0.293 HD
ENDBRANCH  17  18
ENDBRANCH   2  12
BRANCH   8  20
ATOM     20  O   UNL     1      87.081   1.326  -0.079  1.00  0.00    -0.507 OA
ATOM     21  H   UNL     1      88.069   1.532  -0.052  1.00  0.00     0.293 HD
ENDBRANCH   8  20
BRANCH   6  22
ATOM     22  O   UNL     1      86.107   5.010  -2.994  1.00  0.00    -0.508 OA
ATOM     23  H   UNL     1      85.512   5.397  -3.718  1.00  0.00     0.293 HD
ENDBRANCH   6  22
TORSDOF 4
ENDMDL
MODEL 2
REMARK VINA RESULT:    -6.714      1.626      3.172
REMARK INTER + INTRA:          -7.975
REMARK INTER:                  -7.687
REMARK INTRA:                  -0.288
REMARK UNBOUND:                -0.279
REMARK SMILES O=C1C[C@H](c2ccc(O)cc2)Oc2cc(O)cc(O)c21
REMARK SMILES IDX 3 1 4 2 12 3 13 4 14 5 15 6 17 7 18 8 20 9 2 10 1 11 5 12
REMARK SMILES IDX 6 13 11 14 7 15 10 16 8 17 9 18 19 20 16 22
REMARK H PARENT 9 19 19 21 16 23
REMARK Flexibility Score: inf
ROOT
ATOM      1  C   UNL     1      82.768   2.159  -1.127  1.00  0.00     0.131 C 
ATOM      2  C   UNL     1      82.175   1.105  -0.181  1.00  0.00     0.211 C 
ATOM      3  O   UNL     1      82.748   1.223   1.125  1.00  0.00    -0.484 OA
ATOM      4  C   UNL     1      84.105   1.506   1.332  1.00  0.00     0.138 A 
ATOM      5  C   UNL     1      84.646   1.332   2.608  1.00  0.00     0.093 A 
ATOM      6  C   UNL     1      85.999   1.592   2.842  1.00  0.00     0.123 A 
ATOM      7  C   UNL     1      86.806   2.057   1.802  1.00  0.00     0.093 A 
ATOM      8  C   UNL     1      86.275   2.278   0.524  1.00  0.00     0.133 A 
ATOM      9  C   UNL     1      84.913   1.969   0.270  1.00  0.00     0.102 A 
ATOM     10  C   UNL     1      84.265   2.096  -1.058  1.00  0.00     0.174 C 
ATOM     11  O   UNL     1      84.933   2.097  -2.125  1.00  0.00    -0.294 OA
ENDROOT
BRANCH   2  12
ATOM     12  C   UNL     1      80.675   1.242  -0.101  1.00  0.00    -0.007 A 
ATOM     13  C   UNL     1      79.847   0.161  -0.445  1.00  0.00     0.011 A 
ATOM     14  C   UNL     1      80.087   2.467   0.261  1.00  0.00     0.011 A 
ATOM     15  C   UNL     1      78.455   0.294  -0.402  1.00  0.00     0.046 A 
ATOM     16  C   UNL     1      78.695   2.598   0.303  1.00  0.00     0.046 A 
ATOM     17  C   UNL     1      77.876   1.513  -0.025  1.00  0.00     0.115 A 
BRANCH  17  18
ATOM     18  O   UNL     1      76.491   1.658   0.022  1.00  0.00    -0.508 OA
ATOM     19  H   UNL     1      75.940   1.752  -0.824  1.00  0.00     0.293 HD
ENDBRANCH  17  18
ENDBRANCH   2  12
BRANCH   8  20
ATOM     20  O   UNL     1      87.125   2.832  -0.436  1.00  0.00    -0.507 OA
ATOM     21  H   UNL     1      86.814   3.177  -1.333  1.00  0.00     0.293 HD
ENDBRANCH   8  20
BRANCH   6  22
ATOM     22  O   UNL     1      86.550   1.400   4.107  1.00  0.00    -0.508 OA
ATOM     23  H   UNL     1      85.976   1.401   4.942  1.00  0.00     0.293 HD
ENDBRANCH   6  22
TORSDOF 4
ENDMDL
MODEL 3
REMARK VINA RESULT:    -6.661      8.038      9.056
REMARK INTER + INTRA:          -7.913
REMARK INTER:                  -7.618
REMARK INTRA:                  -0.296
REMARK UNBOUND:                -0.279
REMARK SMILES O=C1C[C@H](c2ccc(O)cc2)Oc2cc(O)cc(O)c21
REMARK SMILES IDX 3 1 4 2 12 3 13 4 14 5 15 6 17 7 18 8 20 9 2 10 1 11 5 12
REMARK SMILES IDX 6 13 11 14 7 15 10 16 8 17 9 18 19 20 16 22
REMARK H PARENT 9 19 19 21 16 23
REMARK Flexibility Score: inf
ROOT
ATOM      1  C   UNL     1      83.132  -2.024  -7.282  1.00  0.00     0.131 C 
ATOM      2  C   UNL     1      84.597  -2.481  -7.287  1.00  0.00     0.211 C 
ATOM      3  O   UNL     1      85.463  -1.400  -6.927  1.00  0.00    -0.484 OA
ATOM      4  C   UNL     1      85.252  -0.085  -7.365  1.00  0.00     0.138 A 
ATOM      5  C   UNL     1      86.276   0.852  -7.208  1.00  0.00     0.093 A 
ATOM      6  C   UNL     1      86.101   2.167  -7.648  1.00  0.00     0.123 A 
ATOM      7  C   UNL     1      84.886   2.551  -8.221  1.00  0.00     0.093 A 
ATOM      8  C   UNL     1      83.832   1.638  -8.350  1.00  0.00     0.133 A 
ATOM      9  C   UNL     1      84.022   0.290  -7.948  1.00  0.00     0.102 A 
ATOM     10  C   UNL     1      83.003  -0.776  -8.104  1.00  0.00     0.174 C 
ATOM     11  O   UNL     1      82.069  -0.684  -8.943  1.00  0.00    -0.294 OA
ENDROOT
BRANCH   2  12
ATOM     12  C   UNL     1      84.799  -3.641  -6.344  1.00  0.00    -0.007 A 
ATOM     13  C   UNL     1      83.743  -4.082  -5.529  1.00  0.00     0.011 A 
ATOM     14  C   UNL     1      86.058  -4.256  -6.225  1.00  0.00     0.011 A 
ATOM     15  C   UNL     1      83.935  -5.137  -4.631  1.00  0.00     0.046 A 
ATOM     16  C   UNL     1      86.248  -5.311  -5.327  1.00  0.00     0.046 A 
ATOM     17  C   UNL     1      85.188  -5.756  -4.529  1.00  0.00     0.115 A 
BRANCH  17  18
ATOM     18  O   UNL     1      85.392  -6.807  -3.638  1.00  0.00    -0.508 OA
ATOM     19  H   UNL     1      85.996  -7.587  -3.870  1.00  0.00     0.293 HD
ENDBRANCH  17  18
ENDBRANCH   2  12
BRANCH   8  20
ATOM     20  O   UNL     1      82.620   2.124  -8.846  1.00  0.00    -0.507 OA
ATOM     21  H   UNL     1      82.011   1.602  -9.460  1.00  0.00     0.293 HD
ENDBRANCH   8  20
BRANCH   6  22
ATOM     22  O   UNL     1      87.125   3.102  -7.515  1.00  0.00    -0.508 OA
ATOM     23  H   UNL     1      86.963   4.009  -7.093  1.00  0.00     0.293 HD
ENDBRANCH   6  22
TORSDOF 4
ENDMDL
MODEL 4
REMARK VINA RESULT:    -6.187      8.565      9.925
REMARK INTER + INTRA:          -7.371
REMARK INTER:                  -7.064
REMARK INTRA:                  -0.307
REMARK UNBOUND:                -0.279
REMARK SMILES O=C1C[C@H](c2ccc(O)cc2)Oc2cc(O)cc(O)c21
REMARK SMILES IDX 3 1 4 2 12 3 13 4 14 5 15 6 17 7 18 8 20 9 2 10 1 11 5 12
REMARK SMILES IDX 6 13 11 14 7 15 10 16 8 17 9 18 19 20 16 22
REMARK H PARENT 9 19 19 21 16 23
REMARK Flexibility Score: inf
ROOT
ATOM      1  C   UNL     1      83.059   5.175   7.375  1.00  0.00     0.131 C 
ATOM      2  C   UNL     1      84.513   5.649   7.498  1.00  0.00     0.211 C 
ATOM      3  O   UNL     1      85.416   4.614   7.098  1.00  0.00    -0.484 OA
ATOM      4  C   UNL     1      85.206   3.264   7.414  1.00  0.00     0.138 A 
ATOM      5  C   UNL     1      86.253   2.358   7.236  1.00  0.00     0.093 A 
ATOM      6  C   UNL     1      86.079   1.008   7.556  1.00  0.00     0.123 A 
ATOM      7  C   UNL     1      84.842   0.561   8.027  1.00  0.00     0.093 A 
ATOM      8  C   UNL     1      83.766   1.446   8.174  1.00  0.00     0.133 A 
ATOM      9  C   UNL     1      83.953   2.826   7.896  1.00  0.00     0.102 A 
ATOM     10  C   UNL     1      82.908   3.861   8.084  1.00  0.00     0.174 C 
ATOM     11  O   UNL     1      81.933   3.686   8.860  1.00  0.00    -0.294 OA
ENDROOT
BRANCH   2  12
ATOM     12  C   UNL     1      84.744   6.887   6.666  1.00  0.00    -0.007 A 
ATOM     13  C   UNL     1      83.656   7.564   6.090  1.00  0.00     0.011 A 
ATOM     14  C   UNL     1      86.049   7.342   6.409  1.00  0.00     0.011 A 
ATOM     15  C   UNL     1      83.869   8.694   5.293  1.00  0.00     0.046 A 
ATOM     16  C   UNL     1      86.259   8.471   5.611  1.00  0.00     0.046 A 
ATOM     17  C   UNL     1      85.172   9.151   5.053  1.00  0.00     0.115 A 
BRANCH  17  18
ATOM     18  O   UNL     1      85.396  10.275   4.261  1.00  0.00    -0.508 OA
ATOM     19  H   UNL     1      84.631  10.777   3.826  1.00  0.00     0.293 HD
ENDBRANCH  17  18
ENDBRANCH   2  12
BRANCH   8  20
ATOM     20  O   UNL     1      82.538   0.904   8.561  1.00  0.00    -0.507 OA
ATOM     21  H   UNL     1      82.119   0.092   8.131  1.00  0.00     0.293 HD
ENDBRANCH   8  20
BRANCH   6  22
ATOM     22  O   UNL     1      87.125   0.101   7.402  1.00  0.00    -0.508 OA
ATOM     23  H   UNL     1      88.093   0.399   7.426  1.00  0.00     0.293 HD
ENDBRANCH   6  22
TORSDOF 4
ENDMDL
MODEL 5
REMARK VINA RESULT:    -5.900      7.723     10.010
REMARK INTER + INTRA:          -7.041
REMARK INTER:                  -6.729
REMARK INTRA:                  -0.312
REMARK UNBOUND:                -0.279
REMARK SMILES O=C1C[C@H](c2ccc(O)cc2)Oc2cc(O)cc(O)c21
REMARK SMILES IDX 3 1 4 2 12 3 13 4 14 5 15 6 17 7 18 8 20 9 2 10 1 11 5 12
REMARK SMILES IDX 6 13 11 14 7 15 10 16 8 17 9 18 19 20 16 22
REMARK H PARENT 9 19 19 21 16 23
REMARK Flexibility Score: inf
ROOT
ATOM      1  C   UNL     1      84.046   0.503  -8.994  1.00  0.00     0.131 C 
ATOM      2  C   UNL     1      84.191   0.688  -7.477  1.00  0.00     0.211 C 
ATOM      3  O   UNL     1      84.816  -0.457  -6.889  1.00  0.00    -0.484 OA
ATOM      4  C   UNL     1      84.535  -1.767  -7.301  1.00  0.00     0.138 A 
ATOM      5  C   UNL     1      84.963  -2.833  -6.507  1.00  0.00     0.093 A 
ATOM      6  C   UNL     1      84.685  -4.150  -6.884  1.00  0.00     0.123 A 
ATOM      7  C   UNL     1      84.001  -4.400  -8.075  1.00  0.00     0.093 A 
ATOM      8  C   UNL     1      83.597  -3.348  -8.907  1.00  0.00     0.133 A 
ATOM      9  C   UNL     1      83.836  -2.008  -8.504  1.00  0.00     0.102 A 
ATOM     10  C   UNL     1      83.390  -0.817  -9.269  1.00  0.00     0.174 C 
ATOM     11  O   UNL     1      82.446  -0.877 -10.099  1.00  0.00    -0.294 OA
ENDROOT
BRANCH   2  12
ATOM     12  C   UNL     1      84.988   1.930  -7.163  1.00  0.00    -0.007 A 
ATOM     13  C   UNL     1      85.752   2.001  -5.987  1.00  0.00     0.011 A 
ATOM     14  C   UNL     1      84.929   3.050  -8.011  1.00  0.00     0.011 A 
ATOM     15  C   UNL     1      86.467   3.163  -5.677  1.00  0.00     0.046 A 
ATOM     16  C   UNL     1      85.645   4.210  -7.699  1.00  0.00     0.046 A 
ATOM     17  C   UNL     1      86.417   4.270  -6.535  1.00  0.00     0.115 A 
BRANCH  17  18
ATOM     18  O   UNL     1      87.125   5.432  -6.237  1.00  0.00    -0.508 OA
ATOM     19  H   UNL     1      86.904   6.315  -6.683  1.00  0.00     0.293 HD
ENDBRANCH  17  18
ENDBRANCH   2  12
BRANCH   8  20
ATOM     20  O   UNL     1      83.002  -3.685 -10.125  1.00  0.00    -0.507 OA
ATOM     21  H   UNL     1      83.360  -4.392 -10.752  1.00  0.00     0.293 HD
ENDBRANCH   8  20
BRANCH   6  22
ATOM     22  O   UNL     1      85.091  -5.218  -6.086  1.00  0.00    -0.508 OA
ATOM     23  H   UNL     1      85.885  -5.794  -6.336  1.00  0.00     0.293 HD
ENDBRANCH   6  22
TORSDOF 4
ENDMDL
MODEL 6
REMARK VINA RESULT:    -5.749      6.262      8.566
REMARK INTER + INTRA:          -6.869
REMARK INTER:                  -6.581
REMARK INTRA:                  -0.288
REMARK UNBOUND:                -0.279
REMARK SMILES O=C1C[C@H](c2ccc(O)cc2)Oc2cc(O)cc(O)c21
REMARK SMILES IDX 3 1 4 2 12 3 13 4 14 5 15 6 17 7 18 8 20 9 2 10 1 11 5 12
REMARK SMILES IDX 6 13 11 14 7 15 10 16 8 17 9 18 19 20 16 22
REMARK H PARENT 9 19 19 21 16 23
REMARK Flexibility Score: inf
ROOT
ATOM      1  C   UNL     1      86.622   1.048  -5.307  1.00  0.00     0.131 C 
ATOM      2  C   UNL     1      86.571   2.450  -5.930  1.00  0.00     0.211 C 
ATOM      3  O   UNL     1      85.366   2.623  -6.681  1.00  0.00    -0.484 OA
ATOM      4  C   UNL     1      84.816   1.604  -7.472  1.00  0.00     0.138 A 
ATOM      5  C   UNL     1      83.809   1.926  -8.384  1.00  0.00     0.093 A 
ATOM      6  C   UNL     1      83.251   0.935  -9.197  1.00  0.00     0.123 A 
ATOM      7  C   UNL     1      83.682  -0.387  -9.074  1.00  0.00     0.093 A 
ATOM      8  C   UNL     1      84.663  -0.739  -8.137  1.00  0.00     0.133 A 
ATOM      9  C   UNL     1      85.266   0.272  -7.343  1.00  0.00     0.102 A 
ATOM     10  C   UNL     1      86.360   0.025  -6.373  1.00  0.00     0.174 C 
ATOM     11  O   UNL     1      87.104  -0.987  -6.454  1.00  0.00    -0.294 OA
ENDROOT
BRANCH   2  12
ATOM     12  C   UNL     1      86.673   3.512  -4.863  1.00  0.00    -0.007 A 
ATOM     13  C   UNL     1      86.332   3.214  -3.533  1.00  0.00     0.011 A 
ATOM     14  C   UNL     1      87.052   4.825  -5.196  1.00  0.00     0.011 A 
ATOM     15  C   UNL     1      86.395   4.205  -2.548  1.00  0.00     0.046 A 
ATOM     16  C   UNL     1      87.114   5.814  -4.209  1.00  0.00     0.046 A 
ATOM     17  C   UNL     1      86.788   5.508  -2.884  1.00  0.00     0.115 A 
BRANCH  17  18
ATOM     18  O   UNL     1      86.855   6.503  -1.911  1.00  0.00    -0.508 OA
ATOM     19  H   UNL     1      87.280   7.403  -2.103  1.00  0.00     0.293 HD
ENDBRANCH  17  18
ENDBRANCH   2  12
BRANCH   8  20
ATOM     20  O   UNL     1      84.972  -2.095  -8.011  1.00  0.00    -0.507 OA
ATOM     21  H   UNL     1      84.568  -2.704  -7.314  1.00  0.00     0.293 HD
ENDBRANCH   8  20
BRANCH   6  22
ATOM     22  O   UNL     1      82.260   1.252 -10.124  1.00  0.00    -0.508 OA
ATOM     23  H   UNL     1      82.191   2.177 -10.530  1.00  0.00     0.293 HD
ENDBRANCH   6  22
TORSDOF 4
ENDMDL
MODEL 7
REMARK VINA RESULT:    -5.423      6.490      7.739
REMARK INTER + INTRA:          -6.495
REMARK INTER:                  -6.188
REMARK INTRA:                  -0.307
REMARK UNBOUND:                -0.279
REMARK SMILES O=C1C[C@H](c2ccc(O)cc2)Oc2cc(O)cc(O)c21
REMARK SMILES IDX 3 1 4 2 12 3 13 4 14 5 15 6 17 7 18 8 20 9 2 10 1 11 5 12
REMARK SMILES IDX 6 13 11 14 7 15 10 16 8 17 9 18 19 20 16 22
REMARK H PARENT 9 19 19 21 16 23
REMARK Flexibility Score: inf
ROOT
ATOM      1  C   UNL     1      84.534   1.142   7.694  1.00  0.00     0.131 C 
ATOM      2  C   UNL     1      84.727   2.594   7.235  1.00  0.00     0.211 C 
ATOM      3  O   UNL     1      84.896   2.654   5.815  1.00  0.00    -0.484 OA
ATOM      4  C   UNL     1      85.641   1.704   5.102  1.00  0.00     0.138 A 
ATOM      5  C   UNL     1      85.993   1.975   3.778  1.00  0.00     0.093 A 
ATOM      6  C   UNL     1      86.747   1.054   3.046  1.00  0.00     0.123 A 
ATOM      7  C   UNL     1      87.125  -0.156   3.633  1.00  0.00     0.093 A 
ATOM      8  C   UNL     1      86.748  -0.466   4.946  1.00  0.00     0.133 A 
ATOM      9  C   UNL     1      86.023   0.487   5.709  1.00  0.00     0.102 A 
ATOM     10  C   UNL     1      85.634   0.295   7.127  1.00  0.00     0.174 C 
ATOM     11  O   UNL     1      86.237  -0.517   7.877  1.00  0.00    -0.294 OA
ENDROOT
BRANCH   2  12
ATOM     12  C   UNL     1      83.555   3.448   7.652  1.00  0.00    -0.007 A 
ATOM     13  C   UNL     1      82.579   2.932   8.521  1.00  0.00     0.011 A 
ATOM     14  C   UNL     1      83.394   4.744   7.132  1.00  0.00     0.011 A 
ATOM     15  C   UNL     1      81.475   3.711   8.885  1.00  0.00     0.046 A 
ATOM     16  C   UNL     1      82.290   5.520   7.498  1.00  0.00     0.046 A 
ATOM     17  C   UNL     1      81.329   5.008   8.376  1.00  0.00     0.115 A 
BRANCH  17  18
ATOM     18  O   UNL     1      80.234   5.792   8.731  1.00  0.00    -0.508 OA
ATOM     19  H   UNL     1      80.346   6.757   9.020  1.00  0.00     0.293 HD
ENDBRANCH  17  18
ENDBRANCH   2  12
BRANCH   8  20
ATOM     20  O   UNL     1      87.085  -1.733   5.428  1.00  0.00    -0.507 OA
ATOM     21  H   UNL     1      86.433  -2.502   5.498  1.00  0.00     0.293 HD
ENDBRANCH   8  20
BRANCH   6  22
ATOM     22  O   UNL     1      87.120   1.327   1.732  1.00  0.00    -0.508 OA
ATOM     23  H   UNL     1      87.844   2.002   1.515  1.00  0.00     0.293 HD
ENDBRANCH   6  22
TORSDOF 4
ENDMDL
MODEL 8
REMARK VINA RESULT:    -5.392     10.054     12.669
REMARK INTER + INTRA:          -6.460
REMARK INTER:                  -6.171
REMARK INTRA:                  -0.289
REMARK UNBOUND:                -0.279
REMARK SMILES O=C1C[C@H](c2ccc(O)cc2)Oc2cc(O)cc(O)c21
REMARK SMILES IDX 3 1 4 2 12 3 13 4 14 5 15 6 17 7 18 8 20 9 2 10 1 11 5 12
REMARK SMILES IDX 6 13 11 14 7 15 10 16 8 17 9 18 19 20 16 22
REMARK H PARENT 9 19 19 21 16 23
REMARK Flexibility Score: inf
ROOT
ATOM      1  C   UNL     1      72.450   1.000  -1.218  1.00  0.00     0.131 C 
ATOM      2  C   UNL     1      71.188   0.138  -1.361  1.00  0.00     0.211 C 
ATOM      3  O   UNL     1      70.254   0.437  -0.320  1.00  0.00    -0.484 OA
ATOM      4  C   UNL     1      70.649   0.691   1.001  1.00  0.00     0.138 A 
ATOM      5  C   UNL     1      69.681   0.699   2.008  1.00  0.00     0.093 A 
ATOM      6  C   UNL     1      70.047   0.936   3.336  1.00  0.00     0.123 A 
ATOM      7  C   UNL     1      71.383   1.194   3.652  1.00  0.00     0.093 A 
ATOM      8  C   UNL     1      72.364   1.231   2.653  1.00  0.00     0.133 A 
ATOM      9  C   UNL     1      72.004   0.944   1.310  1.00  0.00     0.102 A 
ATOM     10  C   UNL     1      72.969   0.885   0.185  1.00  0.00     0.174 C 
ATOM     11  O   UNL     1      74.198   0.687   0.374  1.00  0.00    -0.294 OA
ENDROOT
BRANCH   2  12
ATOM     12  C   UNL     1      70.545   0.350  -2.709  1.00  0.00    -0.007 A 
ATOM     13  C   UNL     1      70.127   1.633  -3.099  1.00  0.00     0.011 A 
ATOM     14  C   UNL     1      70.304  -0.739  -3.565  1.00  0.00     0.011 A 
ATOM     15  C   UNL     1      69.503   1.828  -4.335  1.00  0.00     0.046 A 
ATOM     16  C   UNL     1      69.679  -0.541  -4.801  1.00  0.00     0.046 A 
ATOM     17  C   UNL     1      69.279   0.741  -5.191  1.00  0.00     0.115 A 
BRANCH  17  18
ATOM     18  O   UNL     1      68.658   0.922  -6.424  1.00  0.00    -0.508 OA
ATOM     19  H   UNL     1      67.927   0.299  -6.746  1.00  0.00     0.293 HD
ENDBRANCH  17  18
ENDBRANCH   2  12
BRANCH   8  20
ATOM     20  O   UNL     1      73.658   1.588   3.037  1.00  0.00    -0.507 OA
ATOM     21  H   UNL     1      74.103   1.269   3.887  1.00  0.00     0.293 HD
ENDBRANCH   8  20
BRANCH   6  22
ATOM     22  O   UNL     1      69.090   0.924   4.349  1.00  0.00    -0.508 OA
ATOM     23  H   UNL     1      68.412   1.670   4.446  1.00  0.00     0.293 HD
ENDBRANCH   6  22
TORSDOF 4
ENDMDL
MODEL 9
REMARK VINA RESULT:    -4.850      5.215      7.363
REMARK INTER + INTRA:          -5.838
REMARK INTER:                  -5.518
REMARK INTRA:                  -0.321
REMARK UNBOUND:                -0.279
REMARK SMILES O=C1C[C@H](c2ccc(O)cc2)Oc2cc(O)cc(O)c21
REMARK SMILES IDX 3 1 4 2 12 3 13 4 14 5 15 6 17 7 18 8 20 9 2 10 1 11 5 12
REMARK SMILES IDX 6 13 11 14 7 15 10 16 8 17 9 18 19 20 16 22
REMARK H PARENT 9 19 19 21 16 23
REMARK Flexibility Score: inf
ROOT
ATOM      1  C   UNL     1      85.991   3.893  -5.497  1.00  0.00     0.131 C 
ATOM      2  C   UNL     1      86.433   2.428  -5.624  1.00  0.00     0.211 C 
ATOM      3  O   UNL     1      86.157   1.714  -4.415  1.00  0.00    -0.484 OA
ATOM      4  C   UNL     1      86.340   2.279  -3.145  1.00  0.00     0.138 A 
ATOM      5  C   UNL     1      86.319   1.445  -2.025  1.00  0.00     0.093 A 
ATOM      6  C   UNL     1      86.512   1.977  -0.747  1.00  0.00     0.123 A 
ATOM      7  C   UNL     1      86.697   3.352  -0.588  1.00  0.00     0.093 A 
ATOM      8  C   UNL     1      86.681   4.211  -1.694  1.00  0.00     0.133 A 
ATOM      9  C   UNL     1      86.533   3.670  -2.998  1.00  0.00     0.102 A 
ATOM     10  C   UNL     1      86.572   4.476  -4.243  1.00  0.00     0.174 C 
ATOM     11  O   UNL     1      87.124   5.606  -4.284  1.00  0.00    -0.294 OA
ENDROOT
BRANCH   2  12
ATOM     12  C   UNL     1      85.742   1.761  -6.787  1.00  0.00    -0.007 A 
ATOM     13  C   UNL     1      85.683   2.401  -8.037  1.00  0.00     0.011 A 
ATOM     14  C   UNL     1      85.101   0.520  -6.623  1.00  0.00     0.011 A 
ATOM     15  C   UNL     1      85.018   1.798  -9.109  1.00  0.00     0.046 A 
ATOM     16  C   UNL     1      84.437  -0.080  -7.696  1.00  0.00     0.046 A 
ATOM     17  C   UNL     1      84.394   0.555  -8.942  1.00  0.00     0.115 A 
BRANCH  17  18
ATOM     18  O   UNL     1      83.728  -0.055 -10.003  1.00  0.00    -0.508 OA
ATOM     19  H   UNL     1      84.158  -0.799 -10.540  1.00  0.00     0.293 HD
ENDBRANCH  17  18
ENDBRANCH   2  12
BRANCH   8  20
ATOM     20  O   UNL     1      86.779   5.582  -1.443  1.00  0.00    -0.507 OA
ATOM     21  H   UNL     1      86.103   6.263  -1.756  1.00  0.00     0.293 HD
ENDBRANCH   8  20
BRANCH   6  22
ATOM     22  O   UNL     1      86.515   1.149   0.374  1.00  0.00    -0.508 OA
ATOM     23  H   UNL     1      87.026   0.274   0.386  1.00  0.00     0.293 HD
ENDBRANCH   6  22
TORSDOF 4
ENDMDL
