MODEL 1
REMARK VINA RESULT:    -5.145      0.000      0.000
REMARK INTER + INTRA:          -5.295
REMARK INTER:                  -5.295
REMARK INTRA:                   0.000
REMARK UNBOUND:                 0.000
REMARK SMILES C=C1[C@H](O)C[C@]23C[C@H]1C(C)(C)[C@H]2CC[C@H]3C
REMARK SMILES IDX 16 1 15 2 14 3 13 4 12 5 6 6 7 7 8 8 9 9 10 10 11 11 2 12
REMARK SMILES IDX 1 13 3 14 5 15 4 16
REMARK H PARENT 4 17
REMARK Flexibility Score: inf
ROOT
ATOM      1  C   UNL     1     137.624 123.948 138.386  1.00  0.00     0.008 C 
ATOM      2  C   UNL     1     136.913 122.907 139.264  1.00  0.00    -0.008 C 
ATOM      3  C   UNL     1     135.653 122.353 138.614  1.00  0.00     0.004 C 
ATOM      4  C   UNL     1     134.857 121.742 139.759  1.00  0.00     0.005 C 
ATOM      5  C   UNL     1     135.242 122.528 141.034  1.00  0.00     0.002 C 
ATOM      6  C   UNL     1     136.455 123.410 140.650  1.00  0.00    -0.020 C 
ATOM      7  C   UNL     1     135.914 124.845 140.663  1.00  0.00     0.016 C 
ATOM      8  C   UNL     1     135.006 124.812 141.877  1.00  0.00     0.023 C 
ATOM      9  C   UNL     1     134.185 123.505 141.665  1.00  0.00    -0.025 C 
ATOM     10  C   UNL     1     132.971 123.817 140.748  1.00  0.00     0.012 C 
ATOM     11  C   UNL     1     133.619 122.933 142.989  1.00  0.00     0.012 C 
ATOM     12  C   UNL     1     135.903 124.750 143.113  1.00  0.00    -0.045 C 
ATOM     13  C   UNL     1     135.532 125.388 144.235  1.00  0.00     0.011 C 
ATOM     14  C   UNL     1     137.133 123.832 143.126  1.00  0.00     0.140 C 
ATOM     15  C   UNL     1     137.578 123.325 141.719  1.00  0.00     0.044 C 
ENDROOT
BRANCH  14  16
ATOM     16  O   UNL     1     138.216 124.455 143.772  1.00  0.00    -0.389 OA
ATOM     17  H   UNL     1     139.031 123.932 143.552  1.00  0.00     0.211 HD
ENDBRANCH  14  16
TORSDOF 1
ENDMDL
MODEL 2
REMARK VINA RESULT:    -5.023      1.767      3.407
REMARK INTER + INTRA:          -5.170
REMARK INTER:                  -5.170
REMARK INTRA:                   0.000
REMARK UNBOUND:                 0.000
REMARK SMILES C=C1[C@H](O)C[C@]23C[C@H]1C(C)(C)[C@H]2CC[C@H]3C
REMARK SMILES IDX 16 1 15 2 14 3 13 4 12 5 6 6 7 7 8 8 9 9 10 10 11 11 2 12
REMARK SMILES IDX 1 13 3 14 5 15 4 16
REMARK H PARENT 4 17
REMARK Flexibility Score: inf
ROOT
ATOM      1  C   UNL     1     134.528 122.322 137.737  1.00  0.00     0.008 C 
ATOM      2  C   UNL     1     135.670 123.303 138.042  1.00  0.00    -0.008 C 
ATOM      3  C   UNL     1     137.006 122.845 137.471  1.00  0.00     0.004 C 
ATOM      4  C   UNL     1     138.053 123.635 138.243  1.00  0.00     0.005 C 
ATOM      5  C   UNL     1     137.443 123.944 139.629  1.00  0.00     0.002 C 
ATOM      6  C   UNL     1     135.947 123.554 139.540  1.00  0.00    -0.020 C 
ATOM      7  C   UNL     1     135.812 122.314 140.432  1.00  0.00     0.016 C 
ATOM      8  C   UNL     1     136.714 122.681 141.594  1.00  0.00     0.023 C 
ATOM      9  C   UNL     1     138.006 123.189 140.887  1.00  0.00    -0.025 C 
ATOM     10  C   UNL     1     138.909 121.969 140.553  1.00  0.00     0.012 C 
ATOM     11  C   UNL     1     138.841 124.141 141.779  1.00  0.00     0.012 C 
ATOM     12  C   UNL     1     136.007 123.780 142.388  1.00  0.00    -0.045 C 
ATOM     13  C   UNL     1     136.131 123.816 143.725  1.00  0.00     0.011 C 
ATOM     14  C   UNL     1     135.301 124.927 141.654  1.00  0.00     0.140 C 
ATOM     15  C   UNL     1     135.037 124.661 140.139  1.00  0.00     0.044 C 
ENDROOT
BRANCH  14  16
ATOM     16  O   UNL     1     134.095 125.264 142.295  1.00  0.00    -0.389 OA
ATOM     17  H   UNL     1     133.535 124.444 142.320  1.00  0.00     0.211 HD
ENDBRANCH  14  16
TORSDOF 1
ENDMDL
MODEL 3
REMARK VINA RESULT:    -4.857      1.640      4.122
REMARK INTER + INTRA:          -4.999
REMARK INTER:                  -4.999
REMARK INTRA:                   0.000
REMARK UNBOUND:                 0.000
REMARK SMILES C=C1[C@H](O)C[C@]23C[C@H]1C(C)(C)[C@H]2CC[C@H]3C
REMARK SMILES IDX 16 1 15 2 14 3 13 4 12 5 6 6 7 7 8 8 9 9 10 10 11 11 2 12
REMARK SMILES IDX 1 13 3 14 5 15 4 16
REMARK H PARENT 4 17
REMARK Flexibility Score: inf
ROOT
ATOM      1  C   UNL     1     135.631 124.730 143.681  1.00  0.00     0.008 C 
ATOM      2  C   UNL     1     134.718 124.372 142.499  1.00  0.00    -0.008 C 
ATOM      3  C   UNL     1     133.869 123.137 142.765  1.00  0.00     0.004 C 
ATOM      4  C   UNL     1     133.419 122.666 141.390  1.00  0.00     0.005 C 
ATOM      5  C   UNL     1     134.508 123.117 140.389  1.00  0.00     0.002 C 
ATOM      6  C   UNL     1     135.443 124.073 141.168  1.00  0.00    -0.020 C 
ATOM      7  C   UNL     1     136.759 123.300 141.316  1.00  0.00     0.016 C 
ATOM      8  C   UNL     1     136.867 122.630 139.960  1.00  0.00     0.023 C 
ATOM      9  C   UNL     1     135.445 122.028 139.753  1.00  0.00    -0.025 C 
ATOM     10  C   UNL     1     135.382 120.640 140.448  1.00  0.00     0.012 C 
ATOM     11  C   UNL     1     135.103 121.802 138.259  1.00  0.00     0.012 C 
ATOM     12  C   UNL     1     137.199 123.721 138.941  1.00  0.00    -0.045 C 
ATOM     13  C   UNL     1     138.008 123.438 137.908  1.00  0.00     0.011 C 
ATOM     14  C   UNL     1     136.482 125.076 139.003  1.00  0.00     0.140 C 
ATOM     15  C   UNL     1     135.747 125.358 140.351  1.00  0.00     0.044 C 
ENDROOT
BRANCH  14  16
ATOM     16  O   UNL     1     137.373 126.126 138.718  1.00  0.00    -0.389 OA
ATOM     17  H   UNL     1     138.292 125.780 138.859  1.00  0.00     0.211 HD
ENDBRANCH  14  16
TORSDOF 1
ENDMDL
MODEL 4
REMARK VINA RESULT:    -4.137      2.219      4.862
REMARK INTER + INTRA:          -4.258
REMARK INTER:                  -4.258
REMARK INTRA:                   0.000
REMARK UNBOUND:                 0.000
REMARK SMILES C=C1[C@H](O)C[C@]23C[C@H]1C(C)(C)[C@H]2CC[C@H]3C
REMARK SMILES IDX 16 1 15 2 14 3 13 4 12 5 6 6 7 7 8 8 9 9 10 10 11 11 2 12
REMARK SMILES IDX 1 13 3 14 5 15 4 16
REMARK H PARENT 4 17
REMARK Flexibility Score: inf
ROOT
ATOM      1  C   UNL     1     134.147 125.162 142.070  1.00  0.00     0.008 C 
ATOM      2  C   UNL     1     135.089 123.954 142.183  1.00  0.00    -0.008 C 
ATOM      3  C   UNL     1     136.228 124.188 143.166  1.00  0.00     0.004 C 
ATOM      4  C   UNL     1     137.277 123.145 142.805  1.00  0.00     0.005 C 
ATOM      5  C   UNL     1     137.103 122.846 141.298  1.00  0.00     0.002 C 
ATOM      6  C   UNL     1     135.780 123.527 140.871  1.00  0.00    -0.020 C 
ATOM      7  C   UNL     1     136.213 124.689 139.969  1.00  0.00     0.016 C 
ATOM      8  C   UNL     1     137.347 124.055 139.186  1.00  0.00     0.023 C 
ATOM      9  C   UNL     1     138.195 123.365 140.295  1.00  0.00    -0.025 C 
ATOM     10  C   UNL     1     139.177 124.408 140.898  1.00  0.00     0.012 C 
ATOM     11  C   UNL     1     139.053 122.197 139.751  1.00  0.00     0.012 C 
ATOM     12  C   UNL     1     136.722 123.054 138.214  1.00  0.00    -0.045 C 
ATOM     13  C   UNL     1     137.266 122.880 136.999  1.00  0.00     0.011 C 
ATOM     14  C   UNL     1     135.586 122.133 138.682  1.00  0.00     0.140 C 
ATOM     15  C   UNL     1     134.903 122.574 140.014  1.00  0.00     0.044 C 
ENDROOT
BRANCH  14  16
ATOM     16  O   UNL     1     134.615 121.987 137.676  1.00  0.00    -0.389 OA
ATOM     17  H   UNL     1     133.929 122.690 137.823  1.00  0.00     0.211 HD
ENDBRANCH  14  16
TORSDOF 1
ENDMDL
MODEL 5
REMARK VINA RESULT:    -3.247      1.751      4.051
REMARK INTER + INTRA:          -3.342
REMARK INTER:                  -3.342
REMARK INTRA:                   0.000
REMARK UNBOUND:                 0.000
REMARK SMILES C=C1[C@H](O)C[C@]23C[C@H]1C(C)(C)[C@H]2CC[C@H]3C
REMARK SMILES IDX 16 1 15 2 14 3 13 4 12 5 6 6 7 7 8 8 9 9 10 10 11 11 2 12
REMARK SMILES IDX 1 13 3 14 5 15 4 16
REMARK H PARENT 4 17
REMARK Flexibility Score: inf
ROOT
ATOM      1  C   UNL     1     133.885 121.497 141.915  1.00  0.00     0.008 C 
ATOM      2  C   UNL     1     134.423 122.935 141.868  1.00  0.00    -0.008 C 
ATOM      3  C   UNL     1     133.362 123.945 141.452  1.00  0.00     0.004 C 
ATOM      4  C   UNL     1     134.145 125.173 141.005  1.00  0.00     0.005 C 
ATOM      5  C   UNL     1     135.511 124.664 140.491  1.00  0.00     0.002 C 
ATOM      6  C   UNL     1     135.598 123.172 140.896  1.00  0.00    -0.020 C 
ATOM      7  C   UNL     1     135.499 122.402 139.573  1.00  0.00     0.016 C 
ATOM      8  C   UNL     1     136.336 123.272 138.656  1.00  0.00     0.023 C 
ATOM      9  C   UNL     1     135.799 124.706 138.947  1.00  0.00    -0.025 C 
ATOM     10  C   UNL     1     134.545 124.960 138.066  1.00  0.00     0.012 C 
ATOM     11  C   UNL     1     136.828 125.811 138.602  1.00  0.00     0.012 C 
ATOM     12  C   UNL     1     137.797 123.095 139.072  1.00  0.00    -0.045 C 
ATOM     13  C   UNL     1     138.760 123.111 138.136  1.00  0.00     0.011 C 
ATOM     14  C   UNL     1     138.176 123.068 140.559  1.00  0.00     0.140 C 
ATOM     15  C   UNL     1     136.976 122.836 141.529  1.00  0.00     0.044 C 
ENDROOT
BRANCH  14  16
ATOM     16  O   UNL     1     139.176 122.110 140.802  1.00  0.00    -0.389 OA
ATOM     17  H   UNL     1     138.818 121.474 141.476  1.00  0.00     0.211 HD
ENDBRANCH  14  16
TORSDOF 1
ENDMDL
MODEL 6
REMARK VINA RESULT:    -2.747      2.069      4.408
REMARK INTER + INTRA:          -2.827
REMARK INTER:                  -2.827
REMARK INTRA:                   0.000
REMARK UNBOUND:                 0.000
REMARK SMILES C=C1[C@H](O)C[C@]23C[C@H]1C(C)(C)[C@H]2CC[C@H]3C
REMARK SMILES IDX 16 1 15 2 14 3 13 4 12 5 6 6 7 7 8 8 9 9 10 10 11 11 2 12
REMARK SMILES IDX 1 13 3 14 5 15 4 16
REMARK H PARENT 4 17
REMARK Flexibility Score: inf
ROOT
ATOM      1  C   UNL     1     137.038 124.498 143.706  1.00  0.00     0.008 C 
ATOM      2  C   UNL     1     137.570 123.530 142.638  1.00  0.00    -0.008 C 
ATOM      3  C   UNL     1     138.930 123.945 142.095  1.00  0.00     0.004 C 
ATOM      4  C   UNL     1     139.071 123.197 140.777  1.00  0.00     0.005 C 
ATOM      5  C   UNL     1     137.639 122.975 140.239  1.00  0.00     0.002 C 
ATOM      6  C   UNL     1     136.678 123.367 141.388  1.00  0.00    -0.020 C 
ATOM      7  C   UNL     1     136.004 124.659 140.910  1.00  0.00     0.016 C 
ATOM      8  C   UNL     1     135.784 124.357 139.440  1.00  0.00     0.023 C 
ATOM      9  C   UNL     1     137.167 123.800 138.987  1.00  0.00    -0.025 C 
ATOM     10  C   UNL     1     138.092 124.992 138.617  1.00  0.00     0.012 C 
ATOM     11  C   UNL     1     137.065 122.898 137.732  1.00  0.00     0.012 C 
ATOM     12  C   UNL     1     134.671 123.312 139.354  1.00  0.00    -0.045 C 
ATOM     13  C   UNL     1     133.799 123.355 138.334  1.00  0.00     0.011 C 
ATOM     14  C   UNL     1     134.650 122.127 140.329  1.00  0.00     0.140 C 
ATOM     15  C   UNL     1     135.563 122.304 141.582  1.00  0.00     0.044 C 
ENDROOT
BRANCH  14  16
ATOM     16  O   UNL     1     133.336 121.837 140.735  1.00  0.00    -0.389 OA
ATOM     17  H   UNL     1     132.892 122.702 140.940  1.00  0.00     0.211 HD
ENDBRANCH  14  16
TORSDOF 1
ENDMDL
MODEL 7
REMARK VINA RESULT:    -2.369      1.991      4.659
REMARK INTER + INTRA:          -2.438
REMARK INTER:                  -2.438
REMARK INTRA:                   0.000
REMARK UNBOUND:                 0.000
REMARK SMILES C=C1[C@H](O)C[C@]23C[C@H]1C(C)(C)[C@H]2CC[C@H]3C
REMARK SMILES IDX 16 1 15 2 14 3 13 4 12 5 6 6 7 7 8 8 9 9 10 10 11 11 2 12
REMARK SMILES IDX 1 13 3 14 5 15 4 16
REMARK H PARENT 4 17
REMARK Flexibility Score: inf
ROOT
ATOM      1  C   UNL     1     134.641 126.611 143.612  1.00  0.00     0.008 C 
ATOM      2  C   UNL     1     135.304 125.270 143.963  1.00  0.00    -0.008 C 
ATOM      3  C   UNL     1     136.759 125.427 144.385  1.00  0.00     0.004 C 
ATOM      4  C   UNL     1     137.364 124.040 144.227  1.00  0.00     0.005 C 
ATOM      5  C   UNL     1     136.563 123.331 143.112  1.00  0.00     0.002 C 
ATOM      6  C   UNL     1     135.334 124.227 142.825  1.00  0.00    -0.020 C 
ATOM      7  C   UNL     1     135.592 124.810 141.430  1.00  0.00     0.016 C 
ATOM      8  C   UNL     1     136.187 123.614 140.711  1.00  0.00     0.023 C 
ATOM      9  C   UNL     1     137.253 123.094 141.720  1.00  0.00    -0.025 C 
ATOM     10  C   UNL     1     138.571 123.891 141.513  1.00  0.00     0.012 C 
ATOM     11  C   UNL     1     137.592 121.597 141.514  1.00  0.00     0.012 C 
ATOM     12  C   UNL     1     135.054 122.612 140.483  1.00  0.00    -0.045 C 
ATOM     13  C   UNL     1     135.037 121.875 139.362  1.00  0.00     0.011 C 
ATOM     14  C   UNL     1     134.039 122.331 141.599  1.00  0.00     0.140 C 
ATOM     15  C   UNL     1     134.028 123.390 142.746  1.00  0.00     0.044 C 
ENDROOT
BRANCH  14  16
ATOM     16  O   UNL     1     132.743 122.188 141.072  1.00  0.00    -0.389 OA
ATOM     17  H   UNL     1     132.408 123.098 140.860  1.00  0.00     0.211 HD
ENDBRANCH  14  16
TORSDOF 1
ENDMDL
