MODEL 1
REMARK VINA RESULT:    -3.774      0.000      0.000
REMARK INTER + INTRA:          -7.665
REMARK INTER:                  -6.421
REMARK INTRA:                  -1.244
REMARK UNBOUND:                -1.244
REMARK SMILES CCCCCCCCCCCCCC(=O)[O-]
REMARK SMILES IDX 8 1 9 2 10 3 11 4 12 5 13 6 14 7 15 8 16 9 7 10 6 11 5 12
REMARK SMILES IDX 4 13 3 14 2 15 1 16
REMARK H PARENT
REMARK Flexibility Score: inf
ROOT
ATOM      1  C   UNL     1      -4.671   7.770  -1.883  1.00  0.00     0.000 C 
ENDROOT
BRANCH   1   2
ATOM      2  C   UNL     1      -4.825   8.438  -3.258  1.00  0.00     0.000 C 
BRANCH   2   3
ATOM      3  C   UNL     1      -4.019   7.683  -4.326  1.00  0.00     0.000 C 
BRANCH   3   4
ATOM      4  C   UNL     1      -2.800   8.475  -4.822  1.00  0.00     0.000 C 
BRANCH   4   5
ATOM      5  C   UNL     1      -1.519   7.624  -4.868  1.00  0.00     0.006 C 
BRANCH   5   6
ATOM      6  C   UNL     1      -1.824   6.125  -4.979  1.00  0.00     0.053 C 
BRANCH   6   7
ATOM      7  C   UNL     1      -1.419   5.573  -6.313  1.00  0.00     0.041 C 
ATOM      8  O   UNL     1      -0.875   6.319  -7.169  1.00  0.00    -0.550 OA
ATOM      9  O   UNL     1      -1.667   4.241  -6.619  1.00  0.00    -0.550 OA
ENDBRANCH   6   7
ENDBRANCH   5   6
ENDBRANCH   4   5
ENDBRANCH   3   4
ENDBRANCH   2   3
ENDBRANCH   1   2
BRANCH   1  10
ATOM     10  C   UNL     1      -4.073   8.712  -0.827  1.00  0.00     0.000 C 
BRANCH  10  11
ATOM     11  C   UNL     1      -2.616   9.098  -1.135  1.00  0.00    -0.000 C 
BRANCH  11  12
ATOM     12  C   UNL     1      -1.604   8.134  -0.494  1.00  0.00    -0.000 C 
BRANCH  12  13
ATOM     13  C   UNL     1      -1.324   8.470   0.982  1.00  0.00    -0.000 C 
BRANCH  13  14
ATOM     14  C   UNL     1      -1.247   9.985   1.246  1.00  0.00    -0.000 C 
BRANCH  14  15
ATOM     15  C   UNL     1      -2.012  10.466   2.492  1.00  0.00    -0.003 C 
ATOM     16  C   UNL     1      -3.526  10.489   2.292  1.00  0.00     0.004 C 
ENDBRANCH  14  15
ENDBRANCH  13  14
ENDBRANCH  12  13
ENDBRANCH  11  12
ENDBRANCH  10  11
ENDBRANCH   1  10
TORSDOF 12
ENDMDL
MODEL 2
REMARK VINA RESULT:    -3.671      3.909      7.295
REMARK INTER + INTRA:          -7.490
REMARK INTER:                  -6.667
REMARK INTRA:                  -0.823
REMARK UNBOUND:                -1.244
REMARK SMILES CCCCCCCCCCCCCC(=O)[O-]
REMARK SMILES IDX 8 1 9 2 10 3 11 4 12 5 13 6 14 7 15 8 16 9 7 10 6 11 5 12
REMARK SMILES IDX 4 13 3 14 2 15 1 16
REMARK H PARENT
REMARK Flexibility Score: inf
ROOT
ATOM      1  C   UNL     1      -4.156   7.423  -4.378  1.00  0.00     0.000 C 
ENDROOT
BRANCH   1   2
ATOM      2  C   UNL     1      -4.646   7.729  -2.953  1.00  0.00     0.000 C 
BRANCH   2   3
ATOM      3  C   UNL     1      -4.914   9.232  -2.779  1.00  0.00     0.000 C 
BRANCH   3   4
ATOM      4  C   UNL     1      -4.177   9.831  -1.571  1.00  0.00     0.000 C 
BRANCH   4   5
ATOM      5  C   UNL     1      -3.937   8.801  -0.453  1.00  0.00     0.006 C 
BRANCH   5   6
ATOM      6  C   UNL     1      -2.627   9.061   0.302  1.00  0.00     0.053 C 
BRANCH   6   7
ATOM      7  C   UNL     1      -2.854   9.854   1.553  1.00  0.00     0.041 C 
ATOM      8  O   UNL     1      -4.016  10.227   1.865  1.00  0.00    -0.550 OA
ATOM      9  O   UNL     1      -1.779  10.205   2.359  1.00  0.00    -0.550 OA
ENDBRANCH   6   7
ENDBRANCH   5   6
ENDBRANCH   4   5
ENDBRANCH   3   4
ENDBRANCH   2   3
ENDBRANCH   1   2
BRANCH   1  10
ATOM     10  C   UNL     1      -3.037   8.369  -4.839  1.00  0.00     0.000 C 
BRANCH  10  11
ATOM     11  C   UNL     1      -1.658   7.684  -4.868  1.00  0.00    -0.000 C 
BRANCH  11  12
ATOM     12  C   UNL     1      -1.764   6.152  -4.927  1.00  0.00    -0.000 C 
BRANCH  12  13
ATOM     13  C   UNL     1      -1.558   5.601  -6.350  1.00  0.00    -0.000 C 
BRANCH  13  14
ATOM     14  C   UNL     1      -1.448   4.065  -6.387  1.00  0.00    -0.000 C 
BRANCH  14  15
ATOM     15  C   UNL     1      -1.242   3.396  -5.017  1.00  0.00    -0.003 C 
ATOM     16  C   UNL     1      -0.971   1.896  -5.117  1.00  0.00     0.004 C 
ENDBRANCH  14  15
ENDBRANCH  13  14
ENDBRANCH  12  13
ENDBRANCH  11  12
ENDBRANCH  10  11
ENDBRANCH   1  10
TORSDOF 12
ENDMDL
MODEL 3
REMARK VINA RESULT:    -3.671      3.738      7.210
REMARK INTER + INTRA:          -7.490
REMARK INTER:                  -6.405
REMARK INTRA:                  -1.085
REMARK UNBOUND:                -1.244
REMARK SMILES CCCCCCCCCCCCCC(=O)[O-]
REMARK SMILES IDX 8 1 9 2 10 3 11 4 12 5 13 6 14 7 15 8 16 9 7 10 6 11 5 12
REMARK SMILES IDX 4 13 3 14 2 15 1 16
REMARK H PARENT
REMARK Flexibility Score: inf
ROOT
ATOM      1  C   UNL     1      -3.746   8.056  -2.976  1.00  0.00     0.000 C 
ENDROOT
BRANCH   1   2
ATOM      2  C   UNL     1      -2.764   9.236  -3.060  1.00  0.00     0.000 C 
BRANCH   2   3
ATOM      3  C   UNL     1      -1.567   9.017  -2.123  1.00  0.00     0.000 C 
BRANCH   3   4
ATOM      4  C   UNL     1      -1.782   7.851  -1.145  1.00  0.00     0.000 C 
BRANCH   4   5
ATOM      5  C   UNL     1      -1.692   8.288   0.328  1.00  0.00     0.006 C 
BRANCH   5   6
ATOM      6  C   UNL     1      -2.111   9.751   0.524  1.00  0.00     0.053 C 
BRANCH   6   7
ATOM      7  C   UNL     1      -3.551   9.867   0.925  1.00  0.00     0.041 C 
ATOM      8  O   UNL     1      -4.463   9.610   0.097  1.00  0.00    -0.550 OA
ATOM      9  O   UNL     1      -3.884  10.285   2.207  1.00  0.00    -0.550 OA
ENDBRANCH   6   7
ENDBRANCH   5   6
ENDBRANCH   4   5
ENDBRANCH   3   4
ENDBRANCH   2   3
ENDBRANCH   1   2
BRANCH   1  10
ATOM     10  C   UNL     1      -4.005   7.399  -4.341  1.00  0.00     0.000 C 
BRANCH  10  11
ATOM     11  C   UNL     1      -2.763   7.415  -5.250  1.00  0.00    -0.000 C 
BRANCH  11  12
ATOM     12  C   UNL     1      -1.904   6.149  -5.094  1.00  0.00    -0.000 C 
BRANCH  12  13
ATOM     13  C   UNL     1      -1.288   5.687  -6.426  1.00  0.00    -0.000 C 
BRANCH  13  14
ATOM     14  C   UNL     1      -1.303   4.156  -6.593  1.00  0.00    -0.000 C 
BRANCH  14  15
ATOM     15  C   UNL     1      -2.003   3.387  -5.460  1.00  0.00    -0.003 C 
ATOM     16  C   UNL     1      -1.139   2.275  -4.867  1.00  0.00     0.004 C 
ENDBRANCH  14  15
ENDBRANCH  13  14
ENDBRANCH  12  13
ENDBRANCH  11  12
ENDBRANCH  10  11
ENDBRANCH   1  10
TORSDOF 12
ENDMDL
MODEL 4
REMARK VINA RESULT:    -3.527      1.491      2.597
REMARK INTER + INTRA:          -7.246
REMARK INTER:                  -5.969
REMARK INTRA:                  -1.276
REMARK UNBOUND:                -1.244
REMARK SMILES CCCCCCCCCCCCCC(=O)[O-]
REMARK SMILES IDX 8 1 9 2 10 3 11 4 12 5 13 6 14 7 15 8 16 9 7 10 6 11 5 12
REMARK SMILES IDX 4 13 3 14 2 15 1 16
REMARK H PARENT
REMARK Flexibility Score: inf
ROOT
ATOM      1  C   UNL     1      -4.287   7.742  -3.180  1.00  0.00     0.000 C 
ENDROOT
BRANCH   1   2
ATOM      2  C   UNL     1      -3.297   8.300  -4.215  1.00  0.00     0.000 C 
BRANCH   2   3
ATOM      3  C   UNL     1      -1.997   7.481  -4.225  1.00  0.00     0.000 C 
BRANCH   3   4
ATOM      4  C   UNL     1      -1.386   7.352  -5.629  1.00  0.00     0.000 C 
BRANCH   4   5
ATOM      5  C   UNL     1      -1.417   5.907  -6.158  1.00  0.00     0.006 C 
BRANCH   5   6
ATOM      6  C   UNL     1      -0.915   4.899  -5.116  1.00  0.00     0.053 C 
BRANCH   6   7
ATOM      7  C   UNL     1      -1.367   3.505  -5.430  1.00  0.00     0.041 C 
ATOM      8  O   UNL     1      -2.041   3.275  -6.468  1.00  0.00    -0.550 OA
ATOM      9  O   UNL     1      -1.066   2.464  -4.560  1.00  0.00    -0.550 OA
ENDBRANCH   6   7
ENDBRANCH   5   6
ENDBRANCH   4   5
ENDBRANCH   3   4
ENDBRANCH   2   3
ENDBRANCH   1   2
BRANCH   1  10
ATOM     10  C   UNL     1      -5.040   8.846  -2.422  1.00  0.00     0.000 C 
BRANCH  10  11
ATOM     11  C   UNL     1      -4.313  10.202  -2.474  1.00  0.00    -0.000 C 
BRANCH  11  12
ATOM     12  C   UNL     1      -3.911  10.707  -1.079  1.00  0.00    -0.000 C 
BRANCH  12  13
ATOM     13  C   UNL     1      -4.159   9.661   0.021  1.00  0.00    -0.000 C 
BRANCH  13  14
ATOM     14  C   UNL     1      -2.885   9.312   0.814  1.00  0.00    -0.000 C 
BRANCH  14  15
ATOM     15  C   UNL     1      -1.617   9.137  -0.041  1.00  0.00    -0.003 C 
ATOM     16  C   UNL     1      -1.410   7.701  -0.519  1.00  0.00     0.004 C 
ENDBRANCH  14  15
ENDBRANCH  13  14
ENDBRANCH  12  13
ENDBRANCH  11  12
ENDBRANCH  10  11
ENDBRANCH   1  10
TORSDOF 12
ENDMDL
MODEL 5
REMARK VINA RESULT:    -3.439      1.532      2.328
REMARK INTER + INTRA:          -7.095
REMARK INTER:                  -6.340
REMARK INTRA:                  -0.755
REMARK UNBOUND:                -1.244
REMARK SMILES CCCCCCCCCCCCCC(=O)[O-]
REMARK SMILES IDX 8 1 9 2 10 3 11 4 12 5 13 6 14 7 15 8 16 9 7 10 6 11 5 12
REMARK SMILES IDX 4 13 3 14 2 15 1 16
REMARK H PARENT
REMARK Flexibility Score: inf
ROOT
ATOM      1  C   UNL     1      -4.856   7.847  -3.749  1.00  0.00     0.000 C 
ENDROOT
BRANCH   1   2
ATOM      2  C   UNL     1      -3.501   8.049  -4.446  1.00  0.00     0.000 C 
BRANCH   2   3
ATOM      3  C   UNL     1      -2.928   6.707  -4.925  1.00  0.00     0.000 C 
BRANCH   3   4
ATOM      4  C   UNL     1      -1.400   6.628  -4.780  1.00  0.00     0.000 C 
BRANCH   4   5
ATOM      5  C   UNL     1      -0.876   5.182  -4.805  1.00  0.00     0.006 C 
BRANCH   5   6
ATOM      6  C   UNL     1      -1.375   4.407  -6.032  1.00  0.00     0.053 C 
BRANCH   6   7
ATOM      7  C   UNL     1      -1.514   2.943  -5.746  1.00  0.00     0.041 C 
ATOM      8  O   UNL     1      -1.955   2.553  -4.632  1.00  0.00    -0.550 OA
ATOM      9  O   UNL     1      -1.131   2.008  -6.699  1.00  0.00    -0.550 OA
ENDBRANCH   6   7
ENDBRANCH   5   6
ENDBRANCH   4   5
ENDBRANCH   3   4
ENDBRANCH   2   3
ENDBRANCH   1   2
BRANCH   1  10
ATOM     10  C   UNL     1      -5.043   8.767  -2.532  1.00  0.00     0.000 C 
BRANCH  10  11
ATOM     11  C   UNL     1      -4.562   8.119  -1.221  1.00  0.00    -0.000 C 
BRANCH  11  12
ATOM     12  C   UNL     1      -3.413   8.901  -0.565  1.00  0.00    -0.000 C 
BRANCH  12  13
ATOM     13  C   UNL     1      -2.034   8.290  -0.871  1.00  0.00    -0.000 C 
BRANCH  13  14
ATOM     14  C   UNL     1      -0.939   8.765   0.102  1.00  0.00    -0.000 C 
BRANCH  14  15
ATOM     15  C   UNL     1      -1.409   8.978   1.552  1.00  0.00    -0.003 C 
ATOM     16  C   UNL     1      -1.490  10.452   1.945  1.00  0.00     0.004 C 
ENDBRANCH  14  15
ENDBRANCH  13  14
ENDBRANCH  12  13
ENDBRANCH  11  12
ENDBRANCH  10  11
ENDBRANCH   1  10
TORSDOF 12
ENDMDL
MODEL 6
REMARK VINA RESULT:    -3.316      1.823      2.405
REMARK INTER + INTRA:          -6.887
REMARK INTER:                  -5.637
REMARK INTRA:                  -1.249
REMARK UNBOUND:                -1.244
REMARK SMILES CCCCCCCCCCCCCC(=O)[O-]
REMARK SMILES IDX 8 1 9 2 10 3 11 4 12 5 13 6 14 7 15 8 16 9 7 10 6 11 5 12
REMARK SMILES IDX 4 13 3 14 2 15 1 16
REMARK H PARENT
REMARK Flexibility Score: inf
ROOT
ATOM      1  C   UNL     1      -4.434   8.462  -1.219  1.00  0.00     0.000 C 
ENDROOT
BRANCH   1   2
ATOM      2  C   UNL     1      -4.728   8.846  -2.677  1.00  0.00     0.000 C 
BRANCH   2   3
ATOM      3  C   UNL     1      -4.715   7.605  -3.583  1.00  0.00     0.000 C 
BRANCH   3   4
ATOM      4  C   UNL     1      -3.636   7.678  -4.675  1.00  0.00     0.000 C 
BRANCH   4   5
ATOM      5  C   UNL     1      -2.220   7.432  -4.127  1.00  0.00     0.006 C 
BRANCH   5   6
ATOM      6  C   UNL     1      -1.355   8.699  -4.167  1.00  0.00     0.053 C 
BRANCH   6   7
ATOM      7  C   UNL     1      -1.701   9.570  -5.336  1.00  0.00     0.041 C 
ATOM      8  O   UNL     1      -1.285   9.280  -6.488  1.00  0.00    -0.550 OA
ATOM      9  O   UNL     1      -2.459  10.718  -5.147  1.00  0.00    -0.550 OA
ENDBRANCH   6   7
ENDBRANCH   5   6
ENDBRANCH   4   5
ENDBRANCH   3   4
ENDBRANCH   2   3
ENDBRANCH   1   2
BRANCH   1  10
ATOM     10  C   UNL     1      -3.077   8.989  -0.727  1.00  0.00     0.000 C 
BRANCH  10  11
ATOM     11  C   UNL     1      -2.054   7.862  -0.497  1.00  0.00    -0.000 C 
BRANCH  11  12
ATOM     12  C   UNL     1      -0.940   8.270   0.481  1.00  0.00    -0.000 C 
BRANCH  12  13
ATOM     13  C   UNL     1      -1.008   9.758   0.865  1.00  0.00    -0.000 C 
BRANCH  13  14
ATOM     14  C   UNL     1      -1.601   9.988   2.268  1.00  0.00    -0.000 C 
BRANCH  14  15
ATOM     15  C   UNL     1      -2.661  11.100   2.350  1.00  0.00    -0.003 C 
ATOM     16  C   UNL     1      -4.075  10.564   2.570  1.00  0.00     0.004 C 
ENDBRANCH  14  15
ENDBRANCH  13  14
ENDBRANCH  12  13
ENDBRANCH  11  12
ENDBRANCH  10  11
ENDBRANCH   1  10
TORSDOF 12
ENDMDL
MODEL 7
REMARK VINA RESULT:    -3.248      1.443      1.862
REMARK INTER + INTRA:          -6.770
REMARK INTER:                  -5.629
REMARK INTRA:                  -1.141
REMARK UNBOUND:                -1.244
REMARK SMILES CCCCCCCCCCCCCC(=O)[O-]
REMARK SMILES IDX 8 1 9 2 10 3 11 4 12 5 13 6 14 7 15 8 16 9 7 10 6 11 5 12
REMARK SMILES IDX 4 13 3 14 2 15 1 16
REMARK H PARENT
REMARK Flexibility Score: inf
ROOT
ATOM      1  C   UNL     1      -3.327   8.582  -1.532  1.00  0.00     0.000 C 
ENDROOT
BRANCH   1   2
ATOM      2  C   UNL     1      -3.414   9.722  -2.559  1.00  0.00     0.000 C 
BRANCH   2   3
ATOM      3  C   UNL     1      -2.138   9.787  -3.413  1.00  0.00     0.000 C 
BRANCH   3   4
ATOM      4  C   UNL     1      -2.434   9.844  -4.919  1.00  0.00     0.000 C 
BRANCH   4   5
ATOM      5  C   UNL     1      -1.524   8.911  -5.738  1.00  0.00     0.006 C 
BRANCH   5   6
ATOM      6  C   UNL     1      -1.250   7.587  -5.012  1.00  0.00     0.053 C 
BRANCH   6   7
ATOM      7  C   UNL     1      -2.314   6.570  -5.292  1.00  0.00     0.041 C 
ATOM      8  O   UNL     1      -3.475   6.722  -4.829  1.00  0.00    -0.550 OA
ATOM      9  O   UNL     1      -2.016   5.439  -6.042  1.00  0.00    -0.550 OA
ENDBRANCH   6   7
ENDBRANCH   5   6
ENDBRANCH   4   5
ENDBRANCH   3   4
ENDBRANCH   2   3
ENDBRANCH   1   2
BRANCH   1  10
ATOM     10  C   UNL     1      -2.031   7.766  -1.657  1.00  0.00     0.000 C 
BRANCH  10  11
ATOM     11  C   UNL     1      -1.253   7.686  -0.331  1.00  0.00    -0.000 C 
BRANCH  11  12
ATOM     12  C   UNL     1      -0.904   9.074   0.231  1.00  0.00    -0.000 C 
BRANCH  12  13
ATOM     13  C   UNL     1      -1.058   9.147   1.760  1.00  0.00    -0.000 C 
BRANCH  13  14
ATOM     14  C   UNL     1      -1.354  10.571   2.265  1.00  0.00    -0.000 C 
BRANCH  14  15
ATOM     15  C   UNL     1      -2.796  10.801   2.749  1.00  0.00    -0.003 C 
ATOM     16  C   UNL     1      -3.847  10.327   1.746  1.00  0.00     0.004 C 
ENDBRANCH  14  15
ENDBRANCH  13  14
ENDBRANCH  12  13
ENDBRANCH  11  12
ENDBRANCH  10  11
ENDBRANCH   1  10
TORSDOF 12
ENDMDL
MODEL 8
REMARK VINA RESULT:    -2.720      3.933      6.318
REMARK INTER + INTRA:          -5.872
REMARK INTER:                  -4.286
REMARK INTRA:                  -1.586
REMARK UNBOUND:                -1.244
REMARK SMILES CCCCCCCCCCCCCC(=O)[O-]
REMARK SMILES IDX 8 1 9 2 10 3 11 4 12 5 13 6 14 7 15 8 16 9 7 10 6 11 5 12
REMARK SMILES IDX 4 13 3 14 2 15 1 16
REMARK H PARENT
REMARK Flexibility Score: inf
ROOT
ATOM      1  C   UNL     1      -4.646   7.449  -3.577  1.00  0.00     0.000 C 
ENDROOT
BRANCH   1   2
ATOM      2  C   UNL     1      -4.967   8.750  -2.823  1.00  0.00     0.000 C 
BRANCH   2   3
ATOM      3  C   UNL     1      -4.783   8.564  -1.309  1.00  0.00     0.000 C 
BRANCH   3   4
ATOM      4  C   UNL     1      -3.361   8.117  -0.934  1.00  0.00     0.000 C 
BRANCH   4   5
ATOM      5  C   UNL     1      -2.416   9.303  -0.676  1.00  0.00     0.006 C 
BRANCH   5   6
ATOM      6  C   UNL     1      -3.116  10.452   0.062  1.00  0.00     0.053 C 
BRANCH   6   7
ATOM      7  C   UNL     1      -3.117  10.241   1.545  1.00  0.00     0.041 C 
ATOM      8  O   UNL     1      -4.189  10.335   2.199  1.00  0.00    -0.550 OA
ATOM      9  O   UNL     1      -1.928   9.969   2.210  1.00  0.00    -0.550 OA
ENDBRANCH   6   7
ENDBRANCH   5   6
ENDBRANCH   4   5
ENDBRANCH   3   4
ENDBRANCH   2   3
ENDBRANCH   1   2
BRANCH   1  10
ATOM     10  C   UNL     1      -3.759   7.679  -4.810  1.00  0.00     0.000 C 
BRANCH  10  11
ATOM     11  C   UNL     1      -2.659   6.612  -4.954  1.00  0.00    -0.000 C 
BRANCH  11  12
ATOM     12  C   UNL     1      -1.269   7.144  -4.570  1.00  0.00    -0.000 C 
BRANCH  12  13
ATOM     13  C   UNL     1      -1.293   8.635  -4.188  1.00  0.00    -0.000 C 
BRANCH  13  14
ATOM     14  C   UNL     1      -0.965   9.562  -5.373  1.00  0.00    -0.000 C 
BRANCH  14  15
ATOM     15  C   UNL     1      -1.656  10.936  -5.332  1.00  0.00    -0.003 C 
ATOM     16  C   UNL     1      -2.542  11.125  -4.102  1.00  0.00     0.004 C 
ENDBRANCH  14  15
ENDBRANCH  13  14
ENDBRANCH  12  13
ENDBRANCH  11  12
ENDBRANCH  10  11
ENDBRANCH   1  10
TORSDOF 12
ENDMDL
MODEL 9
REMARK VINA RESULT:    -2.270      2.351      3.162
REMARK INTER + INTRA:          -5.107
REMARK INTER:                  -4.176
REMARK INTRA:                  -0.932
REMARK UNBOUND:                -1.244
REMARK SMILES CCCCCCCCCCCCCC(=O)[O-]
REMARK SMILES IDX 8 1 9 2 10 3 11 4 12 5 13 6 14 7 15 8 16 9 7 10 6 11 5 12
REMARK SMILES IDX 4 13 3 14 2 15 1 16
REMARK H PARENT
REMARK Flexibility Score: inf
ROOT
ATOM      1  C   UNL     1      -4.626   7.292  -3.588  1.00  0.00     0.000 C 
ENDROOT
BRANCH   1   2
ATOM      2  C   UNL     1      -3.140   6.965  -3.805  1.00  0.00     0.000 C 
BRANCH   2   3
ATOM      3  C   UNL     1      -2.800   6.938  -5.303  1.00  0.00     0.000 C 
BRANCH   3   4
ATOM      4  C   UNL     1      -1.312   7.203  -5.580  1.00  0.00     0.000 C 
BRANCH   4   5
ATOM      5  C   UNL     1      -1.058   8.603  -6.166  1.00  0.00     0.006 C 
BRANCH   5   6
ATOM      6  C   UNL     1      -0.875   9.664  -5.072  1.00  0.00     0.053 C 
BRANCH   6   7
ATOM      7  C   UNL     1      -2.034  10.612  -5.019  1.00  0.00     0.041 C 
ATOM      8  O   UNL     1      -2.613  10.968  -6.079  1.00  0.00    -0.550 OA
ATOM      9  O   UNL     1      -2.458  11.125  -3.799  1.00  0.00    -0.550 OA
ENDBRANCH   6   7
ENDBRANCH   5   6
ENDBRANCH   4   5
ENDBRANCH   3   4
ENDBRANCH   2   3
ENDBRANCH   1   2
BRANCH   1  10
ATOM     10  C   UNL     1      -4.845   8.671  -2.945  1.00  0.00     0.000 C 
BRANCH  10  11
ATOM     11  C   UNL     1      -4.517   8.680  -1.441  1.00  0.00    -0.000 C 
BRANCH  11  12
ATOM     12  C   UNL     1      -3.179   9.373  -1.135  1.00  0.00    -0.000 C 
BRANCH  12  13
ATOM     13  C   UNL     1      -2.284   8.540  -0.200  1.00  0.00    -0.000 C 
BRANCH  13  14
ATOM     14  C   UNL     1      -1.926   9.279   1.102  1.00  0.00    -0.000 C 
BRANCH  14  15
ATOM     15  C   UNL     1      -2.770  10.533   1.389  1.00  0.00    -0.003 C 
ATOM     16  C   UNL     1      -3.603  10.417   2.664  1.00  0.00     0.004 C 
ENDBRANCH  14  15
ENDBRANCH  13  14
ENDBRANCH  12  13
ENDBRANCH  11  12
ENDBRANCH  10  11
ENDBRANCH   1  10
TORSDOF 12
ENDMDL
