MODEL 1
REMARK VINA RESULT:    11.272      0.000      0.000
REMARK INTER + INTRA:          13.447
REMARK INTER:                  12.590
REMARK INTRA:                   0.856
REMARK UNBOUND:                 0.856
REMARK SMILES O=C([O-])c1ccccc1C(=O)[O-]
REMARK SMILES IDX 4 1 9 2 5 3 8 4 6 5 7 6 2 7 1 8 3 9 10 10 11 11 12 12
REMARK H PARENT
REMARK Flexibility Score: inf
ROOT
ATOM      1  C   UNL     1     -36.936  17.175  17.690  1.00  0.00     0.006 A 
ATOM      2  C   UNL     1     -35.819  16.377  17.320  1.00  0.00     0.006 A 
ATOM      3  C   UNL     1     -36.749  18.550  17.921  1.00  0.00     0.010 A 
ATOM      4  C   UNL     1     -34.545  16.971  17.255  1.00  0.00     0.010 A 
ATOM      5  C   UNL     1     -35.480  19.124  17.829  1.00  0.00     0.001 A 
ATOM      6  C   UNL     1     -34.379  18.333  17.509  1.00  0.00     0.001 A 
ENDROOT
BRANCH   1   7
ATOM      7  C   UNL     1     -38.284  16.604  17.919  1.00  0.00     0.072 C 
ATOM      8  O   UNL     1     -39.259  16.978  17.213  1.00  0.00    -0.545 OA
ATOM      9  O   UNL     1     -38.505  15.701  18.952  1.00  0.00    -0.545 OA
ENDBRANCH   1   7
BRANCH   2  10
ATOM     10  C   UNL     1     -35.948  14.955  16.924  1.00  0.00     0.072 C 
ATOM     11  O   UNL     1     -37.080  14.404  16.903  1.00  0.00    -0.545 OA
ATOM     12  O   UNL     1     -34.822  14.196  16.633  1.00  0.00    -0.545 OA
ENDBRANCH   2  10
TORSDOF 2
ENDMDL
MODEL 2
REMARK VINA RESULT:    11.292      0.051      2.989
REMARK INTER + INTRA:          13.469
REMARK INTER:                  12.651
REMARK INTRA:                   0.818
REMARK UNBOUND:                 0.856
REMARK SMILES O=C([O-])c1ccccc1C(=O)[O-]
REMARK SMILES IDX 4 1 9 2 5 3 8 4 6 5 7 6 2 7 1 8 3 9 10 10 11 11 12 12
REMARK H PARENT
REMARK Flexibility Score: inf
ROOT
ATOM      1  C   UNL     1     -35.822  16.370  17.355  1.00  0.00     0.006 A 
ATOM      2  C   UNL     1     -36.941  17.168  17.719  1.00  0.00     0.006 A 
ATOM      3  C   UNL     1     -34.551  16.969  17.273  1.00  0.00     0.010 A 
ATOM      4  C   UNL     1     -36.759  18.548  17.927  1.00  0.00     0.010 A 
ATOM      5  C   UNL     1     -34.390  18.336  17.505  1.00  0.00     0.001 A 
ATOM      6  C   UNL     1     -35.493  19.125  17.818  1.00  0.00     0.001 A 
ENDROOT
BRANCH   1   7
ATOM      7  C   UNL     1     -35.948  14.942  16.984  1.00  0.00     0.072 C 
ATOM      8  O   UNL     1     -37.080  14.387  16.973  1.00  0.00    -0.545 OA
ATOM      9  O   UNL     1     -34.820  14.179  16.706  1.00  0.00    -0.545 OA
ENDBRANCH   1   7
BRANCH   2  10
ATOM     10  C   UNL     1     -38.285  16.596  17.966  1.00  0.00     0.072 C 
ATOM     11  O   UNL     1     -39.259  16.931  17.242  1.00  0.00    -0.545 OA
ATOM     12  O   UNL     1     -38.503  15.733  19.034  1.00  0.00    -0.545 OA
ENDBRANCH   2  10
TORSDOF 2
ENDMDL
MODEL 3
REMARK VINA RESULT:    12.795      2.357      4.008
REMARK INTER + INTRA:          15.147
REMARK INTER:                  15.349
REMARK INTRA:                  -0.202
REMARK UNBOUND:                 0.856
REMARK SMILES O=C([O-])c1ccccc1C(=O)[O-]
REMARK SMILES IDX 4 1 9 2 5 3 8 4 6 5 7 6 2 7 1 8 3 9 10 10 11 11 12 12
REMARK H PARENT
REMARK Flexibility Score: inf
ROOT
ATOM      1  C   UNL     1     -35.979  16.079  17.369  1.00  0.00     0.006 A 
ATOM      2  C   UNL     1     -36.087  17.444  17.753  1.00  0.00     0.006 A 
ATOM      3  C   UNL     1     -37.145  15.295  17.295  1.00  0.00     0.010 A 
ATOM      4  C   UNL     1     -37.348  17.957  18.109  1.00  0.00     0.010 A 
ATOM      5  C   UNL     1     -38.389  15.830  17.631  1.00  0.00     0.001 A 
ATOM      6  C   UNL     1     -38.488  17.155  18.049  1.00  0.00     0.001 A 
ENDROOT
BRANCH   1   7
ATOM      7  C   UNL     1     -34.676  15.423  17.115  1.00  0.00     0.072 C 
ATOM      8  O   UNL     1     -34.185  15.417  15.954  1.00  0.00    -0.545 OA
ATOM      9  O   UNL     1     -34.011  14.749  18.132  1.00  0.00    -0.545 OA
ENDBRANCH   1   7
BRANCH   2  10
ATOM     10  C   UNL     1     -34.936  18.376  17.723  1.00  0.00     0.072 C 
ATOM     11  O   UNL     1     -34.753  19.125  16.727  1.00  0.00    -0.545 OA
ATOM     12  O   UNL     1     -34.010  18.393  18.759  1.00  0.00    -0.545 OA
ENDBRANCH   2  10
TORSDOF 2
ENDMDL
MODEL 4
REMARK VINA RESULT:    13.336      2.365      3.281
REMARK INTER + INTRA:          15.751
REMARK INTER:                  15.949
REMARK INTRA:                  -0.198
REMARK UNBOUND:                 0.856
REMARK SMILES O=C([O-])c1ccccc1C(=O)[O-]
REMARK SMILES IDX 4 1 9 2 5 3 8 4 6 5 7 6 2 7 1 8 3 9 10 10 11 11 12 12
REMARK H PARENT
REMARK Flexibility Score: inf
ROOT
ATOM      1  C   UNL     1     -36.077  17.430  17.761  1.00  0.00     0.006 A 
ATOM      2  C   UNL     1     -35.963  16.069  17.366  1.00  0.00     0.006 A 
ATOM      3  C   UNL     1     -37.340  17.934  18.123  1.00  0.00     0.010 A 
ATOM      4  C   UNL     1     -37.126  15.279  17.287  1.00  0.00     0.010 A 
ATOM      5  C   UNL     1     -38.477  17.128  18.059  1.00  0.00     0.001 A 
ATOM      6  C   UNL     1     -38.371  15.807  17.630  1.00  0.00     0.001 A 
ENDROOT
BRANCH   1   7
ATOM      7  C   UNL     1     -34.929  18.366  17.736  1.00  0.00     0.072 C 
ATOM      8  O   UNL     1     -34.752  19.125  16.746  1.00  0.00    -0.545 OA
ATOM      9  O   UNL     1     -33.999  18.375  18.769  1.00  0.00    -0.545 OA
ENDBRANCH   1   7
BRANCH   2  10
ATOM     10  C   UNL     1     -34.658  15.419  17.104  1.00  0.00     0.072 C 
ATOM     11  O   UNL     1     -34.157  15.444  15.948  1.00  0.00    -0.545 OA
ATOM     12  O   UNL     1     -34.000  14.720  18.109  1.00  0.00    -0.545 OA
ENDBRANCH   2  10
TORSDOF 2
ENDMDL
