MODEL 1
REMARK VINA RESULT:    -4.077      0.000      0.000
REMARK INTER + INTRA:          -6.071
REMARK INTER:                  -6.222
REMARK INTRA:                   0.151
REMARK UNBOUND:                 0.151
REMARK SMILES CC1=CCC[C@@H](C)C(=O)C[C@H](C(C)C)C(=O)C1
REMARK SMILES IDX 8 1 9 2 6 3 7 4 5 5 4 6 3 7 2 8 1 9 10 11 11 12 15 13 16 14
REMARK SMILES IDX 17 15 12 17 13 18 14 19
REMARK H PARENT
REMARK Flexibility Score: 70.00
ROOT
ATOM      1  C   UNL     1       7.435  -2.710  49.375  1.00  0.00     0.136 C 
ATOM      2  O   UNL     1       7.462  -2.003  50.374  1.00  0.00    -0.299 OA
ENDROOT
BRANCH   1   3
ATOM      3  C   UNL     1       8.010  -2.180  48.075  1.00  0.00     0.053 C 
ATOM      4  C   UNL     1       9.541  -2.248  48.140  1.00  0.00     0.016 C 
BRANCH   3   5
ATOM      5  C   UNL     1       7.531  -0.726  47.811  1.00  0.00     0.015 C 
BRANCH   5   6
ATOM      6  C   UNL     1       6.150  -0.559  47.126  1.00  0.00     0.028 C 
BRANCH   6   7
ATOM      7  C   UNL     1       5.910  -1.343  45.855  1.00  0.00    -0.028 C 
ATOM      8  C   UNL     1       5.091  -2.410  45.735  1.00  0.00    -0.070 CG0
ATOM      9  C   UNL     1       4.772  -2.897  44.343  1.00  0.00     0.039 C 
ATOM     10  G   UNL     1       4.394  -3.043  46.924  1.00  0.00     0.000 G0
ENDBRANCH   6   7
ENDBRANCH   5   6
ENDBRANCH   3   5
ENDBRANCH   1   3
BRANCH   1  11
ATOM     11  C   UNL     1       6.921  -4.124  49.484  1.00  0.00     0.087 C 
BRANCH  11  12
ATOM     12  C   UNL     1       5.428  -4.284  49.064  1.00  0.00     0.066 C 
BRANCH  12  13
ATOM     13  C   UNL     1       5.174  -4.146  47.554  1.00  0.00     0.140 C 
ATOM     14  O   UNL     1       5.564  -5.036  46.811  1.00  0.00    -0.299 OA
BRANCH  13  15
ATOM     15  C   UNL     1       4.374  -3.024  46.926  1.00  0.00     0.106 CG0
ATOM     16  G   UNL     1       5.073  -2.411  45.728  1.00  0.00     0.000 G0
ENDBRANCH  13  15
ENDBRANCH  12  13
BRANCH  12  17
ATOM     17  C   UNL     1       4.799  -5.606  49.623  1.00  0.00    -0.006 C 
ATOM     18  C   UNL     1       5.491  -6.112  50.899  1.00  0.00     0.008 C 
ATOM     19  C   UNL     1       3.281  -5.493  49.848  1.00  0.00     0.008 C 
ENDBRANCH  12  17
ENDBRANCH  11  12
ENDBRANCH   1  11
TORSDOF 1
ENDMDL
MODEL 2
REMARK VINA RESULT:    -3.749      9.469     11.310
REMARK INTER + INTRA:          -5.570
REMARK INTER:                  -5.224
REMARK INTRA:                  -0.346
REMARK UNBOUND:                 0.151
REMARK SMILES CC1=CCC[C@@H](C)C(=O)C[C@H](C(C)C)C(=O)C1
REMARK SMILES IDX 8 1 9 2 6 3 7 4 5 5 4 6 3 7 2 8 1 9 10 11 11 12 15 13 16 14
REMARK SMILES IDX 17 15 12 17 13 18 14 19
REMARK H PARENT
REMARK Flexibility Score: 70.00
ROOT
ATOM      1  C   UNL     1      10.714   3.022  55.136  1.00  0.00     0.136 C 
ATOM      2  O   UNL     1      10.265   2.391  56.084  1.00  0.00    -0.299 OA
ENDROOT
BRANCH   1   3
ATOM      3  C   UNL     1      12.030   3.760  55.292  1.00  0.00     0.053 C 
ATOM      4  C   UNL     1      13.051   2.828  55.959  1.00  0.00     0.016 C 
BRANCH   3   5
ATOM      5  C   UNL     1      11.840   5.058  56.125  1.00  0.00     0.015 C 
BRANCH   5   6
ATOM      6  C   UNL     1      11.804   6.393  55.337  1.00  0.00     0.028 C 
BRANCH   6   7
ATOM      7  C   UNL     1      12.435   6.401  53.962  1.00  0.00    -0.028 C 
ATOM      8  C   UNL     1      11.765   6.513  52.794  1.00  0.00    -0.070 CG0
ATOM      9  C   UNL     1      12.573   6.770  51.545  1.00  0.00     0.039 C 
ATOM     10  G   UNL     1      10.251   6.516  52.717  1.00  0.00     0.000 G0
ENDBRANCH   6   7
ENDBRANCH   5   6
ENDBRANCH   3   5
ENDBRANCH   1   3
BRANCH   1  11
ATOM     11  C   UNL     1       9.998   2.971  53.809  1.00  0.00     0.087 C 
BRANCH  11  12
ATOM     12  C   UNL     1       9.110   4.221  53.525  1.00  0.00     0.066 C 
BRANCH  12  13
ATOM     13  C   UNL     1       9.656   5.154  52.433  1.00  0.00     0.140 C 
ATOM     14  O   UNL     1       9.548   4.814  51.264  1.00  0.00    -0.299 OA
BRANCH  13  15
ATOM     15  C   UNL     1      10.232   6.529  52.701  1.00  0.00     0.106 CG0
ATOM     16  G   UNL     1      11.745   6.517  52.802  1.00  0.00     0.000 G0
ENDBRANCH  13  15
ENDBRANCH  12  13
BRANCH  12  17
ATOM     17  C   UNL     1       7.620   3.829  53.239  1.00  0.00    -0.006 C 
ATOM     18  C   UNL     1       7.131   2.648  54.093  1.00  0.00     0.008 C 
ATOM     19  C   UNL     1       6.656   5.020  53.373  1.00  0.00     0.008 C 
ENDBRANCH  12  17
ENDBRANCH  11  12
ENDBRANCH   1  11
TORSDOF 1
ENDMDL
MODEL 3
REMARK VINA RESULT:    -3.703      1.616      3.641
REMARK INTER + INTRA:          -5.501
REMARK INTER:                  -6.668
REMARK INTRA:                   1.167
REMARK UNBOUND:                 0.151
REMARK SMILES CC1=CCC[C@@H](C)C(=O)C[C@H](C(C)C)C(=O)C1
REMARK SMILES IDX 8 1 9 2 6 3 7 4 5 5 4 6 3 7 2 8 1 9 10 11 11 12 15 13 16 14
REMARK SMILES IDX 17 15 12 17 13 18 14 19
REMARK H PARENT
REMARK Flexibility Score: 70.00
ROOT
ATOM      1  C   UNL     1       5.782  -2.708  50.260  1.00  0.00     0.136 C 
ATOM      2  O   UNL     1       5.131  -1.714  50.558  1.00  0.00    -0.299 OA
ENDROOT
BRANCH   1   3
ATOM      3  C   UNL     1       5.089  -4.055  50.189  1.00  0.00     0.053 C 
ATOM      4  C   UNL     1       6.119  -5.162  50.450  1.00  0.00     0.016 C 
BRANCH   3   5
ATOM      5  C   UNL     1       4.403  -4.252  48.809  1.00  0.00     0.015 C 
BRANCH   5   6
ATOM      6  C   UNL     1       5.338  -4.405  47.582  1.00  0.00     0.028 C 
BRANCH   6   7
ATOM      7  C   UNL     1       4.918  -3.715  46.303  1.00  0.00    -0.028 C 
ATOM      8  C   UNL     1       5.074  -2.400  46.035  1.00  0.00    -0.070 CG0
ATOM      9  C   UNL     1       4.842  -1.942  44.615  1.00  0.00     0.039 C 
ATOM     10  G   UNL     1       5.587  -1.412  47.063  1.00  0.00     0.000 G0
ENDBRANCH   6   7
ENDBRANCH   5   6
ENDBRANCH   3   5
ENDBRANCH   1   3
BRANCH   1  11
ATOM     11  C   UNL     1       7.233  -2.553  49.875  1.00  0.00     0.087 C 
BRANCH  11  12
ATOM     12  C   UNL     1       7.507  -2.775  48.357  1.00  0.00     0.066 C 
BRANCH  12  13
ATOM     13  C   UNL     1       7.033  -1.629  47.449  1.00  0.00     0.140 C 
ATOM     14  O   UNL     1       7.872  -0.904  46.933  1.00  0.00    -0.299 OA
BRANCH  13  15
ATOM     15  C   UNL     1       5.587  -1.395  47.062  1.00  0.00     0.106 CG0
ATOM     16  G   UNL     1       5.090  -2.396  46.038  1.00  0.00     0.000 G0
ENDBRANCH  13  15
ENDBRANCH  12  13
BRANCH  12  17
ATOM     17  C   UNL     1       9.008  -3.131  48.078  1.00  0.00    -0.006 C 
ATOM     18  C   UNL     1       9.987  -2.387  49.001  1.00  0.00     0.008 C 
ATOM     19  C   UNL     1       9.278  -4.645  48.122  1.00  0.00     0.008 C 
ENDBRANCH  12  17
ENDBRANCH  11  12
ENDBRANCH   1  11
TORSDOF 1
ENDMDL
MODEL 4
REMARK VINA RESULT:    -3.621      9.091     10.739
REMARK INTER + INTRA:          -5.375
REMARK INTER:                  -5.249
REMARK INTRA:                  -0.125
REMARK UNBOUND:                 0.151
REMARK SMILES CC1=CCC[C@@H](C)C(=O)C[C@H](C(C)C)C(=O)C1
REMARK SMILES IDX 8 1 9 2 6 3 7 4 5 5 4 6 3 7 2 8 1 9 10 11 11 12 15 13 16 14
REMARK SMILES IDX 17 15 12 17 13 18 14 19
REMARK H PARENT
REMARK Flexibility Score: 70.00
ROOT
ATOM      1  C   UNL     1       9.480   5.696  50.938  1.00  0.00     0.136 C 
ATOM      2  O   UNL     1       8.914   5.167  49.990  1.00  0.00    -0.299 OA
ENDROOT
BRANCH   1   3
ATOM      3  C   UNL     1      10.800   6.408  50.712  1.00  0.00     0.053 C 
ATOM      4  C   UNL     1      10.585   7.559  49.720  1.00  0.00     0.016 C 
BRANCH   3   5
ATOM      5  C   UNL     1      11.878   5.420  50.187  1.00  0.00     0.015 C 
BRANCH   5   6
ATOM      6  C   UNL     1      12.057   4.098  50.978  1.00  0.00     0.028 C 
BRANCH   6   7
ATOM      7  C   UNL     1      12.785   4.178  52.302  1.00  0.00    -0.028 C 
ATOM      8  C   UNL     1      12.358   3.638  53.464  1.00  0.00    -0.070 CG0
ATOM      9  C   UNL     1      13.334   3.588  54.614  1.00  0.00     0.039 C 
ATOM     10  G   UNL     1      11.001   2.978  53.608  1.00  0.00     0.000 G0
ENDBRANCH   6   7
ENDBRANCH   5   6
ENDBRANCH   3   5
ENDBRANCH   1   3
BRANCH   1  11
ATOM     11  C   UNL     1       8.804   5.710  52.287  1.00  0.00     0.087 C 
BRANCH  11  12
ATOM     12  C   UNL     1       8.725   4.308  52.965  1.00  0.00     0.066 C 
BRANCH  12  13
ATOM     13  C   UNL     1       9.892   3.994  53.914  1.00  0.00     0.140 C 
ATOM     14  O   UNL     1       9.913   4.527  55.014  1.00  0.00    -0.299 OA
BRANCH  13  15
ATOM     15  C   UNL     1      10.977   2.979  53.619  1.00  0.00     0.106 CG0
ATOM     16  G   UNL     1      12.348   3.613  53.488  1.00  0.00     0.000 G0
ENDBRANCH  13  15
ENDBRANCH  12  13
BRANCH  12  17
ATOM     17  C   UNL     1       7.345   4.075  53.671  1.00  0.00    -0.006 C 
ATOM     18  C   UNL     1       6.188   4.833  53.002  1.00  0.00     0.008 C 
ATOM     19  C   UNL     1       6.996   2.583  53.814  1.00  0.00     0.008 C 
ENDBRANCH  12  17
ENDBRANCH  11  12
ENDBRANCH   1  11
TORSDOF 1
ENDMDL
MODEL 5
REMARK VINA RESULT:    -3.603      8.855     11.104
REMARK INTER + INTRA:          -5.348
REMARK INTER:                  -5.243
REMARK INTRA:                  -0.104
REMARK UNBOUND:                 0.151
REMARK SMILES CC1=CCC[C@@H](C)C(=O)C[C@H](C(C)C)C(=O)C1
REMARK SMILES IDX 8 1 9 2 6 3 7 4 5 5 4 6 3 7 2 8 1 9 10 11 11 12 15 13 16 14
REMARK SMILES IDX 17 15 12 17 13 18 14 19
REMARK H PARENT
REMARK Flexibility Score: 70.00
ROOT
ATOM      1  C   UNL     1      10.644   5.273  52.567  1.00  0.00     0.136 C 
ATOM      2  O   UNL     1      10.999   6.411  52.288  1.00  0.00    -0.299 OA
ENDROOT
BRANCH   1   3
ATOM      3  C   UNL     1       9.358   4.729  51.974  1.00  0.00     0.053 C 
ATOM      4  C   UNL     1       9.275   5.138  50.497  1.00  0.00     0.016 C 
BRANCH   3   5
ATOM      5  C   UNL     1       8.124   5.250  52.762  1.00  0.00     0.015 C 
BRANCH   5   6
ATOM      6  C   UNL     1       7.553   4.316  53.860  1.00  0.00     0.028 C 
BRANCH   6   7
ATOM      7  C   UNL     1       7.785   2.831  53.694  1.00  0.00    -0.028 C 
ATOM      8  C   UNL     1       8.490   2.048  54.540  1.00  0.00    -0.070 CG0
ATOM      9  C   UNL     1       8.392   0.553  54.359  1.00  0.00     0.039 C 
ATOM     10  G   UNL     1       9.258   2.607  55.722  1.00  0.00     0.000 G0
ENDBRANCH   6   7
ENDBRANCH   5   6
ENDBRANCH   3   5
ENDBRANCH   1   3
BRANCH   1  11
ATOM     11  C   UNL     1      11.543   4.405  53.413  1.00  0.00     0.087 C 
BRANCH  11  12
ATOM     12  C   UNL     1      11.131   4.352  54.916  1.00  0.00     0.066 C 
BRANCH  12  13
ATOM     13  C   UNL     1      10.693   2.963  55.407  1.00  0.00     0.140 C 
ATOM     14  O   UNL     1      11.552   2.120  55.624  1.00  0.00    -0.299 OA
BRANCH  13  15
ATOM     15  C   UNL     1       9.263   2.593  55.744  1.00  0.00     0.106 CG0
ATOM     16  G   UNL     1       8.510   2.035  54.552  1.00  0.00     0.000 G0
ENDBRANCH  13  15
ENDBRANCH  12  13
BRANCH  12  17
ATOM     17  C   UNL     1      12.235   4.958  55.849  1.00  0.00    -0.006 C 
ATOM     18  C   UNL     1      13.637   4.392  55.572  1.00  0.00     0.008 C 
ATOM     19  C   UNL     1      12.263   6.496  55.816  1.00  0.00     0.008 C 
ENDBRANCH  12  17
ENDBRANCH  11  12
ENDBRANCH   1  11
TORSDOF 1
ENDMDL
MODEL 6
REMARK VINA RESULT:    -3.413      2.117      4.076
REMARK INTER + INTRA:          -5.057
REMARK INTER:                  -5.053
REMARK INTRA:                  -0.004
REMARK UNBOUND:                 0.151
REMARK SMILES CC1=CCC[C@@H](C)C(=O)C[C@H](C(C)C)C(=O)C1
REMARK SMILES IDX 8 1 9 2 6 3 7 4 5 5 4 6 3 7 2 8 1 9 10 11 11 12 15 13 16 14
REMARK SMILES IDX 17 15 12 17 13 18 14 19
REMARK H PARENT
REMARK Flexibility Score: 70.00
ROOT
ATOM      1  C   UNL     1       7.550  -2.246  47.193  1.00  0.00     0.136 C 
ATOM      2  O   UNL     1       8.496  -1.559  47.558  1.00  0.00    -0.299 OA
ENDROOT
BRANCH   1   3
ATOM      3  C   UNL     1       6.455  -1.617  46.354  1.00  0.00     0.053 C 
ATOM      4  C   UNL     1       6.386  -0.116  46.665  1.00  0.00     0.016 C 
BRANCH   3   5
ATOM      5  C   UNL     1       5.087  -2.301  46.628  1.00  0.00     0.015 C 
BRANCH   5   6
ATOM      6  C   UNL     1       4.619  -2.357  48.105  1.00  0.00     0.028 C 
BRANCH   6   7
ATOM      7  C   UNL     1       3.965  -3.638  48.574  1.00  0.00    -0.028 C 
ATOM      8  C   UNL     1       4.376  -4.390  49.618  1.00  0.00    -0.070 CG0
ATOM      9  C   UNL     1       3.452  -5.481  50.103  1.00  0.00     0.039 C 
ATOM     10  G   UNL     1       5.651  -4.097  50.384  1.00  0.00     0.000 G0
ENDBRANCH   6   7
ENDBRANCH   5   6
ENDBRANCH   3   5
ENDBRANCH   1   3
BRANCH   1  11
ATOM     11  C   UNL     1       7.547  -3.723  47.505  1.00  0.00     0.087 C 
BRANCH  11  12
ATOM     12  C   UNL     1       7.956  -4.056  48.972  1.00  0.00     0.066 C 
BRANCH  12  13
ATOM     13  C   UNL     1       6.876  -4.789  49.783  1.00  0.00     0.140 C 
ATOM     14  O   UNL     1       7.034  -5.976  50.032  1.00  0.00    -0.299 OA
BRANCH  13  15
ATOM     15  C   UNL     1       5.664  -4.112  50.390  1.00  0.00     0.106 CG0
ATOM     16  G   UNL     1       4.392  -4.391  49.614  1.00  0.00     0.000 G0
ENDBRANCH  13  15
ENDBRANCH  12  13
BRANCH  12  17
ATOM     17  C   UNL     1       9.325  -4.816  49.041  1.00  0.00    -0.006 C 
ATOM     18  C   UNL     1       9.635  -5.619  47.768  1.00  0.00     0.008 C 
ATOM     19  C   UNL     1      10.503  -3.888  49.387  1.00  0.00     0.008 C 
ENDBRANCH  12  17
ENDBRANCH  11  12
ENDBRANCH   1  11
TORSDOF 1
ENDMDL
MODEL 7
REMARK VINA RESULT:    -3.367      9.231     10.871
REMARK INTER + INTRA:          -4.987
REMARK INTER:                  -4.714
REMARK INTRA:                  -0.273
REMARK UNBOUND:                 0.151
REMARK SMILES CC1=CCC[C@@H](C)C(=O)C[C@H](C(C)C)C(=O)C1
REMARK SMILES IDX 8 1 9 2 6 3 7 4 5 5 4 6 3 7 2 8 1 9 10 11 11 12 15 13 16 14
REMARK SMILES IDX 17 15 12 17 13 18 14 19
REMARK H PARENT
REMARK Flexibility Score: 70.00
ROOT
ATOM      1  C   UNL     1      11.868   4.171  50.958  1.00  0.00     0.136 C 
ATOM      2  O   UNL     1      12.844   4.450  50.273  1.00  0.00    -0.299 OA
ENDROOT
BRANCH   1   3
ATOM      3  C   UNL     1      10.512   4.739  50.585  1.00  0.00     0.053 C 
ATOM      4  C   UNL     1      10.404   4.813  49.056  1.00  0.00     0.016 C 
BRANCH   3   5
ATOM      5  C   UNL     1      10.305   6.140  51.223  1.00  0.00     0.015 C 
BRANCH   5   6
ATOM      6  C   UNL     1       9.124   6.286  52.216  1.00  0.00     0.028 C 
BRANCH   6   7
ATOM      7  C   UNL     1       8.310   5.045  52.510  1.00  0.00    -0.028 C 
ATOM      8  C   UNL     1       8.470   4.241  53.584  1.00  0.00    -0.070 CG0
ATOM      9  C   UNL     1       7.402   3.208  53.851  1.00  0.00     0.039 C 
ATOM     10  G   UNL     1       9.597   4.423  54.582  1.00  0.00     0.000 G0
ENDBRANCH   6   7
ENDBRANCH   5   6
ENDBRANCH   3   5
ENDBRANCH   1   3
BRANCH   1  11
ATOM     11  C   UNL     1      12.021   3.193  52.097  1.00  0.00     0.087 C 
BRANCH  11  12
ATOM     12  C   UNL     1      11.993   3.860  53.506  1.00  0.00     0.066 C 
BRANCH  12  13
ATOM     13  C   UNL     1      10.767   3.496  54.358  1.00  0.00     0.140 C 
ATOM     14  O   UNL     1      10.766   2.431  54.958  1.00  0.00    -0.299 OA
BRANCH  13  15
ATOM     15  C   UNL     1       9.591   4.421  54.593  1.00  0.00     0.106 CG0
ATOM     16  G   UNL     1       8.485   4.226  53.574  1.00  0.00     0.000 G0
ENDBRANCH  13  15
ENDBRANCH  12  13
BRANCH  12  17
ATOM     17  C   UNL     1      13.324   3.614  54.297  1.00  0.00    -0.006 C 
ATOM     18  C   UNL     1      14.583   3.893  53.463  1.00  0.00     0.008 C 
ATOM     19  C   UNL     1      13.378   4.393  55.624  1.00  0.00     0.008 C 
ENDBRANCH  12  17
ENDBRANCH  11  12
ENDBRANCH   1  11
TORSDOF 1
ENDMDL
MODEL 8
REMARK VINA RESULT:    -3.326      9.538     11.698
REMARK INTER + INTRA:          -4.925
REMARK INTER:                  -4.776
REMARK INTRA:                  -0.149
REMARK UNBOUND:                 0.151
REMARK SMILES CC1=CCC[C@@H](C)C(=O)C[C@H](C(C)C)C(=O)C1
REMARK SMILES IDX 8 1 9 2 6 3 7 4 5 5 4 6 3 7 2 8 1 9 10 11 11 12 15 13 16 14
REMARK SMILES IDX 17 15 12 17 13 18 14 19
REMARK H PARENT
REMARK Flexibility Score: 70.00
ROOT
ATOM      1  C   UNL     1       8.594   4.377  53.313  1.00  0.00     0.136 C 
ATOM      2  O   UNL     1       7.904   5.238  53.845  1.00  0.00    -0.299 OA
ENDROOT
BRANCH   1   3
ATOM      3  C   UNL     1       8.659   2.992  53.928  1.00  0.00     0.053 C 
ATOM      4  C   UNL     1       7.235   2.432  54.053  1.00  0.00     0.016 C 
BRANCH   3   5
ATOM      5  C   UNL     1       9.359   3.036  55.315  1.00  0.00     0.015 C 
BRANCH   5   6
ATOM      6  C   UNL     1      10.695   3.817  55.397  1.00  0.00     0.028 C 
BRANCH   6   7
ATOM      7  C   UNL     1      11.904   3.189  54.739  1.00  0.00    -0.028 C 
ATOM      8  C   UNL     1      12.775   3.828  53.928  1.00  0.00    -0.070 CG0
ATOM      9  C   UNL     1      14.061   3.118  53.580  1.00  0.00     0.039 C 
ATOM     10  G   UNL     1      12.565   5.258  53.469  1.00  0.00     0.000 G0
ENDBRANCH   6   7
ENDBRANCH   5   6
ENDBRANCH   3   5
ENDBRANCH   1   3
BRANCH   1  11
ATOM     11  C   UNL     1       9.284   4.686  52.007  1.00  0.00     0.087 C 
BRANCH  11  12
ATOM     12  C   UNL     1      10.331   5.837  52.106  1.00  0.00     0.066 C 
BRANCH  12  13
ATOM     13  C   UNL     1      11.791   5.363  52.177  1.00  0.00     0.140 C 
ATOM     14  O   UNL     1      12.384   5.135  51.132  1.00  0.00    -0.299 OA
BRANCH  13  15
ATOM     15  C   UNL     1      12.590   5.258  53.459  1.00  0.00     0.106 CG0
ATOM     16  G   UNL     1      12.755   3.825  53.926  1.00  0.00     0.000 G0
ENDBRANCH  13  15
ENDBRANCH  12  13
BRANCH  12  17
ATOM     17  C   UNL     1      10.138   6.905  50.976  1.00  0.00    -0.006 C 
ATOM     18  C   UNL     1       9.587   6.310  49.670  1.00  0.00     0.008 C 
ATOM     19  C   UNL     1       9.275   8.097  51.426  1.00  0.00     0.008 C 
ENDBRANCH  12  17
ENDBRANCH  11  12
ENDBRANCH   1  11
TORSDOF 1
ENDMDL
MODEL 9
REMARK VINA RESULT:    -3.208      9.491     11.239
REMARK INTER + INTRA:          -4.745
REMARK INTER:                  -5.272
REMARK INTRA:                   0.527
REMARK UNBOUND:                 0.151
REMARK SMILES CC1=CCC[C@@H](C)C(=O)C[C@H](C(C)C)C(=O)C1
REMARK SMILES IDX 8 1 9 2 6 3 7 4 5 5 4 6 3 7 2 8 1 9 10 11 11 12 15 13 16 14
REMARK SMILES IDX 17 15 12 17 13 18 14 19
REMARK H PARENT
REMARK Flexibility Score: 70.00
ROOT
ATOM      1  C   UNL     1       8.522   5.300  52.183  1.00  0.00     0.136 C 
ATOM      2  O   UNL     1       8.758   6.428  52.595  1.00  0.00    -0.299 OA
ENDROOT
BRANCH   1   3
ATOM      3  C   UNL     1       7.308   4.557  52.707  1.00  0.00     0.053 C 
ATOM      4  C   UNL     1       6.251   5.576  53.153  1.00  0.00     0.016 C 
BRANCH   3   5
ATOM      5  C   UNL     1       7.699   3.617  53.880  1.00  0.00     0.015 C 
BRANCH   5   6
ATOM      6  C   UNL     1       8.942   2.715  53.666  1.00  0.00     0.028 C 
BRANCH   6   7
ATOM      7  C   UNL     1      10.067   2.839  54.671  1.00  0.00    -0.028 C 
ATOM      8  C   UNL     1      11.337   3.198  54.384  1.00  0.00    -0.070 CG0
ATOM      9  C   UNL     1      12.251   3.526  55.539  1.00  0.00     0.039 C 
ATOM     10  G   UNL     1      11.827   3.403  52.964  1.00  0.00     0.000 G0
ENDBRANCH   6   7
ENDBRANCH   5   6
ENDBRANCH   3   5
ENDBRANCH   1   3
BRANCH   1  11
ATOM     11  C   UNL     1       9.387   4.716  51.093  1.00  0.00     0.087 C 
BRANCH  11  12
ATOM     12  C   UNL     1      10.874   5.180  51.155  1.00  0.00     0.066 C 
BRANCH  12  13
ATOM     13  C   UNL     1      11.599   4.820  52.462  1.00  0.00     0.140 C 
ATOM     14  O   UNL     1      11.954   5.725  53.203  1.00  0.00    -0.299 OA
BRANCH  13  15
ATOM     15  C   UNL     1      11.814   3.403  52.952  1.00  0.00     0.106 CG0
ATOM     16  G   UNL     1      11.351   3.205  54.382  1.00  0.00     0.000 G0
ENDBRANCH  13  15
ENDBRANCH  12  13
BRANCH  12  17
ATOM     17  C   UNL     1      11.691   4.700  49.907  1.00  0.00    -0.006 C 
ATOM     18  C   UNL     1      10.892   4.776  48.596  1.00  0.00     0.008 C 
ATOM     19  C   UNL     1      13.035   5.435  49.757  1.00  0.00     0.008 C 
ENDBRANCH  12  17
ENDBRANCH  11  12
ENDBRANCH   1  11
TORSDOF 1
ENDMDL
