MODEL 1
REMARK VINA RESULT:    -4.604      0.000      0.000
REMARK INTER + INTRA:          -4.918
REMARK INTER:                  -5.681
REMARK INTRA:                   0.762
REMARK UNBOUND:                 0.762
REMARK SMILES CC1=CC=CC(C)(C)CC1=O
REMARK SMILES IDX 1 1 2 2 3 3 10 4 11 5 9 6 4 8 5 9 6 10 7 11 8 12
REMARK H PARENT
REMARK Flexibility Score: 80.00
ROOT
ATOM      1  C   UNL     1       0.661  16.730  22.767  1.00  0.00     0.048 C 
ATOM      2  C   UNL     1      -0.548  16.056  22.163  1.00  0.00    -0.008 C 
ATOM      3  C   UNL     1      -1.351  16.801  21.374  1.00  0.00     0.007 C 
ENDROOT
BRANCH   2   4
ATOM      4  C   UNL     1      -0.715  14.604  22.428  1.00  0.00     0.159 C 
ATOM      5  O   UNL     1       0.233  13.971  22.969  1.00  0.00    -0.295 OA
BRANCH   4   6
ATOM      6  C   UNL     1      -1.963  13.843  22.100  1.00  0.00     0.091 CG0
ATOM      7  G   UNL     1      -2.328  13.890  20.600  1.00  0.00     0.000 G0
ENDBRANCH   4   6
ENDBRANCH   2   4
BRANCH   3   8
ATOM      8  C   UNL     1      -2.575  16.418  20.632  1.00  0.00    -0.003 C 
ATOM      9  C   UNL     1      -3.005  15.200  20.282  1.00  0.00    -0.020 C 
BRANCH   9  10
ATOM     10  C   UNL     1      -2.332  13.886  20.599  1.00  0.00    -0.010 CG0
ATOM     11  C   UNL     1      -1.110  13.681  19.672  1.00  0.00     0.016 C 
ATOM     12  C   UNL     1      -3.337  12.745  20.320  1.00  0.00     0.016 C 
ATOM     13  G   UNL     1      -1.957  13.840  22.097  1.00  0.00     0.000 G0
ENDBRANCH   9  10
ENDBRANCH   3   8
TORSDOF 0
ENDMDL
MODEL 2
REMARK VINA RESULT:    -4.600      5.058      6.527
REMARK INTER + INTRA:          -4.914
REMARK INTER:                  -5.679
REMARK INTRA:                   0.766
REMARK UNBOUND:                 0.762
REMARK SMILES CC1=CC=CC(C)(C)CC1=O
REMARK SMILES IDX 1 1 2 2 3 3 10 4 11 5 9 6 4 8 5 9 6 10 7 11 8 12
REMARK H PARENT
REMARK Flexibility Score: 80.00
ROOT
ATOM      1  C   UNL     1      -0.589   8.419  22.884  1.00  0.00     0.048 C 
ATOM      2  C   UNL     1       0.642   9.036  22.265  1.00  0.00    -0.008 C 
ATOM      3  C   UNL     1       1.293   8.322  21.322  1.00  0.00     0.007 C 
ENDROOT
BRANCH   2   4
ATOM      4  C   UNL     1       0.996  10.413  22.693  1.00  0.00     0.159 C 
ATOM      5  O   UNL     1       0.163  11.071  23.376  1.00  0.00    -0.295 OA
BRANCH   4   6
ATOM      6  C   UNL     1       2.302  11.069  22.369  1.00  0.00     0.091 CG0
ATOM      7  G   UNL     1       2.563  11.192  20.851  1.00  0.00     0.000 G0
ENDBRANCH   4   6
ENDBRANCH   2   4
BRANCH   3   8
ATOM      8  C   UNL     1       2.496   8.668  20.529  1.00  0.00    -0.003 C 
ATOM      9  C   UNL     1       3.041   9.870  20.302  1.00  0.00    -0.020 C 
BRANCH   9  10
ATOM     10  C   UNL     1       2.555  11.193  20.845  1.00  0.00    -0.010 CG0
ATOM     11  C   UNL     1       1.301  11.655  20.066  1.00  0.00     0.016 C 
ATOM     12  C   UNL     1       3.666  12.245  20.626  1.00  0.00     0.016 C 
ATOM     13  G   UNL     1       2.300  11.071  22.364  1.00  0.00     0.000 G0
ENDBRANCH   9  10
ENDBRANCH   3   8
TORSDOF 0
ENDMDL
MODEL 3
REMARK VINA RESULT:    -4.463      3.616      4.857
REMARK INTER + INTRA:          -4.745
REMARK INTER:                  -5.501
REMARK INTRA:                   0.756
REMARK UNBOUND:                 0.762
REMARK SMILES CC1=CC=CC(C)(C)CC1=O
REMARK SMILES IDX 1 1 2 2 3 3 10 4 11 5 9 6 4 8 5 9 6 10 7 11 8 12
REMARK H PARENT
REMARK Flexibility Score: 80.00
ROOT
ATOM      1  C   UNL     1       2.250   9.106  22.130  1.00  0.00     0.048 C 
ATOM      2  C   UNL     1       1.980  10.590  22.196  1.00  0.00    -0.008 C 
ATOM      3  C   UNL     1       3.039  11.423  22.115  1.00  0.00     0.007 C 
ENDROOT
BRANCH   2   4
ATOM      4  C   UNL     1       0.560  11.016  22.272  1.00  0.00     0.159 C 
ATOM      5  O   UNL     1      -0.344  10.161  22.057  1.00  0.00    -0.295 OA
BRANCH   4   6
ATOM      6  C   UNL     1       0.132  12.412  22.607  1.00  0.00     0.091 CG0
ATOM      7  G   UNL     1       0.660  13.466  21.609  1.00  0.00     0.000 G0
ENDBRANCH   4   6
ENDBRANCH   2   4
BRANCH   3   8
ATOM      8  C   UNL     1       3.088  12.904  22.124  1.00  0.00    -0.003 C 
ATOM      9  C   UNL     1       2.104  13.782  21.894  1.00  0.00    -0.020 C 
BRANCH   9  10
ATOM     10  C   UNL     1       0.661  13.455  21.589  1.00  0.00    -0.010 CG0
ATOM     11  C   UNL     1       0.524  12.987  20.121  1.00  0.00     0.016 C 
ATOM     12  C   UNL     1      -0.176  14.744  21.759  1.00  0.00     0.016 C 
ATOM     13  G   UNL     1       0.141  12.408  22.598  1.00  0.00     0.000 G0
ENDBRANCH   9  10
ENDBRANCH   3   8
TORSDOF 0
ENDMDL
MODEL 4
REMARK VINA RESULT:    -4.459      2.119      3.033
REMARK INTER + INTRA:          -4.739
REMARK INTER:                  -5.493
REMARK INTRA:                   0.754
REMARK UNBOUND:                 0.762
REMARK SMILES CC1=CC=CC(C)(C)CC1=O
REMARK SMILES IDX 1 1 2 2 3 3 10 4 11 5 9 6 4 8 5 9 6 10 7 11 8 12
REMARK H PARENT
REMARK Flexibility Score: 80.00
ROOT
ATOM      1  C   UNL     1      -2.241  15.989  22.100  1.00  0.00     0.048 C 
ATOM      2  C   UNL     1      -1.942  14.510  22.168  1.00  0.00    -0.008 C 
ATOM      3  C   UNL     1      -2.985  13.657  22.096  1.00  0.00     0.007 C 
ENDROOT
BRANCH   2   4
ATOM      4  C   UNL     1      -0.513  14.113  22.235  1.00  0.00     0.159 C 
ATOM      5  O   UNL     1       0.373  14.987  22.025  1.00  0.00    -0.295 OA
BRANCH   4   6
ATOM      6  C   UNL     1      -0.056  12.722  22.554  1.00  0.00     0.091 CG0
ATOM      7  G   UNL     1      -0.576  11.666  21.555  1.00  0.00     0.000 G0
ENDBRANCH   4   6
ENDBRANCH   2   4
BRANCH   3   8
ATOM      8  C   UNL     1      -3.004  12.174  22.110  1.00  0.00    -0.003 C 
ATOM      9  C   UNL     1      -2.006  11.315  21.870  1.00  0.00    -0.020 C 
BRANCH   9  10
ATOM     10  C   UNL     1      -0.575  11.670  21.546  1.00  0.00    -0.010 CG0
ATOM     11  C   UNL     1      -0.467  12.141  20.076  1.00  0.00     0.016 C 
ATOM     12  C   UNL     1       0.289  10.397  21.702  1.00  0.00     0.016 C 
ATOM     13  G   UNL     1      -0.059  12.726  22.548  1.00  0.00     0.000 G0
ENDBRANCH   9  10
ENDBRANCH   3   8
TORSDOF 0
ENDMDL
MODEL 5
REMARK VINA RESULT:    -4.457      4.277      5.773
REMARK INTER + INTRA:          -4.737
REMARK INTER:                  -5.480
REMARK INTRA:                   0.744
REMARK UNBOUND:                 0.762
REMARK SMILES CC1=CC=CC(C)(C)CC1=O
REMARK SMILES IDX 1 1 2 2 3 3 10 4 11 5 9 6 4 8 5 9 6 10 7 11 8 12
REMARK H PARENT
REMARK Flexibility Score: 80.00
ROOT
ATOM      1  C   UNL     1      -0.642   8.158  23.347  1.00  0.00     0.048 C 
ATOM      2  C   UNL     1       0.205   9.380  23.080  1.00  0.00    -0.008 C 
ATOM      3  C   UNL     1       1.543   9.250  23.197  1.00  0.00     0.007 C 
ENDROOT
BRANCH   2   4
ATOM      4  C   UNL     1      -0.501  10.608  22.638  1.00  0.00     0.159 C 
ATOM      5  O   UNL     1      -1.717  10.526  22.308  1.00  0.00    -0.295 OA
BRANCH   4   6
ATOM      6  C   UNL     1       0.148  11.956  22.573  1.00  0.00     0.091 CG0
ATOM      7  G   UNL     1       1.371  11.999  21.630  1.00  0.00     0.000 G0
ENDBRANCH   4   6
ENDBRANCH   2   4
BRANCH   3   8
ATOM      8  C   UNL     1       2.618  10.246  22.977  1.00  0.00    -0.003 C 
ATOM      9  C   UNL     1       2.572  11.404  22.308  1.00  0.00    -0.020 C 
BRANCH   9  10
ATOM     10  C   UNL     1       1.364  11.997  21.621  1.00  0.00    -0.010 CG0
ATOM     11  C   UNL     1       1.111  11.272  20.278  1.00  0.00     0.016 C 
ATOM     12  C   UNL     1       1.661  13.482  21.312  1.00  0.00     0.016 C 
ATOM     13  G   UNL     1       0.145  11.937  22.568  1.00  0.00     0.000 G0
ENDBRANCH   9  10
ENDBRANCH   3   8
TORSDOF 0
ENDMDL
MODEL 6
REMARK VINA RESULT:    -4.416      4.987      6.070
REMARK INTER + INTRA:          -4.687
REMARK INTER:                  -5.446
REMARK INTRA:                   0.759
REMARK UNBOUND:                 0.762
REMARK SMILES CC1=CC=CC(C)(C)CC1=O
REMARK SMILES IDX 1 1 2 2 3 3 10 4 11 5 9 6 4 8 5 9 6 10 7 11 8 12
REMARK H PARENT
REMARK Flexibility Score: 80.00
ROOT
ATOM      1  C   UNL     1       3.729  12.627  20.243  1.00  0.00     0.048 C 
ATOM      2  C   UNL     1       2.851  11.434  20.535  1.00  0.00    -0.008 C 
ATOM      3  C   UNL     1       3.289  10.222  20.135  1.00  0.00     0.007 C 
ENDROOT
BRANCH   2   4
ATOM      4  C   UNL     1       1.607  11.684  21.306  1.00  0.00     0.159 C 
ATOM      5  O   UNL     1       1.442  12.813  21.846  1.00  0.00    -0.295 OA
BRANCH   4   6
ATOM      6  C   UNL     1       0.519  10.668  21.471  1.00  0.00     0.091 CG0
ATOM      7  G   UNL     1       0.996   9.371  22.162  1.00  0.00     0.000 G0
ENDBRANCH   4   6
ENDBRANCH   2   4
BRANCH   3   8
ATOM      8  C   UNL     1       2.671   8.885  20.300  1.00  0.00    -0.003 C 
ATOM      9  C   UNL     1       1.717   8.495  21.154  1.00  0.00    -0.020 C 
BRANCH   9  10
ATOM     10  C   UNL     1       1.006   9.366  22.163  1.00  0.00    -0.010 CG0
ATOM     11  C   UNL     1       1.929   9.631  23.376  1.00  0.00     0.016 C 
ATOM     12  C   UNL     1      -0.239   8.603  22.672  1.00  0.00     0.016 C 
ATOM     13  G   UNL     1       0.527  10.667  21.484  1.00  0.00     0.000 G0
ENDBRANCH   9  10
ENDBRANCH   3   8
TORSDOF 0
ENDMDL
MODEL 7
REMARK VINA RESULT:    -4.415      1.261      3.436
REMARK INTER + INTRA:          -4.685
REMARK INTER:                  -5.444
REMARK INTRA:                   0.759
REMARK UNBOUND:                 0.762
REMARK SMILES CC1=CC=CC(C)(C)CC1=O
REMARK SMILES IDX 1 1 2 2 3 3 10 4 11 5 9 6 4 8 5 9 6 10 7 11 8 12
REMARK H PARENT
REMARK Flexibility Score: 80.00
ROOT
ATOM      1  C   UNL     1      -3.722  12.718  20.543  1.00  0.00     0.048 C 
ATOM      2  C   UNL     1      -2.732  13.827  20.809  1.00  0.00    -0.008 C 
ATOM      3  C   UNL     1      -3.051  15.066  20.380  1.00  0.00     0.007 C 
ENDROOT
BRANCH   2   4
ATOM      4  C   UNL     1      -1.518  13.477  21.589  1.00  0.00     0.159 C 
ATOM      5  O   UNL     1      -1.457  12.345  22.144  1.00  0.00    -0.295 OA
BRANCH   4   6
ATOM      6  C   UNL     1      -0.344  14.394  21.746  1.00  0.00     0.091 CG0
ATOM      7  G   UNL     1      -0.711  15.749  22.391  1.00  0.00     0.000 G0
ENDBRANCH   4   6
ENDBRANCH   2   4
BRANCH   3   8
ATOM      8  C   UNL     1      -2.307  16.341  20.514  1.00  0.00    -0.003 C 
ATOM      9  C   UNL     1      -1.323  16.658  21.364  1.00  0.00    -0.020 C 
BRANCH   9  10
ATOM     10  C   UNL     1      -0.703  15.750  22.399  1.00  0.00    -0.010 CG0
ATOM     11  C   UNL     1      -1.654  15.604  23.611  1.00  0.00     0.016 C 
ATOM     12  C   UNL     1       0.606  16.403  22.898  1.00  0.00     0.016 C 
ATOM     13  G   UNL     1      -0.348  14.392  21.755  1.00  0.00     0.000 G0
ENDBRANCH   9  10
ENDBRANCH   3   8
TORSDOF 0
ENDMDL
MODEL 8
REMARK VINA RESULT:    -4.325      2.103      3.709
REMARK INTER + INTRA:          -4.574
REMARK INTER:                  -5.346
REMARK INTRA:                   0.773
REMARK UNBOUND:                 0.762
REMARK SMILES CC1=CC=CC(C)(C)CC1=O
REMARK SMILES IDX 1 1 2 2 3 3 10 4 11 5 9 6 4 8 5 9 6 10 7 11 8 12
REMARK H PARENT
REMARK Flexibility Score: 80.00
ROOT
ATOM      1  C   UNL     1      -4.038  13.394  21.750  1.00  0.00     0.048 C 
ATOM      2  C   UNL     1      -2.598  13.828  21.888  1.00  0.00    -0.008 C 
ATOM      3  C   UNL     1      -2.294  14.676  22.892  1.00  0.00     0.007 C 
ENDROOT
BRANCH   2   4
ATOM      4  C   UNL     1      -1.618  13.226  20.949  1.00  0.00     0.159 C 
ATOM      5  O   UNL     1      -1.982  12.253  20.231  1.00  0.00    -0.295 OA
BRANCH   4   6
ATOM      6  C   UNL     1      -0.213  13.720  20.792  1.00  0.00     0.091 CG0
ATOM      7  G   UNL     1       0.607  13.651  22.099  1.00  0.00     0.000 G0
ENDBRANCH   4   6
ENDBRANCH   2   4
BRANCH   3   8
ATOM      8  C   UNL     1      -0.986  15.249  23.291  1.00  0.00    -0.003 C 
ATOM      9  C   UNL     1       0.248  14.831  22.983  1.00  0.00    -0.020 C 
BRANCH   9  10
ATOM     10  C   UNL     1       0.604  13.655  22.104  1.00  0.00    -0.010 CG0
ATOM     11  C   UNL     1       0.379  12.333  22.875  1.00  0.00     0.016 C 
ATOM     12  C   UNL     1       2.105  13.751  21.749  1.00  0.00     0.016 C 
ATOM     13  G   UNL     1      -0.206  13.722  20.790  1.00  0.00     0.000 G0
ENDBRANCH   9  10
ENDBRANCH   3   8
TORSDOF 0
ENDMDL
MODEL 9
REMARK VINA RESULT:    -4.267      1.468      1.888
REMARK INTER + INTRA:          -4.503
REMARK INTER:                  -5.265
REMARK INTRA:                   0.762
REMARK UNBOUND:                 0.762
REMARK SMILES CC1=CC=CC(C)(C)CC1=O
REMARK SMILES IDX 1 1 2 2 3 3 10 4 11 5 9 6 4 8 5 9 6 10 7 11 8 12
REMARK H PARENT
REMARK Flexibility Score: 80.00
ROOT
ATOM      1  C   UNL     1      -0.086  17.123  22.084  1.00  0.00     0.048 C 
ATOM      2  C   UNL     1      -0.738  15.768  22.233  1.00  0.00    -0.008 C 
ATOM      3  C   UNL     1      -2.077  15.700  22.085  1.00  0.00     0.007 C 
ENDROOT
BRANCH   2   4
ATOM      4  C   UNL     1       0.160  14.608  22.460  1.00  0.00     0.159 C 
ATOM      5  O   UNL     1       1.405  14.765  22.323  1.00  0.00    -0.295 OA
BRANCH   4   6
ATOM      6  C   UNL     1      -0.330  13.250  22.859  1.00  0.00     0.091 CG0
ATOM      7  G   UNL     1      -1.314  12.633  21.840  1.00  0.00     0.000 G0
ENDBRANCH   4   6
ENDBRANCH   2   4
BRANCH   3   8
ATOM      8  C   UNL     1      -2.982  14.527  22.147  1.00  0.00    -0.003 C 
ATOM      9  C   UNL     1      -2.688  13.226  22.038  1.00  0.00    -0.020 C 
BRANCH   9  10
ATOM     10  C   UNL     1      -1.313  12.631  21.847  1.00  0.00    -0.010 CG0
ATOM     11  C   UNL     1      -0.855  12.818  20.381  1.00  0.00     0.016 C 
ATOM     12  C   UNL     1      -1.398  11.113  22.129  1.00  0.00     0.016 C 
ATOM     13  G   UNL     1      -0.329  13.254  22.862  1.00  0.00     0.000 G0
ENDBRANCH   9  10
ENDBRANCH   3   8
TORSDOF 0
ENDMDL
