MODEL 1
REMARK VINA RESULT:    -2.867      0.000      0.000
REMARK INTER + INTRA:          -3.481
REMARK INTER:                  -3.369
REMARK INTRA:                  -0.111
REMARK UNBOUND:                -0.111
REMARK SMILES O=C([O-])CCC(=O)[O-]
REMARK SMILES IDX 4 1 2 2 1 3 3 4 5 5 6 6 7 7 8 8
REMARK H PARENT
REMARK Flexibility Score: inf
ROOT
ATOM      1  C   UNL     1      19.938  12.109 -13.943  1.00  0.00     0.059 C 
ENDROOT
BRANCH   1   2
ATOM      2  C   UNL     1      19.955  13.293 -14.860  1.00  0.00     0.042 C 
ATOM      3  O   UNL     1      19.051  13.440 -15.724  1.00  0.00    -0.550 OA
ATOM      4  O   UNL     1      20.949  14.256 -14.733  1.00  0.00    -0.550 OA
ENDBRANCH   1   2
BRANCH   1   5
ATOM      5  C   UNL     1      18.511  11.609 -13.697  1.00  0.00     0.059 C 
BRANCH   5   6
ATOM      6  C   UNL     1      18.262  10.295 -14.372  1.00  0.00     0.042 C 
ATOM      7  O   UNL     1      17.329   9.546 -13.977  1.00  0.00    -0.550 OA
ATOM      8  O   UNL     1      19.034   9.916 -15.463  1.00  0.00    -0.550 OA
ENDBRANCH   5   6
ENDBRANCH   1   5
TORSDOF 3
ENDMDL
MODEL 2
REMARK VINA RESULT:    -2.864      0.123      3.852
REMARK INTER + INTRA:          -3.478
REMARK INTER:                  -3.365
REMARK INTRA:                  -0.113
REMARK UNBOUND:                -0.111
REMARK SMILES O=C([O-])CCC(=O)[O-]
REMARK SMILES IDX 4 1 2 2 1 3 3 4 5 5 6 6 7 7 8 8
REMARK H PARENT
REMARK Flexibility Score: inf
ROOT
ATOM      1  C   UNL     1      18.451  11.569 -13.735  1.00  0.00     0.059 C 
ENDROOT
BRANCH   1   2
ATOM      2  C   UNL     1      18.260  10.211 -14.338  1.00  0.00     0.042 C 
ATOM      3  O   UNL     1      17.271   9.503 -14.008  1.00  0.00    -0.550 OA
ATOM      4  O   UNL     1      19.153   9.743 -15.293  1.00  0.00    -0.550 OA
ENDBRANCH   1   2
BRANCH   1   5
ATOM      5  C   UNL     1      19.891  12.064 -13.907  1.00  0.00     0.059 C 
BRANCH   5   6
ATOM      6  C   UNL     1      19.961  13.256 -14.811  1.00  0.00     0.042 C 
ATOM      7  O   UNL     1      19.105  13.412 -15.722  1.00  0.00    -0.550 OA
ATOM      8  O   UNL     1      20.948  14.215 -14.622  1.00  0.00    -0.550 OA
ENDBRANCH   5   6
ENDBRANCH   1   5
TORSDOF 3
ENDMDL
MODEL 3
REMARK VINA RESULT:    -2.832      1.132      1.338
REMARK INTER + INTRA:          -3.440
REMARK INTER:                  -3.321
REMARK INTRA:                  -0.118
REMARK UNBOUND:                -0.111
REMARK SMILES O=C([O-])CCC(=O)[O-]
REMARK SMILES IDX 4 1 2 2 1 3 3 4 5 5 6 6 7 7 8 8
REMARK H PARENT
REMARK Flexibility Score: inf
ROOT
ATOM      1  C   UNL     1      19.125  12.367 -14.609  1.00  0.00     0.059 C 
ENDROOT
BRANCH   1   2
ATOM      2  C   UNL     1      20.569  12.586 -14.276  1.00  0.00     0.042 C 
ATOM      3  O   UNL     1      21.352  11.605 -14.169  1.00  0.00    -0.550 OA
ATOM      4  O   UNL     1      21.058  13.877 -14.122  1.00  0.00    -0.550 OA
ENDBRANCH   1   2
BRANCH   1   5
ATOM      5  C   UNL     1      18.466  11.383 -13.636  1.00  0.00     0.059 C 
BRANCH   5   6
ATOM      6  C   UNL     1      18.128  10.087 -14.306  1.00  0.00     0.042 C 
ATOM      7  O   UNL     1      17.093   9.452 -13.971  1.00  0.00    -0.550 OA
ATOM      8  O   UNL     1      18.933   9.601 -15.328  1.00  0.00    -0.550 OA
ENDBRANCH   5   6
ENDBRANCH   1   5
TORSDOF 3
ENDMDL
MODEL 4
REMARK VINA RESULT:    -2.698     12.688     14.146
REMARK INTER + INTRA:          -3.283
REMARK INTER:                  -3.166
REMARK INTRA:                  -0.117
REMARK UNBOUND:                -0.111
REMARK SMILES O=C([O-])CCC(=O)[O-]
REMARK SMILES IDX 4 1 2 2 1 3 3 4 5 5 6 6 7 7 8 8
REMARK H PARENT
REMARK Flexibility Score: inf
ROOT
ATOM      1  C   UNL     1       6.734  10.265 -13.160  1.00  0.00     0.059 C 
ENDROOT
BRANCH   1   2
ATOM      2  C   UNL     1       6.711   8.978 -12.394  1.00  0.00     0.042 C 
ATOM      3  O   UNL     1       7.417   8.004 -12.768  1.00  0.00    -0.550 OA
ATOM      4  O   UNL     1       5.939   8.868 -11.244  1.00  0.00    -0.550 OA
ENDBRANCH   1   2
BRANCH   1   5
ATOM      5  C   UNL     1       5.730  10.250 -14.317  1.00  0.00     0.059 C 
BRANCH   5   6
ATOM      6  C   UNL     1       4.449  10.930 -13.946  1.00  0.00     0.042 C 
ATOM      7  O   UNL     1       4.182  12.073 -14.402  1.00  0.00    -0.550 OA
ATOM      8  O   UNL     1       3.530  10.284 -13.128  1.00  0.00    -0.550 OA
ENDBRANCH   5   6
ENDBRANCH   1   5
TORSDOF 3
ENDMDL
MODEL 5
REMARK VINA RESULT:    -2.693     12.671     14.010
REMARK INTER + INTRA:          -3.276
REMARK INTER:                  -3.158
REMARK INTRA:                  -0.119
REMARK UNBOUND:                -0.111
REMARK SMILES O=C([O-])CCC(=O)[O-]
REMARK SMILES IDX 4 1 2 2 1 3 3 4 5 5 6 6 7 7 8 8
REMARK H PARENT
REMARK Flexibility Score: inf
ROOT
ATOM      1  C   UNL     1       5.747  10.223 -14.298  1.00  0.00     0.059 C 
ENDROOT
BRANCH   1   2
ATOM      2  C   UNL     1       4.454  10.895 -13.950  1.00  0.00     0.042 C 
ATOM      3  O   UNL     1       4.182  12.030 -14.424  1.00  0.00    -0.550 OA
ATOM      4  O   UNL     1       3.533  10.251 -13.133  1.00  0.00    -0.550 OA
ENDBRANCH   1   2
BRANCH   1   5
ATOM      5  C   UNL     1       6.731  10.253 -13.125  1.00  0.00     0.059 C 
BRANCH   5   6
ATOM      6  C   UNL     1       6.727   8.962 -12.366  1.00  0.00     0.042 C 
ATOM      7  O   UNL     1       7.468   8.011 -12.729  1.00  0.00    -0.550 OA
ATOM      8  O   UNL     1       5.934   8.823 -11.234  1.00  0.00    -0.550 OA
ENDBRANCH   5   6
ENDBRANCH   1   5
TORSDOF 3
ENDMDL
MODEL 6
REMARK VINA RESULT:    -2.671      1.260      3.921
REMARK INTER + INTRA:          -3.251
REMARK INTER:                  -3.134
REMARK INTRA:                  -0.117
REMARK UNBOUND:                -0.111
REMARK SMILES O=C([O-])CCC(=O)[O-]
REMARK SMILES IDX 4 1 2 2 1 3 3 4 5 5 6 6 7 7 8 8
REMARK H PARENT
REMARK Flexibility Score: inf
ROOT
ATOM      1  C   UNL     1      18.841  11.944 -13.840  1.00  0.00     0.059 C 
ENDROOT
BRANCH   1   2
ATOM      2  C   UNL     1      18.439  10.680 -14.537  1.00  0.00     0.042 C 
ATOM      3  O   UNL     1      18.812  10.462 -15.721  1.00  0.00    -0.550 OA
ATOM      4  O   UNL     1      17.686   9.725 -13.866  1.00  0.00    -0.550 OA
ENDBRANCH   1   2
BRANCH   1   5
ATOM      5  C   UNL     1      19.687  12.842 -14.748  1.00  0.00     0.059 C 
BRANCH   5   6
ATOM      6  C   UNL     1      21.112  12.905 -14.290  1.00  0.00     0.042 C 
ATOM      7  O   UNL     1      21.823  11.866 -14.284  1.00  0.00    -0.550 OA
ATOM      8  O   UNL     1      21.666  14.121 -13.908  1.00  0.00    -0.550 OA
ENDBRANCH   5   6
ENDBRANCH   1   5
TORSDOF 3
ENDMDL
MODEL 7
REMARK VINA RESULT:    -2.624     12.875     14.782
REMARK INTER + INTRA:          -3.195
REMARK INTER:                  -3.112
REMARK INTRA:                  -0.083
REMARK UNBOUND:                -0.111
REMARK SMILES O=C([O-])CCC(=O)[O-]
REMARK SMILES IDX 4 1 2 2 1 3 3 4 5 5 6 6 7 7 8 8
REMARK H PARENT
REMARK Flexibility Score: inf
ROOT
ATOM      1  C   UNL     1       4.944   8.030 -11.135  1.00  0.00     0.059 C 
ENDROOT
BRANCH   1   2
ATOM      2  C   UNL     1       4.653   8.463  -9.730  1.00  0.00     0.042 C 
ATOM      3  O   UNL     1       5.573   8.928  -9.006  1.00  0.00    -0.550 OA
ATOM      4  O   UNL     1       3.358   8.389  -9.234  1.00  0.00    -0.550 OA
ENDBRANCH   1   2
BRANCH   1   5
ATOM      5  C   UNL     1       5.056   9.230 -12.081  1.00  0.00     0.059 C 
BRANCH   5   6
ATOM      6  C   UNL     1       6.430   9.344 -12.668  1.00  0.00     0.042 C 
ATOM      7  O   UNL     1       6.791  10.409 -13.233  1.00  0.00    -0.550 OA
ATOM      8  O   UNL     1       7.325   8.287 -12.553  1.00  0.00    -0.550 OA
ENDBRANCH   5   6
ENDBRANCH   1   5
TORSDOF 3
ENDMDL
MODEL 8
REMARK VINA RESULT:    -2.619     13.320     14.474
REMARK INTER + INTRA:          -3.190
REMARK INTER:                  -3.068
REMARK INTRA:                  -0.122
REMARK UNBOUND:                -0.111
REMARK SMILES O=C([O-])CCC(=O)[O-]
REMARK SMILES IDX 4 1 2 2 1 3 3 4 5 5 6 6 7 7 8 8
REMARK H PARENT
REMARK Flexibility Score: inf
ROOT
ATOM      1  C   UNL     1       5.708   8.035 -11.726  1.00  0.00     0.059 C 
ENDROOT
BRANCH   1   2
ATOM      2  C   UNL     1       4.906   8.691 -10.644  1.00  0.00     0.042 C 
ATOM      3  O   UNL     1       3.745   9.117 -10.883  1.00  0.00    -0.550 OA
ATOM      4  O   UNL     1       5.427   8.798  -9.360  1.00  0.00    -0.550 OA
ENDBRANCH   1   2
BRANCH   1   5
ATOM      5  C   UNL     1       6.674   9.023 -12.388  1.00  0.00     0.059 C 
BRANCH   5   6
ATOM      6  C   UNL     1       6.040   9.720 -13.552  1.00  0.00     0.042 C 
ATOM      7  O   UNL     1       5.625  10.903 -13.434  1.00  0.00    -0.550 OA
ATOM      8  O   UNL     1       5.944   9.076 -14.780  1.00  0.00    -0.550 OA
ENDBRANCH   5   6
ENDBRANCH   1   5
TORSDOF 3
ENDMDL
MODEL 9
REMARK VINA RESULT:    -2.592     13.342     14.310
REMARK INTER + INTRA:          -3.158
REMARK INTER:                  -3.041
REMARK INTRA:                  -0.117
REMARK UNBOUND:                -0.111
REMARK SMILES O=C([O-])CCC(=O)[O-]
REMARK SMILES IDX 4 1 2 2 1 3 3 4 5 5 6 6 7 7 8 8
REMARK H PARENT
REMARK Flexibility Score: inf
ROOT
ATOM      1  C   UNL     1       6.665   9.054 -12.358  1.00  0.00     0.059 C 
ENDROOT
BRANCH   1   2
ATOM      2  C   UNL     1       6.015   9.703 -13.542  1.00  0.00     0.042 C 
ATOM      3  O   UNL     1       5.593  10.887 -13.464  1.00  0.00    -0.550 OA
ATOM      4  O   UNL     1       5.911   9.012 -14.742  1.00  0.00    -0.550 OA
ENDBRANCH   1   2
BRANCH   1   5
ATOM      5  C   UNL     1       5.738   8.026 -11.700  1.00  0.00     0.059 C 
BRANCH   5   6
ATOM      6  C   UNL     1       4.907   8.644 -10.619  1.00  0.00     0.042 C 
ATOM      7  O   UNL     1       3.768   9.113 -10.884  1.00  0.00    -0.550 OA
ATOM      8  O   UNL     1       5.372   8.665  -9.310  1.00  0.00    -0.550 OA
ENDBRANCH   5   6
ENDBRANCH   1   5
TORSDOF 3
ENDMDL
