MODEL 1
REMARK VINA RESULT:     5.974      0.000      0.000
REMARK INTER + INTRA:           9.857
REMARK INTER:                   7.370
REMARK INTRA:                   2.487
REMARK UNBOUND:                 2.487
REMARK SMILES C=C1CC[C@H]2[C@@H]([C@H]3[C@H](C)CC[C@@H]13)C2(C)C
REMARK SMILES IDX 3 1 2 2 1 3 12 4 9 5 8 6 10 7 7 8 11 9 4 11 5 12 6 13 13 14
REMARK SMILES IDX 14 16 15 17
REMARK H PARENT
REMARK Flexibility Score: 80.00
ROOT
ATOM      1  C   UNL     1     -13.677  -2.375  19.381  1.00  0.00     0.031 C 
ENDROOT
BRANCH   1   2
ATOM      2  C   UNL     1     -15.011  -1.752  19.034  1.00  0.00    -0.074 C 
ATOM      3  C   UNL     1     -16.113  -2.129  19.710  1.00  0.00     0.008 C 
BRANCH   2   4
ATOM      4  C   UNL     1     -15.074  -0.833  17.817  1.00  0.00     0.018 C 
ATOM      5  C   UNL     1     -17.388  -1.600  14.926  1.00  0.00     0.008 C 
ATOM      6  C   UNL     1     -16.916  -1.462  16.379  1.00  0.00    -0.010 C 
ATOM      7  C   UNL     1     -17.269  -0.097  16.975  1.00  0.00     0.004 C 
ATOM      8  C   UNL     1     -15.393  -1.606  16.524  1.00  0.00     0.003 CG0
ATOM      9  C   UNL     1     -16.128   0.282  17.916  1.00  0.00     0.008 C 
ATOM     10  G   UNL     1     -14.977  -3.117  16.477  1.00  0.00     0.000 G0
ENDBRANCH   2   4
ENDBRANCH   1   2
BRANCH   1  11
ATOM     11  C   UNL     1     -12.891  -2.768  18.121  1.00  0.00     0.009 C 
BRANCH  11  12
ATOM     12  C   UNL     1     -13.726  -3.682  17.200  1.00  0.00    -0.001 C 
ATOM     13  C   UNL     1     -14.969  -3.115  16.471  1.00  0.00     0.002 CG0
ATOM     14  C   UNL     1     -13.701  -3.494  15.675  1.00  0.00    -0.029 C 
ATOM     15  G   UNL     1     -15.395  -1.607  16.524  1.00  0.00     0.000 G0
ATOM     16  C   UNL     1     -13.800  -4.799  14.877  1.00  0.00     0.011 C 
ATOM     17  C   UNL     1     -12.775  -2.420  15.071  1.00  0.00     0.011 C 
ENDBRANCH  11  12
ENDBRANCH   1  11
TORSDOF 0
ENDMDL
MODEL 2
REMARK VINA RESULT:     6.180      1.185      3.329
REMARK INTER + INTRA:          10.112
REMARK INTER:                   7.676
REMARK INTRA:                   2.436
REMARK UNBOUND:                 2.487
REMARK SMILES C=C1CC[C@H]2[C@@H]([C@H]3[C@H](C)CC[C@@H]13)C2(C)C
REMARK SMILES IDX 3 1 2 2 1 3 12 4 9 5 8 6 10 7 7 8 11 9 4 11 5 12 6 13 13 14
REMARK SMILES IDX 14 16 15 17
REMARK H PARENT
REMARK Flexibility Score: 80.00
ROOT
ATOM      1  C   UNL     1     -16.813  -1.104  16.173  1.00  0.00     0.031 C 
ENDROOT
BRANCH   1   2
ATOM      2  C   UNL     1     -16.357  -0.928  17.605  1.00  0.00    -0.074 C 
ATOM      3  C   UNL     1     -16.091   0.307  18.068  1.00  0.00     0.008 C 
BRANCH   2   4
ATOM      4  C   UNL     1     -16.067  -2.186  18.419  1.00  0.00     0.018 C 
ATOM      5  C   UNL     1     -12.659  -2.754  19.958  1.00  0.00     0.008 C 
ATOM      6  C   UNL     1     -13.922  -1.998  19.524  1.00  0.00    -0.010 C 
ATOM      7  C   UNL     1     -14.987  -1.972  20.623  1.00  0.00     0.004 C 
ATOM      8  C   UNL     1     -14.596  -2.628  18.296  1.00  0.00     0.003 CG0
ATOM      9  C   UNL     1     -16.343  -2.047  19.925  1.00  0.00     0.008 C 
ATOM     10  G   UNL     1     -13.839  -2.223  16.984  1.00  0.00     0.000 G0
ENDBRANCH   2   4
ENDBRANCH   1   2
BRANCH   1  11
ATOM     11  C   UNL     1     -16.068  -2.253  15.479  1.00  0.00     0.009 C 
BRANCH  11  12
ATOM     12  C   UNL     1     -14.538  -2.080  15.589  1.00  0.00    -0.001 C 
ATOM     13  C   UNL     1     -13.844  -2.217  16.967  1.00  0.00     0.002 CG0
ATOM     14  C   UNL     1     -13.630  -3.288  15.874  1.00  0.00    -0.029 C 
ATOM     15  G   UNL     1     -14.593  -2.631  18.281  1.00  0.00     0.000 G0
ATOM     16  C   UNL     1     -12.270  -3.233  15.168  1.00  0.00     0.011 C 
ATOM     17  C   UNL     1     -14.263  -4.688  15.980  1.00  0.00     0.011 C 
ENDBRANCH  11  12
ENDBRANCH   1  11
TORSDOF 0
ENDMDL
MODEL 3
REMARK VINA RESULT:     6.500      1.330      3.661
REMARK INTER + INTRA:          10.506
REMARK INTER:                   8.073
REMARK INTRA:                   2.433
REMARK UNBOUND:                 2.487
REMARK SMILES C=C1CC[C@H]2[C@@H]([C@H]3[C@H](C)CC[C@@H]13)C2(C)C
REMARK SMILES IDX 3 1 2 2 1 3 12 4 9 5 8 6 10 7 7 8 11 9 4 11 5 12 6 13 13 14
REMARK SMILES IDX 14 16 15 17
REMARK H PARENT
REMARK Flexibility Score: 80.00
ROOT
ATOM      1  C   UNL     1     -12.744  -3.503  17.193  1.00  0.00     0.031 C 
ENDROOT
BRANCH   1   2
ATOM      2  C   UNL     1     -13.736  -2.672  16.409  1.00  0.00    -0.074 C 
ATOM      3  C   UNL     1     -13.285  -1.759  15.529  1.00  0.00     0.008 C 
BRANCH   2   4
ATOM      4  C   UNL     1     -15.213  -2.798  16.771  1.00  0.00     0.018 C 
ATOM      5  C   UNL     1     -17.203   0.224  17.873  1.00  0.00     0.008 C 
ATOM      6  C   UNL     1     -16.199  -0.608  17.063  1.00  0.00    -0.010 C 
ATOM      7  C   UNL     1     -16.830  -1.209  15.804  1.00  0.00     0.004 C 
ATOM      8  C   UNL     1     -15.630  -1.791  17.859  1.00  0.00     0.003 CG0
ATOM      9  C   UNL     1     -16.177  -2.574  15.595  1.00  0.00     0.008 C 
ATOM     10  G   UNL     1     -14.512  -1.304  18.845  1.00  0.00     0.000 G0
ENDBRANCH   2   4
ENDBRANCH   1   2
BRANCH   1  11
ATOM     11  C   UNL     1     -13.124  -3.586  18.678  1.00  0.00     0.009 C 
BRANCH  11  12
ATOM     12  C   UNL     1     -13.310  -2.182  19.291  1.00  0.00    -0.001 C 
ATOM     13  C   UNL     1     -14.511  -1.305  18.857  1.00  0.00     0.002 CG0
ATOM     14  C   UNL     1     -14.453  -1.903  20.281  1.00  0.00    -0.029 C 
ATOM     15  G   UNL     1     -15.641  -1.796  17.887  1.00  0.00     0.000 G0
ATOM     16  C   UNL     1     -14.096  -0.906  21.390  1.00  0.00     0.011 C 
ATOM     17  C   UNL     1     -15.371  -3.064  20.707  1.00  0.00     0.011 C 
ENDBRANCH  11  12
ENDBRANCH   1  11
TORSDOF 0
ENDMDL
MODEL 4
REMARK VINA RESULT:     6.889      1.348      4.458
REMARK INTER + INTRA:          10.986
REMARK INTER:                   8.501
REMARK INTRA:                   2.486
REMARK UNBOUND:                 2.487
REMARK SMILES C=C1CC[C@H]2[C@@H]([C@H]3[C@H](C)CC[C@@H]13)C2(C)C
REMARK SMILES IDX 3 1 2 2 1 3 12 4 9 5 8 6 10 7 7 8 11 9 4 11 5 12 6 13 13 14
REMARK SMILES IDX 14 16 15 17
REMARK H PARENT
REMARK Flexibility Score: 80.00
ROOT
ATOM      1  C   UNL     1     -16.047  -2.546  14.875  1.00  0.00     0.031 C 
ENDROOT
BRANCH   1   2
ATOM      2  C   UNL     1     -15.206  -3.128  15.989  1.00  0.00    -0.074 C 
ATOM      3  C   UNL     1     -15.433  -4.390  16.399  1.00  0.00     0.008 C 
BRANCH   2   4
ATOM      4  C   UNL     1     -14.236  -2.196  16.711  1.00  0.00     0.018 C 
ATOM      5  C   UNL     1     -14.522  -1.612  20.437  1.00  0.00     0.008 C 
ATOM      6  C   UNL     1     -14.519  -2.379  19.108  1.00  0.00    -0.010 C 
ATOM      7  C   UNL     1     -13.143  -2.965  18.782  1.00  0.00     0.004 C 
ATOM      8  C   UNL     1     -14.896  -1.492  17.912  1.00  0.00     0.003 CG0
ATOM      9  C   UNL     1     -12.981  -2.891  17.265  1.00  0.00     0.008 C 
ATOM     10  G   UNL     1     -16.449  -1.284  17.850  1.00  0.00     0.000 G0
ENDBRANCH   2   4
ENDBRANCH   1   2
BRANCH   1  11
ATOM     11  C   UNL     1     -16.474  -1.103  15.183  1.00  0.00     0.009 C 
BRANCH  11  12
ATOM     12  C   UNL     1     -17.215  -1.012  16.534  1.00  0.00    -0.001 C 
ATOM     13  C   UNL     1     -16.443  -1.253  17.855  1.00  0.00     0.002 CG0
ATOM     14  C   UNL     1     -16.954   0.160  17.495  1.00  0.00    -0.029 C 
ATOM     15  G   UNL     1     -14.895  -1.491  17.926  1.00  0.00     0.000 G0
ATOM     16  C   UNL     1     -18.190   0.622  18.275  1.00  0.00     0.011 C 
ATOM     17  C   UNL     1     -15.991   1.281  17.060  1.00  0.00     0.011 C 
ENDBRANCH  11  12
ENDBRANCH   1  11
TORSDOF 0
ENDMDL
MODEL 5
REMARK VINA RESULT:     7.966      1.364      4.272
REMARK INTER + INTRA:          12.315
REMARK INTER:                   9.875
REMARK INTRA:                   2.441
REMARK UNBOUND:                 2.487
REMARK SMILES C=C1CC[C@H]2[C@@H]([C@H]3[C@H](C)CC[C@@H]13)C2(C)C
REMARK SMILES IDX 3 1 2 2 1 3 12 4 9 5 8 6 10 7 7 8 11 9 4 11 5 12 6 13 13 14
REMARK SMILES IDX 14 16 15 17
REMARK H PARENT
REMARK Flexibility Score: 80.00
ROOT
ATOM      1  C   UNL     1     -16.533  -0.947  16.776  1.00  0.00     0.031 C 
ENDROOT
BRANCH   1   2
ATOM      2  C   UNL     1     -15.587  -1.868  16.037  1.00  0.00    -0.074 C 
ATOM      3  C   UNL     1     -16.080  -2.940  15.387  1.00  0.00     0.008 C 
BRANCH   2   4
ATOM      4  C   UNL     1     -14.088  -1.626  16.194  1.00  0.00     0.018 C 
ATOM      5  C   UNL     1     -11.817  -4.337  17.535  1.00  0.00     0.008 C 
ATOM      6  C   UNL     1     -12.951  -3.695  16.724  1.00  0.00    -0.010 C 
ATOM      7  C   UNL     1     -12.500  -3.293  15.317  1.00  0.00     0.004 C 
ATOM      8  C   UNL     1     -13.496  -2.415  17.376  1.00  0.00     0.003 CG0
ATOM      9  C   UNL     1     -13.250  -2.010  14.964  1.00  0.00     0.008 C 
ATOM     10  G   UNL     1     -14.468  -2.769  18.554  1.00  0.00     0.000 G0
ENDBRANCH   2   4
ENDBRANCH   1   2
BRANCH   1  11
ATOM     11  C   UNL     1     -16.006  -0.603  18.177  1.00  0.00     0.009 C 
BRANCH  11  12
ATOM     12  C   UNL     1     -15.674  -1.876  18.982  1.00  0.00    -0.001 C 
ATOM     13  C   UNL     1     -14.481  -2.768  18.557  1.00  0.00     0.002 CG0
ATOM     14  C   UNL     1     -14.414  -1.943  19.861  1.00  0.00    -0.029 C 
ATOM     15  G   UNL     1     -13.495  -2.404  17.392  1.00  0.00     0.000 G0
ATOM     16  C   UNL     1     -14.588  -2.752  21.152  1.00  0.00     0.011 C 
ATOM     17  C   UNL     1     -13.521  -0.692  19.981  1.00  0.00     0.011 C 
ENDBRANCH  11  12
ENDBRANCH   1  11
TORSDOF 0
ENDMDL
