MODEL 1
REMARK VINA RESULT:    -6.108      0.000      0.000
REMARK INTER + INTRA:          -6.108
REMARK INTER:                  -6.108
REMARK INTRA:                   0.000
REMARK UNBOUND:                 0.000
REMARK SMILES CC(C)=C1CC[C@@H](C)CC1=O
REMARK SMILES IDX 8 1 7 2 6 3 5 4 4 5 2 6 1 7 3 8 10 9 11 10 9 11
REMARK H PARENT
REMARK Flexibility Score: inf
ROOT
ATOM      1  C   UNL     1     -12.577 -38.382  31.875  1.00  0.00     0.008 C 
ATOM      2  C   UNL     1     -13.224 -37.283  31.025  1.00  0.00    -0.006 C 
ATOM      3  C   UNL     1     -12.868 -37.465  29.541  1.00  0.00     0.008 C 
ATOM      4  C   UNL     1     -13.590 -36.433  28.663  1.00  0.00     0.039 C 
ATOM      5  C   UNL     1     -13.376 -35.005  29.145  1.00  0.00    -0.006 C 
ATOM      6  C   UNL     1     -13.341 -33.958  28.268  1.00  0.00    -0.070 C 
ATOM      7  C   UNL     1     -13.532 -34.172  26.784  1.00  0.00     0.039 C 
ATOM      8  C   UNL     1     -13.073 -32.544  28.728  1.00  0.00     0.039 C 
ATOM      9  C   UNL     1     -13.325 -34.812  30.625  1.00  0.00     0.159 C 
ATOM     10  O   UNL     1     -13.745 -33.753  31.162  1.00  0.00    -0.295 OA
ATOM     11  C   UNL     1     -12.773 -35.895  31.506  1.00  0.00     0.084 C 
ENDROOT
TORSDOF 0
ENDMDL
MODEL 2
REMARK VINA RESULT:    -5.751      2.582      4.104
REMARK INTER + INTRA:          -5.751
REMARK INTER:                  -5.751
REMARK INTRA:                   0.000
REMARK UNBOUND:                 0.000
REMARK SMILES CC(C)=C1CC[C@@H](C)CC1=O
REMARK SMILES IDX 8 1 7 2 6 3 5 4 4 5 2 6 1 7 3 8 10 9 11 10 9 11
REMARK H PARENT
REMARK Flexibility Score: inf
ROOT
ATOM      1  C   UNL     1     -11.388 -34.992  26.018  1.00  0.00     0.008 C 
ATOM      2  C   UNL     1     -11.628 -34.203  27.310  1.00  0.00    -0.006 C 
ATOM      3  C   UNL     1     -11.324 -35.073  28.540  1.00  0.00     0.008 C 
ATOM      4  C   UNL     1     -11.462 -34.269  29.840  1.00  0.00     0.039 C 
ATOM      5  C   UNL     1     -12.803 -33.555  29.946  1.00  0.00    -0.006 C 
ATOM      6  C   UNL     1     -13.401 -33.344  31.155  1.00  0.00    -0.070 C 
ATOM      7  C   UNL     1     -12.748 -33.795  32.441  1.00  0.00     0.039 C 
ATOM      8  C   UNL     1     -14.758 -32.687  31.268  1.00  0.00     0.039 C 
ATOM      9  C   UNL     1     -13.355 -33.005  28.671  1.00  0.00     0.159 C 
ATOM     10  O   UNL     1     -14.051 -31.954  28.660  1.00  0.00    -0.295 OA
ATOM     11  C   UNL     1     -13.078 -33.699  27.370  1.00  0.00     0.084 C 
ENDROOT
TORSDOF 0
ENDMDL
MODEL 3
REMARK VINA RESULT:    -5.721      2.435      3.585
REMARK INTER + INTRA:          -5.721
REMARK INTER:                  -5.721
REMARK INTRA:                   0.000
REMARK UNBOUND:                 0.000
REMARK SMILES CC(C)=C1CC[C@@H](C)CC1=O
REMARK SMILES IDX 8 1 7 2 6 3 5 4 4 5 2 6 1 7 3 8 10 9 11 10 9 11
REMARK H PARENT
REMARK Flexibility Score: inf
ROOT
ATOM      1  C   UNL     1      -9.939 -34.826  29.229  1.00  0.00     0.008 C 
ATOM      2  C   UNL     1     -11.414 -34.556  29.545  1.00  0.00    -0.006 C 
ATOM      3  C   UNL     1     -11.851 -33.198  28.973  1.00  0.00     0.008 C 
ATOM      4  C   UNL     1     -13.351 -32.957  29.191  1.00  0.00     0.039 C 
ATOM      5  C   UNL     1     -13.766 -33.140  30.644  1.00  0.00    -0.006 C 
ATOM      6  C   UNL     1     -14.786 -32.412  31.188  1.00  0.00    -0.070 C 
ATOM      7  C   UNL     1     -15.558 -31.408  30.363  1.00  0.00     0.039 C 
ATOM      8  C   UNL     1     -15.170 -32.544  32.644  1.00  0.00     0.039 C 
ATOM      9  C   UNL     1     -13.074 -34.232  31.392  1.00  0.00     0.159 C 
ATOM     10  O   UNL     1     -13.663 -34.878  32.300  1.00  0.00    -0.295 OA
ATOM     11  C   UNL     1     -11.654 -34.587  31.063  1.00  0.00     0.084 C 
ENDROOT
TORSDOF 0
ENDMDL
MODEL 4
REMARK VINA RESULT:    -5.688      1.594      2.436
REMARK INTER + INTRA:          -5.688
REMARK INTER:                  -5.688
REMARK INTRA:                   0.000
REMARK UNBOUND:                 0.000
REMARK SMILES CC(C)=C1CC[C@@H](C)CC1=O
REMARK SMILES IDX 8 1 7 2 6 3 5 4 4 5 2 6 1 7 3 8 10 9 11 10 9 11
REMARK H PARENT
REMARK Flexibility Score: inf
ROOT
ATOM      1  C   UNL     1     -12.496 -38.694  31.637  1.00  0.00     0.008 C 
ATOM      2  C   UNL     1     -12.415 -37.176  31.446  1.00  0.00    -0.006 C 
ATOM      3  C   UNL     1     -13.681 -36.494  31.988  1.00  0.00     0.008 C 
ATOM      4  C   UNL     1     -13.574 -34.965  31.898  1.00  0.00     0.039 C 
ATOM      5  C   UNL     1     -13.205 -34.487  30.500  1.00  0.00    -0.006 C 
ATOM      6  C   UNL     1     -13.653 -33.291  30.018  1.00  0.00    -0.070 C 
ATOM      7  C   UNL     1     -14.520 -32.382  30.860  1.00  0.00     0.039 C 
ATOM      8  C   UNL     1     -13.341 -32.832  28.612  1.00  0.00     0.039 C 
ATOM      9  C   UNL     1     -12.240 -35.344  29.747  1.00  0.00     0.159 C 
ATOM     10  O   UNL     1     -11.421 -34.844  28.931  1.00  0.00    -0.295 OA
ATOM     11  C   UNL     1     -12.228 -36.830  29.961  1.00  0.00     0.084 C 
ENDROOT
TORSDOF 0
ENDMDL
MODEL 5
REMARK VINA RESULT:    -5.595      2.151      3.376
REMARK INTER + INTRA:          -5.595
REMARK INTER:                  -5.595
REMARK INTRA:                   0.000
REMARK UNBOUND:                 0.000
REMARK SMILES CC(C)=C1CC[C@@H](C)CC1=O
REMARK SMILES IDX 8 1 7 2 6 3 5 4 4 5 2 6 1 7 3 8 10 9 11 10 9 11
REMARK H PARENT
REMARK Flexibility Score: inf
ROOT
ATOM      1  C   UNL     1     -12.217 -37.246  29.825  1.00  0.00     0.008 C 
ATOM      2  C   UNL     1     -12.457 -35.812  30.309  1.00  0.00    -0.006 C 
ATOM      3  C   UNL     1     -13.211 -35.812  31.649  1.00  0.00     0.008 C 
ATOM      4  C   UNL     1     -13.370 -34.388  32.200  1.00  0.00     0.039 C 
ATOM      5  C   UNL     1     -13.983 -33.434  31.183  1.00  0.00    -0.006 C 
ATOM      6  C   UNL     1     -14.775 -32.393  31.575  1.00  0.00    -0.070 C 
ATOM      7  C   UNL     1     -15.062 -32.133  33.036  1.00  0.00     0.039 C 
ATOM      8  C   UNL     1     -15.434 -31.474  30.572  1.00  0.00     0.039 C 
ATOM      9  C   UNL     1     -13.572 -33.637  29.761  1.00  0.00     0.159 C 
ATOM     10  O   UNL     1     -13.481 -32.668  28.961  1.00  0.00    -0.295 OA
ATOM     11  C   UNL     1     -13.249 -35.015  29.261  1.00  0.00     0.084 C 
ENDROOT
TORSDOF 0
ENDMDL
MODEL 6
REMARK VINA RESULT:    -5.552      1.771      2.351
REMARK INTER + INTRA:          -5.552
REMARK INTER:                  -5.552
REMARK INTRA:                   0.000
REMARK UNBOUND:                 0.000
REMARK SMILES CC(C)=C1CC[C@@H](C)CC1=O
REMARK SMILES IDX 8 1 7 2 6 3 5 4 4 5 2 6 1 7 3 8 10 9 11 10 9 11
REMARK H PARENT
REMARK Flexibility Score: inf
ROOT
ATOM      1  C   UNL     1     -12.612 -38.632  32.009  1.00  0.00     0.008 C 
ATOM      2  C   UNL     1     -12.217 -37.594  30.952  1.00  0.00    -0.006 C 
ATOM      3  C   UNL     1     -11.260 -36.550  31.549  1.00  0.00     0.008 C 
ATOM      4  C   UNL     1     -10.774 -35.562  30.479  1.00  0.00     0.039 C 
ATOM      5  C   UNL     1     -11.922 -34.929  29.705  1.00  0.00    -0.006 C 
ATOM      6  C   UNL     1     -11.830 -33.658  29.215  1.00  0.00    -0.070 C 
ATOM      7  C   UNL     1     -10.579 -32.833  29.405  1.00  0.00     0.039 C 
ATOM      8  C   UNL     1     -12.984 -32.998  28.494  1.00  0.00     0.039 C 
ATOM      9  C   UNL     1     -13.089 -35.816  29.419  1.00  0.00     0.159 C 
ATOM     10  O   UNL     1     -13.771 -35.682  28.368  1.00  0.00    -0.295 OA
ATOM     11  C   UNL     1     -13.466 -36.899  30.387  1.00  0.00     0.084 C 
ENDROOT
TORSDOF 0
ENDMDL
MODEL 7
REMARK VINA RESULT:    -5.518      2.059      3.647
REMARK INTER + INTRA:          -5.518
REMARK INTER:                  -5.518
REMARK INTRA:                   0.000
REMARK UNBOUND:                 0.000
REMARK SMILES CC(C)=C1CC[C@@H](C)CC1=O
REMARK SMILES IDX 8 1 7 2 6 3 5 4 4 5 2 6 1 7 3 8 10 9 11 10 9 11
REMARK H PARENT
REMARK Flexibility Score: inf
ROOT
ATOM      1  C   UNL     1     -15.124 -32.324  33.130  1.00  0.00     0.008 C 
ATOM      2  C   UNL     1     -14.140 -33.095  32.243  1.00  0.00    -0.006 C 
ATOM      3  C   UNL     1     -14.324 -32.708  30.767  1.00  0.00     0.008 C 
ATOM      4  C   UNL     1     -13.279 -33.395  29.875  1.00  0.00     0.039 C 
ATOM      5  C   UNL     1     -13.234 -34.902  30.084  1.00  0.00    -0.006 C 
ATOM      6  C   UNL     1     -12.916 -35.751  29.062  1.00  0.00    -0.070 C 
ATOM      7  C   UNL     1     -12.579 -35.227  27.685  1.00  0.00     0.039 C 
ATOM      8  C   UNL     1     -12.924 -37.251  29.243  1.00  0.00     0.039 C 
ATOM      9  C   UNL     1     -13.441 -35.377  31.485  1.00  0.00     0.159 C 
ATOM     10  O   UNL     1     -12.872 -36.417  31.914  1.00  0.00    -0.295 OA
ATOM     11  C   UNL     1     -14.333 -34.610  32.416  1.00  0.00     0.084 C 
ENDROOT
TORSDOF 0
ENDMDL
MODEL 8
REMARK VINA RESULT:    -5.471      2.442      4.224
REMARK INTER + INTRA:          -5.471
REMARK INTER:                  -5.471
REMARK INTRA:                   0.000
REMARK UNBOUND:                 0.000
REMARK SMILES CC(C)=C1CC[C@@H](C)CC1=O
REMARK SMILES IDX 8 1 7 2 6 3 5 4 4 5 2 6 1 7 3 8 10 9 11 10 9 11
REMARK H PARENT
REMARK Flexibility Score: inf
ROOT
ATOM      1  C   UNL     1     -11.714 -34.574  26.112  1.00  0.00     0.008 C 
ATOM      2  C   UNL     1     -12.104 -34.842  27.570  1.00  0.00    -0.006 C 
ATOM      3  C   UNL     1     -12.996 -33.711  28.108  1.00  0.00     0.008 C 
ATOM      4  C   UNL     1     -13.480 -34.012  29.533  1.00  0.00     0.039 C 
ATOM      5  C   UNL     1     -12.336 -34.355  30.478  1.00  0.00    -0.006 C 
ATOM      6  C   UNL     1     -12.394 -34.040  31.805  1.00  0.00    -0.070 C 
ATOM      7  C   UNL     1     -13.603 -33.353  32.396  1.00  0.00     0.039 C 
ATOM      8  C   UNL     1     -11.241 -34.324  32.741  1.00  0.00     0.039 C 
ATOM      9  C   UNL     1     -11.217 -35.152  29.891  1.00  0.00     0.159 C 
ATOM     10  O   UNL     1     -10.568 -35.979  30.586  1.00  0.00    -0.295 OA
ATOM     11  C   UNL     1     -10.850 -34.982  28.446  1.00  0.00     0.084 C 
ENDROOT
TORSDOF 0
ENDMDL
MODEL 9
REMARK VINA RESULT:    -5.347      2.026      4.377
REMARK INTER + INTRA:          -5.347
REMARK INTER:                  -5.347
REMARK INTRA:                   0.000
REMARK UNBOUND:                 0.000
REMARK SMILES CC(C)=C1CC[C@@H](C)CC1=O
REMARK SMILES IDX 8 1 7 2 6 3 5 4 4 5 2 6 1 7 3 8 10 9 11 10 9 11
REMARK H PARENT
REMARK Flexibility Score: inf
ROOT
ATOM      1  C   UNL     1      -9.875 -32.386  29.602  1.00  0.00     0.008 C 
ATOM      2  C   UNL     1     -10.998 -33.371  29.943  1.00  0.00    -0.006 C 
ATOM      3  C   UNL     1     -10.508 -34.423  30.951  1.00  0.00     0.008 C 
ATOM      4  C   UNL     1     -11.648 -35.357  31.381  1.00  0.00     0.039 C 
ATOM      5  C   UNL     1     -12.373 -35.978  30.195  1.00  0.00    -0.006 C 
ATOM      6  C   UNL     1     -12.922 -37.226  30.273  1.00  0.00    -0.070 C 
ATOM      7  C   UNL     1     -12.847 -38.037  31.546  1.00  0.00     0.039 C 
ATOM      8  C   UNL     1     -13.595 -37.875  29.085  1.00  0.00     0.039 C 
ATOM      9  C   UNL     1     -12.546 -35.099  28.999  1.00  0.00     0.159 C 
ATOM     10  O   UNL     1     -13.556 -35.202  28.253  1.00  0.00    -0.295 OA
ATOM     11  C   UNL     1     -11.511 -34.064  28.670  1.00  0.00     0.084 C 
ENDROOT
TORSDOF 0
ENDMDL
