MODEL 1
REMARK VINA RESULT:    -2.671      0.000      0.000
REMARK INTER + INTRA:          -3.392
REMARK INTER:                  -3.295
REMARK INTRA:                  -0.097
REMARK UNBOUND:                -0.097
REMARK SMILES CCCCCC(=O)[O-]
REMARK SMILES IDX 4 1 5 2 6 3 7 4 8 5 3 6 2 7 1 8
REMARK H PARENT
REMARK Flexibility Score: inf
ROOT
ATOM      1  C   UNL     1      13.924  64.526  15.283  1.00  0.00     0.006 C 
ENDROOT
BRANCH   1   2
ATOM      2  C   UNL     1      13.030  63.363  14.835  1.00  0.00     0.053 C 
BRANCH   2   3
ATOM      3  C   UNL     1      13.020  63.257  13.343  1.00  0.00     0.041 C 
ATOM      4  O   UNL     1      12.964  64.296  12.634  1.00  0.00    -0.550 OA
ATOM      5  O   UNL     1      13.121  62.013  12.732  1.00  0.00    -0.550 OA
ENDBRANCH   2   3
ENDBRANCH   1   2
BRANCH   1   6
ATOM      6  C   UNL     1      13.503  65.117  16.640  1.00  0.00     0.000 C 
BRANCH   6   7
ATOM      7  C   UNL     1      14.395  64.711  17.826  1.00  0.00    -0.003 C 
ATOM      8  C   UNL     1      15.886  64.748  17.493  1.00  0.00     0.004 C 
ENDBRANCH   6   7
ENDBRANCH   1   6
TORSDOF 4
ENDMDL
MODEL 2
REMARK VINA RESULT:    -2.560     19.152     19.765
REMARK INTER + INTRA:          -3.255
REMARK INTER:                  -3.154
REMARK INTRA:                  -0.101
REMARK UNBOUND:                -0.097
REMARK SMILES CCCCCC(=O)[O-]
REMARK SMILES IDX 4 1 5 2 6 3 7 4 8 5 3 6 2 7 1 8
REMARK H PARENT
REMARK Flexibility Score: inf
ROOT
ATOM      1  C   UNL     1      33.038  63.382  18.962  1.00  0.00     0.006 C 
ENDROOT
BRANCH   1   2
ATOM      2  C   UNL     1      32.059  62.775  19.974  1.00  0.00     0.053 C 
BRANCH   2   3
ATOM      3  C   UNL     1      32.614  61.509  20.544  1.00  0.00     0.041 C 
ATOM      4  O   UNL     1      32.953  60.566  19.781  1.00  0.00    -0.550 OA
ATOM      5  O   UNL     1      32.804  61.387  21.915  1.00  0.00    -0.550 OA
ENDBRANCH   2   3
ENDBRANCH   1   2
BRANCH   1   6
ATOM      6  C   UNL     1      32.387  63.675  17.598  1.00  0.00     0.000 C 
BRANCH   6   7
ATOM      7  C   UNL     1      32.838  62.750  16.455  1.00  0.00    -0.003 C 
ATOM      8  C   UNL     1      32.215  63.117  15.108  1.00  0.00     0.004 C 
ENDBRANCH   6   7
ENDBRANCH   1   6
TORSDOF 4
ENDMDL
MODEL 3
REMARK VINA RESULT:    -2.559     14.675     16.139
REMARK INTER + INTRA:          -3.253
REMARK INTER:                  -3.141
REMARK INTRA:                  -0.112
REMARK UNBOUND:                -0.097
REMARK SMILES CCCCCC(=O)[O-]
REMARK SMILES IDX 4 1 5 2 6 3 7 4 8 5 3 6 2 7 1 8
REMARK H PARENT
REMARK Flexibility Score: inf
ROOT
ATOM      1  C   UNL     1      30.182  64.697  16.181  1.00  0.00     0.006 C 
ENDROOT
BRANCH   1   2
ATOM      2  C   UNL     1      29.019  65.697  16.217  1.00  0.00     0.053 C 
BRANCH   2   3
ATOM      3  C   UNL     1      27.779  65.037  16.730  1.00  0.00     0.041 C 
ATOM      4  O   UNL     1      26.867  64.694  15.932  1.00  0.00    -0.550 OA
ATOM      5  O   UNL     1      27.648  64.758  18.085  1.00  0.00    -0.550 OA
ENDBRANCH   2   3
ENDBRANCH   1   2
BRANCH   1   6
ATOM      6  C   UNL     1      30.231  63.881  14.877  1.00  0.00     0.000 C 
BRANCH   6   7
ATOM      7  C   UNL     1      31.560  63.150  14.622  1.00  0.00    -0.003 C 
ATOM      8  C   UNL     1      32.451  63.080  15.862  1.00  0.00     0.004 C 
ENDBRANCH   6   7
ENDBRANCH   1   6
TORSDOF 4
ENDMDL
MODEL 4
REMARK VINA RESULT:    -2.494      2.757      4.509
REMARK INTER + INTRA:          -3.173
REMARK INTER:                  -3.096
REMARK INTRA:                  -0.077
REMARK UNBOUND:                -0.097
REMARK SMILES CCCCCC(=O)[O-]
REMARK SMILES IDX 4 1 5 2 6 3 7 4 8 5 3 6 2 7 1 8
REMARK H PARENT
REMARK Flexibility Score: inf
ROOT
ATOM      1  C   UNL     1      13.610  64.338  14.871  1.00  0.00     0.006 C 
ENDROOT
BRANCH   1   2
ATOM      2  C   UNL     1      13.651  64.536  16.391  1.00  0.00     0.053 C 
BRANCH   2   3
ATOM      3  C   UNL     1      15.006  65.003  16.820  1.00  0.00     0.041 C 
ATOM      4  O   UNL     1      15.523  64.561  17.880  1.00  0.00    -0.550 OA
ATOM      5  O   UNL     1      15.720  65.892  16.026  1.00  0.00    -0.550 OA
ENDBRANCH   2   3
ENDBRANCH   1   2
BRANCH   1   6
ATOM      6  C   UNL     1      12.877  63.051  14.452  1.00  0.00     0.000 C 
BRANCH   6   7
ATOM      7  C   UNL     1      13.051  62.659  12.975  1.00  0.00    -0.003 C 
ATOM      8  C   UNL     1      13.896  63.660  12.187  1.00  0.00     0.004 C 
ENDBRANCH   6   7
ENDBRANCH   1   6
TORSDOF 4
ENDMDL
MODEL 5
REMARK VINA RESULT:    -2.489     17.846     19.051
REMARK INTER + INTRA:          -3.167
REMARK INTER:                  -3.089
REMARK INTRA:                  -0.079
REMARK UNBOUND:                -0.097
REMARK SMILES CCCCCC(=O)[O-]
REMARK SMILES IDX 4 1 5 2 6 3 7 4 8 5 3 6 2 7 1 8
REMARK H PARENT
REMARK Flexibility Score: inf
ROOT
ATOM      1  C   UNL     1      32.096  63.902  17.178  1.00  0.00     0.006 C 
ENDROOT
BRANCH   1   2
ATOM      2  C   UNL     1      32.880  64.020  18.491  1.00  0.00     0.053 C 
BRANCH   2   3
ATOM      3  C   UNL     1      32.007  63.665  19.653  1.00  0.00     0.041 C 
ATOM      4  O   UNL     1      31.974  62.482  20.084  1.00  0.00    -0.550 OA
ATOM      5  O   UNL     1      31.265  64.651  20.293  1.00  0.00    -0.550 OA
ENDBRANCH   2   3
ENDBRANCH   1   2
BRANCH   1   6
ATOM      6  C   UNL     1      32.761  62.953  16.165  1.00  0.00     0.000 C 
BRANCH   6   7
ATOM      7  C   UNL     1      32.385  63.211  14.695  1.00  0.00    -0.003 C 
ATOM      8  C   UNL     1      30.900  63.513  14.503  1.00  0.00     0.004 C 
ENDBRANCH   6   7
ENDBRANCH   1   6
TORSDOF 4
ENDMDL
MODEL 6
REMARK VINA RESULT:    -2.488      4.654      5.701
REMARK INTER + INTRA:          -3.166
REMARK INTER:                  -3.084
REMARK INTRA:                  -0.081
REMARK UNBOUND:                -0.097
REMARK SMILES CCCCCC(=O)[O-]
REMARK SMILES IDX 4 1 5 2 6 3 7 4 8 5 3 6 2 7 1 8
REMARK H PARENT
REMARK Flexibility Score: inf
ROOT
ATOM      1  C   UNL     1      17.416  66.058  15.221  1.00  0.00     0.006 C 
ENDROOT
BRANCH   1   2
ATOM      2  C   UNL     1      18.688  65.866  16.056  1.00  0.00     0.053 C 
BRANCH   2   3
ATOM      3  C   UNL     1      19.893  65.824  15.170  1.00  0.00     0.041 C 
ATOM      4  O   UNL     1      21.049  65.841  15.670  1.00  0.00    -0.550 OA
ATOM      5  O   UNL     1      19.741  65.716  13.793  1.00  0.00    -0.550 OA
ENDBRANCH   2   3
ENDBRANCH   1   2
BRANCH   1   6
ATOM      6  C   UNL     1      16.129  65.987  16.063  1.00  0.00     0.000 C 
BRANCH   6   7
ATOM      7  C   UNL     1      16.179  64.993  17.236  1.00  0.00    -0.003 C 
ATOM      8  C   UNL     1      14.793  64.577  17.726  1.00  0.00     0.004 C 
ENDBRANCH   6   7
ENDBRANCH   1   6
TORSDOF 4
ENDMDL
MODEL 7
REMARK VINA RESULT:    -2.402     17.374     18.539
REMARK INTER + INTRA:          -3.061
REMARK INTER:                  -2.886
REMARK INTRA:                  -0.175
REMARK UNBOUND:                -0.097
REMARK SMILES CCCCCC(=O)[O-]
REMARK SMILES IDX 4 1 5 2 6 3 7 4 8 5 3 6 2 7 1 8
REMARK H PARENT
REMARK Flexibility Score: inf
ROOT
ATOM      1  C   UNL     1      32.910  64.055  17.032  1.00  0.00     0.006 C 
ENDROOT
BRANCH   1   2
ATOM      2  C   UNL     1      32.292  63.850  18.420  1.00  0.00     0.053 C 
BRANCH   2   3
ATOM      3  C   UNL     1      31.109  64.747  18.603  1.00  0.00     0.041 C 
ATOM      4  O   UNL     1      30.695  65.023  19.760  1.00  0.00    -0.550 OA
ATOM      5  O   UNL     1      30.491  65.318  17.498  1.00  0.00    -0.550 OA
ENDBRANCH   2   3
ENDBRANCH   1   2
BRANCH   1   6
ATOM      6  C   UNL     1      32.705  62.848  16.099  1.00  0.00     0.000 C 
BRANCH   6   7
ATOM      7  C   UNL     1      32.341  63.207  14.648  1.00  0.00    -0.003 C 
ATOM      8  C   UNL     1      30.859  63.530  14.467  1.00  0.00     0.004 C 
ENDBRANCH   6   7
ENDBRANCH   1   6
TORSDOF 4
ENDMDL
MODEL 8
REMARK VINA RESULT:    -2.391     16.869     18.143
REMARK INTER + INTRA:          -3.047
REMARK INTER:                  -2.864
REMARK INTRA:                  -0.183
REMARK UNBOUND:                -0.097
REMARK SMILES CCCCCC(=O)[O-]
REMARK SMILES IDX 4 1 5 2 6 3 7 4 8 5 3 6 2 7 1 8
REMARK H PARENT
REMARK Flexibility Score: inf
ROOT
ATOM      1  C   UNL     1      32.515  64.395  17.444  1.00  0.00     0.006 C 
ENDROOT
BRANCH   1   2
ATOM      2  C   UNL     1      31.436  64.277  18.528  1.00  0.00     0.053 C 
BRANCH   2   3
ATOM      3  C   UNL     1      30.272  65.159  18.203  1.00  0.00     0.041 C 
ATOM      4  O   UNL     1      29.929  65.341  17.005  1.00  0.00    -0.550 OA
ATOM      5  O   UNL     1      29.534  65.742  19.225  1.00  0.00    -0.550 OA
ENDBRANCH   2   3
ENDBRANCH   1   2
BRANCH   1   6
ATOM      6  C   UNL     1      32.755  63.074  16.691  1.00  0.00     0.000 C 
BRANCH   6   7
ATOM      7  C   UNL     1      32.757  63.197  15.157  1.00  0.00    -0.003 C 
ATOM      8  C   UNL     1      31.352  63.260  14.561  1.00  0.00     0.004 C 
ENDBRANCH   6   7
ENDBRANCH   1   6
TORSDOF 4
ENDMDL
MODEL 9
REMARK VINA RESULT:    -2.383      1.975      2.964
REMARK INTER + INTRA:          -3.037
REMARK INTER:                  -2.970
REMARK INTRA:                  -0.067
REMARK UNBOUND:                -0.097
REMARK SMILES CCCCCC(=O)[O-]
REMARK SMILES IDX 4 1 5 2 6 3 7 4 8 5 3 6 2 7 1 8
REMARK H PARENT
REMARK Flexibility Score: inf
ROOT
ATOM      1  C   UNL     1      15.107  64.285  17.481  1.00  0.00     0.006 C 
ENDROOT
BRANCH   1   2
ATOM      2  C   UNL     1      13.927  65.201  17.135  1.00  0.00     0.053 C 
BRANCH   2   3
ATOM      3  C   UNL     1      13.428  64.910  15.755  1.00  0.00     0.041 C 
ATOM      4  O   UNL     1      13.071  65.852  14.998  1.00  0.00    -0.550 OA
ATOM      5  O   UNL     1      13.400  63.603  15.285  1.00  0.00    -0.550 OA
ENDBRANCH   2   3
ENDBRANCH   1   2
BRANCH   1   6
ATOM      6  C   UNL     1      16.452  65.031  17.527  1.00  0.00     0.000 C 
BRANCH   6   7
ATOM      7  C   UNL     1      16.839  65.746  16.221  1.00  0.00    -0.003 C 
ATOM      8  C   UNL     1      18.345  65.965  16.083  1.00  0.00     0.004 C 
ENDBRANCH   6   7
ENDBRANCH   1   6
TORSDOF 4
ENDMDL
