MODEL 1
REMARK VINA RESULT:    -3.387      0.000      0.000
REMARK INTER + INTRA:          -4.083
REMARK INTER:                  -3.981
REMARK INTRA:                  -0.102
REMARK UNBOUND:                -0.102
REMARK SMILES CCCCC(=O)[O-]
REMARK SMILES IDX 4 1 5 2 6 3 7 4 3 5 2 6 1 7
REMARK H PARENT
REMARK Flexibility Score: inf
ROOT
ATOM      1  C   UNL     1      60.481  29.560  10.380  1.00  0.00     0.053 C 
ENDROOT
BRANCH   1   2
ATOM      2  C   UNL     1      61.483  28.599   9.815  1.00  0.00     0.041 C 
ATOM      3  O   UNL     1      61.125  27.725   8.983  1.00  0.00    -0.550 OA
ATOM      4  O   UNL     1      62.819  28.690  10.186  1.00  0.00    -0.550 OA
ENDBRANCH   1   2
BRANCH   1   5
ATOM      5  C   UNL     1      60.575  29.653  11.910  1.00  0.00     0.006 C 
BRANCH   5   6
ATOM      6  C   UNL     1      60.322  28.321  12.639  1.00  0.00    -0.003 C 
ATOM      7  C   UNL     1      58.844  27.938  12.680  1.00  0.00     0.004 C 
ENDBRANCH   5   6
ENDBRANCH   1   5
TORSDOF 3
ENDMDL
MODEL 2
REMARK VINA RESULT:    -3.352     15.061     16.177
REMARK INTER + INTRA:          -4.042
REMARK INTER:                  -3.932
REMARK INTRA:                  -0.110
REMARK UNBOUND:                -0.102
REMARK SMILES CCCCC(=O)[O-]
REMARK SMILES IDX 4 1 5 2 6 3 7 4 3 5 2 6 1 7
REMARK H PARENT
REMARK Flexibility Score: inf
ROOT
ATOM      1  C   UNL     1      61.919  27.663  27.121  1.00  0.00     0.053 C 
ENDROOT
BRANCH   1   2
ATOM      2  C   UNL     1      61.557  28.894  27.896  1.00  0.00     0.041 C 
ATOM      3  O   UNL     1      62.178  29.971  27.702  1.00  0.00    -0.550 OA
ATOM      4  O   UNL     1      60.512  28.856  28.811  1.00  0.00    -0.550 OA
ENDBRANCH   1   2
BRANCH   1   5
ATOM      5  C   UNL     1      60.728  27.122  26.315  1.00  0.00     0.006 C 
BRANCH   5   6
ATOM      6  C   UNL     1      60.429  27.910  25.027  1.00  0.00    -0.003 C 
ATOM      7  C   UNL     1      61.693  28.305  24.266  1.00  0.00     0.004 C 
ENDBRANCH   5   6
ENDBRANCH   1   5
TORSDOF 3
ENDMDL
MODEL 3
REMARK VINA RESULT:    -3.307      1.296      1.795
REMARK INTER + INTRA:          -3.989
REMARK INTER:                  -3.898
REMARK INTRA:                  -0.091
REMARK UNBOUND:                -0.102
REMARK SMILES CCCCC(=O)[O-]
REMARK SMILES IDX 4 1 5 2 6 3 7 4 3 5 2 6 1 7
REMARK H PARENT
REMARK Flexibility Score: inf
ROOT
ATOM      1  C   UNL     1      62.215  29.656  10.918  1.00  0.00     0.053 C 
ENDROOT
BRANCH   1   2
ATOM      2  C   UNL     1      62.480  28.744   9.759  1.00  0.00     0.041 C 
ATOM      3  O   UNL     1      63.627  28.687   9.246  1.00  0.00    -0.550 OA
ATOM      4  O   UNL     1      61.465  27.933   9.267  1.00  0.00    -0.550 OA
ENDBRANCH   1   2
BRANCH   1   5
ATOM      5  C   UNL     1      62.505  28.974  12.263  1.00  0.00     0.006 C 
BRANCH   5   6
ATOM      6  C   UNL     1      61.306  28.950  13.229  1.00  0.00    -0.003 C 
ATOM      7  C   UNL     1      60.129  28.137  12.694  1.00  0.00     0.004 C 
ENDBRANCH   5   6
ENDBRANCH   1   5
TORSDOF 3
ENDMDL
MODEL 4
REMARK VINA RESULT:    -3.279     14.897     15.920
REMARK INTER + INTRA:          -3.956
REMARK INTER:                  -3.848
REMARK INTRA:                  -0.108
REMARK UNBOUND:                -0.102
REMARK SMILES CCCCC(=O)[O-]
REMARK SMILES IDX 4 1 5 2 6 3 7 4 3 5 2 6 1 7
REMARK H PARENT
REMARK Flexibility Score: inf
ROOT
ATOM      1  C   UNL     1      61.425  27.010  26.552  1.00  0.00     0.053 C 
ENDROOT
BRANCH   1   2
ATOM      2  C   UNL     1      60.376  27.211  25.501  1.00  0.00     0.041 C 
ATOM      3  O   UNL     1      60.487  28.146  24.665  1.00  0.00    -0.550 OA
ATOM      4  O   UNL     1      59.293  26.345  25.426  1.00  0.00    -0.550 OA
ENDBRANCH   1   2
BRANCH   1   5
ATOM      5  C   UNL     1      60.872  27.245  27.966  1.00  0.00     0.006 C 
BRANCH   5   6
ATOM      6  C   UNL     1      60.834  28.725  28.390  1.00  0.00    -0.003 C 
ATOM      7  C   UNL     1      62.089  29.492  27.978  1.00  0.00     0.004 C 
ENDBRANCH   5   6
ENDBRANCH   1   5
TORSDOF 3
ENDMDL
MODEL 5
REMARK VINA RESULT:    -3.228      2.532      3.507
REMARK INTER + INTRA:          -3.896
REMARK INTER:                  -3.792
REMARK INTRA:                  -0.104
REMARK UNBOUND:                -0.102
REMARK SMILES CCCCC(=O)[O-]
REMARK SMILES IDX 4 1 5 2 6 3 7 4 3 5 2 6 1 7
REMARK H PARENT
REMARK Flexibility Score: inf
ROOT
ATOM      1  C   UNL     1      60.874  29.361  13.000  1.00  0.00     0.053 C 
ENDROOT
BRANCH   1   2
ATOM      2  C   UNL     1      59.814  28.678  12.189  1.00  0.00     0.041 C 
ATOM      3  O   UNL     1      59.768  28.838  10.942  1.00  0.00    -0.550 OA
ATOM      4  O   UNL     1      58.896  27.841  12.811  1.00  0.00    -0.550 OA
ENDBRANCH   1   2
BRANCH   1   5
ATOM      5  C   UNL     1      62.206  28.597  12.960  1.00  0.00     0.006 C 
BRANCH   5   6
ATOM      6  C   UNL     1      63.355  29.370  12.286  1.00  0.00    -0.003 C 
ATOM      7  C   UNL     1      63.299  29.306  10.761  1.00  0.00     0.004 C 
ENDBRANCH   5   6
ENDBRANCH   1   5
TORSDOF 3
ENDMDL
MODEL 6
REMARK VINA RESULT:    -3.222      1.732      2.400
REMARK INTER + INTRA:          -3.889
REMARK INTER:                  -3.756
REMARK INTRA:                  -0.133
REMARK UNBOUND:                -0.102
REMARK SMILES CCCCC(=O)[O-]
REMARK SMILES IDX 4 1 5 2 6 3 7 4 3 5 2 6 1 7
REMARK H PARENT
REMARK Flexibility Score: inf
ROOT
ATOM      1  C   UNL     1      59.620  28.596  11.797  1.00  0.00     0.053 C 
ENDROOT
BRANCH   1   2
ATOM      2  C   UNL     1      60.339  28.965  10.535  1.00  0.00     0.041 C 
ATOM      3  O   UNL     1      60.077  30.048   9.949  1.00  0.00    -0.550 OA
ATOM      4  O   UNL     1      61.320  28.126  10.023  1.00  0.00    -0.550 OA
ENDBRANCH   1   2
BRANCH   1   5
ATOM      5  C   UNL     1      60.593  28.173  12.908  1.00  0.00     0.006 C 
BRANCH   5   6
ATOM      6  C   UNL     1      61.461  29.320  13.455  1.00  0.00    -0.003 C 
ATOM      7  C   UNL     1      62.949  29.129  13.167  1.00  0.00     0.004 C 
ENDBRANCH   5   6
ENDBRANCH   1   5
TORSDOF 3
ENDMDL
MODEL 7
REMARK VINA RESULT:    -3.206     14.109     14.887
REMARK INTER + INTRA:          -3.871
REMARK INTER:                  -3.849
REMARK INTRA:                  -0.022
REMARK UNBOUND:                -0.102
REMARK SMILES CCCCC(=O)[O-]
REMARK SMILES IDX 4 1 5 2 6 3 7 4 3 5 2 6 1 7
REMARK H PARENT
REMARK Flexibility Score: inf
ROOT
ATOM      1  C   UNL     1      62.289  27.244  24.803  1.00  0.00     0.053 C 
ENDROOT
BRANCH   1   2
ATOM      2  C   UNL     1      60.982  27.238  25.536  1.00  0.00     0.041 C 
ATOM      3  O   UNL     1      60.922  26.825  26.723  1.00  0.00    -0.550 OA
ATOM      4  O   UNL     1      59.835  27.718  24.916  1.00  0.00    -0.550 OA
ENDBRANCH   1   2
BRANCH   1   5
ATOM      5  C   UNL     1      63.323  26.322  25.467  1.00  0.00     0.006 C 
BRANCH   5   6
ATOM      6  C   UNL     1      64.769  26.554  24.994  1.00  0.00    -0.003 C 
ATOM      7  C   UNL     1      65.096  25.815  23.698  1.00  0.00     0.004 C 
ENDBRANCH   5   6
ENDBRANCH   1   5
TORSDOF 3
ENDMDL
MODEL 8
REMARK VINA RESULT:    -3.202     14.939     15.947
REMARK INTER + INTRA:          -3.866
REMARK INTER:                  -3.763
REMARK INTRA:                  -0.103
REMARK UNBOUND:                -0.102
REMARK SMILES CCCCC(=O)[O-]
REMARK SMILES IDX 4 1 5 2 6 3 7 4 3 5 2 6 1 7
REMARK H PARENT
REMARK Flexibility Score: inf
ROOT
ATOM      1  C   UNL     1      62.978  29.237  26.520  1.00  0.00     0.053 C 
ENDROOT
BRANCH   1   2
ATOM      2  C   UNL     1      62.278  29.718  27.755  1.00  0.00     0.041 C 
ATOM      3  O   UNL     1      62.713  30.718  28.382  1.00  0.00    -0.550 OA
ATOM      4  O   UNL     1      61.126  29.078  28.194  1.00  0.00    -0.550 OA
ENDBRANCH   1   2
BRANCH   1   5
ATOM      5  C   UNL     1      62.204  29.602  25.244  1.00  0.00     0.006 C 
BRANCH   5   6
ATOM      6  C   UNL     1      61.681  28.388  24.455  1.00  0.00    -0.003 C 
ATOM      7  C   UNL     1      60.316  27.907  24.943  1.00  0.00     0.004 C 
ENDBRANCH   5   6
ENDBRANCH   1   5
TORSDOF 3
ENDMDL
MODEL 9
REMARK VINA RESULT:    -3.132      2.116      3.322
REMARK INTER + INTRA:          -3.784
REMARK INTER:                  -3.649
REMARK INTRA:                  -0.135
REMARK UNBOUND:                -0.102
REMARK SMILES CCCCC(=O)[O-]
REMARK SMILES IDX 4 1 5 2 6 3 7 4 3 5 2 6 1 7
REMARK H PARENT
REMARK Flexibility Score: inf
ROOT
ATOM      1  C   UNL     1      60.327  29.864  11.173  1.00  0.00     0.053 C 
ENDROOT
BRANCH   1   2
ATOM      2  C   UNL     1      60.267  28.853  12.278  1.00  0.00     0.041 C 
ATOM      3  O   UNL     1      59.208  28.208  12.491  1.00  0.00    -0.550 OA
ATOM      4  O   UNL     1      61.393  28.603  13.052  1.00  0.00    -0.550 OA
ENDBRANCH   1   2
BRANCH   1   5
ATOM      5  C   UNL     1      60.259  29.204   9.787  1.00  0.00     0.006 C 
BRANCH   5   6
ATOM      6  C   UNL     1      61.384  28.189   9.517  1.00  0.00    -0.003 C 
ATOM      7  C   UNL     1      62.763  28.841   9.428  1.00  0.00     0.004 C 
ENDBRANCH   5   6
ENDBRANCH   1   5
TORSDOF 3
ENDMDL
