MODEL 1
REMARK VINA RESULT:    -3.411      0.000      0.000
REMARK INTER + INTRA:          -4.114
REMARK INTER:                  -4.009
REMARK INTRA:                  -0.105
REMARK UNBOUND:                -0.105
REMARK SMILES CCCCC(=O)[O-]
REMARK SMILES IDX 4 1 5 2 6 3 7 4 3 5 2 6 1 7
REMARK H PARENT
REMARK Flexibility Score: inf
ROOT
ATOM      1  C   UNL     1     -10.453  -3.504  -1.937  1.00  0.00     0.053 C 
ENDROOT
BRANCH   1   2
ATOM      2  C   UNL     1      -8.965  -3.616  -1.829  1.00  0.00     0.041 C 
ATOM      3  O   UNL     1      -8.432  -4.720  -1.539  1.00  0.00    -0.550 OA
ATOM      4  O   UNL     1      -8.168  -2.491  -2.001  1.00  0.00    -0.550 OA
ENDBRANCH   1   2
BRANCH   1   5
ATOM      5  C   UNL     1     -10.894  -3.607  -3.400  1.00  0.00     0.006 C 
BRANCH   5   6
ATOM      6  C   UNL     1     -11.125  -5.068  -3.802  1.00  0.00    -0.003 C 
ATOM      7  C   UNL     1     -10.138  -5.504  -4.882  1.00  0.00     0.004 C 
ENDBRANCH   5   6
ENDBRANCH   1   5
TORSDOF 3
ENDMDL
MODEL 2
REMARK VINA RESULT:    -3.402      0.113      1.229
REMARK INTER + INTRA:          -4.103
REMARK INTER:                  -3.989
REMARK INTRA:                  -0.114
REMARK UNBOUND:                -0.105
REMARK SMILES CCCCC(=O)[O-]
REMARK SMILES IDX 4 1 5 2 6 3 7 4 3 5 2 6 1 7
REMARK H PARENT
REMARK Flexibility Score: inf
ROOT
ATOM      1  C   UNL     1     -10.445  -3.387  -2.045  1.00  0.00     0.053 C 
ENDROOT
BRANCH   1   2
ATOM      2  C   UNL     1      -8.964  -3.528  -1.879  1.00  0.00     0.041 C 
ATOM      3  O   UNL     1      -8.209  -2.537  -2.060  1.00  0.00    -0.550 OA
ATOM      4  O   UNL     1      -8.414  -4.766  -1.571  1.00  0.00    -0.550 OA
ENDBRANCH   1   2
BRANCH   1   5
ATOM      5  C   UNL     1     -10.834  -3.523  -3.520  1.00  0.00     0.006 C 
BRANCH   5   6
ATOM      6  C   UNL     1     -11.124  -4.984  -3.879  1.00  0.00    -0.003 C 
ATOM      7  C   UNL     1     -10.086  -5.529  -4.856  1.00  0.00     0.004 C 
ENDBRANCH   5   6
ENDBRANCH   1   5
TORSDOF 3
ENDMDL
MODEL 3
REMARK VINA RESULT:    -3.168      2.636      3.726
REMARK INTER + INTRA:          -3.828
REMARK INTER:                  -3.807
REMARK INTRA:                  -0.021
REMARK UNBOUND:                -0.105
REMARK SMILES CCCCC(=O)[O-]
REMARK SMILES IDX 4 1 5 2 6 3 7 4 3 5 2 6 1 7
REMARK H PARENT
REMARK Flexibility Score: inf
ROOT
ATOM      1  C   UNL     1      -9.814  -4.426  -3.683  1.00  0.00     0.053 C 
ENDROOT
BRANCH   1   2
ATOM      2  C   UNL     1     -10.268  -5.461  -4.664  1.00  0.00     0.041 C 
ATOM      3  O   UNL     1     -10.776  -6.539  -4.258  1.00  0.00    -0.550 OA
ATOM      4  O   UNL     1     -10.087  -5.256  -6.026  1.00  0.00    -0.550 OA
ENDBRANCH   1   2
BRANCH   1   5
ATOM      5  C   UNL     1     -10.907  -4.157  -2.645  1.00  0.00     0.006 C 
BRANCH   5   6
ATOM      6  C   UNL     1     -10.332  -3.445  -1.415  1.00  0.00    -0.003 C 
ATOM      7  C   UNL     1     -11.111  -3.809  -0.153  1.00  0.00     0.004 C 
ENDBRANCH   5   6
ENDBRANCH   1   5
TORSDOF 3
ENDMDL
MODEL 4
REMARK VINA RESULT:    -2.997      1.097      1.748
REMARK INTER + INTRA:          -3.627
REMARK INTER:                  -3.593
REMARK INTRA:                  -0.034
REMARK UNBOUND:                -0.105
REMARK SMILES CCCCC(=O)[O-]
REMARK SMILES IDX 4 1 5 2 6 3 7 4 3 5 2 6 1 7
REMARK H PARENT
REMARK Flexibility Score: inf
ROOT
ATOM      1  C   UNL     1     -10.896  -4.384  -2.955  1.00  0.00     0.053 C 
ENDROOT
BRANCH   1   2
ATOM      2  C   UNL     1      -9.779  -3.784  -2.160  1.00  0.00     0.041 C 
ATOM      3  O   UNL     1      -9.761  -2.547  -1.926  1.00  0.00    -0.550 OA
ATOM      4  O   UNL     1      -8.733  -4.582  -1.717  1.00  0.00    -0.550 OA
ENDBRANCH   1   2
BRANCH   1   5
ATOM      5  C   UNL     1     -10.413  -4.758  -4.359  1.00  0.00     0.006 C 
BRANCH   5   6
ATOM      6  C   UNL     1     -10.810  -6.195  -4.712  1.00  0.00    -0.003 C 
ATOM      7  C   UNL     1      -9.729  -6.877  -5.547  1.00  0.00     0.004 C 
ENDBRANCH   5   6
ENDBRANCH   1   5
TORSDOF 3
ENDMDL
MODEL 5
REMARK VINA RESULT:    -2.773      3.472      4.376
REMARK INTER + INTRA:          -3.364
REMARK INTER:                  -3.330
REMARK INTRA:                  -0.034
REMARK UNBOUND:                -0.105
REMARK SMILES CCCCC(=O)[O-]
REMARK SMILES IDX 4 1 5 2 6 3 7 4 3 5 2 6 1 7
REMARK H PARENT
REMARK Flexibility Score: inf
ROOT
ATOM      1  C   UNL     1      -8.557  -6.001  -5.185  1.00  0.00     0.053 C 
ENDROOT
BRANCH   1   2
ATOM      2  C   UNL     1      -7.395  -6.568  -5.938  1.00  0.00     0.041 C 
ATOM      3  O   UNL     1      -6.727  -7.518  -5.451  1.00  0.00    -0.550 OA
ATOM      4  O   UNL     1      -7.017  -6.015  -7.155  1.00  0.00    -0.550 OA
ENDBRANCH   1   2
BRANCH   1   5
ATOM      5  C   UNL     1      -9.829  -6.800  -5.483  1.00  0.00     0.006 C 
BRANCH   5   6
ATOM      6  C   UNL     1     -11.027  -6.230  -4.715  1.00  0.00    -0.003 C 
ATOM      7  C   UNL     1     -10.634  -4.982  -3.928  1.00  0.00     0.004 C 
ENDBRANCH   5   6
ENDBRANCH   1   5
TORSDOF 3
ENDMDL
MODEL 6
REMARK VINA RESULT:    -2.765      4.486      5.661
REMARK INTER + INTRA:          -3.355
REMARK INTER:                  -3.335
REMARK INTRA:                  -0.019
REMARK UNBOUND:                -0.105
REMARK SMILES CCCCC(=O)[O-]
REMARK SMILES IDX 4 1 5 2 6 3 7 4 3 5 2 6 1 7
REMARK H PARENT
REMARK Flexibility Score: inf
ROOT
ATOM      1  C   UNL     1      -8.082  -6.314  -7.072  1.00  0.00     0.053 C 
ENDROOT
BRANCH   1   2
ATOM      2  C   UNL     1      -7.598  -6.642  -5.695  1.00  0.00     0.041 C 
ATOM      3  O   UNL     1      -6.673  -7.479  -5.531  1.00  0.00    -0.550 OA
ATOM      4  O   UNL     1      -8.203  -6.059  -4.588  1.00  0.00    -0.550 OA
ENDBRANCH   1   2
BRANCH   1   5
ATOM      5  C   UNL     1      -7.006  -5.553  -7.851  1.00  0.00     0.006 C 
BRANCH   5   6
ATOM      6  C   UNL     1      -7.299  -5.573  -9.355  1.00  0.00    -0.003 C 
ATOM      7  C   UNL     1      -8.302  -4.486  -9.735  1.00  0.00     0.004 C 
ENDBRANCH   5   6
ENDBRANCH   1   5
TORSDOF 3
ENDMDL
MODEL 7
REMARK VINA RESULT:    -2.743      2.047      3.083
REMARK INTER + INTRA:          -3.330
REMARK INTER:                  -3.247
REMARK INTRA:                  -0.082
REMARK UNBOUND:                -0.105
REMARK SMILES CCCCC(=O)[O-]
REMARK SMILES IDX 4 1 5 2 6 3 7 4 3 5 2 6 1 7
REMARK H PARENT
REMARK Flexibility Score: inf
ROOT
ATOM      1  C   UNL     1     -10.584  -4.967  -5.236  1.00  0.00     0.053 C 
ENDROOT
BRANCH   1   2
ATOM      2  C   UNL     1     -10.151  -4.212  -4.018  1.00  0.00     0.041 C 
ATOM      3  O   UNL     1      -9.631  -4.822  -3.047  1.00  0.00    -0.550 OA
ATOM      4  O   UNL     1     -10.366  -2.842  -3.935  1.00  0.00    -0.550 OA
ENDBRANCH   1   2
BRANCH   1   5
ATOM      5  C   UNL     1      -9.970  -6.370  -5.243  1.00  0.00     0.006 C 
BRANCH   5   6
ATOM      6  C   UNL     1      -8.690  -6.405  -6.085  1.00  0.00    -0.003 C 
ATOM      7  C   UNL     1      -7.616  -7.262  -5.419  1.00  0.00     0.004 C 
ENDBRANCH   5   6
ENDBRANCH   1   5
TORSDOF 3
ENDMDL
MODEL 8
REMARK VINA RESULT:    -2.678      4.299      4.785
REMARK INTER + INTRA:          -3.253
REMARK INTER:                  -3.158
REMARK INTRA:                  -0.094
REMARK UNBOUND:                -0.105
REMARK SMILES CCCCC(=O)[O-]
REMARK SMILES IDX 4 1 5 2 6 3 7 4 3 5 2 6 1 7
REMARK H PARENT
REMARK Flexibility Score: inf
ROOT
ATOM      1  C   UNL     1      -8.714  -6.129  -5.385  1.00  0.00     0.053 C 
ENDROOT
BRANCH   1   2
ATOM      2  C   UNL     1      -7.441  -6.581  -6.030  1.00  0.00     0.041 C 
ATOM      3  O   UNL     1      -7.078  -6.086  -7.130  1.00  0.00    -0.550 OA
ATOM      4  O   UNL     1      -6.680  -7.583  -5.442  1.00  0.00    -0.550 OA
ENDBRANCH   1   2
BRANCH   1   5
ATOM      5  C   UNL     1      -9.900  -6.351  -6.327  1.00  0.00     0.006 C 
BRANCH   5   6
ATOM      6  C   UNL     1     -10.700  -5.057  -6.516  1.00  0.00    -0.003 C 
ATOM      7  C   UNL     1     -10.391  -4.411  -7.864  1.00  0.00     0.004 C 
ENDBRANCH   5   6
ENDBRANCH   1   5
TORSDOF 3
ENDMDL
MODEL 9
REMARK VINA RESULT:    -2.564     18.346     19.595
REMARK INTER + INTRA:          -3.119
REMARK INTER:                  -3.051
REMARK INTRA:                  -0.068
REMARK UNBOUND:                -0.105
REMARK SMILES CCCCC(=O)[O-]
REMARK SMILES IDX 4 1 5 2 6 3 7 4 3 5 2 6 1 7
REMARK H PARENT
REMARK Flexibility Score: inf
ROOT
ATOM      1  C   UNL     1      -0.573   7.920   9.927  1.00  0.00     0.053 C 
ENDROOT
BRANCH   1   2
ATOM      2  C   UNL     1      -1.061   6.540   9.619  1.00  0.00     0.041 C 
ATOM      3  O   UNL     1      -0.262   5.567   9.638  1.00  0.00    -0.550 OA
ATOM      4  O   UNL     1      -2.388   6.334   9.264  1.00  0.00    -0.550 OA
ENDBRANCH   1   2
BRANCH   1   5
ATOM      5  C   UNL     1       0.955   7.939  10.028  1.00  0.00     0.006 C 
BRANCH   5   6
ATOM      6  C   UNL     1       1.545   9.083   9.197  1.00  0.00    -0.003 C 
ATOM      7  C   UNL     1       1.819   8.637   7.763  1.00  0.00     0.004 C 
ENDBRANCH   5   6
ENDBRANCH   1   5
TORSDOF 3
ENDMDL
