MODEL 1
REMARK VINA RESULT:    -8.019      0.000      0.000
REMARK INTER + INTRA:         -11.331
REMARK INTER:                 -10.129
REMARK INTRA:                  -1.202
REMARK UNBOUND:                -1.202
REMARK SMILES CC(C)[C@H](C)C=C[C@@H](C)[C@H]1CC[C@H]2C3=CC=C4C[C@@H](O)CC[C@]4(C)[C@@H]3CC[C@@]12C
REMARK SMILES IDX 8 1 9 2 7 3 6 4 4 5 5 6 2 7 1 8 3 9 10 10 11 11 28 12 12 13
REMARK SMILES IDX 13 14 27 15 29 16 14 17 26 18 25 19 15 20 23 21 16 22 17 23
REMARK SMILES IDX 22 24 24 25 18 26 21 27 19 28 20 29
REMARK H PARENT 20 30
REMARK Flexibility Score: inf
ROOT
ATOM      1  C   UNL     1      20.326 -33.050  22.776  1.00  0.00     0.012 C 
ATOM      2  C   UNL     1      21.689 -33.768  22.805  1.00  0.00     0.012 C 
ENDROOT
BRANCH   1   3
ATOM      3  C   UNL     1      20.012 -32.569  24.180  1.00  0.00    -0.028 C 
ATOM      4  C   UNL     1      20.672 -31.544  24.758  1.00  0.00    -0.028 C 
BRANCH   4   5
ATOM      5  C   UNL     1      20.260 -30.957  26.100  1.00  0.00     0.011 C 
ATOM      6  C   UNL     1      18.736 -31.107  26.347  1.00  0.00     0.012 C 
BRANCH   5   7
ATOM      7  C   UNL     1      21.128 -31.565  27.251  1.00  0.00    -0.011 C 
ATOM      8  C   UNL     1      22.624 -31.669  26.883  1.00  0.00     0.008 C 
ATOM      9  C   UNL     1      20.955 -30.824  28.592  1.00  0.00     0.008 C 
ENDBRANCH   5   7
ENDBRANCH   4   5
ENDBRANCH   1   3
BRANCH   1  10
ATOM     10  C   UNL     1      19.182 -33.941  22.192  1.00  0.00     0.002 C 
ATOM     11  C   UNL     1      18.342 -34.608  23.284  1.00  0.00     0.005 C 
ATOM     12  C   UNL     1      18.139 -33.278  21.223  1.00  0.00    -0.023 C 
ATOM     13  C   UNL     1      17.088 -35.085  22.592  1.00  0.00     0.009 C 
ATOM     14  C   UNL     1      16.825 -34.118  21.433  1.00  0.00     0.021 C 
ATOM     15  C   UNL     1      17.867 -31.753  21.476  1.00  0.00     0.008 C 
ATOM     16  C   UNL     1      18.609 -33.439  19.755  1.00  0.00     0.012 C 
ATOM     17  C   UNL     1      15.617 -33.246  21.714  1.00  0.00    -0.063 C 
ATOM     18  C   UNL     1      17.058 -31.442  22.751  1.00  0.00     0.009 C 
ATOM     19  C   UNL     1      15.720 -32.248  22.863  1.00  0.00     0.025 C 
ATOM     20  C   UNL     1      14.599 -33.234  20.846  1.00  0.00    -0.000 C 
ATOM     21  C   UNL     1      14.345 -31.476  23.163  1.00  0.00    -0.005 C 
ATOM     22  C   UNL     1      13.514 -32.264  20.942  1.00  0.00    -0.000 C 
ATOM     23  C   UNL     1      13.418 -31.387  21.943  1.00  0.00    -0.061 C 
ATOM     24  C   UNL     1      14.573 -30.027  23.700  1.00  0.00     0.014 C 
ATOM     25  C   UNL     1      13.589 -32.297  24.246  1.00  0.00     0.017 C 
ATOM     26  C   UNL     1      12.191 -30.485  21.993  1.00  0.00     0.063 C 
ATOM     27  C   UNL     1      13.272 -29.238  23.912  1.00  0.00     0.033 C 
ATOM     28  C   UNL     1      12.516 -29.106  22.579  1.00  0.00     0.118 C 
BRANCH  28  29
ATOM     29  O   UNL     1      11.337 -28.379  22.790  1.00  0.00    -0.393 OA
ATOM     30  H   UNL     1      11.587 -27.574  23.319  1.00  0.00     0.210 HD
ENDBRANCH  28  29
ENDBRANCH   1  10
TORSDOF 5
ENDMDL
MODEL 2
REMARK VINA RESULT:    -7.930      2.247      2.999
REMARK INTER + INTRA:         -11.218
REMARK INTER:                 -11.026
REMARK INTRA:                  -0.192
REMARK UNBOUND:                -1.202
REMARK SMILES CC(C)[C@H](C)C=C[C@@H](C)[C@H]1CC[C@H]2C3=CC=C4C[C@@H](O)CC[C@]4(C)[C@@H]3CC[C@@]12C
REMARK SMILES IDX 8 1 9 2 7 3 6 4 4 5 5 6 2 7 1 8 3 9 10 10 11 11 28 12 12 13
REMARK SMILES IDX 13 14 27 15 29 16 14 17 26 18 25 19 15 20 23 21 16 22 17 23
REMARK SMILES IDX 22 24 24 25 18 26 21 27 19 28 20 29
REMARK H PARENT 20 30
REMARK Flexibility Score: inf
ROOT
ATOM      1  C   UNL     1      20.217 -32.270  22.375  1.00  0.00     0.012 C 
ATOM      2  C   UNL     1      20.044 -31.867  23.852  1.00  0.00     0.012 C 
ENDROOT
BRANCH   1   3
ATOM      3  C   UNL     1      20.250 -31.005  21.538  1.00  0.00    -0.028 C 
ATOM      4  C   UNL     1      20.859 -29.876  21.957  1.00  0.00    -0.028 C 
BRANCH   4   5
ATOM      5  C   UNL     1      21.031 -28.657  21.063  1.00  0.00     0.011 C 
ATOM      6  C   UNL     1      19.666 -28.003  20.719  1.00  0.00     0.012 C 
BRANCH   5   7
ATOM      7  C   UNL     1      22.045 -27.652  21.700  1.00  0.00    -0.011 C 
ATOM      8  C   UNL     1      22.675 -28.182  23.007  1.00  0.00     0.008 C 
ATOM      9  C   UNL     1      23.146 -27.202  20.717  1.00  0.00     0.008 C 
ENDBRANCH   5   7
ENDBRANCH   4   5
ENDBRANCH   1   3
BRANCH   1  10
ATOM     10  C   UNL     1      19.117 -33.268  21.885  1.00  0.00     0.002 C 
ATOM     11  C   UNL     1      18.406 -33.972  23.043  1.00  0.00     0.005 C 
ATOM     12  C   UNL     1      17.963 -32.719  20.972  1.00  0.00    -0.023 C 
ATOM     13  C   UNL     1      17.156 -34.569  22.444  1.00  0.00     0.009 C 
ATOM     14  C   UNL     1      16.740 -33.658  21.285  1.00  0.00     0.021 C 
ATOM     15  C   UNL     1      17.580 -31.214  21.210  1.00  0.00     0.008 C 
ATOM     16  C   UNL     1      18.352 -32.879  19.480  1.00  0.00     0.012 C 
ATOM     17  C   UNL     1      15.483 -32.882  21.625  1.00  0.00    -0.063 C 
ATOM     18  C   UNL     1      16.830 -30.938  22.528  1.00  0.00     0.009 C 
ATOM     19  C   UNL     1      15.574 -31.848  22.744  1.00  0.00     0.025 C 
ATOM     20  C   UNL     1      14.415 -32.976  20.825  1.00  0.00    -0.000 C 
ATOM     21  C   UNL     1      14.161 -31.185  23.116  1.00  0.00    -0.005 C 
ATOM     22  C   UNL     1      13.261 -32.097  20.970  1.00  0.00    -0.000 C 
ATOM     23  C   UNL     1      13.155 -31.205  21.957  1.00  0.00    -0.061 C 
ATOM     24  C   UNL     1      14.299 -29.708  23.606  1.00  0.00     0.014 C 
ATOM     25  C   UNL     1      13.546 -32.037  24.263  1.00  0.00     0.017 C 
ATOM     26  C   UNL     1      11.861 -30.406  22.067  1.00  0.00     0.063 C 
ATOM     27  C   UNL     1      12.953 -29.023  23.885  1.00  0.00     0.033 C 
ATOM     28  C   UNL     1      12.106 -28.990  22.602  1.00  0.00     0.118 C 
BRANCH  28  29
ATOM     29  O   UNL     1      10.886 -28.357  22.874  1.00  0.00    -0.393 OA
ATOM     30  H   UNL     1      11.100 -27.425  23.150  1.00  0.00     0.210 HD
ENDBRANCH  28  29
ENDBRANCH   1  10
TORSDOF 5
ENDMDL
MODEL 3
REMARK VINA RESULT:    -7.843      2.645      7.102
REMARK INTER + INTRA:         -11.109
REMARK INTER:                  -9.788
REMARK INTRA:                  -1.321
REMARK UNBOUND:                -1.202
REMARK SMILES CC(C)[C@H](C)C=C[C@@H](C)[C@H]1CC[C@H]2C3=CC=C4C[C@@H](O)CC[C@]4(C)[C@@H]3CC[C@@]12C
REMARK SMILES IDX 8 1 9 2 7 3 6 4 4 5 5 6 2 7 1 8 3 9 10 10 11 11 28 12 12 13
REMARK SMILES IDX 13 14 27 15 29 16 14 17 26 18 25 19 15 20 23 21 16 22 17 23
REMARK SMILES IDX 22 24 24 25 18 26 21 27 19 28 20 29
REMARK H PARENT 20 30
REMARK Flexibility Score: inf
ROOT
ATOM      1  C   UNL     1      15.322 -32.699  21.750  1.00  0.00     0.012 C 
ATOM      2  C   UNL     1      14.260 -33.185  20.746  1.00  0.00     0.012 C 
ENDROOT
BRANCH   1   3
ATOM      3  C   UNL     1      15.211 -31.191  21.867  1.00  0.00    -0.028 C 
ATOM      4  C   UNL     1      14.533 -30.590  22.866  1.00  0.00    -0.028 C 
BRANCH   4   5
ATOM      5  C   UNL     1      14.547 -29.084  23.077  1.00  0.00     0.011 C 
ATOM      6  C   UNL     1      15.373 -28.360  21.981  1.00  0.00     0.012 C 
BRANCH   5   7
ATOM      7  C   UNL     1      13.087 -28.536  23.203  1.00  0.00    -0.011 C 
ATOM      8  C   UNL     1      12.022 -29.555  22.740  1.00  0.00     0.008 C 
ATOM      9  C   UNL     1      12.757 -28.018  24.617  1.00  0.00     0.008 C 
ENDBRANCH   5   7
ENDBRANCH   4   5
ENDBRANCH   1   3
BRANCH   1  10
ATOM     10  C   UNL     1      16.770 -33.153  21.371  1.00  0.00     0.002 C 
ATOM     11  C   UNL     1      17.648 -31.988  20.907  1.00  0.00     0.005 C 
ATOM     12  C   UNL     1      17.625 -33.903  22.454  1.00  0.00    -0.023 C 
ATOM     13  C   UNL     1      19.064 -32.505  20.965  1.00  0.00     0.009 C 
ATOM     14  C   UNL     1      19.113 -33.544  22.090  1.00  0.00     0.021 C 
ATOM     15  C   UNL     1      17.311 -33.513  23.942  1.00  0.00     0.008 C 
ATOM     16  C   UNL     1      17.428 -35.434  22.312  1.00  0.00     0.012 C 
ATOM     17  C   UNL     1      19.894 -33.023  23.280  1.00  0.00    -0.063 C 
ATOM     18  C   UNL     1      17.794 -32.110  24.360  1.00  0.00     0.009 C 
ATOM     19  C   UNL     1      19.305 -31.842  24.047  1.00  0.00     0.025 C 
ATOM     20  C   UNL     1      20.942 -33.718  23.735  1.00  0.00    -0.000 C 
ATOM     21  C   UNL     1      20.272 -31.282  25.198  1.00  0.00    -0.005 C 
ATOM     22  C   UNL     1      21.597 -33.392  24.997  1.00  0.00    -0.000 C 
ATOM     23  C   UNL     1      21.253 -32.334  25.734  1.00  0.00    -0.061 C 
ATOM     24  C   UNL     1      19.486 -30.696  26.413  1.00  0.00     0.014 C 
ATOM     25  C   UNL     1      21.127 -30.149  24.563  1.00  0.00     0.017 C 
ATOM     26  C   UNL     1      22.070 -32.036  26.986  1.00  0.00     0.063 C 
ATOM     27  C   UNL     1      20.389 -30.233  27.567  1.00  0.00     0.033 C 
ATOM     28  C   UNL     1      21.210 -31.420  28.097  1.00  0.00     0.118 C 
BRANCH  28  29
ATOM     29  O   UNL     1      22.023 -30.981  29.151  1.00  0.00    -0.393 OA
ATOM     30  H   UNL     1      22.652 -30.311  28.769  1.00  0.00     0.210 HD
ENDBRANCH  28  29
ENDBRANCH   1  10
TORSDOF 5
ENDMDL
MODEL 4
REMARK VINA RESULT:    -7.686      2.358      4.093
REMARK INTER + INTRA:         -10.910
REMARK INTER:                  -9.746
REMARK INTRA:                  -1.164
REMARK UNBOUND:                -1.202
REMARK SMILES CC(C)[C@H](C)C=C[C@@H](C)[C@H]1CC[C@H]2C3=CC=C4C[C@@H](O)CC[C@]4(C)[C@@H]3CC[C@@]12C
REMARK SMILES IDX 8 1 9 2 7 3 6 4 4 5 5 6 2 7 1 8 3 9 10 10 11 11 28 12 12 13
REMARK SMILES IDX 13 14 27 15 29 16 14 17 26 18 25 19 15 20 23 21 16 22 17 23
REMARK SMILES IDX 22 24 24 25 18 26 21 27 19 28 20 29
REMARK H PARENT 20 30
REMARK Flexibility Score: inf
ROOT
ATOM      1  C   UNL     1      20.519 -33.992  24.811  1.00  0.00     0.012 C 
ATOM      2  C   UNL     1      21.931 -34.141  25.410  1.00  0.00     0.012 C 
ENDROOT
BRANCH   1   3
ATOM      3  C   UNL     1      19.931 -35.378  24.627  1.00  0.00    -0.028 C 
ATOM      4  C   UNL     1      18.998 -35.884  25.459  1.00  0.00    -0.028 C 
BRANCH   4   5
ATOM      5  C   UNL     1      18.293 -37.206  25.193  1.00  0.00     0.011 C 
ATOM      6  C   UNL     1      19.109 -38.105  24.227  1.00  0.00     0.012 C 
BRANCH   5   7
ATOM      7  C   UNL     1      17.943 -37.919  26.540  1.00  0.00    -0.011 C 
ATOM      8  C   UNL     1      18.822 -37.443  27.718  1.00  0.00     0.008 C 
ATOM      9  C   UNL     1      16.449 -37.811  26.909  1.00  0.00     0.008 C 
ENDBRANCH   5   7
ENDBRANCH   4   5
ENDBRANCH   1   3
BRANCH   1  10
ATOM     10  C   UNL     1      20.508 -33.169  23.481  1.00  0.00     0.002 C 
ATOM     11  C   UNL     1      19.715 -33.861  22.369  1.00  0.00     0.005 C 
ATOM     12  C   UNL     1      19.959 -31.698  23.518  1.00  0.00    -0.023 C 
ATOM     13  C   UNL     1      19.471 -32.797  21.328  1.00  0.00     0.009 C 
ATOM     14  C   UNL     1      19.393 -31.458  22.070  1.00  0.00     0.021 C 
ATOM     15  C   UNL     1      18.851 -31.423  24.597  1.00  0.00     0.008 C 
ATOM     16  C   UNL     1      21.124 -30.708  23.772  1.00  0.00     0.012 C 
ATOM     17  C   UNL     1      17.974 -30.923  22.081  1.00  0.00    -0.063 C 
ATOM     18  C   UNL     1      17.478 -32.054  24.291  1.00  0.00     0.009 C 
ATOM     19  C   UNL     1      16.929 -31.712  22.864  1.00  0.00     0.025 C 
ATOM     20  C   UNL     1      17.727 -29.704  21.588  1.00  0.00    -0.000 C 
ATOM     21  C   UNL     1      15.440 -31.139  22.698  1.00  0.00    -0.005 C 
ATOM     22  C   UNL     1      16.438 -29.046  21.765  1.00  0.00    -0.000 C 
ATOM     23  C   UNL     1      15.398 -29.645  22.349  1.00  0.00    -0.061 C 
ATOM     24  C   UNL     1      14.564 -31.359  23.972  1.00  0.00     0.014 C 
ATOM     25  C   UNL     1      14.790 -31.900  21.507  1.00  0.00     0.017 C 
ATOM     26  C   UNL     1      14.071 -28.897  22.393  1.00  0.00     0.063 C 
ATOM     27  C   UNL     1      13.161 -30.741  23.870  1.00  0.00     0.033 C 
ATOM     28  C   UNL     1      13.272 -29.222  23.662  1.00  0.00     0.118 C 
BRANCH  28  29
ATOM     29  O   UNL     1      11.984 -28.675  23.576  1.00  0.00    -0.393 OA
ATOM     30  H   UNL     1      11.351 -29.440  23.507  1.00  0.00     0.210 HD
ENDBRANCH  28  29
ENDBRANCH   1  10
TORSDOF 5
ENDMDL
MODEL 5
REMARK VINA RESULT:    -7.481      2.996      7.820
REMARK INTER + INTRA:         -10.651
REMARK INTER:                  -9.883
REMARK INTRA:                  -0.768
REMARK UNBOUND:                -1.202
REMARK SMILES CC(C)[C@H](C)C=C[C@@H](C)[C@H]1CC[C@H]2C3=CC=C4C[C@@H](O)CC[C@]4(C)[C@@H]3CC[C@@]12C
REMARK SMILES IDX 8 1 9 2 7 3 6 4 4 5 5 6 2 7 1 8 3 9 10 10 11 11 28 12 12 13
REMARK SMILES IDX 13 14 27 15 29 16 14 17 26 18 25 19 15 20 23 21 16 22 17 23
REMARK SMILES IDX 22 24 24 25 18 26 21 27 19 28 20 29
REMARK H PARENT 20 30
REMARK Flexibility Score: inf
ROOT
ATOM      1  C   UNL     1      15.162 -32.105  23.563  1.00  0.00     0.012 C 
ATOM      2  C   UNL     1      14.227 -33.110  24.261  1.00  0.00     0.012 C 
ENDROOT
BRANCH   1   3
ATOM      3  C   UNL     1      14.306 -31.089  22.830  1.00  0.00    -0.028 C 
ATOM      4  C   UNL     1      13.008 -30.885  23.132  1.00  0.00    -0.028 C 
BRANCH   4   5
ATOM      5  C   UNL     1      12.187 -29.765  22.510  1.00  0.00     0.011 C 
ATOM      6  C   UNL     1      11.055 -30.320  21.606  1.00  0.00     0.012 C 
BRANCH   5   7
ATOM      7  C   UNL     1      11.664 -28.792  23.616  1.00  0.00    -0.011 C 
ATOM      8  C   UNL     1      12.783 -28.300  24.561  1.00  0.00     0.008 C 
ATOM      9  C   UNL     1      10.879 -27.594  23.044  1.00  0.00     0.008 C 
ENDBRANCH   5   7
ENDBRANCH   4   5
ENDBRANCH   1   3
BRANCH   1  10
ATOM     10  C   UNL     1      16.196 -32.795  22.613  1.00  0.00     0.002 C 
ATOM     11  C   UNL     1      16.814 -31.818  21.610  1.00  0.00     0.005 C 
ATOM     12  C   UNL     1      17.416 -33.545  23.257  1.00  0.00    -0.023 C 
ATOM     13  C   UNL     1      18.032 -32.521  21.062  1.00  0.00     0.009 C 
ATOM     14  C   UNL     1      18.552 -33.439  22.174  1.00  0.00     0.021 C 
ATOM     15  C   UNL     1      17.907 -32.968  24.632  1.00  0.00     0.008 C 
ATOM     16  C   UNL     1      17.062 -35.039  23.469  1.00  0.00     0.012 C 
ATOM     17  C   UNL     1      19.855 -32.916  22.747  1.00  0.00    -0.063 C 
ATOM     18  C   UNL     1      18.636 -31.612  24.542  1.00  0.00     0.009 C 
ATOM     19  C   UNL     1      19.811 -31.593  23.506  1.00  0.00     0.025 C 
ATOM     20  C   UNL     1      20.937 -33.704  22.747  1.00  0.00    -0.000 C 
ATOM     21  C   UNL     1      21.259 -31.064  23.950  1.00  0.00    -0.005 C 
ATOM     22  C   UNL     1      22.150 -33.349  23.473  1.00  0.00    -0.000 C 
ATOM     23  C   UNL     1      22.295 -32.185  24.108  1.00  0.00    -0.061 C 
ATOM     24  C   UNL     1      21.221 -30.253  25.284  1.00  0.00     0.014 C 
ATOM     25  C   UNL     1      21.770 -30.133  22.814  1.00  0.00     0.017 C 
ATOM     26  C   UNL     1      23.643 -31.880  24.752  1.00  0.00     0.063 C 
ATOM     27  C   UNL     1      22.607 -29.809  25.775  1.00  0.00     0.033 C 
ATOM     28  C   UNL     1      23.492 -31.041  26.027  1.00  0.00     0.118 C 
BRANCH  28  29
ATOM     29  O   UNL     1      24.750 -30.618  26.480  1.00  0.00    -0.393 OA
ATOM     30  H   UNL     1      25.365 -30.662  25.699  1.00  0.00     0.210 HD
ENDBRANCH  28  29
ENDBRANCH   1  10
TORSDOF 5
ENDMDL
MODEL 6
REMARK VINA RESULT:    -7.384      2.706      4.372
REMARK INTER + INTRA:         -10.529
REMARK INTER:                  -9.029
REMARK INTRA:                  -1.499
REMARK UNBOUND:                -1.202
REMARK SMILES CC(C)[C@H](C)C=C[C@@H](C)[C@H]1CC[C@H]2C3=CC=C4C[C@@H](O)CC[C@]4(C)[C@@H]3CC[C@@]12C
REMARK SMILES IDX 8 1 9 2 7 3 6 4 4 5 5 6 2 7 1 8 3 9 10 10 11 11 28 12 12 13
REMARK SMILES IDX 13 14 27 15 29 16 14 17 26 18 25 19 15 20 23 21 16 22 17 23
REMARK SMILES IDX 22 24 24 25 18 26 21 27 19 28 20 29
REMARK H PARENT 20 30
REMARK Flexibility Score: inf
ROOT
ATOM      1  C   UNL     1      22.037 -31.675  23.033  1.00  0.00     0.012 C 
ATOM      2  C   UNL     1      23.482 -32.195  23.150  1.00  0.00     0.012 C 
ENDROOT
BRANCH   1   3
ATOM      3  C   UNL     1      22.084 -30.163  22.912  1.00  0.00    -0.028 C 
ATOM      4  C   UNL     1      21.576 -29.506  21.849  1.00  0.00    -0.028 C 
BRANCH   4   5
ATOM      5  C   UNL     1      21.481 -27.989  21.792  1.00  0.00     0.011 C 
ATOM      6  C   UNL     1      22.877 -27.334  21.619  1.00  0.00     0.012 C 
BRANCH   5   7
ATOM      7  C   UNL     1      20.460 -27.547  20.693  1.00  0.00    -0.011 C 
ATOM      8  C   UNL     1      19.112 -28.295  20.791  1.00  0.00     0.008 C 
ATOM      9  C   UNL     1      20.226 -26.023  20.665  1.00  0.00     0.008 C 
ENDBRANCH   5   7
ENDBRANCH   4   5
ENDBRANCH   1   3
BRANCH   1  10
ATOM     10  C   UNL     1      21.126 -32.140  24.216  1.00  0.00     0.002 C 
ATOM     11  C   UNL     1      20.518 -30.965  24.986  1.00  0.00     0.005 C 
ATOM     12  C   UNL     1      19.916 -33.089  23.899  1.00  0.00    -0.023 C 
ATOM     13  C   UNL     1      19.395 -31.557  25.802  1.00  0.00     0.009 C 
ATOM     14  C   UNL     1      18.858 -32.757  25.015  1.00  0.00     0.021 C 
ATOM     15  C   UNL     1      19.286 -32.916  22.471  1.00  0.00     0.008 C 
ATOM     16  C   UNL     1      20.356 -34.568  24.047  1.00  0.00     0.012 C 
ATOM     17  C   UNL     1      17.484 -32.465  24.446  1.00  0.00    -0.063 C 
ATOM     18  C   UNL     1      18.474 -31.621  22.274  1.00  0.00     0.009 C 
ATOM     19  C   UNL     1      17.381 -31.386  23.371  1.00  0.00     0.025 C 
ATOM     20  C   UNL     1      16.462 -33.275  24.744  1.00  0.00    -0.000 C 
ATOM     21  C   UNL     1      15.871 -31.060  22.937  1.00  0.00    -0.005 C 
ATOM     22  C   UNL     1      15.177 -33.181  24.063  1.00  0.00    -0.000 C 
ATOM     23  C   UNL     1      14.905 -32.231  23.165  1.00  0.00    -0.061 C 
ATOM     24  C   UNL     1      15.755 -30.626  21.441  1.00  0.00     0.014 C 
ATOM     25  C   UNL     1      15.382 -29.889  23.836  1.00  0.00     0.017 C 
ATOM     26  C   UNL     1      13.496 -32.170  22.587  1.00  0.00     0.063 C 
ATOM     27  C   UNL     1      14.309 -30.393  20.978  1.00  0.00     0.033 C 
ATOM     28  C   UNL     1      13.494 -31.688  21.132  1.00  0.00     0.118 C 
BRANCH  28  29
ATOM     29  O   UNL     1      12.181 -31.458  20.700  1.00  0.00    -0.393 OA
ATOM     30  H   UNL     1      11.856 -30.651  21.183  1.00  0.00     0.210 HD
ENDBRANCH  28  29
ENDBRANCH   1  10
TORSDOF 5
ENDMDL
MODEL 7
REMARK VINA RESULT:    -7.350      7.219      9.980
REMARK INTER + INTRA:         -10.486
REMARK INTER:                  -9.656
REMARK INTRA:                  -0.830
REMARK UNBOUND:                -1.202
REMARK SMILES CC(C)[C@H](C)C=C[C@@H](C)[C@H]1CC[C@H]2C3=CC=C4C[C@@H](O)CC[C@]4(C)[C@@H]3CC[C@@]12C
REMARK SMILES IDX 8 1 9 2 7 3 6 4 4 5 5 6 2 7 1 8 3 9 10 10 11 11 28 12 12 13
REMARK SMILES IDX 13 14 27 15 29 16 14 17 26 18 25 19 15 20 23 21 16 22 17 23
REMARK SMILES IDX 22 24 24 25 18 26 21 27 19 28 20 29
REMARK H PARENT 20 30
REMARK Flexibility Score: inf
ROOT
ATOM      1  C   UNL     1      20.539 -28.841  21.443  1.00  0.00     0.012 C 
ATOM      2  C   UNL     1      21.320 -30.126  21.110  1.00  0.00     0.012 C 
ENDROOT
BRANCH   1   3
ATOM      3  C   UNL     1      19.056 -29.164  21.409  1.00  0.00    -0.028 C 
ATOM      4  C   UNL     1      18.591 -30.392  21.103  1.00  0.00    -0.028 C 
BRANCH   4   5
ATOM      5  C   UNL     1      17.120 -30.763  21.218  1.00  0.00     0.011 C 
ATOM      6  C   UNL     1      16.924 -32.297  21.338  1.00  0.00     0.012 C 
BRANCH   5   7
ATOM      7  C   UNL     1      16.445 -29.969  22.384  1.00  0.00    -0.011 C 
ATOM      8  C   UNL     1      15.391 -28.955  21.889  1.00  0.00     0.008 C 
ATOM      9  C   UNL     1      15.841 -30.885  23.468  1.00  0.00     0.008 C 
ENDBRANCH   5   7
ENDBRANCH   4   5
ENDBRANCH   1   3
BRANCH   1  10
ATOM     10  C   UNL     1      20.901 -27.649  20.498  1.00  0.00     0.002 C 
ATOM     11  C   UNL     1      19.871 -26.518  20.559  1.00  0.00     0.005 C 
ATOM     12  C   UNL     1      22.292 -26.944  20.685  1.00  0.00    -0.023 C 
ATOM     13  C   UNL     1      20.546 -25.325  19.927  1.00  0.00     0.009 C 
ATOM     14  C   UNL     1      22.047 -25.467  20.201  1.00  0.00     0.021 C 
ATOM     15  C   UNL     1      22.859 -26.959  22.149  1.00  0.00     0.008 C 
ATOM     16  C   UNL     1      23.345 -27.607  19.761  1.00  0.00     0.012 C 
ATOM     17  C   UNL     1      22.516 -24.439  21.211  1.00  0.00    -0.063 C 
ATOM     18  C   UNL     1      22.123 -26.033  23.138  1.00  0.00     0.009 C 
ATOM     19  C   UNL     1      21.983 -24.556  22.636  1.00  0.00     0.025 C 
ATOM     20  C   UNL     1      23.511 -23.604  20.888  1.00  0.00    -0.000 C 
ATOM     21  C   UNL     1      22.431 -23.344  23.587  1.00  0.00    -0.005 C 
ATOM     22  C   UNL     1      24.153 -22.747  21.877  1.00  0.00    -0.000 C 
ATOM     23  C   UNL     1      23.738 -22.672  23.143  1.00  0.00    -0.061 C 
ATOM     24  C   UNL     1      22.597 -23.778  25.078  1.00  0.00     0.014 C 
ATOM     25  C   UNL     1      21.316 -22.263  23.502  1.00  0.00     0.017 C 
ATOM     26  C   UNL     1      24.422 -21.670  24.065  1.00  0.00     0.063 C 
ATOM     27  C   UNL     1      23.110 -22.655  25.993  1.00  0.00     0.033 C 
ATOM     28  C   UNL     1      24.489 -22.176  25.512  1.00  0.00     0.118 C 
BRANCH  28  29
ATOM     29  O   UNL     1      24.943 -21.157  26.360  1.00  0.00    -0.393 OA
ATOM     30  H   UNL     1      24.263 -21.059  27.081  1.00  0.00     0.210 HD
ENDBRANCH  28  29
ENDBRANCH   1  10
TORSDOF 5
ENDMDL
MODEL 8
REMARK VINA RESULT:    -7.073      2.612      6.978
REMARK INTER + INTRA:         -10.136
REMARK INTER:                  -9.560
REMARK INTRA:                  -0.576
REMARK UNBOUND:                -1.202
REMARK SMILES CC(C)[C@H](C)C=C[C@@H](C)[C@H]1CC[C@H]2C3=CC=C4C[C@@H](O)CC[C@]4(C)[C@@H]3CC[C@@]12C
REMARK SMILES IDX 8 1 9 2 7 3 6 4 4 5 5 6 2 7 1 8 3 9 10 10 11 11 28 12 12 13
REMARK SMILES IDX 13 14 27 15 29 16 14 17 26 18 25 19 15 20 23 21 16 22 17 23
REMARK SMILES IDX 22 24 24 25 18 26 21 27 19 28 20 29
REMARK H PARENT 20 30
REMARK Flexibility Score: inf
ROOT
ATOM      1  C   UNL     1      15.303 -33.782  20.840  1.00  0.00     0.012 C 
ATOM      2  C   UNL     1      16.425 -33.792  19.784  1.00  0.00     0.012 C 
ENDROOT
BRANCH   1   3
ATOM      3  C   UNL     1      14.831 -32.351  21.018  1.00  0.00    -0.028 C 
ATOM      4  C   UNL     1      13.524 -32.018  21.044  1.00  0.00    -0.028 C 
BRANCH   4   5
ATOM      5  C   UNL     1      13.042 -30.614  21.377  1.00  0.00     0.011 C 
ATOM      6  C   UNL     1      11.506 -30.573  21.591  1.00  0.00     0.012 C 
BRANCH   5   7
ATOM      7  C   UNL     1      13.843 -30.035  22.588  1.00  0.00    -0.011 C 
ATOM      8  C   UNL     1      14.747 -28.845  22.196  1.00  0.00     0.008 C 
ATOM      9  C   UNL     1      12.941 -29.653  23.780  1.00  0.00     0.008 C 
ENDBRANCH   5   7
ENDBRANCH   4   5
ENDBRANCH   1   3
BRANCH   1  10
ATOM     10  C   UNL     1      15.739 -34.429  22.195  1.00  0.00     0.002 C 
ATOM     11  C   UNL     1      16.961 -35.339  22.045  1.00  0.00     0.005 C 
ATOM     12  C   UNL     1      16.082 -33.481  23.399  1.00  0.00    -0.023 C 
ATOM     13  C   UNL     1      17.477 -35.553  23.447  1.00  0.00     0.009 C 
ATOM     14  C   UNL     1      17.131 -34.292  24.245  1.00  0.00     0.021 C 
ATOM     15  C   UNL     1      16.660 -32.076  23.001  1.00  0.00     0.008 C 
ATOM     16  C   UNL     1      14.815 -33.246  24.260  1.00  0.00     0.012 C 
ATOM     17  C   UNL     1      18.376 -33.486  24.556  1.00  0.00    -0.063 C 
ATOM     18  C   UNL     1      18.101 -32.100  22.455  1.00  0.00     0.009 C 
ATOM     19  C   UNL     1      19.116 -32.851  23.382  1.00  0.00     0.025 C 
ATOM     20  C   UNL     1      18.669 -33.191  25.828  1.00  0.00    -0.000 C 
ATOM     21  C   UNL     1      20.491 -32.139  23.804  1.00  0.00    -0.005 C 
ATOM     22  C   UNL     1      19.720 -32.244  26.179  1.00  0.00    -0.000 C 
ATOM     23  C   UNL     1      20.513 -31.676  25.268  1.00  0.00    -0.061 C 
ATOM     24  C   UNL     1      20.831 -30.906  22.906  1.00  0.00     0.014 C 
ATOM     25  C   UNL     1      21.619 -33.197  23.647  1.00  0.00     0.017 C 
ATOM     26  C   UNL     1      21.640 -30.775  25.757  1.00  0.00     0.063 C 
ATOM     27  C   UNL     1      22.097 -30.155  23.345  1.00  0.00     0.033 C 
ATOM     28  C   UNL     1      21.923 -29.628  24.779  1.00  0.00     0.118 C 
BRANCH  28  29
ATOM     29  O   UNL     1      23.084 -28.941  25.160  1.00  0.00    -0.393 OA
ATOM     30  H   UNL     1      22.878 -28.486  26.021  1.00  0.00     0.210 HD
ENDBRANCH  28  29
ENDBRANCH   1  10
TORSDOF 5
ENDMDL
MODEL 9
REMARK VINA RESULT:    -7.061      3.278      6.093
REMARK INTER + INTRA:         -10.121
REMARK INTER:                  -8.605
REMARK INTRA:                  -1.515
REMARK UNBOUND:                -1.202
REMARK SMILES CC(C)[C@H](C)C=C[C@@H](C)[C@H]1CC[C@H]2C3=CC=C4C[C@@H](O)CC[C@]4(C)[C@@H]3CC[C@@]12C
REMARK SMILES IDX 8 1 9 2 7 3 6 4 4 5 5 6 2 7 1 8 3 9 10 10 11 11 28 12 12 13
REMARK SMILES IDX 13 14 27 15 29 16 14 17 26 18 25 19 15 20 23 21 16 22 17 23
REMARK SMILES IDX 22 24 24 25 18 26 21 27 19 28 20 29
REMARK H PARENT 20 30
REMARK Flexibility Score: inf
ROOT
ATOM      1  C   UNL     1      23.034 -30.587  24.639  1.00  0.00     0.012 C 
ATOM      2  C   UNL     1      24.283 -30.238  25.471  1.00  0.00     0.012 C 
ENDROOT
BRANCH   1   3
ATOM      3  C   UNL     1      22.485 -29.303  24.045  1.00  0.00    -0.028 C 
ATOM      4  C   UNL     1      22.445 -29.081  22.715  1.00  0.00    -0.028 C 
BRANCH   4   5
ATOM      5  C   UNL     1      21.757 -27.868  22.107  1.00  0.00     0.011 C 
ATOM      6  C   UNL     1      22.781 -26.783  21.682  1.00  0.00     0.012 C 
BRANCH   5   7
ATOM      7  C   UNL     1      20.811 -28.305  20.941  1.00  0.00    -0.011 C 
ATOM      8  C   UNL     1      20.019 -29.592  21.260  1.00  0.00     0.008 C 
ATOM      9  C   UNL     1      19.854 -27.184  20.488  1.00  0.00     0.008 C 
ENDBRANCH   5   7
ENDBRANCH   4   5
ENDBRANCH   1   3
BRANCH   1  10
ATOM     10  C   UNL     1      21.953 -31.362  25.462  1.00  0.00     0.002 C 
ATOM     11  C   UNL     1      20.594 -30.658  25.454  1.00  0.00     0.005 C 
ATOM     12  C   UNL     1      21.643 -32.851  25.071  1.00  0.00    -0.023 C 
ATOM     13  C   UNL     1      19.603 -31.692  25.930  1.00  0.00     0.009 C 
ATOM     14  C   UNL     1      20.141 -33.058  25.491  1.00  0.00     0.021 C 
ATOM     15  C   UNL     1      21.847 -33.201  23.554  1.00  0.00     0.008 C 
ATOM     16  C   UNL     1      22.534 -33.809  25.903  1.00  0.00     0.012 C 
ATOM     17  C   UNL     1      19.300 -33.641  24.373  1.00  0.00    -0.063 C 
ATOM     18  C   UNL     1      20.788 -32.607  22.605  1.00  0.00     0.009 C 
ATOM     19  C   UNL     1      19.312 -32.917  23.030  1.00  0.00     0.025 C 
ATOM     20  C   UNL     1      18.747 -34.850  24.527  1.00  0.00    -0.000 C 
ATOM     21  C   UNL     1      18.286 -33.535  21.962  1.00  0.00    -0.005 C 
ATOM     22  C   UNL     1      18.115 -35.558  23.420  1.00  0.00    -0.000 C 
ATOM     23  C   UNL     1      17.969 -35.016  22.209  1.00  0.00    -0.061 C 
ATOM     24  C   UNL     1      18.789 -33.390  20.490  1.00  0.00     0.014 C 
ATOM     25  C   UNL     1      16.949 -32.755  22.112  1.00  0.00     0.017 C 
ATOM     26  C   UNL     1      17.207 -35.810  21.155  1.00  0.00     0.063 C 
ATOM     27  C   UNL     1      17.865 -34.052  19.456  1.00  0.00     0.033 C 
ATOM     28  C   UNL     1      17.752 -35.558  19.743  1.00  0.00     0.118 C 
BRANCH  28  29
ATOM     29  O   UNL     1      16.911 -36.145  18.788  1.00  0.00    -0.393 OA
ATOM     30  H   UNL     1      17.471 -36.328  17.986  1.00  0.00     0.210 HD
ENDBRANCH  28  29
ENDBRANCH   1  10
TORSDOF 5
ENDMDL
