MODEL 1
REMARK VINA RESULT:    -3.440      0.000      0.000
REMARK INTER + INTRA:          -4.255
REMARK INTER:                  -4.144
REMARK INTRA:                  -0.111
REMARK UNBOUND:                -0.111
REMARK SMILES CC[C@H](C)[C@@H]([NH3+])C(=O)[O-]
REMARK SMILES IDX 3 1 4 2 5 3 6 4 7 8 8 9 9 10 2 11 1 12
REMARK H PARENT 6 5 6 6 6 7
REMARK Flexibility Score: inf
ROOT
ATOM      1  C   UNL     1     169.463 170.077 163.354  1.00  0.00     0.050 C 
ATOM      2  C   UNL     1     169.737 168.569 163.516  1.00  0.00     0.014 C 
ENDROOT
BRANCH   1   3
ATOM      3  C   UNL     1     170.223 170.912 164.435  1.00  0.00     0.230 C 
BRANCH   3   4
ATOM      4  N   UNL     1     171.536 170.335 164.759  1.00  0.00    -0.350 N 
ATOM      5  H   UNL     1     172.294 171.030 164.565  1.00  0.00     0.345 HD
ATOM      6  H   UNL     1     171.589 170.103 165.776  1.00  0.00     0.345 HD
ATOM      7  H   UNL     1     171.713 169.475 164.190  1.00  0.00     0.345 HD
ENDBRANCH   3   4
BRANCH   3   8
ATOM      8  C   UNL     1     170.412 172.338 163.975  1.00  0.00     0.099 C 
ATOM      9  O   UNL     1     171.385 172.641 163.237  1.00  0.00    -0.544 OA
ATOM     10  O   UNL     1     169.506 173.322 164.355  1.00  0.00    -0.544 OA
ENDBRANCH   3   8
ENDBRANCH   1   3
BRANCH   1  11
ATOM     11  C   UNL     1     167.935 170.355 163.419  1.00  0.00     0.006 C 
ATOM     12  C   UNL     1     167.401 171.089 162.187  1.00  0.00     0.004 C 
ENDBRANCH   1  11
TORSDOF 4
ENDMDL
MODEL 2
REMARK VINA RESULT:    -3.424      1.837      2.582
REMARK INTER + INTRA:          -4.236
REMARK INTER:                  -4.117
REMARK INTRA:                  -0.119
REMARK UNBOUND:                -0.111
REMARK SMILES CC[C@H](C)[C@@H]([NH3+])C(=O)[O-]
REMARK SMILES IDX 3 1 4 2 5 3 6 4 7 8 8 9 9 10 2 11 1 12
REMARK H PARENT 6 5 6 6 6 7
REMARK Flexibility Score: inf
ROOT
ATOM      1  C   UNL     1     169.171 170.992 163.645  1.00  0.00     0.050 C 
ATOM      2  C   UNL     1     167.757 171.494 163.289  1.00  0.00     0.014 C 
ENDROOT
BRANCH   1   3
ATOM      3  C   UNL     1     170.230 172.133 163.504  1.00  0.00     0.230 C 
BRANCH   3   4
ATOM      4  N   UNL     1     170.000 173.225 164.461  1.00  0.00    -0.350 N 
ATOM      5  H   UNL     1     169.640 174.072 163.962  1.00  0.00     0.345 HD
ATOM      6  H   UNL     1     169.271 172.950 165.158  1.00  0.00     0.345 HD
ATOM      7  H   UNL     1     170.886 173.476 164.957  1.00  0.00     0.345 HD
ENDBRANCH   3   4
BRANCH   3   8
ATOM      8  C   UNL     1     171.627 171.594 163.698  1.00  0.00     0.099 C 
ATOM      9  O   UNL     1     172.488 171.726 162.790  1.00  0.00    -0.544 OA
ATOM     10  O   UNL     1     171.974 170.959 164.885  1.00  0.00    -0.544 OA
ENDBRANCH   3   8
ENDBRANCH   1   3
BRANCH   1  11
ATOM     11  C   UNL     1     169.550 169.777 162.753  1.00  0.00     0.006 C 
ATOM     12  C   UNL     1     169.617 168.458 163.525  1.00  0.00     0.004 C 
ENDBRANCH   1  11
TORSDOF 4
ENDMDL
MODEL 3
REMARK VINA RESULT:    -3.421      1.140      1.321
REMARK INTER + INTRA:          -4.232
REMARK INTER:                  -4.130
REMARK INTRA:                  -0.102
REMARK UNBOUND:                -0.111
REMARK SMILES CC[C@H](C)[C@@H]([NH3+])C(=O)[O-]
REMARK SMILES IDX 3 1 4 2 5 3 6 4 7 8 8 9 9 10 2 11 1 12
REMARK H PARENT 6 5 6 6 6 7
REMARK Flexibility Score: inf
ROOT
ATOM      1  C   UNL     1     169.457 170.210 163.311  1.00  0.00     0.050 C 
ATOM      2  C   UNL     1     169.738 168.790 163.842  1.00  0.00     0.014 C 
ENDROOT
BRANCH   1   3
ATOM      3  C   UNL     1     169.932 171.300 164.326  1.00  0.00     0.230 C 
BRANCH   3   4
ATOM      4  N   UNL     1     169.936 170.805 165.710  1.00  0.00    -0.350 N 
ATOM      5  H   UNL     1     170.919 170.708 166.056  1.00  0.00     0.345 HD
ATOM      6  H   UNL     1     169.458 171.486 166.342  1.00  0.00     0.345 HD
ATOM      7  H   UNL     1     169.463 169.874 165.772  1.00  0.00     0.345 HD
ENDBRANCH   3   4
BRANCH   3   8
ATOM      8  C   UNL     1     171.315 171.793 163.975  1.00  0.00     0.099 C 
ATOM      9  O   UNL     1     172.317 171.055 164.165  1.00  0.00    -0.544 OA
ATOM     10  O   UNL     1     171.489 173.059 163.428  1.00  0.00    -0.544 OA
ENDBRANCH   3   8
ENDBRANCH   1   3
BRANCH   1  11
ATOM     11  C   UNL     1     167.944 170.375 162.996  1.00  0.00     0.006 C 
ATOM     12  C   UNL     1     167.482 171.833 162.992  1.00  0.00     0.004 C 
ENDBRANCH   1  11
TORSDOF 4
ENDMDL
MODEL 4
REMARK VINA RESULT:    -3.373      1.207      2.375
REMARK INTER + INTRA:          -4.174
REMARK INTER:                  -4.197
REMARK INTRA:                   0.023
REMARK UNBOUND:                -0.111
REMARK SMILES CC[C@H](C)[C@@H]([NH3+])C(=O)[O-]
REMARK SMILES IDX 3 1 4 2 5 3 6 4 7 8 8 9 9 10 2 11 1 12
REMARK H PARENT 6 5 6 6 6 7
REMARK Flexibility Score: inf
ROOT
ATOM      1  C   UNL     1     168.705 170.455 163.693  1.00  0.00     0.050 C 
ATOM      2  C   UNL     1     167.748 171.215 162.753  1.00  0.00     0.014 C 
ENDROOT
BRANCH   1   3
ATOM      3  C   UNL     1     169.542 171.442 164.570  1.00  0.00     0.230 C 
BRANCH   3   4
ATOM      4  N   UNL     1     169.758 170.927 165.930  1.00  0.00    -0.350 N 
ATOM      5  H   UNL     1     169.775 171.718 166.617  1.00  0.00     0.345 HD
ATOM      6  H   UNL     1     168.971 170.299 166.211  1.00  0.00     0.345 HD
ATOM      7  H   UNL     1     170.664 170.407 165.991  1.00  0.00     0.345 HD
ENDBRANCH   3   4
BRANCH   3   8
ATOM      8  C   UNL     1     170.881 171.722 163.931  1.00  0.00     0.099 C 
ATOM      9  O   UNL     1     170.965 172.521 162.962  1.00  0.00    -0.544 OA
ATOM     10  O   UNL     1     172.030 171.109 164.416  1.00  0.00    -0.544 OA
ENDBRANCH   3   8
ENDBRANCH   1   3
BRANCH   1  11
ATOM     11  C   UNL     1     169.638 169.524 162.870  1.00  0.00     0.006 C 
ATOM     12  C   UNL     1     169.934 168.195 163.567  1.00  0.00     0.004 C 
ENDBRANCH   1  11
TORSDOF 4
ENDMDL
MODEL 5
REMARK VINA RESULT:    -3.342      2.373      3.795
REMARK INTER + INTRA:          -4.137
REMARK INTER:                  -4.015
REMARK INTRA:                  -0.121
REMARK UNBOUND:                -0.111
REMARK SMILES CC[C@H](C)[C@@H]([NH3+])C(=O)[O-]
REMARK SMILES IDX 3 1 4 2 5 3 6 4 7 8 8 9 9 10 2 11 1 12
REMARK H PARENT 6 5 6 6 6 7
REMARK Flexibility Score: inf
ROOT
ATOM      1  C   UNL     1     170.515 172.086 163.601  1.00  0.00     0.050 C 
ATOM      2  C   UNL     1     169.476 173.041 164.222  1.00  0.00     0.014 C 
ENDROOT
BRANCH   1   3
ATOM      3  C   UNL     1     170.611 170.749 164.405  1.00  0.00     0.230 C 
BRANCH   3   4
ATOM      4  N   UNL     1     169.874 170.813 165.676  1.00  0.00    -0.350 N 
ATOM      5  H   UNL     1     169.139 170.067 165.705  1.00  0.00     0.345 HD
ATOM      6  H   UNL     1     170.518 170.636 166.479  1.00  0.00     0.345 HD
ATOM      7  H   UNL     1     169.414 171.745 165.791  1.00  0.00     0.345 HD
ENDBRANCH   3   4
BRANCH   3   8
ATOM      8  C   UNL     1     170.085 169.593 163.588  1.00  0.00     0.099 C 
ATOM      9  O   UNL     1     169.460 169.809 162.517  1.00  0.00    -0.544 OA
ATOM     10  O   UNL     1     170.297 168.286 164.007  1.00  0.00    -0.544 OA
ENDBRANCH   3   8
ENDBRANCH   1   3
BRANCH   1  11
ATOM     11  C   UNL     1     171.903 172.781 163.524  1.00  0.00     0.006 C 
ATOM     12  C   UNL     1     172.962 171.940 162.809  1.00  0.00     0.004 C 
ENDBRANCH   1  11
TORSDOF 4
ENDMDL
MODEL 6
REMARK VINA RESULT:    -3.311      1.991      2.847
REMARK INTER + INTRA:          -4.099
REMARK INTER:                  -3.966
REMARK INTRA:                  -0.133
REMARK UNBOUND:                -0.111
REMARK SMILES CC[C@H](C)[C@@H]([NH3+])C(=O)[O-]
REMARK SMILES IDX 3 1 4 2 5 3 6 4 7 8 8 9 9 10 2 11 1 12
REMARK H PARENT 6 5 6 6 6 7
REMARK Flexibility Score: inf
ROOT
ATOM      1  C   UNL     1     170.551 170.840 163.765  1.00  0.00     0.050 C 
ATOM      2  C   UNL     1     171.932 171.085 164.405  1.00  0.00     0.014 C 
ENDROOT
BRANCH   1   3
ATOM      3  C   UNL     1     169.544 171.978 164.132  1.00  0.00     0.230 C 
BRANCH   3   4
ATOM      4  N   UNL     1     170.225 173.248 164.425  1.00  0.00    -0.350 N 
ATOM      5  H   UNL     1     171.263 173.106 164.437  1.00  0.00     0.345 HD
ATOM      6  H   UNL     1     170.023 173.949 163.678  1.00  0.00     0.345 HD
ATOM      7  H   UNL     1     169.925 173.624 165.354  1.00  0.00     0.345 HD
ENDBRANCH   3   4
BRANCH   3   8
ATOM      8  C   UNL     1     168.552 172.197 163.016  1.00  0.00     0.099 C 
ATOM      9  O   UNL     1     167.376 172.565 163.277  1.00  0.00    -0.544 OA
ATOM     10  O   UNL     1     168.933 172.006 161.693  1.00  0.00    -0.544 OA
ENDBRANCH   3   8
ENDBRANCH   1   3
BRANCH   1  11
ATOM     11  C   UNL     1     169.997 169.455 164.199  1.00  0.00     0.006 C 
ATOM     12  C   UNL     1     169.577 168.574 163.020  1.00  0.00     0.004 C 
ENDBRANCH   1  11
TORSDOF 4
ENDMDL
MODEL 7
REMARK VINA RESULT:    -3.161      2.042      2.668
REMARK INTER + INTRA:          -3.919
REMARK INTER:                  -3.854
REMARK INTRA:                  -0.065
REMARK UNBOUND:                -0.111
REMARK SMILES CC[C@H](C)[C@@H]([NH3+])C(=O)[O-]
REMARK SMILES IDX 3 1 4 2 5 3 6 4 7 8 8 9 9 10 2 11 1 12
REMARK H PARENT 6 5 6 6 6 7
REMARK Flexibility Score: inf
ROOT
ATOM      1  C   UNL     1     170.676 170.942 163.576  1.00  0.00     0.050 C 
ATOM      2  C   UNL     1     171.896 171.020 164.514  1.00  0.00     0.014 C 
ENDROOT
BRANCH   1   3
ATOM      3  C   UNL     1     170.062 172.357 163.323  1.00  0.00     0.230 C 
BRANCH   3   4
ATOM      4  N   UNL     1     170.067 173.188 164.536  1.00  0.00    -0.350 N 
ATOM      5  H   UNL     1     170.419 174.149 164.314  1.00  0.00     0.345 HD
ATOM      6  H   UNL     1     169.096 173.299 164.905  1.00  0.00     0.345 HD
ATOM      7  H   UNL     1     170.679 172.766 165.272  1.00  0.00     0.345 HD
ENDBRANCH   3   4
BRANCH   3   8
ATOM      8  C   UNL     1     170.812 173.079 162.228  1.00  0.00     0.099 C 
ATOM      9  O   UNL     1     170.528 172.865 161.021  1.00  0.00    -0.544 OA
ATOM     10  O   UNL     1     171.810 173.992 162.548  1.00  0.00    -0.544 OA
ENDBRANCH   3   8
ENDBRANCH   1   3
BRANCH   1  11
ATOM     11  C   UNL     1     169.608 169.978 164.163  1.00  0.00     0.006 C 
ATOM     12  C   UNL     1     169.777 168.531 163.695  1.00  0.00     0.004 C 
ENDBRANCH   1  11
TORSDOF 4
ENDMDL
MODEL 8
REMARK VINA RESULT:    -3.113      2.638      3.875
REMARK INTER + INTRA:          -3.861
REMARK INTER:                  -3.714
REMARK INTRA:                  -0.147
REMARK UNBOUND:                -0.111
REMARK SMILES CC[C@H](C)[C@@H]([NH3+])C(=O)[O-]
REMARK SMILES IDX 3 1 4 2 5 3 6 4 7 8 8 9 9 10 2 11 1 12
REMARK H PARENT 6 5 6 6 6 7
REMARK Flexibility Score: inf
ROOT
ATOM      1  C   UNL     1     170.700 172.614 162.998  1.00  0.00     0.050 C 
ATOM      2  C   UNL     1     170.990 174.093 162.673  1.00  0.00     0.014 C 
ENDROOT
BRANCH   1   3
ATOM      3  C   UNL     1     169.601 172.480 164.102  1.00  0.00     0.230 C 
BRANCH   3   4
ATOM      4  N   UNL     1     169.346 173.755 164.788  1.00  0.00    -0.350 N 
ATOM      5  H   UNL     1     170.244 174.160 165.143  1.00  0.00     0.345 HD
ATOM      6  H   UNL     1     168.941 174.452 164.123  1.00  0.00     0.345 HD
ATOM      7  H   UNL     1     168.696 173.618 165.595  1.00  0.00     0.345 HD
ENDBRANCH   3   4
BRANCH   3   8
ATOM      8  C   UNL     1     168.308 171.971 163.511  1.00  0.00     0.099 C 
ATOM      9  O   UNL     1     167.428 172.783 163.122  1.00  0.00    -0.544 OA
ATOM     10  O   UNL     1     168.086 170.605 163.384  1.00  0.00    -0.544 OA
ENDBRANCH   3   8
ENDBRANCH   1   3
BRANCH   1  11
ATOM     11  C   UNL     1     172.007 171.894 163.434  1.00  0.00     0.006 C 
ATOM     12  C   UNL     1     171.795 170.891 164.569  1.00  0.00     0.004 C 
ENDBRANCH   1  11
TORSDOF 4
ENDMDL
MODEL 9
REMARK VINA RESULT:    -3.067      2.453      3.379
REMARK INTER + INTRA:          -3.805
REMARK INTER:                  -3.700
REMARK INTRA:                  -0.106
REMARK UNBOUND:                -0.111
REMARK SMILES CC[C@H](C)[C@@H]([NH3+])C(=O)[O-]
REMARK SMILES IDX 3 1 4 2 5 3 6 4 7 8 8 9 9 10 2 11 1 12
REMARK H PARENT 6 5 6 6 6 7
REMARK Flexibility Score: inf
ROOT
ATOM      1  C   UNL     1     169.530 171.562 163.048  1.00  0.00     0.050 C 
ATOM      2  C   UNL     1     168.066 171.366 163.491  1.00  0.00     0.014 C 
ENDROOT
BRANCH   1   3
ATOM      3  C   UNL     1     170.438 170.394 163.555  1.00  0.00     0.230 C 
BRANCH   3   4
ATOM      4  N   UNL     1     170.568 170.390 165.020  1.00  0.00    -0.350 N 
ATOM      5  H   UNL     1     171.031 169.506 165.338  1.00  0.00     0.345 HD
ATOM      6  H   UNL     1     171.176 171.180 165.333  1.00  0.00     0.345 HD
ATOM      7  H   UNL     1     169.630 170.463 165.476  1.00  0.00     0.345 HD
ENDBRANCH   3   4
BRANCH   3   8
ATOM      8  C   UNL     1     169.895 169.059 163.105  1.00  0.00     0.099 C 
ATOM      9  O   UNL     1     169.644 168.160 163.950  1.00  0.00    -0.544 OA
ATOM     10  O   UNL     1     169.657 168.818 161.757  1.00  0.00    -0.544 OA
ENDBRANCH   3   8
ENDBRANCH   1   3
BRANCH   1  11
ATOM     11  C   UNL     1     170.065 172.931 163.552  1.00  0.00     0.006 C 
ATOM     12  C   UNL     1     169.007 173.762 164.283  1.00  0.00     0.004 C 
ENDBRANCH   1  11
TORSDOF 4
ENDMDL
