MODEL 1
REMARK VINA RESULT:    -3.439      0.000      0.000
REMARK INTER + INTRA:          -4.092
REMARK INTER:                  -4.042
REMARK INTRA:                  -0.050
REMARK UNBOUND:                -0.050
REMARK SMILES CCCCC(=O)[O-]
REMARK SMILES IDX 4 1 5 2 6 3 7 4 3 5 2 6 1 7
REMARK H PARENT
REMARK Flexibility Score: inf
ROOT
ATOM      1  C   UNL     1       1.603   7.159   1.067  1.00  0.00     0.053 C 
ENDROOT
BRANCH   1   2
ATOM      2  C   UNL     1       3.039   6.954   1.434  1.00  0.00     0.041 C 
ATOM      3  O   UNL     1       3.859   7.904   1.339  1.00  0.00    -0.550 OA
ATOM      4  O   UNL     1       3.481   5.699   1.832  1.00  0.00    -0.550 OA
ENDBRANCH   1   2
BRANCH   1   5
ATOM      5  C   UNL     1       1.491   7.905  -0.266  1.00  0.00     0.006 C 
BRANCH   5   6
ATOM      6  C   UNL     1       0.760   9.240  -0.088  1.00  0.00    -0.003 C 
ATOM      7  C   UNL     1       1.052  10.187  -1.249  1.00  0.00     0.004 C 
ENDBRANCH   5   6
ENDBRANCH   1   5
TORSDOF 3
ENDMDL
MODEL 2
REMARK VINA RESULT:    -3.338      2.576      4.137
REMARK INTER + INTRA:          -3.973
REMARK INTER:                  -3.945
REMARK INTRA:                  -0.029
REMARK UNBOUND:                -0.050
REMARK SMILES CCCCC(=O)[O-]
REMARK SMILES IDX 4 1 5 2 6 3 7 4 3 5 2 6 1 7
REMARK H PARENT
REMARK Flexibility Score: inf
ROOT
ATOM      1  C   UNL     1       1.769   7.935  -0.364  1.00  0.00     0.053 C 
ENDROOT
BRANCH   1   2
ATOM      2  C   UNL     1       0.880   9.135  -0.275  1.00  0.00     0.041 C 
ATOM      3  O   UNL     1      -0.084   9.150   0.535  1.00  0.00    -0.550 OA
ATOM      4  O   UNL     1       1.086  10.216  -1.121  1.00  0.00    -0.550 OA
ENDBRANCH   1   2
BRANCH   1   5
ATOM      5  C   UNL     1       1.842   7.219   0.988  1.00  0.00     0.006 C 
BRANCH   5   6
ATOM      6  C   UNL     1       3.295   7.070   1.452  1.00  0.00    -0.003 C 
ATOM      7  C   UNL     1       3.636   5.610   1.733  1.00  0.00     0.004 C 
ENDBRANCH   5   6
ENDBRANCH   1   5
TORSDOF 3
ENDMDL
MODEL 3
REMARK VINA RESULT:    -3.242      2.537      3.987
REMARK INTER + INTRA:          -3.861
REMARK INTER:                  -3.833
REMARK INTRA:                  -0.028
REMARK UNBOUND:                -0.050
REMARK SMILES CCCCC(=O)[O-]
REMARK SMILES IDX 4 1 5 2 6 3 7 4 3 5 2 6 1 7
REMARK H PARENT
REMARK Flexibility Score: inf
ROOT
ATOM      1  C   UNL     1       2.003   7.818  -0.357  1.00  0.00     0.053 C 
ENDROOT
BRANCH   1   2
ATOM      2  C   UNL     1       1.141   9.039  -0.423  1.00  0.00     0.041 C 
ATOM      3  O   UNL     1       1.393   9.947  -1.258  1.00  0.00    -0.550 OA
ATOM      4  O   UNL     1       0.091   9.197   0.471  1.00  0.00    -0.550 OA
ENDBRANCH   1   2
BRANCH   1   5
ATOM      5  C   UNL     1       1.943   7.194   1.040  1.00  0.00     0.006 C 
BRANCH   5   6
ATOM      6  C   UNL     1       3.350   7.016   1.623  1.00  0.00    -0.003 C 
ATOM      7  C   UNL     1       3.708   5.540   1.757  1.00  0.00     0.004 C 
ENDBRANCH   5   6
ENDBRANCH   1   5
TORSDOF 3
ENDMDL
MODEL 4
REMARK VINA RESULT:    -2.943      8.303      9.448
REMARK INTER + INTRA:          -3.509
REMARK INTER:                  -3.409
REMARK INTRA:                  -0.100
REMARK UNBOUND:                -0.050
REMARK SMILES CCCCC(=O)[O-]
REMARK SMILES IDX 4 1 5 2 6 3 7 4 3 5 2 6 1 7
REMARK H PARENT
REMARK Flexibility Score: inf
ROOT
ATOM      1  C   UNL     1      -2.322  15.081  -5.000  1.00  0.00     0.053 C 
ENDROOT
BRANCH   1   2
ATOM      2  C   UNL     1      -1.092  15.090  -4.149  1.00  0.00     0.041 C 
ATOM      3  O   UNL     1      -0.101  14.378  -4.460  1.00  0.00    -0.550 OA
ATOM      4  O   UNL     1      -1.058  15.847  -2.986  1.00  0.00    -0.550 OA
ENDBRANCH   1   2
BRANCH   1   5
ATOM      5  C   UNL     1      -3.259  13.946  -4.579  1.00  0.00     0.006 C 
BRANCH   5   6
ATOM      6  C   UNL     1      -3.002  12.684  -5.410  1.00  0.00    -0.003 C 
ATOM      7  C   UNL     1      -2.525  11.532  -4.531  1.00  0.00     0.004 C 
ENDBRANCH   5   6
ENDBRANCH   1   5
TORSDOF 3
ENDMDL
MODEL 5
REMARK VINA RESULT:    -2.911      9.345      9.861
REMARK INTER + INTRA:          -3.472
REMARK INTER:                  -3.440
REMARK INTRA:                  -0.032
REMARK UNBOUND:                -0.050
REMARK SMILES CCCCC(=O)[O-]
REMARK SMILES IDX 4 1 5 2 6 3 7 4 3 5 2 6 1 7
REMARK H PARENT
REMARK Flexibility Score: inf
ROOT
ATOM      1  C   UNL     1      -1.811  15.168  -4.754  1.00  0.00     0.053 C 
ENDROOT
BRANCH   1   2
ATOM      2  C   UNL     1      -2.833  14.076  -4.773  1.00  0.00     0.041 C 
ATOM      3  O   UNL     1      -3.738  14.041  -3.899  1.00  0.00    -0.550 OA
ATOM      4  O   UNL     1      -2.755  13.068  -5.724  1.00  0.00    -0.550 OA
ENDBRANCH   1   2
BRANCH   1   5
ATOM      5  C   UNL     1      -1.814  15.885  -3.401  1.00  0.00     0.006 C 
BRANCH   5   6
ATOM      6  C   UNL     1      -0.397  15.980  -2.826  1.00  0.00    -0.003 C 
ATOM      7  C   UNL     1      -0.418  15.959  -1.300  1.00  0.00     0.004 C 
ENDBRANCH   5   6
ENDBRANCH   1   5
TORSDOF 3
ENDMDL
MODEL 6
REMARK VINA RESULT:    -2.889     10.982     11.774
REMARK INTER + INTRA:          -3.446
REMARK INTER:                  -3.349
REMARK INTRA:                  -0.096
REMARK UNBOUND:                -0.050
REMARK SMILES CCCCC(=O)[O-]
REMARK SMILES IDX 4 1 5 2 6 3 7 4 3 5 2 6 1 7
REMARK H PARENT
REMARK Flexibility Score: inf
ROOT
ATOM      1  C   UNL     1       0.830   6.028  12.682  1.00  0.00     0.053 C 
ENDROOT
BRANCH   1   2
ATOM      2  C   UNL     1       0.983   7.398  13.264  1.00  0.00     0.041 C 
ATOM      3  O   UNL     1      -0.035   8.083  13.546  1.00  0.00    -0.550 OA
ATOM      4  O   UNL     1       2.249   7.937  13.448  1.00  0.00    -0.550 OA
ENDBRANCH   1   2
BRANCH   1   5
ATOM      5  C   UNL     1       0.944   6.077  11.156  1.00  0.00     0.006 C 
BRANCH   5   6
ATOM      6  C   UNL     1      -0.426   6.309  10.510  1.00  0.00    -0.003 C 
ATOM      7  C   UNL     1      -0.412   7.545   9.616  1.00  0.00     0.004 C 
ENDBRANCH   5   6
ENDBRANCH   1   5
TORSDOF 3
ENDMDL
MODEL 7
REMARK VINA RESULT:    -2.861     10.767     11.507
REMARK INTER + INTRA:          -3.413
REMARK INTER:                  -3.353
REMARK INTRA:                  -0.060
REMARK UNBOUND:                -0.050
REMARK SMILES CCCCC(=O)[O-]
REMARK SMILES IDX 4 1 5 2 6 3 7 4 3 5 2 6 1 7
REMARK H PARENT
REMARK Flexibility Score: inf
ROOT
ATOM      1  C   UNL     1       0.502   6.016  11.820  1.00  0.00     0.053 C 
ENDROOT
BRANCH   1   2
ATOM      2  C   UNL     1      -0.332   6.506  12.961  1.00  0.00     0.041 C 
ATOM      3  O   UNL     1      -1.373   5.884  13.297  1.00  0.00    -0.550 OA
ATOM      4  O   UNL     1       0.013   7.678  13.620  1.00  0.00    -0.550 OA
ENDBRANCH   1   2
BRANCH   1   5
ATOM      5  C   UNL     1      -0.214   6.258  10.488  1.00  0.00     0.006 C 
BRANCH   5   6
ATOM      6  C   UNL     1      -0.302   7.756  10.175  1.00  0.00    -0.003 C 
ATOM      7  C   UNL     1      -0.323   8.004   8.670  1.00  0.00     0.004 C 
ENDBRANCH   5   6
ENDBRANCH   1   5
TORSDOF 3
ENDMDL
MODEL 8
REMARK VINA RESULT:    -2.839      2.253      2.473
REMARK INTER + INTRA:          -3.387
REMARK INTER:                  -3.344
REMARK INTRA:                  -0.043
REMARK UNBOUND:                -0.050
REMARK SMILES CCCCC(=O)[O-]
REMARK SMILES IDX 4 1 5 2 6 3 7 4 3 5 2 6 1 7
REMARK H PARENT
REMARK Flexibility Score: inf
ROOT
ATOM      1  C   UNL     1       3.128   8.689   0.275  1.00  0.00     0.053 C 
ENDROOT
BRANCH   1   2
ATOM      2  C   UNL     1       1.990   7.851   0.765  1.00  0.00     0.041 C 
ATOM      3  O   UNL     1       0.804   8.250   0.627  1.00  0.00    -0.550 OA
ATOM      4  O   UNL     1       2.242   6.652   1.419  1.00  0.00    -0.550 OA
ENDBRANCH   1   2
BRANCH   1   5
ATOM      5  C   UNL     1       3.361   8.457  -1.221  1.00  0.00     0.006 C 
BRANCH   5   6
ATOM      6  C   UNL     1       2.680   9.545  -2.059  1.00  0.00    -0.003 C 
ATOM      7  C   UNL     1       3.311   9.650  -3.443  1.00  0.00     0.004 C 
ENDBRANCH   5   6
ENDBRANCH   1   5
TORSDOF 3
ENDMDL
