MODEL 1
REMARK VINA RESULT:    18.389      0.000      0.000
REMARK INTER + INTRA:          20.977
REMARK INTER:                  21.077
REMARK INTRA:                  -0.100
REMARK UNBOUND:                -0.100
REMARK SMILES O=C1C[C@@H](c2ccc(O)cc2)Oc2cc(O)cc(O)c21
REMARK SMILES IDX 3 1 4 2 12 3 13 4 14 5 15 6 17 7 18 8 20 9 2 10 1 11 5 12
REMARK SMILES IDX 6 13 11 14 7 15 10 16 8 17 9 18 19 20 16 22
REMARK H PARENT 9 19 19 21 16 23
REMARK Flexibility Score: inf
ROOT
ATOM      1  C   UNL     1      12.758   9.061  16.810  1.00  0.00     0.131 C 
ATOM      2  C   UNL     1      11.603   8.051  16.663  1.00  0.00     0.211 C 
ATOM      3  O   UNL     1      10.401   8.532  17.278  1.00  0.00    -0.484 OA
ATOM      4  C   UNL     1      10.382   9.343  18.422  1.00  0.00     0.138 A 
ATOM      5  C   UNL     1       9.164   9.604  19.054  1.00  0.00     0.093 A 
ATOM      6  C   UNL     1       9.124  10.379  20.218  1.00  0.00     0.123 A 
ATOM      7  C   UNL     1      10.308  10.899  20.748  1.00  0.00     0.093 A 
ATOM      8  C   UNL     1      11.537  10.656  20.117  1.00  0.00     0.133 A 
ATOM      9  C   UNL     1      11.578   9.878  18.941  1.00  0.00     0.102 A 
ATOM     10  C   UNL     1      12.831   9.605  18.206  1.00  0.00     0.174 C 
ATOM     11  O   UNL     1      13.955   9.869  18.709  1.00  0.00    -0.294 OA
ENDROOT
BRANCH   2  12
ATOM     12  C   UNL     1      11.990   6.683  17.193  1.00  0.00    -0.007 A 
ATOM     13  C   UNL     1      13.189   6.538  17.916  1.00  0.00     0.011 A 
ATOM     14  C   UNL     1      11.153   5.561  17.038  1.00  0.00     0.011 A 
ATOM     15  C   UNL     1      13.554   5.298  18.447  1.00  0.00     0.046 A 
ATOM     16  C   UNL     1      11.521   4.323  17.571  1.00  0.00     0.046 A 
ATOM     17  C   UNL     1      12.720   4.186  18.275  1.00  0.00     0.115 A 
BRANCH  17  18
ATOM     18  O   UNL     1      13.073   2.945  18.800  1.00  0.00    -0.508 OA
ATOM     19  H   UNL     1      13.805   2.381  18.382  1.00  0.00     0.293 HD
ENDBRANCH  17  18
ENDBRANCH   2  12
BRANCH   8  20
ATOM     20  O   UNL     1      12.707  11.196  20.653  1.00  0.00    -0.507 OA
ATOM     21  H   UNL     1      13.002  10.988  21.600  1.00  0.00     0.293 HD
ENDBRANCH   8  20
BRANCH   6  22
ATOM     22  O   UNL     1       7.913  10.638  20.858  1.00  0.00    -0.508 OA
ATOM     23  H   UNL     1       7.258  11.321  20.495  1.00  0.00     0.293 HD
ENDBRANCH   6  22
TORSDOF 4
ENDMDL
MODEL 2
REMARK VINA RESULT:    18.599      1.198      6.020
REMARK INTER + INTRA:          21.217
REMARK INTER:                  21.284
REMARK INTRA:                  -0.066
REMARK UNBOUND:                -0.100
REMARK SMILES O=C1C[C@@H](c2ccc(O)cc2)Oc2cc(O)cc(O)c21
REMARK SMILES IDX 3 1 4 2 12 3 13 4 14 5 15 6 17 7 18 8 20 9 2 10 1 11 5 12
REMARK SMILES IDX 6 13 11 14 7 15 10 16 8 17 9 18 19 20 16 22
REMARK H PARENT 9 19 19 21 16 23
REMARK Flexibility Score: inf
ROOT
ATOM      1  C   UNL     1      12.273   9.154  16.554  1.00  0.00     0.131 C 
ATOM      2  C   UNL     1      12.539   9.200  18.071  1.00  0.00     0.211 C 
ATOM      3  O   UNL     1      13.017   7.940  18.560  1.00  0.00    -0.484 OA
ATOM      4  C   UNL     1      12.631   6.701  18.030  1.00  0.00     0.138 A 
ATOM      5  C   UNL     1      13.003   5.529  18.693  1.00  0.00     0.093 A 
ATOM      6  C   UNL     1      12.598   4.282  18.203  1.00  0.00     0.123 A 
ATOM      7  C   UNL     1      11.822   4.209  17.043  1.00  0.00     0.093 A 
ATOM      8  C   UNL     1      11.452   5.377  16.359  1.00  0.00     0.133 A 
ATOM      9  C   UNL     1      11.864   6.635  16.850  1.00  0.00     0.102 A 
ATOM     10  C   UNL     1      11.537   7.905  16.168  1.00  0.00     0.174 C 
ATOM     11  O   UNL     1      10.692   7.947  15.235  1.00  0.00    -0.294 OA
ENDROOT
BRANCH   2  12
ATOM     12  C   UNL     1      11.314   9.665  18.836  1.00  0.00    -0.007 A 
ATOM     13  C   UNL     1      10.069   9.711  18.182  1.00  0.00     0.011 A 
ATOM     14  C   UNL     1      11.373   9.994  20.205  1.00  0.00     0.011 A 
ATOM     15  C   UNL     1       8.917  10.101  18.871  1.00  0.00     0.046 A 
ATOM     16  C   UNL     1      10.219  10.383  20.891  1.00  0.00     0.046 A 
ATOM     17  C   UNL     1       8.989  10.439  20.228  1.00  0.00     0.115 A 
BRANCH  17  18
ATOM     18  O   UNL     1       7.849  10.829  20.925  1.00  0.00    -0.508 OA
ATOM     19  H   UNL     1       7.905  11.428  21.741  1.00  0.00     0.293 HD
ENDBRANCH  17  18
ENDBRANCH   2  12
BRANCH   8  20
ATOM     20  O   UNL     1      10.690   5.284  15.194  1.00  0.00    -0.507 OA
ATOM     21  H   UNL     1       9.746   4.914  15.206  1.00  0.00     0.293 HD
ENDBRANCH   8  20
BRANCH   6  22
ATOM     22  O   UNL     1      12.959   3.108  18.862  1.00  0.00    -0.508 OA
ATOM     23  H   UNL     1      13.028   3.069  19.872  1.00  0.00     0.293 HD
ENDBRANCH   6  22
TORSDOF 4
ENDMDL
