MODEL 1
REMARK VINA RESULT:    -5.662      0.000      0.000
REMARK INTER + INTRA:          -9.824
REMARK INTER:                  -7.647
REMARK INTRA:                  -2.177
REMARK UNBOUND:                -2.177
REMARK SMILES CC[C@@H](CC[C@H](C)[C@H]1CC[C@@H]2[C@@H]3CC(=O)C4=CC(=O)CC[C@]4(C)[C@@H]3CC[C@]21C)C(C)C
REMARK SMILES IDX 4 1 3 2 2 3 1 4 29 5 30 6 31 7 5 8 6 9 7 10 8 11 9 12 27 13
REMARK SMILES IDX 10 14 11 15 26 16 28 17 12 18 25 19 24 20 13 21 22 22 14 23
REMARK SMILES IDX 16 24 21 25 23 26 15 27 17 28 20 29 18 30 19 31
REMARK H PARENT
REMARK Flexibility Score: inf
ROOT
ATOM      1  C   UNL     1      99.153   5.884  68.401  1.00  0.00     0.004 C 
ENDROOT
BRANCH   1   2
ATOM      2  C   UNL     1      97.789   6.620  68.566  1.00  0.00    -0.009 C 
BRANCH   2   3
ATOM      3  C   UNL     1      97.839   7.591  69.781  1.00  0.00     0.000 C 
ATOM      4  C   UNL     1      97.787   9.068  69.379  1.00  0.00     0.004 C 
ENDBRANCH   2   3
BRANCH   2   5
ATOM      5  C   UNL     1      96.580   5.626  68.656  1.00  0.00    -0.014 C 
ATOM      6  C   UNL     1      95.876   5.627  70.025  1.00  0.00     0.007 C 
ATOM      7  C   UNL     1      96.985   4.194  68.272  1.00  0.00     0.007 C 
ENDBRANCH   2   5
ENDBRANCH   1   2
BRANCH   1   8
ATOM      8  C   UNL     1     100.130   6.094  69.584  1.00  0.00     0.004 C 
BRANCH   8   9
ATOM      9  C   UNL     1     100.396   4.883  70.530  1.00  0.00    -0.011 C 
ATOM     10  C   UNL     1     101.111   3.723  69.819  1.00  0.00     0.008 C 
BRANCH   9  11
ATOM     11  C   UNL     1      99.164   4.465  71.415  1.00  0.00    -0.002 C 
ATOM     12  C   UNL     1      98.757   2.963  71.304  1.00  0.00     0.005 C 
ATOM     13  C   UNL     1      99.201   4.780  72.973  1.00  0.00    -0.026 C 
ATOM     14  C   UNL     1      98.488   2.452  72.719  1.00  0.00     0.005 C 
ATOM     15  C   UNL     1      99.350   3.366  73.569  1.00  0.00    -0.001 C 
ATOM     16  C   UNL     1     100.324   5.713  73.576  1.00  0.00     0.007 C 
ATOM     17  C   UNL     1      97.828   5.432  73.320  1.00  0.00     0.012 C 
ATOM     18  C   UNL     1      99.324   3.265  75.122  1.00  0.00     0.004 C 
ATOM     19  C   UNL     1     101.195   5.060  74.677  1.00  0.00     0.005 C 
ATOM     20  C   UNL     1     100.432   4.213  75.758  1.00  0.00     0.003 C 
ATOM     21  C   UNL     1      97.897   3.291  75.765  1.00  0.00     0.085 C 
ATOM     22  C   UNL     1      99.995   4.964  77.081  1.00  0.00    -0.000 C 
ATOM     23  C   UNL     1      97.537   4.543  76.503  1.00  0.00     0.159 C 
ATOM     24  C   UNL     1      98.580   5.502  76.907  1.00  0.00     0.005 C 
ATOM     25  C   UNL     1     101.009   6.072  77.558  1.00  0.00     0.020 C 
ATOM     26  C   UNL     1      99.963   3.924  78.240  1.00  0.00     0.017 C 
ATOM     27  O   UNL     1      96.327   4.763  76.780  1.00  0.00    -0.295 OA
ATOM     28  C   UNL     1      98.259   6.797  77.073  1.00  0.00     0.055 C 
ATOM     29  C   UNL     1     100.714   7.487  77.049  1.00  0.00     0.081 C 
ATOM     30  C   UNL     1      99.283   7.820  77.285  1.00  0.00     0.156 C 
ATOM     31  O   UNL     1      98.945   8.999  77.575  1.00  0.00    -0.295 OA
ENDBRANCH   9  11
ENDBRANCH   8   9
ENDBRANCH   1   8
TORSDOF 6
ENDMDL
MODEL 2
REMARK VINA RESULT:    -5.634      1.679      3.354
REMARK INTER + INTRA:          -9.787
REMARK INTER:                  -7.550
REMARK INTRA:                  -2.236
REMARK UNBOUND:                -2.177
REMARK SMILES CC[C@@H](CC[C@H](C)[C@H]1CC[C@@H]2[C@@H]3CC(=O)C4=CC(=O)CC[C@]4(C)[C@@H]3CC[C@]21C)C(C)C
REMARK SMILES IDX 4 1 3 2 2 3 1 4 29 5 30 6 31 7 5 8 6 9 7 10 8 11 9 12 27 13
REMARK SMILES IDX 10 14 11 15 26 16 28 17 12 18 25 19 24 20 13 21 22 22 14 23
REMARK SMILES IDX 16 24 21 25 23 26 15 27 17 28 20 29 18 30 19 31
REMARK H PARENT
REMARK Flexibility Score: inf
ROOT
ATOM      1  C   UNL     1      97.341   5.853  68.387  1.00  0.00     0.004 C 
ENDROOT
BRANCH   1   2
ATOM      2  C   UNL     1      98.371   6.926  68.851  1.00  0.00    -0.009 C 
BRANCH   2   3
ATOM      3  C   UNL     1      99.636   6.243  69.450  1.00  0.00     0.000 C 
ATOM      4  C   UNL     1     100.442   7.163  70.371  1.00  0.00     0.004 C 
ENDBRANCH   2   3
BRANCH   2   5
ATOM      5  C   UNL     1      97.744   7.972  69.836  1.00  0.00    -0.014 C 
ATOM      6  C   UNL     1      96.305   7.635  70.265  1.00  0.00     0.007 C 
ATOM      7  C   UNL     1      97.806   9.400  69.271  1.00  0.00     0.007 C 
ENDBRANCH   2   5
ENDBRANCH   1   2
BRANCH   1   8
ATOM      8  C   UNL     1      97.887   4.403  68.409  1.00  0.00     0.004 C 
BRANCH   8   9
ATOM      9  C   UNL     1      97.152   3.363  69.309  1.00  0.00    -0.011 C 
ATOM     10  C   UNL     1      95.875   3.933  69.949  1.00  0.00     0.008 C 
BRANCH   9  11
ATOM     11  C   UNL     1      98.092   2.570  70.289  1.00  0.00    -0.002 C 
ATOM     12  C   UNL     1      99.531   2.304  69.748  1.00  0.00     0.005 C 
ATOM     13  C   UNL     1      98.291   3.119  71.769  1.00  0.00    -0.026 C 
ATOM     14  C   UNL     1     100.512   2.602  70.880  1.00  0.00     0.005 C 
ATOM     15  C   UNL     1      99.751   3.610  71.720  1.00  0.00    -0.001 C 
ATOM     16  C   UNL     1      97.376   4.281  72.322  1.00  0.00     0.007 C 
ATOM     17  C   UNL     1      98.103   1.896  72.717  1.00  0.00     0.012 C 
ATOM     18  C   UNL     1     100.346   4.141  73.057  1.00  0.00     0.004 C 
ATOM     19  C   UNL     1      98.137   5.545  72.793  1.00  0.00     0.005 C 
ATOM     20  C   UNL     1      99.431   5.299  73.649  1.00  0.00     0.003 C 
ATOM     21  C   UNL     1     100.843   3.036  74.048  1.00  0.00     0.085 C 
ATOM     22  C   UNL     1      99.257   5.280  75.223  1.00  0.00    -0.000 C 
ATOM     23  C   UNL     1     100.003   2.832  75.272  1.00  0.00     0.159 C 
ATOM     24  C   UNL     1      99.018   3.848  75.682  1.00  0.00     0.005 C 
ATOM     25  C   UNL     1      98.165   6.280  75.762  1.00  0.00     0.020 C 
ATOM     26  C   UNL     1     100.593   5.763  75.863  1.00  0.00     0.017 C 
ATOM     27  O   UNL     1     100.157   1.780  75.949  1.00  0.00    -0.295 OA
ATOM     28  C   UNL     1      97.949   3.476  76.407  1.00  0.00     0.055 C 
ATOM     29  C   UNL     1      96.763   5.683  75.930  1.00  0.00     0.081 C 
ATOM     30  C   UNL     1      96.847   4.399  76.680  1.00  0.00     0.156 C 
ATOM     31  O   UNL     1      95.928   4.067  77.474  1.00  0.00    -0.295 OA
ENDBRANCH   9  11
ENDBRANCH   8   9
ENDBRANCH   1   8
TORSDOF 6
ENDMDL
MODEL 3
REMARK VINA RESULT:    -5.400      2.565      7.215
REMARK INTER + INTRA:          -9.471
REMARK INTER:                  -7.475
REMARK INTRA:                  -1.996
REMARK UNBOUND:                -2.177
REMARK SMILES CC[C@@H](CC[C@H](C)[C@H]1CC[C@@H]2[C@@H]3CC(=O)C4=CC(=O)CC[C@]4(C)[C@@H]3CC[C@]21C)C(C)C
REMARK SMILES IDX 4 1 3 2 2 3 1 4 29 5 30 6 31 7 5 8 6 9 7 10 8 11 9 12 27 13
REMARK SMILES IDX 10 14 11 15 26 16 28 17 12 18 25 19 24 20 13 21 22 22 14 23
REMARK SMILES IDX 16 24 21 25 23 26 15 27 17 28 20 29 18 30 19 31
REMARK H PARENT
REMARK Flexibility Score: inf
ROOT
ATOM      1  C   UNL     1      98.092   7.103  76.242  1.00  0.00     0.004 C 
ENDROOT
BRANCH   1   2
ATOM      2  C   UNL     1      98.576   7.513  77.665  1.00  0.00    -0.009 C 
BRANCH   2   3
ATOM      3  C   UNL     1      98.160   8.979  77.980  1.00  0.00     0.000 C 
ATOM      4  C   UNL     1      97.026   9.492  77.088  1.00  0.00     0.004 C 
ENDBRANCH   2   3
BRANCH   2   5
ATOM      5  C   UNL     1     100.114   7.281  77.865  1.00  0.00    -0.014 C 
ATOM      6  C   UNL     1     100.961   7.642  76.631  1.00  0.00     0.007 C 
ATOM      7  C   UNL     1     100.423   5.844  78.316  1.00  0.00     0.007 C 
ENDBRANCH   2   5
ENDBRANCH   1   2
BRANCH   1   8
ATOM      8  C   UNL     1      97.344   5.748  76.195  1.00  0.00     0.004 C 
BRANCH   8   9
ATOM      9  C   UNL     1      98.082   4.532  75.555  1.00  0.00    -0.011 C 
ATOM     10  C   UNL     1      98.245   3.357  76.534  1.00  0.00     0.008 C 
BRANCH   9  11
ATOM     11  C   UNL     1      99.377   4.909  74.744  1.00  0.00    -0.002 C 
ATOM     12  C   UNL     1     100.453   3.783  74.667  1.00  0.00     0.005 C 
ATOM     13  C   UNL     1      99.216   5.445  73.256  1.00  0.00    -0.026 C 
ATOM     14  C   UNL     1     100.956   3.723  73.225  1.00  0.00     0.005 C 
ATOM     15  C   UNL     1      99.773   4.261  72.442  1.00  0.00    -0.001 C 
ATOM     16  C   UNL     1      97.792   5.832  72.691  1.00  0.00     0.007 C 
ATOM     17  C   UNL     1     100.112   6.716  73.150  1.00  0.00     0.012 C 
ATOM     18  C   UNL     1      99.869   4.465  70.901  1.00  0.00     0.004 C 
ATOM     19  C   UNL     1      97.358   5.056  71.424  1.00  0.00     0.005 C 
ATOM     20  C   UNL     1      98.451   4.878  70.309  1.00  0.00     0.003 C 
ATOM     21  C   UNL     1     101.117   5.274  70.414  1.00  0.00     0.085 C 
ATOM     22  C   UNL     1      98.493   5.971  69.164  1.00  0.00    -0.000 C 
ATOM     23  C   UNL     1     100.842   6.659  69.913  1.00  0.00     0.159 C 
ATOM     24  C   UNL     1      99.473   7.069  69.558  1.00  0.00     0.005 C 
ATOM     25  C   UNL     1      97.079   6.537  68.761  1.00  0.00     0.020 C 
ATOM     26  C   UNL     1      99.038   5.296  67.870  1.00  0.00     0.017 C 
ATOM     27  O   UNL     1     101.802   7.467  69.795  1.00  0.00    -0.295 OA
ATOM     28  C   UNL     1      99.135   8.369  69.622  1.00  0.00     0.055 C 
ATOM     29  C   UNL     1      96.650   7.807  69.505  1.00  0.00     0.081 C 
ATOM     30  C   UNL     1      97.749   8.811  69.466  1.00  0.00     0.156 C 
ATOM     31  O   UNL     1      97.483  10.040  69.392  1.00  0.00    -0.295 OA
ENDBRANCH   9  11
ENDBRANCH   8   9
ENDBRANCH   1   8
TORSDOF 6
ENDMDL
MODEL 4
REMARK VINA RESULT:    -5.262      3.937      7.155
REMARK INTER + INTRA:          -9.284
REMARK INTER:                  -7.244
REMARK INTRA:                  -2.040
REMARK UNBOUND:                -2.177
REMARK SMILES CC[C@@H](CC[C@H](C)[C@H]1CC[C@@H]2[C@@H]3CC(=O)C4=CC(=O)CC[C@]4(C)[C@@H]3CC[C@]21C)C(C)C
REMARK SMILES IDX 4 1 3 2 2 3 1 4 29 5 30 6 31 7 5 8 6 9 7 10 8 11 9 12 27 13
REMARK SMILES IDX 10 14 11 15 26 16 28 17 12 18 25 19 24 20 13 21 22 22 14 23
REMARK SMILES IDX 16 24 21 25 23 26 15 27 17 28 20 29 18 30 19 31
REMARK H PARENT
REMARK Flexibility Score: inf
ROOT
ATOM      1  C   UNL     1      99.060   8.058  78.554  1.00  0.00     0.004 C 
ENDROOT
BRANCH   1   2
ATOM      2  C   UNL     1     100.541   8.540  78.559  1.00  0.00    -0.009 C 
BRANCH   2   3
ATOM      3  C   UNL     1     101.488   7.384  78.994  1.00  0.00     0.000 C 
ATOM      4  C   UNL     1     102.646   7.150  78.020  1.00  0.00     0.004 C 
ENDBRANCH   2   3
BRANCH   2   5
ATOM      5  C   UNL     1     100.749   9.830  79.427  1.00  0.00    -0.014 C 
ATOM      6  C   UNL     1     101.813  10.791  78.867  1.00  0.00     0.007 C 
ATOM      7  C   UNL     1     101.064   9.489  80.893  1.00  0.00     0.007 C 
ENDBRANCH   2   5
ENDBRANCH   1   2
BRANCH   1   8
ATOM      8  C   UNL     1      98.253   8.510  77.311  1.00  0.00     0.004 C 
BRANCH   8   9
ATOM      9  C   UNL     1      97.785   7.410  76.310  1.00  0.00    -0.011 C 
ATOM     10  C   UNL     1      96.381   7.682  75.746  1.00  0.00     0.008 C 
BRANCH   9  11
ATOM     11  C   UNL     1      98.032   5.936  76.799  1.00  0.00    -0.002 C 
ATOM     12  C   UNL     1      96.817   4.973  76.624  1.00  0.00     0.005 C 
ATOM     13  C   UNL     1      99.287   5.142  76.229  1.00  0.00    -0.026 C 
ATOM     14  C   UNL     1      97.348   3.657  76.060  1.00  0.00     0.005 C 
ATOM     15  C   UNL     1      98.603   4.094  75.328  1.00  0.00    -0.001 C 
ATOM     16  C   UNL     1     100.398   5.891  75.393  1.00  0.00     0.007 C 
ATOM     17  C   UNL     1      99.995   4.499  77.461  1.00  0.00     0.012 C 
ATOM     18  C   UNL     1      99.538   3.045  74.657  1.00  0.00     0.004 C 
ATOM     19  C   UNL     1     100.627   5.338  73.965  1.00  0.00     0.005 C 
ATOM     20  C   UNL     1     100.681   3.774  73.825  1.00  0.00     0.003 C 
ATOM     21  C   UNL     1      99.963   1.851  75.575  1.00  0.00     0.085 C 
ATOM     22  C   UNL     1     102.110   3.095  73.908  1.00  0.00    -0.000 C 
ATOM     23  C   UNL     1     101.391   1.852  76.028  1.00  0.00     0.159 C 
ATOM     24  C   UNL     1     102.391   2.697  75.352  1.00  0.00     0.005 C 
ATOM     25  C   UNL     1     103.270   3.957  73.281  1.00  0.00     0.020 C 
ATOM     26  C   UNL     1     102.075   1.790  73.059  1.00  0.00     0.017 C 
ATOM     27  O   UNL     1     101.726   1.114  76.993  1.00  0.00    -0.295 OA
ATOM     28  C   UNL     1     103.479   3.104  76.029  1.00  0.00     0.055 C 
ATOM     29  C   UNL     1     104.009   4.869  74.266  1.00  0.00     0.081 C 
ATOM     30  C   UNL     1     104.403   4.093  75.474  1.00  0.00     0.156 C 
ATOM     31  O   UNL     1     105.483   4.350  76.070  1.00  0.00    -0.295 OA
ENDBRANCH   9  11
ENDBRANCH   8   9
ENDBRANCH   1   8
TORSDOF 6
ENDMDL
MODEL 5
REMARK VINA RESULT:    -5.201      2.593      7.373
REMARK INTER + INTRA:          -9.202
REMARK INTER:                  -7.348
REMARK INTRA:                  -1.854
REMARK UNBOUND:                -2.177
REMARK SMILES CC[C@@H](CC[C@H](C)[C@H]1CC[C@@H]2[C@@H]3CC(=O)C4=CC(=O)CC[C@]4(C)[C@@H]3CC[C@]21C)C(C)C
REMARK SMILES IDX 4 1 3 2 2 3 1 4 29 5 30 6 31 7 5 8 6 9 7 10 8 11 9 12 27 13
REMARK SMILES IDX 10 14 11 15 26 16 28 17 12 18 25 19 24 20 13 21 22 22 14 23
REMARK SMILES IDX 16 24 21 25 23 26 15 27 17 28 20 29 18 30 19 31
REMARK H PARENT
REMARK Flexibility Score: inf
ROOT
ATOM      1  C   UNL     1      99.639   6.621  76.098  1.00  0.00     0.004 C 
ENDROOT
BRANCH   1   2
ATOM      2  C   UNL     1     100.794   7.009  77.069  1.00  0.00    -0.009 C 
BRANCH   2   3
ATOM      3  C   UNL     1     101.939   5.957  77.001  1.00  0.00     0.000 C 
ATOM      4  C   UNL     1     102.902   6.185  75.833  1.00  0.00     0.004 C 
ENDBRANCH   2   3
BRANCH   2   5
ATOM      5  C   UNL     1     100.291   7.236  78.537  1.00  0.00    -0.014 C 
ATOM      6  C   UNL     1      99.338   8.436  78.687  1.00  0.00     0.007 C 
ATOM      7  C   UNL     1     101.457   7.361  79.530  1.00  0.00     0.007 C 
ENDBRANCH   2   5
ENDBRANCH   1   2
BRANCH   1   8
ATOM      8  C   UNL     1      98.873   5.339  76.508  1.00  0.00     0.004 C 
BRANCH   8   9
ATOM      9  C   UNL     1      99.051   4.070  75.619  1.00  0.00    -0.011 C 
ATOM     10  C   UNL     1      99.250   2.790  76.448  1.00  0.00     0.008 C 
BRANCH   9  11
ATOM     11  C   UNL     1     100.053   4.250  74.420  1.00  0.00    -0.002 C 
ATOM     12  C   UNL     1     100.928   2.999  74.103  1.00  0.00     0.005 C 
ATOM     13  C   UNL     1      99.484   4.736  73.016  1.00  0.00    -0.026 C 
ATOM     14  C   UNL     1     100.939   2.815  72.586  1.00  0.00     0.005 C 
ATOM     15  C   UNL     1      99.631   3.458  72.167  1.00  0.00    -0.001 C 
ATOM     16  C   UNL     1      98.003   5.269  72.892  1.00  0.00     0.007 C 
ATOM     17  C   UNL     1     100.426   5.883  72.537  1.00  0.00     0.012 C 
ATOM     18  C   UNL     1      99.253   3.582  70.662  1.00  0.00     0.004 C 
ATOM     19  C   UNL     1      97.112   4.497  71.887  1.00  0.00     0.005 C 
ATOM     20  C   UNL     1      97.770   4.139  70.507  1.00  0.00     0.003 C 
ATOM     21  C   UNL     1     100.358   4.210  69.749  1.00  0.00     0.085 C 
ATOM     22  C   UNL     1      97.559   5.168  69.322  1.00  0.00    -0.000 C 
ATOM     23  C   UNL     1     100.082   5.595  69.249  1.00  0.00     0.159 C 
ATOM     24  C   UNL     1      98.720   6.154  69.303  1.00  0.00     0.005 C 
ATOM     25  C   UNL     1      96.156   5.884  69.333  1.00  0.00     0.020 C 
ATOM     26  C   UNL     1      97.593   4.375  67.981  1.00  0.00     0.017 C 
ATOM     27  O   UNL     1     101.032   6.274  68.774  1.00  0.00    -0.295 OA
ATOM     28  C   UNL     1      98.554   7.487  69.365  1.00  0.00     0.055 C 
ATOM     29  C   UNL     1      96.117   7.228  70.070  1.00  0.00     0.081 C 
ATOM     30  C   UNL     1      97.243   8.087  69.611  1.00  0.00     0.156 C 
ATOM     31  O   UNL     1      97.095   9.335  69.526  1.00  0.00    -0.295 OA
ENDBRANCH   9  11
ENDBRANCH   8   9
ENDBRANCH   1   8
TORSDOF 6
ENDMDL
MODEL 6
REMARK VINA RESULT:    -5.048      1.651      2.714
REMARK INTER + INTRA:          -8.995
REMARK INTER:                  -6.873
REMARK INTRA:                  -2.122
REMARK UNBOUND:                -2.177
REMARK SMILES CC[C@@H](CC[C@H](C)[C@H]1CC[C@@H]2[C@@H]3CC(=O)C4=CC(=O)CC[C@]4(C)[C@@H]3CC[C@]21C)C(C)C
REMARK SMILES IDX 4 1 3 2 2 3 1 4 29 5 30 6 31 7 5 8 6 9 7 10 8 11 9 12 27 13
REMARK SMILES IDX 10 14 11 15 26 16 28 17 12 18 25 19 24 20 13 21 22 22 14 23
REMARK SMILES IDX 16 24 21 25 23 26 15 27 17 28 20 29 18 30 19 31
REMARK H PARENT
REMARK Flexibility Score: inf
ROOT
ATOM      1  C   UNL     1      96.007   5.205  69.926  1.00  0.00     0.004 C 
ENDROOT
BRANCH   1   2
ATOM      2  C   UNL     1      97.322   5.978  70.247  1.00  0.00    -0.009 C 
BRANCH   2   3
ATOM      3  C   UNL     1      96.997   7.390  70.816  1.00  0.00     0.000 C 
ATOM      4  C   UNL     1      97.000   8.489  69.750  1.00  0.00     0.004 C 
ENDBRANCH   2   3
BRANCH   2   5
ATOM      5  C   UNL     1      98.290   6.048  69.016  1.00  0.00    -0.014 C 
ATOM      6  C   UNL     1      97.758   5.325  67.765  1.00  0.00     0.007 C 
ATOM      7  C   UNL     1      99.697   5.534  69.364  1.00  0.00     0.007 C 
ENDBRANCH   2   5
ENDBRANCH   1   2
BRANCH   1   8
ATOM      8  C   UNL     1      95.943   3.786  70.545  1.00  0.00     0.004 C 
BRANCH   8   9
ATOM      9  C   UNL     1      97.282   3.136  71.010  1.00  0.00    -0.011 C 
ATOM     10  C   UNL     1      97.799   2.076  70.022  1.00  0.00     0.008 C 
BRANCH   9  11
ATOM     11  C   UNL     1      97.306   2.704  72.523  1.00  0.00    -0.002 C 
ATOM     12  C   UNL     1      97.299   1.164  72.766  1.00  0.00     0.005 C 
ATOM     13  C   UNL     1      98.455   3.277  73.462  1.00  0.00    -0.026 C 
ATOM     14  C   UNL     1      98.331   0.863  73.852  1.00  0.00     0.005 C 
ATOM     15  C   UNL     1      99.307   2.016  73.707  1.00  0.00    -0.001 C 
ATOM     16  C   UNL     1      99.395   4.442  72.959  1.00  0.00     0.007 C 
ATOM     17  C   UNL     1      97.750   3.782  74.757  1.00  0.00     0.012 C 
ATOM     18  C   UNL     1     100.504   2.171  74.690  1.00  0.00     0.004 C 
ATOM     19  C   UNL     1     100.907   4.107  72.955  1.00  0.00     0.005 C 
ATOM     20  C   UNL     1     101.457   3.355  74.219  1.00  0.00     0.003 C 
ATOM     21  C   UNL     1     100.129   2.107  76.208  1.00  0.00     0.085 C 
ATOM     22  C   UNL     1     102.045   4.249  75.387  1.00  0.00    -0.000 C 
ATOM     23  C   UNL     1     100.207   3.403  76.955  1.00  0.00     0.159 C 
ATOM     24  C   UNL     1     100.940   4.550  76.391  1.00  0.00     0.005 C 
ATOM     25  C   UNL     1     102.785   5.549  74.892  1.00  0.00     0.020 C 
ATOM     26  C   UNL     1     103.139   3.422  76.125  1.00  0.00     0.017 C 
ATOM     27  O   UNL     1      99.640   3.497  78.077  1.00  0.00    -0.295 OA
ATOM     28  C   UNL     1     100.594   5.798  76.752  1.00  0.00     0.055 C 
ATOM     29  C   UNL     1     101.911   6.806  74.815  1.00  0.00     0.081 C 
ATOM     30  C   UNL     1     101.155   6.974  76.086  1.00  0.00     0.156 C 
ATOM     31  O   UNL     1     100.918   8.126  76.536  1.00  0.00    -0.295 OA
ENDBRANCH   9  11
ENDBRANCH   8   9
ENDBRANCH   1   8
TORSDOF 6
ENDMDL
MODEL 7
REMARK VINA RESULT:    -5.040      3.149      7.700
REMARK INTER + INTRA:          -8.985
REMARK INTER:                  -7.006
REMARK INTRA:                  -1.979
REMARK UNBOUND:                -2.177
REMARK SMILES CC[C@@H](CC[C@H](C)[C@H]1CC[C@@H]2[C@@H]3CC(=O)C4=CC(=O)CC[C@]4(C)[C@@H]3CC[C@]21C)C(C)C
REMARK SMILES IDX 4 1 3 2 2 3 1 4 29 5 30 6 31 7 5 8 6 9 7 10 8 11 9 12 27 13
REMARK SMILES IDX 10 14 11 15 26 16 28 17 12 18 25 19 24 20 13 21 22 22 14 23
REMARK SMILES IDX 16 24 21 25 23 26 15 27 17 28 20 29 18 30 19 31
REMARK H PARENT
REMARK Flexibility Score: inf
ROOT
ATOM      1  C   UNL     1      99.957   6.501  75.760  1.00  0.00     0.004 C 
ENDROOT
BRANCH   1   2
ATOM      2  C   UNL     1     100.175   6.329  77.293  1.00  0.00    -0.009 C 
BRANCH   2   3
ATOM      3  C   UNL     1     100.914   7.567  77.880  1.00  0.00     0.000 C 
ATOM      4  C   UNL     1     101.497   7.319  79.274  1.00  0.00     0.004 C 
ENDBRANCH   2   3
BRANCH   2   5
ATOM      5  C   UNL     1     100.904   4.986  77.647  1.00  0.00    -0.014 C 
ATOM      6  C   UNL     1     101.595   4.319  76.444  1.00  0.00     0.007 C 
ATOM      7  C   UNL     1      99.960   3.986  78.335  1.00  0.00     0.007 C 
ENDBRANCH   2   5
ENDBRANCH   1   2
BRANCH   1   8
ATOM      8  C   UNL     1      98.469   6.608  75.342  1.00  0.00     0.004 C 
BRANCH   8   9
ATOM      9  C   UNL     1      97.677   5.282  75.131  1.00  0.00    -0.011 C 
ATOM     10  C   UNL     1      96.796   4.920  76.339  1.00  0.00     0.008 C 
BRANCH   9  11
ATOM     11  C   UNL     1      98.534   4.096  74.553  1.00  0.00    -0.002 C 
ATOM     12  C   UNL     1      98.400   2.749  75.329  1.00  0.00     0.005 C 
ATOM     13  C   UNL     1      98.375   3.716  73.017  1.00  0.00    -0.026 C 
ATOM     14  C   UNL     1      98.255   1.633  74.296  1.00  0.00     0.005 C 
ATOM     15  C   UNL     1      97.650   2.359  73.109  1.00  0.00    -0.001 C 
ATOM     16  C   UNL     1      97.573   4.661  72.036  1.00  0.00     0.007 C 
ATOM     17  C   UNL     1      99.820   3.584  72.447  1.00  0.00     0.012 C 
ATOM     18  C   UNL     1      97.403   1.614  71.765  1.00  0.00     0.004 C 
ATOM     19  C   UNL     1      96.372   3.994  71.323  1.00  0.00     0.005 C 
ATOM     20  C   UNL     1      96.616   2.552  70.749  1.00  0.00     0.003 C 
ATOM     21  C   UNL     1      98.633   0.821  71.209  1.00  0.00     0.085 C 
ATOM     22  C   UNL     1      97.083   2.450  69.240  1.00  0.00    -0.000 C 
ATOM     23  C   UNL     1      99.294   1.407  69.999  1.00  0.00     0.159 C 
ATOM     24  C   UNL     1      98.605   2.425  69.188  1.00  0.00     0.005 C 
ATOM     25  C   UNL     1      96.462   3.549  68.297  1.00  0.00     0.020 C 
ATOM     26  C   UNL     1      96.571   1.095  68.666  1.00  0.00     0.017 C 
ATOM     27  O   UNL     1     100.447   1.009  69.681  1.00  0.00    -0.295 OA
ATOM     28  C   UNL     1      99.331   3.300  68.470  1.00  0.00     0.055 C 
ATOM     29  C   UNL     1      97.309   4.816  68.130  1.00  0.00     0.081 C 
ATOM     30  C   UNL     1      98.713   4.445  67.801  1.00  0.00     0.156 C 
ATOM     31  O   UNL     1      99.395   5.166  67.025  1.00  0.00    -0.295 OA
ENDBRANCH   9  11
ENDBRANCH   8   9
ENDBRANCH   1   8
TORSDOF 6
ENDMDL
MODEL 8
REMARK VINA RESULT:    -4.981      2.403      4.303
REMARK INTER + INTRA:          -8.905
REMARK INTER:                  -6.827
REMARK INTRA:                  -2.077
REMARK UNBOUND:                -2.177
REMARK SMILES CC[C@@H](CC[C@H](C)[C@H]1CC[C@@H]2[C@@H]3CC(=O)C4=CC(=O)CC[C@]4(C)[C@@H]3CC[C@]21C)C(C)C
REMARK SMILES IDX 4 1 3 2 2 3 1 4 29 5 30 6 31 7 5 8 6 9 7 10 8 11 9 12 27 13
REMARK SMILES IDX 10 14 11 15 26 16 28 17 12 18 25 19 24 20 13 21 22 22 14 23
REMARK SMILES IDX 16 24 21 25 23 26 15 27 17 28 20 29 18 30 19 31
REMARK H PARENT
REMARK Flexibility Score: inf
ROOT
ATOM      1  C   UNL     1      99.107   3.071  69.345  1.00  0.00     0.004 C 
ENDROOT
BRANCH   1   2
ATOM      2  C   UNL     1      98.763   3.773  67.997  1.00  0.00    -0.009 C 
BRANCH   2   3
ATOM      3  C   UNL     1      99.390   2.995  66.803  1.00  0.00     0.000 C 
ATOM      4  C   UNL     1      99.876   3.907  65.674  1.00  0.00     0.004 C 
ENDBRANCH   2   3
BRANCH   2   5
ATOM      5  C   UNL     1      99.167   5.287  67.990  1.00  0.00    -0.014 C 
ATOM      6  C   UNL     1     100.271   5.640  69.004  1.00  0.00     0.007 C 
ATOM      7  C   UNL     1      97.951   6.206  68.193  1.00  0.00     0.007 C 
ENDBRANCH   2   5
ENDBRANCH   1   2
BRANCH   1   8
ATOM      8  C   UNL     1      97.866   2.649  70.171  1.00  0.00     0.004 C 
BRANCH   8   9
ATOM      9  C   UNL     1      97.288   3.678  71.189  1.00  0.00    -0.011 C 
ATOM     10  C   UNL     1      95.976   4.316  70.704  1.00  0.00     0.008 C 
BRANCH   9  11
ATOM     11  C   UNL     1      98.346   4.687  71.769  1.00  0.00    -0.002 C 
ATOM     12  C   UNL     1      97.830   6.149  71.946  1.00  0.00     0.005 C 
ATOM     13  C   UNL     1      99.077   4.327  73.135  1.00  0.00    -0.026 C 
ATOM     14  C   UNL     1      98.308   6.645  73.310  1.00  0.00     0.005 C 
ATOM     15  C   UNL     1      98.452   5.356  74.097  1.00  0.00    -0.001 C 
ATOM     16  C   UNL     1      98.937   2.885  73.763  1.00  0.00     0.007 C 
ATOM     17  C   UNL     1     100.597   4.579  72.897  1.00  0.00     0.012 C 
ATOM     18  C   UNL     1      99.011   5.372  75.550  1.00  0.00     0.004 C 
ATOM     19  C   UNL     1      98.351   2.850  75.196  1.00  0.00     0.005 C 
ATOM     20  C   UNL     1      98.903   3.923  76.201  1.00  0.00     0.003 C 
ATOM     21  C   UNL     1     100.358   6.147  75.735  1.00  0.00     0.085 C 
ATOM     22  C   UNL     1     100.133   3.498  77.102  1.00  0.00    -0.000 C 
ATOM     23  C   UNL     1     101.568   5.300  75.986  1.00  0.00     0.159 C 
ATOM     24  C   UNL     1     101.427   3.894  76.401  1.00  0.00     0.005 C 
ATOM     25  C   UNL     1     100.120   1.984  77.537  1.00  0.00     0.020 C 
ATOM     26  C   UNL     1     100.056   4.299  78.435  1.00  0.00     0.017 C 
ATOM     27  O   UNL     1     102.712   5.812  75.843  1.00  0.00    -0.295 OA
ATOM     28  C   UNL     1     102.411   3.021  76.124  1.00  0.00     0.055 C 
ATOM     29  C   UNL     1     100.890   1.034  76.613  1.00  0.00     0.081 C 
ATOM     30  C   UNL     1     102.246   1.584  76.340  1.00  0.00     0.156 C 
ATOM     31  O   UNL     1     103.229   0.808  76.203  1.00  0.00    -0.295 OA
ENDBRANCH   9  11
ENDBRANCH   8   9
ENDBRANCH   1   8
TORSDOF 6
ENDMDL
MODEL 9
REMARK VINA RESULT:    -4.918      2.527      7.018
REMARK INTER + INTRA:          -8.820
REMARK INTER:                  -6.448
REMARK INTRA:                  -2.372
REMARK UNBOUND:                -2.177
REMARK SMILES CC[C@@H](CC[C@H](C)[C@H]1CC[C@@H]2[C@@H]3CC(=O)C4=CC(=O)CC[C@]4(C)[C@@H]3CC[C@]21C)C(C)C
REMARK SMILES IDX 4 1 3 2 2 3 1 4 29 5 30 6 31 7 5 8 6 9 7 10 8 11 9 12 27 13
REMARK SMILES IDX 10 14 11 15 26 16 28 17 12 18 25 19 24 20 13 21 22 22 14 23
REMARK SMILES IDX 16 24 21 25 23 26 15 27 17 28 20 29 18 30 19 31
REMARK H PARENT
REMARK Flexibility Score: inf
ROOT
ATOM      1  C   UNL     1     101.126   4.537  76.925  1.00  0.00     0.004 C 
ENDROOT
BRANCH   1   2
ATOM      2  C   UNL     1     100.931   6.082  76.891  1.00  0.00    -0.009 C 
BRANCH   2   3
ATOM      3  C   UNL     1     102.259   6.790  76.493  1.00  0.00     0.000 C 
ATOM      4  C   UNL     1     102.067   7.901  75.458  1.00  0.00     0.004 C 
ENDBRANCH   2   3
BRANCH   2   5
ATOM      5  C   UNL     1     100.345   6.641  78.233  1.00  0.00    -0.014 C 
ATOM      6  C   UNL     1      99.267   7.723  78.037  1.00  0.00     0.007 C 
ATOM      7  C   UNL     1     101.449   7.160  79.169  1.00  0.00     0.007 C 
ENDBRANCH   2   5
ENDBRANCH   1   2
BRANCH   1   8
ATOM      8  C   UNL     1      99.893   3.756  77.444  1.00  0.00     0.004 C 
BRANCH   8   9
ATOM      9  C   UNL     1      99.119   2.863  76.428  1.00  0.00    -0.011 C 
ATOM     10  C   UNL     1     100.033   1.860  75.705  1.00  0.00     0.008 C 
BRANCH   9  11
ATOM     11  C   UNL     1      98.123   3.648  75.496  1.00  0.00    -0.002 C 
ATOM     12  C   UNL     1      97.408   4.858  76.173  1.00  0.00     0.005 C 
ATOM     13  C   UNL     1      98.653   4.196  74.100  1.00  0.00    -0.026 C 
ATOM     14  C   UNL     1      97.445   6.026  75.188  1.00  0.00     0.005 C 
ATOM     15  C   UNL     1      98.675   5.715  74.355  1.00  0.00    -0.001 C 
ATOM     16  C   UNL     1     100.063   3.748  73.547  1.00  0.00     0.007 C 
ATOM     17  C   UNL     1      97.591   3.783  73.037  1.00  0.00     0.012 C 
ATOM     18  C   UNL     1      99.061   6.614  73.144  1.00  0.00     0.004 C 
ATOM     19  C   UNL     1     101.056   4.904  73.274  1.00  0.00     0.005 C 
ATOM     20  C   UNL     1     100.469   6.170  72.552  1.00  0.00     0.003 C 
ATOM     21  C   UNL     1      97.904   6.889  72.126  1.00  0.00     0.085 C 
ATOM     22  C   UNL     1     100.577   6.209  70.972  1.00  0.00    -0.000 C 
ATOM     23  C   UNL     1      98.023   6.198  70.802  1.00  0.00     0.159 C 
ATOM     24  C   UNL     1      99.307   5.621  70.370  1.00  0.00     0.005 C 
ATOM     25  C   UNL     1     101.885   5.544  70.399  1.00  0.00     0.020 C 
ATOM     26  C   UNL     1     100.660   7.701  70.531  1.00  0.00     0.017 C 
ATOM     27  O   UNL     1      97.007   6.122  70.060  1.00  0.00    -0.295 OA
ATOM     28  C   UNL     1      99.312   4.596  69.500  1.00  0.00     0.055 C 
ATOM     29  C   UNL     1     101.751   4.064  70.024  1.00  0.00     0.081 C 
ATOM     30  C   UNL     1     100.539   3.863  69.183  1.00  0.00     0.156 C 
ATOM     31  O   UNL     1     100.539   3.002  68.265  1.00  0.00    -0.295 OA
ENDBRANCH   9  11
ENDBRANCH   8   9
ENDBRANCH   1   8
TORSDOF 6
ENDMDL
