MODEL 1
REMARK VINA RESULT:    -4.662      0.000      0.000
REMARK INTER + INTRA:          -5.935
REMARK INTER:                  -6.570
REMARK INTRA:                   0.634
REMARK UNBOUND:                 0.634
REMARK SMILES CC1=CCC(=C(C)C)C(=O)CC(C)=CCC1
REMARK SMILES IDX 12 1 14 2 13 3 15 4 16 5 2 6 1 7 3 8 11 10 9 11 10 12 5 13
REMARK SMILES IDX 6 14 7 15 8 16 4 17
REMARK H PARENT
REMARK Flexibility Score: 60.00
ROOT
ATOM      1  C   UNL     1     121.862 177.063 129.903  1.00  0.00    -0.070 C 
ATOM      2  C   UNL     1     120.933 176.206 130.390  1.00  0.00    -0.027 C 
ATOM      3  C   UNL     1     123.303 176.810 130.273  1.00  0.00     0.039 C 
ENDROOT
BRANCH   2   4
ATOM      4  C   UNL     1     119.436 176.328 130.236  1.00  0.00     0.032 C 
BRANCH   4   5
ATOM      5  C   UNL     1     118.839 175.217 129.353  1.00  0.00     0.034 C 
BRANCH   5   6
ATOM      6  C   UNL     1     119.907 174.306 128.780  1.00  0.00    -0.077 C 
ATOM      7  C   UNL     1     120.283 173.067 129.554  1.00  0.00     0.039 C 
ATOM      8  C   UNL     1     120.525 174.525 127.598  1.00  0.00    -0.023 CG0
ATOM      9  G   UNL     1     120.261 175.683 126.665  1.00  0.00     0.000 G0
ENDBRANCH   5   6
ENDBRANCH   4   5
ENDBRANCH   2   4
BRANCH   1  10
ATOM     10  C   UNL     1     121.526 178.290 129.072  1.00  0.00     0.111 C 
BRANCH  10  11
ATOM     11  C   UNL     1     120.773 177.920 127.818  1.00  0.00     0.163 C 
ATOM     12  O   UNL     1     119.754 178.597 127.516  1.00  0.00    -0.294 OA
BRANCH  11  13
ATOM     13  C   UNL     1     121.233 176.820 126.912  1.00  0.00    -0.002 C 
ATOM     14  C   UNL     1     122.450 176.864 126.289  1.00  0.00    -0.069 C 
ATOM     15  C   UNL     1     122.924 175.731 125.406  1.00  0.00     0.039 C 
ATOM     16  C   UNL     1     123.367 178.059 126.425  1.00  0.00     0.039 C 
BRANCH  13  17
ATOM     17  C   UNL     1     120.257 175.687 126.652  1.00  0.00     0.066 CG0
ATOM     18  G   UNL     1     120.531 174.547 127.604  1.00  0.00     0.000 G0
ENDBRANCH  13  17
ENDBRANCH  11  13
ENDBRANCH  10  11
ENDBRANCH   1  10
TORSDOF 0
ENDMDL
MODEL 2
REMARK VINA RESULT:    -4.550      1.925      4.612
REMARK INTER + INTRA:          -5.778
REMARK INTER:                  -6.552
REMARK INTRA:                   0.775
REMARK UNBOUND:                 0.634
REMARK SMILES CC1=CCC(=C(C)C)C(=O)CC(C)=CCC1
REMARK SMILES IDX 12 1 14 2 13 3 15 4 16 5 2 6 1 7 3 8 11 10 9 11 10 12 5 13
REMARK SMILES IDX 6 14 7 15 8 16 4 17
REMARK H PARENT
REMARK Flexibility Score: 60.00
ROOT
ATOM      1  C   UNL     1     120.575 178.156 126.944  1.00  0.00    -0.070 C 
ATOM      2  C   UNL     1     121.349 179.233 127.219  1.00  0.00    -0.027 C 
ATOM      3  C   UNL     1     119.097 178.272 127.226  1.00  0.00     0.039 C 
ENDROOT
BRANCH   2   4
ATOM      4  C   UNL     1     122.853 179.302 127.115  1.00  0.00     0.032 C 
BRANCH   4   5
ATOM      5  C   UNL     1     123.552 178.139 127.844  1.00  0.00     0.034 C 
BRANCH   5   6
ATOM      6  C   UNL     1     123.156 178.061 129.306  1.00  0.00    -0.077 C 
ATOM      7  C   UNL     1     123.338 179.288 130.164  1.00  0.00     0.039 C 
ATOM      8  C   UNL     1     122.624 176.960 129.882  1.00  0.00    -0.023 CG0
ATOM      9  G   UNL     1     122.333 175.653 129.184  1.00  0.00     0.000 G0
ENDBRANCH   5   6
ENDBRANCH   4   5
ENDBRANCH   2   4
BRANCH   1  10
ATOM     10  C   UNL     1     121.120 176.832 126.437  1.00  0.00     0.111 C 
BRANCH  10  11
ATOM     11  C   UNL     1     120.617 175.672 127.261  1.00  0.00     0.163 C 
ATOM     12  O   UNL     1     119.998 174.748 126.669  1.00  0.00    -0.294 OA
BRANCH  11  13
ATOM     13  C   UNL     1     120.880 175.573 128.731  1.00  0.00    -0.002 C 
ATOM     14  C   UNL     1     119.861 175.498 129.640  1.00  0.00    -0.069 C 
ATOM     15  C   UNL     1     120.135 175.360 131.122  1.00  0.00     0.039 C 
ATOM     16  C   UNL     1     118.412 175.585 129.216  1.00  0.00     0.039 C 
BRANCH  13  17
ATOM     17  C   UNL     1     122.329 175.635 129.179  1.00  0.00     0.066 CG0
ATOM     18  G   UNL     1     122.599 176.955 129.860  1.00  0.00     0.000 G0
ENDBRANCH  13  17
ENDBRANCH  11  13
ENDBRANCH  10  11
ENDBRANCH   1  10
TORSDOF 0
ENDMDL
MODEL 3
REMARK VINA RESULT:    -4.505      1.949      4.878
REMARK INTER + INTRA:          -5.714
REMARK INTER:                  -6.338
REMARK INTRA:                   0.624
REMARK UNBOUND:                 0.634
REMARK SMILES CC1=CCC(=C(C)C)C(=O)CC(C)=CCC1
REMARK SMILES IDX 12 1 14 2 13 3 15 4 16 5 2 6 1 7 3 8 11 10 9 11 10 12 5 13
REMARK SMILES IDX 6 14 7 15 8 16 4 17
REMARK H PARENT
REMARK Flexibility Score: 60.00
ROOT
ATOM      1  C   UNL     1     122.276 175.935 125.614  1.00  0.00    -0.070 C 
ATOM      2  C   UNL     1     122.304 177.240 125.250  1.00  0.00    -0.027 C 
ATOM      3  C   UNL     1     123.475 175.089 125.259  1.00  0.00     0.039 C 
ENDROOT
BRANCH   2   4
ATOM      4  C   UNL     1     121.180 178.236 125.407  1.00  0.00     0.032 C 
BRANCH   4   5
ATOM      5  C   UNL     1     121.552 179.407 126.336  1.00  0.00     0.034 C 
BRANCH   5   6
ATOM      6  C   UNL     1     122.254 178.936 127.596  1.00  0.00    -0.077 C 
ATOM      7  C   UNL     1     123.669 179.396 127.841  1.00  0.00     0.039 C 
ATOM      8  C   UNL     1     121.675 178.148 128.528  1.00  0.00    -0.023 CG0
ATOM      9  G   UNL     1     120.262 177.617 128.481  1.00  0.00     0.000 G0
ENDBRANCH   5   6
ENDBRANCH   4   5
ENDBRANCH   2   4
BRANCH   1  10
ATOM     10  C   UNL     1     121.088 175.273 126.291  1.00  0.00     0.111 C 
BRANCH  10  11
ATOM     11  C   UNL     1     121.205 175.328 127.794  1.00  0.00     0.163 C 
ATOM     12  O   UNL     1     122.174 174.733 128.336  1.00  0.00    -0.294 OA
BRANCH  11  13
ATOM     13  C   UNL     1     120.242 176.107 128.635  1.00  0.00    -0.002 C 
ATOM     14  C   UNL     1     119.349 175.487 129.465  1.00  0.00    -0.069 C 
ATOM     15  C   UNL     1     118.405 176.282 130.340  1.00  0.00     0.039 C 
ATOM     16  C   UNL     1     119.236 173.981 129.524  1.00  0.00     0.039 C 
BRANCH  13  17
ATOM     17  C   UNL     1     120.247 177.616 128.471  1.00  0.00     0.066 CG0
ATOM     18  G   UNL     1     121.664 178.134 128.525  1.00  0.00     0.000 G0
ENDBRANCH  13  17
ENDBRANCH  11  13
ENDBRANCH  10  11
ENDBRANCH   1  10
TORSDOF 0
ENDMDL
MODEL 4
REMARK VINA RESULT:    -4.470      2.350      4.303
REMARK INTER + INTRA:          -5.665
REMARK INTER:                  -6.606
REMARK INTRA:                   0.941
REMARK UNBOUND:                 0.634
REMARK SMILES CC1=CCC(=C(C)C)C(=O)CC(C)=CCC1
REMARK SMILES IDX 12 1 14 2 13 3 15 4 16 5 2 6 1 7 3 8 11 10 9 11 10 12 5 13
REMARK SMILES IDX 6 14 7 15 8 16 4 17
REMARK H PARENT
REMARK Flexibility Score: 60.00
ROOT
ATOM      1  C   UNL     1     119.968 177.882 128.123  1.00  0.00    -0.070 C 
ATOM      2  C   UNL     1     119.245 178.529 127.178  1.00  0.00    -0.027 C 
ATOM      3  C   UNL     1     119.381 176.620 128.706  1.00  0.00     0.039 C 
ENDROOT
BRANCH   2   4
ATOM      4  C   UNL     1     119.587 179.853 126.541  1.00  0.00     0.032 C 
BRANCH   4   5
ATOM      5  C   UNL     1     121.037 179.904 126.023  1.00  0.00     0.034 C 
BRANCH   5   6
ATOM      6  C   UNL     1     121.254 178.980 124.841  1.00  0.00    -0.077 C 
ATOM      7  C   UNL     1     120.363 179.139 123.634  1.00  0.00     0.039 C 
ATOM      8  C   UNL     1     122.220 178.035 124.794  1.00  0.00    -0.023 CG0
ATOM      9  G   UNL     1     123.227 177.749 125.881  1.00  0.00     0.000 G0
ENDBRANCH   5   6
ENDBRANCH   4   5
ENDBRANCH   2   4
BRANCH   1  10
ATOM     10  C   UNL     1     121.292 178.391 128.669  1.00  0.00     0.111 C 
BRANCH  10  11
ATOM     11  C   UNL     1     122.428 177.459 128.327  1.00  0.00     0.163 C 
ATOM     12  O   UNL     1     123.234 177.145 129.244  1.00  0.00    -0.294 OA
BRANCH  11  13
ATOM     13  C   UNL     1     122.584 176.868 126.961  1.00  0.00    -0.002 C 
ATOM     14  C   UNL     1     122.240 175.571 126.695  1.00  0.00    -0.069 C 
ATOM     15  C   UNL     1     122.365 174.992 125.303  1.00  0.00     0.039 C 
ATOM     16  C   UNL     1     121.751 174.642 127.783  1.00  0.00     0.039 C 
BRANCH  13  17
ATOM     17  C   UNL     1     123.214 177.747 125.896  1.00  0.00     0.066 CG0
ATOM     18  G   UNL     1     122.216 178.015 124.795  1.00  0.00     0.000 G0
ENDBRANCH  13  17
ENDBRANCH  11  13
ENDBRANCH  10  11
ENDBRANCH   1  10
TORSDOF 0
ENDMDL
MODEL 5
REMARK VINA RESULT:    -4.401      2.412      4.559
REMARK INTER + INTRA:          -5.567
REMARK INTER:                  -6.354
REMARK INTRA:                   0.787
REMARK UNBOUND:                 0.634
REMARK SMILES CC1=CCC(=C(C)C)C(=O)CC(C)=CCC1
REMARK SMILES IDX 12 1 14 2 13 3 15 4 16 5 2 6 1 7 3 8 11 10 9 11 10 12 5 13
REMARK SMILES IDX 6 14 7 15 8 16 4 17
REMARK H PARENT
REMARK Flexibility Score: 60.00
ROOT
ATOM      1  C   UNL     1     119.194 176.428 128.048  1.00  0.00    -0.070 C 
ATOM      2  C   UNL     1     118.378 177.220 127.312  1.00  0.00    -0.027 C 
ATOM      3  C   UNL     1     118.915 176.325 129.528  1.00  0.00     0.039 C 
ENDROOT
BRANCH   2   4
ATOM      4  C   UNL     1     118.534 177.549 125.848  1.00  0.00     0.032 C 
BRANCH   4   5
ATOM      5  C   UNL     1     118.919 179.021 125.609  1.00  0.00     0.034 C 
BRANCH   5   6
ATOM      6  C   UNL     1     120.382 179.177 125.240  1.00  0.00    -0.077 C 
ATOM      7  C   UNL     1     120.742 179.309 123.782  1.00  0.00     0.039 C 
ATOM      8  C   UNL     1     121.383 179.230 126.147  1.00  0.00    -0.023 CG0
ATOM      9  G   UNL     1     121.221 179.152 127.646  1.00  0.00     0.000 G0
ENDBRANCH   5   6
ENDBRANCH   4   5
ENDBRANCH   2   4
BRANCH   1  10
ATOM     10  C   UNL     1     120.402 175.701 127.480  1.00  0.00     0.111 C 
BRANCH  10  11
ATOM     11  C   UNL     1     121.575 176.632 127.298  1.00  0.00     0.163 C 
ATOM     12  O   UNL     1     122.375 176.400 126.353  1.00  0.00    -0.294 OA
BRANCH  11  13
ATOM     13  C   UNL     1     121.774 177.835 128.167  1.00  0.00    -0.002 C 
ATOM     14  C   UNL     1     122.349 177.740 129.404  1.00  0.00    -0.069 C 
ATOM     15  C   UNL     1     122.582 178.966 130.261  1.00  0.00     0.039 C 
ATOM     16  C   UNL     1     122.750 176.406 129.992  1.00  0.00     0.039 C 
BRANCH  13  17
ATOM     17  C   UNL     1     121.239 179.157 127.648  1.00  0.00     0.066 CG0
ATOM     18  G   UNL     1     121.383 179.215 126.146  1.00  0.00     0.000 G0
ENDBRANCH  13  17
ENDBRANCH  11  13
ENDBRANCH  10  11
ENDBRANCH   1  10
TORSDOF 0
ENDMDL
MODEL 6
REMARK VINA RESULT:    -4.393      1.929      3.429
REMARK INTER + INTRA:          -5.556
REMARK INTER:                  -6.248
REMARK INTRA:                   0.692
REMARK UNBOUND:                 0.634
REMARK SMILES CC1=CCC(=C(C)C)C(=O)CC(C)=CCC1
REMARK SMILES IDX 12 1 14 2 13 3 15 4 16 5 2 6 1 7 3 8 11 10 9 11 10 12 5 13
REMARK SMILES IDX 6 14 7 15 8 16 4 17
REMARK H PARENT
REMARK Flexibility Score: 60.00
ROOT
ATOM      1  C   UNL     1     119.983 177.871 126.687  1.00  0.00    -0.070 C 
ATOM      2  C   UNL     1     119.170 176.898 127.165  1.00  0.00    -0.027 C 
ATOM      3  C   UNL     1     119.506 179.297 126.804  1.00  0.00     0.039 C 
ENDROOT
BRANCH   2   4
ATOM      4  C   UNL     1     119.397 175.410 127.058  1.00  0.00     0.032 C 
BRANCH   4   5
ATOM      5  C   UNL     1     119.939 174.798 128.363  1.00  0.00     0.034 C 
BRANCH   5   6
ATOM      6  C   UNL     1     119.908 175.786 129.514  1.00  0.00    -0.077 C 
ATOM      7  C   UNL     1     118.600 176.010 130.230  1.00  0.00     0.039 C 
ATOM      8  C   UNL     1     120.994 176.460 129.954  1.00  0.00    -0.023 CG0
ATOM      9  G   UNL     1     122.392 176.345 129.394  1.00  0.00     0.000 G0
ENDBRANCH   5   6
ENDBRANCH   4   5
ENDBRANCH   2   4
BRANCH   1  10
ATOM     10  C   UNL     1     121.304 177.598 125.986  1.00  0.00     0.111 C 
BRANCH  10  11
ATOM     11  C   UNL     1     122.258 176.842 126.877  1.00  0.00     0.163 C 
ATOM     12  O   UNL     1     122.800 175.801 126.418  1.00  0.00    -0.294 OA
BRANCH  11  13
ATOM     13  C   UNL     1     122.610 177.323 128.250  1.00  0.00    -0.002 C 
ATOM     14  C   UNL     1     123.151 178.561 128.461  1.00  0.00    -0.069 C 
ATOM     15  C   UNL     1     123.469 179.055 129.856  1.00  0.00     0.039 C 
ATOM     16  C   UNL     1     123.489 179.484 127.313  1.00  0.00     0.039 C 
BRANCH  13  17
ATOM     17  C   UNL     1     122.412 176.346 129.395  1.00  0.00     0.066 CG0
ATOM     18  G   UNL     1     121.007 176.466 129.935  1.00  0.00     0.000 G0
ENDBRANCH  13  17
ENDBRANCH  11  13
ENDBRANCH  10  11
ENDBRANCH   1  10
TORSDOF 0
ENDMDL
MODEL 7
REMARK VINA RESULT:    -4.288      2.032      3.418
REMARK INTER + INTRA:          -5.408
REMARK INTER:                  -6.032
REMARK INTRA:                   0.623
REMARK UNBOUND:                 0.634
REMARK SMILES CC1=CCC(=C(C)C)C(=O)CC(C)=CCC1
REMARK SMILES IDX 12 1 14 2 13 3 15 4 16 5 2 6 1 7 3 8 11 10 9 11 10 12 5 13
REMARK SMILES IDX 6 14 7 15 8 16 4 17
REMARK H PARENT
REMARK Flexibility Score: 60.00
ROOT
ATOM      1  C   UNL     1     121.403 173.269 127.217  1.00  0.00    -0.070 C 
ATOM      2  C   UNL     1     120.874 172.906 128.411  1.00  0.00    -0.027 C 
ATOM      3  C   UNL     1     122.600 172.494 126.723  1.00  0.00     0.039 C 
ENDROOT
BRANCH   2   4
ATOM      4  C   UNL     1     119.751 173.603 129.139  1.00  0.00     0.032 C 
BRANCH   4   5
ATOM      5  C   UNL     1     120.243 174.783 129.997  1.00  0.00     0.034 C 
BRANCH   5   6
ATOM      6  C   UNL     1     119.613 176.097 129.577  1.00  0.00    -0.077 C 
ATOM      7  C   UNL     1     118.193 176.378 129.999  1.00  0.00     0.039 C 
ATOM      8  C   UNL     1     120.261 177.047 128.866  1.00  0.00    -0.023 CG0
ATOM      9  G   UNL     1     121.690 176.968 128.384  1.00  0.00     0.000 G0
ENDBRANCH   5   6
ENDBRANCH   4   5
ENDBRANCH   2   4
BRANCH   1  10
ATOM     10  C   UNL     1     120.901 174.443 126.393  1.00  0.00     0.111 C 
BRANCH  10  11
ATOM     11  C   UNL     1     121.947 175.525 126.276  1.00  0.00     0.163 C 
ATOM     12  O   UNL     1     122.992 175.270 125.620  1.00  0.00    -0.294 OA
BRANCH  11  13
ATOM     13  C   UNL     1     121.748 176.886 126.866  1.00  0.00    -0.002 C 
ATOM     14  C   UNL     1     121.682 178.005 126.083  1.00  0.00    -0.069 C 
ATOM     15  C   UNL     1     121.443 179.373 126.684  1.00  0.00     0.039 C 
ATOM     16  C   UNL     1     121.878 177.938 124.586  1.00  0.00     0.039 C 
BRANCH  13  17
ATOM     17  C   UNL     1     121.699 176.981 128.380  1.00  0.00     0.066 CG0
ATOM     18  G   UNL     1     120.263 177.046 128.844  1.00  0.00     0.000 G0
ENDBRANCH  13  17
ENDBRANCH  11  13
ENDBRANCH  10  11
ENDBRANCH   1  10
TORSDOF 0
ENDMDL
MODEL 8
REMARK VINA RESULT:    -4.265      2.525      4.710
REMARK INTER + INTRA:          -5.376
REMARK INTER:                  -6.244
REMARK INTRA:                   0.868
REMARK UNBOUND:                 0.634
REMARK SMILES CC1=CCC(=C(C)C)C(=O)CC(C)=CCC1
REMARK SMILES IDX 12 1 14 2 13 3 15 4 16 5 2 6 1 7 3 8 11 10 9 11 10 12 5 13
REMARK SMILES IDX 6 14 7 15 8 16 4 17
REMARK H PARENT
REMARK Flexibility Score: 60.00
ROOT
ATOM      1  C   UNL     1     122.196 178.127 124.534  1.00  0.00    -0.070 C 
ATOM      2  C   UNL     1     121.257 178.623 123.694  1.00  0.00    -0.027 C 
ATOM      3  C   UNL     1     122.881 176.843 124.133  1.00  0.00     0.039 C 
ENDROOT
BRANCH   2   4
ATOM      4  C   UNL     1     120.380 179.825 123.943  1.00  0.00     0.032 C 
BRANCH   4   5
ATOM      5  C   UNL     1     119.745 179.816 125.346  1.00  0.00     0.034 C 
BRANCH   5   6
ATOM      6  C   UNL     1     118.835 178.621 125.554  1.00  0.00    -0.077 C 
ATOM      7  C   UNL     1     117.750 178.362 124.539  1.00  0.00     0.039 C 
ATOM      8  C   UNL     1     118.956 177.755 126.586  1.00  0.00    -0.023 CG0
ATOM      9  G   UNL     1     119.997 177.824 127.678  1.00  0.00     0.000 G0
ENDBRANCH   5   6
ENDBRANCH   4   5
ENDBRANCH   2   4
BRANCH   1  10
ATOM     10  C   UNL     1     122.543 178.752 125.875  1.00  0.00     0.111 C 
BRANCH  10  11
ATOM     11  C   UNL     1     122.477 177.740 126.993  1.00  0.00     0.163 C 
ATOM     12  O   UNL     1     123.509 177.563 127.694  1.00  0.00    -0.294 OA
BRANCH  11  13
ATOM     13  C   UNL     1     121.219 176.995 127.313  1.00  0.00    -0.002 C 
ATOM     14  C   UNL     1     121.145 175.633 127.214  1.00  0.00    -0.069 C 
ATOM     15  C   UNL     1     119.881 174.884 127.577  1.00  0.00     0.039 C 
ATOM     16  C   UNL     1     122.308 174.811 126.707  1.00  0.00     0.039 C 
BRANCH  13  17
ATOM     17  C   UNL     1     120.002 177.824 127.681  1.00  0.00     0.066 CG0
ATOM     18  G   UNL     1     118.975 177.745 126.577  1.00  0.00     0.000 G0
ENDBRANCH  13  17
ENDBRANCH  11  13
ENDBRANCH  10  11
ENDBRANCH   1  10
TORSDOF 0
ENDMDL
MODEL 9
REMARK VINA RESULT:    -4.189      1.798      4.654
REMARK INTER + INTRA:          -5.269
REMARK INTER:                  -6.017
REMARK INTRA:                   0.748
REMARK UNBOUND:                 0.634
REMARK SMILES CC1=CCC(=C(C)C)C(=O)CC(C)=CCC1
REMARK SMILES IDX 12 1 14 2 13 3 15 4 16 5 2 6 1 7 3 8 11 10 9 11 10 12 5 13
REMARK SMILES IDX 6 14 7 15 8 16 4 17
REMARK H PARENT
REMARK Flexibility Score: 60.00
ROOT
ATOM      1  C   UNL     1     121.907 174.288 126.902  1.00  0.00    -0.070 C 
ATOM      2  C   UNL     1     122.695 174.728 125.891  1.00  0.00    -0.027 C 
ATOM      3  C   UNL     1     122.509 173.306 127.877  1.00  0.00     0.039 C 
ENDROOT
BRANCH   2   4
ATOM      4  C   UNL     1     122.272 175.623 124.753  1.00  0.00     0.032 C 
BRANCH   4   5
ATOM      5  C   UNL     1     122.941 177.009 124.808  1.00  0.00     0.034 C 
BRANCH   5   6
ATOM      6  C   UNL     1     122.006 178.074 125.346  1.00  0.00    -0.077 C 
ATOM      7  C   UNL     1     121.254 178.932 124.359  1.00  0.00     0.039 C 
ATOM      8  C   UNL     1     121.786 178.285 126.663  1.00  0.00    -0.023 CG0
ATOM      9  G   UNL     1     122.413 177.510 127.797  1.00  0.00     0.000 G0
ENDBRANCH   5   6
ENDBRANCH   4   5
ENDBRANCH   2   4
BRANCH   1  10
ATOM     10  C   UNL     1     120.446 174.676 127.064  1.00  0.00     0.111 C 
BRANCH  10  11
ATOM     11  C   UNL     1     120.302 176.060 127.647  1.00  0.00     0.163 C 
ATOM     12  O   UNL     1     119.231 176.688 127.427  1.00  0.00    -0.294 OA
BRANCH  11  13
ATOM     13  C   UNL     1     121.361 176.671 128.511  1.00  0.00    -0.002 C 
ATOM     14  C   UNL     1     121.343 176.540 129.872  1.00  0.00    -0.069 C 
ATOM     15  C   UNL     1     122.438 177.128 130.735  1.00  0.00     0.039 C 
ATOM     16  C   UNL     1     120.213 175.831 130.584  1.00  0.00     0.039 C 
BRANCH  13  17
ATOM     17  C   UNL     1     122.418 177.510 127.816  1.00  0.00     0.066 CG0
ATOM     18  G   UNL     1     121.795 178.281 126.677  1.00  0.00     0.000 G0
ENDBRANCH  13  17
ENDBRANCH  11  13
ENDBRANCH  10  11
ENDBRANCH   1  10
TORSDOF 0
ENDMDL
