MODEL 1
REMARK VINA RESULT:    -7.049      0.000      0.000
REMARK INTER + INTRA:          -9.041
REMARK INTER:                  -8.697
REMARK INTRA:                  -0.343
REMARK UNBOUND:                -0.343
REMARK SMILES O=c1c(O)c(-c2cc(O)c(O)c(O)c2)oc2cc(O)cc(O)c12
REMARK SMILES IDX 5 1 3 2 2 3 1 4 23 5 21 6 20 7 18 8 17 9 16 10 15 11 6 12
REMARK SMILES IDX 7 13 8 14 14 15 10 16 12 17 9 18 11 20 13 22 4 24 22 26
REMARK SMILES IDX 19 28
REMARK H PARENT 9 19 11 21 13 23 4 25 22 27 19 29
REMARK Flexibility Score: inf
ROOT
ATOM      1  C   UNL     1      18.599  24.431  41.700  1.00  0.00     0.180 A 
ATOM      2  C   UNL     1      17.369  24.125  42.316  1.00  0.00     0.208 A 
ATOM      3  C   UNL     1      16.950  24.894  43.412  1.00  0.00     0.238 A 
ATOM      4  O   UNL     1      15.846  24.638  43.964  1.00  0.00    -0.285 OA
ATOM      5  C   UNL     1      17.771  25.938  43.887  1.00  0.00     0.111 A 
ATOM      6  C   UNL     1      17.423  26.757  44.988  1.00  0.00     0.134 A 
ATOM      7  C   UNL     1      18.300  27.770  45.405  1.00  0.00     0.093 A 
ATOM      8  C   UNL     1      19.513  27.979  44.746  1.00  0.00     0.123 A 
ATOM      9  C   UNL     1      19.861  27.173  43.657  1.00  0.00     0.094 A 
ATOM     10  C   UNL     1      19.001  26.160  43.225  1.00  0.00     0.146 A 
ATOM     11  O   UNL     1      19.354  25.413  42.184  1.00  0.00    -0.452 OA
ENDROOT
BRANCH   1  12
ATOM     12  C   UNL     1      19.101  23.677  40.528  1.00  0.00     0.029 A 
ATOM     13  C   UNL     1      20.115  22.726  40.703  1.00  0.00     0.062 A 
ATOM     14  C   UNL     1      20.621  22.015  39.613  1.00  0.00     0.162 A 
ATOM     15  C   UNL     1      18.624  23.936  39.234  1.00  0.00     0.062 A 
ATOM     16  C   UNL     1      20.128  22.257  38.317  1.00  0.00     0.200 A 
ATOM     17  C   UNL     1      19.123  23.236  38.130  1.00  0.00     0.162 A 
BRANCH  14  18
ATOM     18  O   UNL     1      21.620  21.066  39.838  1.00  0.00    -0.504 OA
ATOM     19  H   UNL     1      22.571  21.325  40.070  1.00  0.00     0.293 HD
ENDBRANCH  14  18
BRANCH  16  20
ATOM     20  O   UNL     1      20.655  21.517  37.255  1.00  0.00    -0.502 OA
ATOM     21  H   UNL     1      21.631  21.274  37.164  1.00  0.00     0.293 HD
ENDBRANCH  16  20
BRANCH  17  22
ATOM     22  O   UNL     1      18.598  23.549  36.873  1.00  0.00    -0.504 OA
ATOM     23  H   UNL     1      17.935  22.972  36.377  1.00  0.00     0.293 HD
ENDBRANCH  17  22
ENDBRANCH   1  12
BRANCH   2  24
ATOM     24  O   UNL     1      16.597  23.054  41.857  1.00  0.00    -0.502 OA
ATOM     25  H   UNL     1      15.605  22.980  42.048  1.00  0.00     0.293 HD
ENDBRANCH   2  24
BRANCH   6  26
ATOM     26  O   UNL     1      16.219  26.573  45.668  1.00  0.00    -0.507 OA
ATOM     27  H   UNL     1      16.182  26.507  46.679  1.00  0.00     0.293 HD
ENDBRANCH   6  26
BRANCH   8  28
ATOM     28  O   UNL     1      20.365  28.992  45.181  1.00  0.00    -0.508 OA
ATOM     29  H   UNL     1      21.053  28.828  45.907  1.00  0.00     0.293 HD
ENDBRANCH   8  28
TORSDOF 7
ENDMDL
MODEL 2
REMARK VINA RESULT:    -6.949      1.202      2.836
REMARK INTER + INTRA:          -8.918
REMARK INTER:                  -8.559
REMARK INTRA:                  -0.359
REMARK UNBOUND:                -0.343
REMARK SMILES O=c1c(O)c(-c2cc(O)c(O)c(O)c2)oc2cc(O)cc(O)c12
REMARK SMILES IDX 5 1 3 2 2 3 1 4 23 5 21 6 20 7 18 8 17 9 16 10 15 11 6 12
REMARK SMILES IDX 7 13 8 14 14 15 10 16 12 17 9 18 11 20 13 22 4 24 22 26
REMARK SMILES IDX 19 28
REMARK H PARENT 9 19 11 21 13 23 4 25 22 27 19 29
REMARK Flexibility Score: inf
ROOT
ATOM      1  C   UNL     1      19.349  25.146  41.242  1.00  0.00     0.180 A 
ATOM      2  C   UNL     1      20.272  26.189  41.458  1.00  0.00     0.208 A 
ATOM      3  C   UNL     1      20.131  26.993  42.600  1.00  0.00     0.238 A 
ATOM      4  O   UNL     1      20.958  27.921  42.811  1.00  0.00    -0.285 OA
ATOM      5  C   UNL     1      19.064  26.757  43.492  1.00  0.00     0.111 A 
ATOM      6  C   UNL     1      18.850  27.523  44.663  1.00  0.00     0.134 A 
ATOM      7  C   UNL     1      17.759  27.232  45.494  1.00  0.00     0.093 A 
ATOM      8  C   UNL     1      16.880  26.193  45.180  1.00  0.00     0.123 A 
ATOM      9  C   UNL     1      17.087  25.432  44.025  1.00  0.00     0.094 A 
ATOM     10  C   UNL     1      18.170  25.705  43.185  1.00  0.00     0.146 A 
ATOM     11  O   UNL     1      18.347  24.963  42.096  1.00  0.00    -0.452 OA
ENDROOT
BRANCH   1  12
ATOM     12  C   UNL     1      19.441  24.245  40.071  1.00  0.00     0.029 A 
ATOM     13  C   UNL     1      20.211  23.077  40.159  1.00  0.00     0.062 A 
ATOM     14  C   UNL     1      20.332  22.219  39.064  1.00  0.00     0.162 A 
ATOM     15  C   UNL     1      18.822  24.564  38.852  1.00  0.00     0.062 A 
ATOM     16  C   UNL     1      19.693  22.525  37.848  1.00  0.00     0.200 A 
ATOM     17  C   UNL     1      18.937  23.717  37.744  1.00  0.00     0.162 A 
BRANCH  14  18
ATOM     18  O   UNL     1      21.096  21.059  39.204  1.00  0.00    -0.504 OA
ATOM     19  H   UNL     1      20.765  20.251  39.718  1.00  0.00     0.293 HD
ENDBRANCH  14  18
BRANCH  16  20
ATOM     20  O   UNL     1      19.833  21.634  36.780  1.00  0.00    -0.502 OA
ATOM     21  H   UNL     1      20.529  21.725  36.054  1.00  0.00     0.293 HD
ENDBRANCH  16  20
BRANCH  17  22
ATOM     22  O   UNL     1      18.292  24.101  36.566  1.00  0.00    -0.504 OA
ATOM     23  H   UNL     1      18.521  24.932  36.040  1.00  0.00     0.293 HD
ENDBRANCH  17  22
ENDBRANCH   1  12
BRANCH   2  24
ATOM     24  O   UNL     1      21.291  26.432  40.534  1.00  0.00    -0.502 OA
ATOM     25  H   UNL     1      22.246  26.618  40.816  1.00  0.00     0.293 HD
ENDBRANCH   2  24
BRANCH   6  26
ATOM     26  O   UNL     1      19.709  28.569  45.004  1.00  0.00    -0.507 OA
ATOM     27  H   UNL     1      20.708  28.429  45.100  1.00  0.00     0.293 HD
ENDBRANCH   6  26
BRANCH   8  28
ATOM     28  O   UNL     1      15.804  25.925  46.024  1.00  0.00    -0.508 OA
ATOM     29  H   UNL     1      14.960  25.481  45.680  1.00  0.00     0.293 HD
ENDBRANCH   8  28
TORSDOF 7
ENDMDL
MODEL 3
REMARK VINA RESULT:    -6.784      1.114      2.138
REMARK INTER + INTRA:          -8.714
REMARK INTER:                  -8.384
REMARK INTRA:                  -0.330
REMARK UNBOUND:                -0.343
REMARK SMILES O=c1c(O)c(-c2cc(O)c(O)c(O)c2)oc2cc(O)cc(O)c12
REMARK SMILES IDX 5 1 3 2 2 3 1 4 23 5 21 6 20 7 18 8 17 9 16 10 15 11 6 12
REMARK SMILES IDX 7 13 8 14 14 15 10 16 12 17 9 18 11 20 13 22 4 24 22 26
REMARK SMILES IDX 19 28
REMARK H PARENT 9 19 11 21 13 23 4 25 22 27 19 29
REMARK Flexibility Score: inf
ROOT
ATOM      1  C   UNL     1      18.125  24.447  42.388  1.00  0.00     0.180 A 
ATOM      2  C   UNL     1      17.251  23.673  43.178  1.00  0.00     0.208 A 
ATOM      3  C   UNL     1      16.749  24.221  44.369  1.00  0.00     0.238 A 
ATOM      4  O   UNL     1      15.957  23.543  45.077  1.00  0.00    -0.285 OA
ATOM      5  C   UNL     1      17.142  25.517  44.761  1.00  0.00     0.111 A 
ATOM      6  C   UNL     1      16.685  26.139  45.947  1.00  0.00     0.134 A 
ATOM      7  C   UNL     1      17.132  27.428  46.273  1.00  0.00     0.093 A 
ATOM      8  C   UNL     1      18.023  28.107  45.438  1.00  0.00     0.123 A 
ATOM      9  C   UNL     1      18.477  27.497  44.264  1.00  0.00     0.094 A 
ATOM     10  C   UNL     1      18.043  26.213  43.921  1.00  0.00     0.146 A 
ATOM     11  O   UNL     1      18.486  25.660  42.798  1.00  0.00    -0.452 OA
ENDROOT
BRANCH   1  12
ATOM     12  C   UNL     1      18.682  23.947  41.111  1.00  0.00     0.029 A 
ATOM     13  C   UNL     1      18.069  24.308  39.903  1.00  0.00     0.062 A 
ATOM     14  C   UNL     1      18.560  23.834  38.685  1.00  0.00     0.162 A 
ATOM     15  C   UNL     1      19.777  23.068  41.084  1.00  0.00     0.062 A 
ATOM     16  C   UNL     1      19.672  22.972  38.655  1.00  0.00     0.200 A 
ATOM     17  C   UNL     1      20.279  22.581  39.872  1.00  0.00     0.162 A 
BRANCH  14  18
ATOM     18  O   UNL     1      17.928  24.235  37.507  1.00  0.00    -0.504 OA
ATOM     19  H   UNL     1      17.253  24.990  37.484  1.00  0.00     0.293 HD
ENDBRANCH  14  18
BRANCH  16  20
ATOM     20  O   UNL     1      20.138  22.529  37.414  1.00  0.00    -0.502 OA
ATOM     21  H   UNL     1      20.624  21.656  37.269  1.00  0.00     0.293 HD
ENDBRANCH  16  20
BRANCH  17  22
ATOM     22  O   UNL     1      21.371  21.712  39.927  1.00  0.00    -0.504 OA
ATOM     23  H   UNL     1      21.634  21.085  39.180  1.00  0.00     0.293 HD
ENDBRANCH  17  22
ENDBRANCH   1  12
BRANCH   2  24
ATOM     24  O   UNL     1      16.915  22.373  42.791  1.00  0.00    -0.502 OA
ATOM     25  H   UNL     1      17.609  21.706  42.473  1.00  0.00     0.293 HD
ENDBRANCH   2  24
BRANCH   6  26
ATOM     26  O   UNL     1      15.796  25.488  46.803  1.00  0.00    -0.507 OA
ATOM     27  H   UNL     1      15.781  25.674  47.799  1.00  0.00     0.293 HD
ENDBRANCH   6  26
BRANCH   8  28
ATOM     28  O   UNL     1      18.450  29.386  45.785  1.00  0.00    -0.508 OA
ATOM     29  H   UNL     1      18.603  30.102  45.083  1.00  0.00     0.293 HD
ENDBRANCH   8  28
TORSDOF 7
ENDMDL
MODEL 4
REMARK VINA RESULT:    -6.415      3.013      5.914
REMARK INTER + INTRA:          -8.259
REMARK INTER:                  -7.912
REMARK INTRA:                  -0.347
REMARK UNBOUND:                -0.343
REMARK SMILES O=c1c(O)c(-c2cc(O)c(O)c(O)c2)oc2cc(O)cc(O)c12
REMARK SMILES IDX 5 1 3 2 2 3 1 4 23 5 21 6 20 7 18 8 17 9 16 10 15 11 6 12
REMARK SMILES IDX 7 13 8 14 14 15 10 16 12 17 9 18 11 20 13 22 4 24 22 26
REMARK SMILES IDX 19 28
REMARK H PARENT 9 19 11 21 13 23 4 25 22 27 19 29
REMARK Flexibility Score: inf
ROOT
ATOM      1  C   UNL     1      17.402  24.084  42.909  1.00  0.00     0.180 A 
ATOM      2  C   UNL     1      16.051  24.321  42.588  1.00  0.00     0.208 A 
ATOM      3  C   UNL     1      15.118  23.289  42.777  1.00  0.00     0.238 A 
ATOM      4  O   UNL     1      13.904  23.493  42.505  1.00  0.00    -0.285 OA
ATOM      5  C   UNL     1      15.550  22.038  43.263  1.00  0.00     0.111 A 
ATOM      6  C   UNL     1      14.675  20.946  43.478  1.00  0.00     0.134 A 
ATOM      7  C   UNL     1      15.185  19.729  43.954  1.00  0.00     0.093 A 
ATOM      8  C   UNL     1      16.549  19.582  44.218  1.00  0.00     0.123 A 
ATOM      9  C   UNL     1      17.418  20.658  44.008  1.00  0.00     0.094 A 
ATOM     10  C   UNL     1      16.929  21.879  43.536  1.00  0.00     0.146 A 
ATOM     11  O   UNL     1      17.776  22.886  43.350  1.00  0.00    -0.452 OA
ENDROOT
BRANCH   1  12
ATOM     12  C   UNL     1      18.442  25.126  42.754  1.00  0.00     0.029 A 
ATOM     13  C   UNL     1      18.777  25.934  43.850  1.00  0.00     0.062 A 
ATOM     14  C   UNL     1      19.739  26.938  43.726  1.00  0.00     0.162 A 
ATOM     15  C   UNL     1      19.059  25.365  41.516  1.00  0.00     0.062 A 
ATOM     16  C   UNL     1      20.376  27.164  42.492  1.00  0.00     0.200 A 
ATOM     17  C   UNL     1      20.022  26.370  41.375  1.00  0.00     0.162 A 
BRANCH  14  18
ATOM     18  O   UNL     1      20.053  27.707  44.849  1.00  0.00    -0.504 OA
ATOM     19  H   UNL     1      20.937  28.191  44.944  1.00  0.00     0.293 HD
ENDBRANCH  14  18
BRANCH  16  20
ATOM     20  O   UNL     1      21.340  28.173  42.415  1.00  0.00    -0.502 OA
ATOM     21  H   UNL     1      21.461  28.895  43.110  1.00  0.00     0.293 HD
ENDBRANCH  16  20
BRANCH  17  22
ATOM     22  O   UNL     1      20.593  26.547  40.112  1.00  0.00    -0.504 OA
ATOM     23  H   UNL     1      21.586  26.543  39.933  1.00  0.00     0.293 HD
ENDBRANCH  17  22
ENDBRANCH   1  12
BRANCH   2  24
ATOM     24  O   UNL     1      15.656  25.554  42.063  1.00  0.00    -0.502 OA
ATOM     25  H   UNL     1      14.928  25.637  41.363  1.00  0.00     0.293 HD
ENDBRANCH   2  24
BRANCH   6  26
ATOM     26  O   UNL     1      13.308  21.060  43.222  1.00  0.00    -0.507 OA
ATOM     27  H   UNL     1      12.635  20.417  43.622  1.00  0.00     0.293 HD
ENDBRANCH   6  26
BRANCH   8  28
ATOM     28  O   UNL     1      17.029  18.363  44.690  1.00  0.00    -0.508 OA
ATOM     29  H   UNL     1      17.934  18.005  44.406  1.00  0.00     0.293 HD
ENDBRANCH   8  28
TORSDOF 7
ENDMDL
MODEL 5
REMARK VINA RESULT:    -6.414      3.008      6.021
REMARK INTER + INTRA:          -8.257
REMARK INTER:                  -7.905
REMARK INTRA:                  -0.352
REMARK UNBOUND:                -0.343
REMARK SMILES O=c1c(O)c(-c2cc(O)c(O)c(O)c2)oc2cc(O)cc(O)c12
REMARK SMILES IDX 5 1 3 2 2 3 1 4 23 5 21 6 20 7 18 8 17 9 16 10 15 11 6 12
REMARK SMILES IDX 7 13 8 14 14 15 10 16 12 17 9 18 11 20 13 22 4 24 22 26
REMARK SMILES IDX 19 28
REMARK H PARENT 9 19 11 21 13 23 4 25 22 27 19 29
REMARK Flexibility Score: inf
ROOT
ATOM      1  C   UNL     1      17.336  24.102  42.957  1.00  0.00     0.180 A 
ATOM      2  C   UNL     1      15.982  24.316  42.631  1.00  0.00     0.208 A 
ATOM      3  C   UNL     1      15.067  23.268  42.812  1.00  0.00     0.238 A 
ATOM      4  O   UNL     1      13.851  23.452  42.535  1.00  0.00    -0.285 OA
ATOM      5  C   UNL     1      15.519  22.022  43.294  1.00  0.00     0.111 A 
ATOM      6  C   UNL     1      14.663  20.914  43.501  1.00  0.00     0.134 A 
ATOM      7  C   UNL     1      15.192  19.705  43.974  1.00  0.00     0.093 A 
ATOM      8  C   UNL     1      16.557  19.581  44.244  1.00  0.00     0.123 A 
ATOM      9  C   UNL     1      17.408  20.672  44.042  1.00  0.00     0.094 A 
ATOM     10  C   UNL     1      16.899  21.886  43.573  1.00  0.00     0.146 A 
ATOM     11  O   UNL     1      17.729  22.909  43.395  1.00  0.00    -0.452 OA
ENDROOT
BRANCH   1  12
ATOM     12  C   UNL     1      18.358  25.163  42.810  1.00  0.00     0.029 A 
ATOM     13  C   UNL     1      18.996  25.340  41.575  1.00  0.00     0.062 A 
ATOM     14  C   UNL     1      19.978  26.320  41.414  1.00  0.00     0.162 A 
ATOM     15  C   UNL     1      18.746  25.960  43.899  1.00  0.00     0.062 A 
ATOM     16  C   UNL     1      20.352  27.136  42.499  1.00  0.00     0.200 A 
ATOM     17  C   UNL     1      19.731  26.944  43.756  1.00  0.00     0.162 A 
BRANCH  14  18
ATOM     18  O   UNL     1      20.574  26.471  40.161  1.00  0.00    -0.504 OA
ATOM     19  H   UNL     1      20.162  27.037  39.429  1.00  0.00     0.293 HD
ENDBRANCH  14  18
BRANCH  16  20
ATOM     20  O   UNL     1      21.332  28.110  42.292  1.00  0.00    -0.502 OA
ATOM     21  H   UNL     1      22.055  28.047  41.590  1.00  0.00     0.293 HD
ENDBRANCH  16  20
BRANCH  17  22
ATOM     22  O   UNL     1      20.062  27.697  44.885  1.00  0.00    -0.504 OA
ATOM     23  H   UNL     1      20.096  28.706  44.903  1.00  0.00     0.293 HD
ENDBRANCH  17  22
ENDBRANCH   1  12
BRANCH   2  24
ATOM     24  O   UNL     1      15.569  25.545  42.109  1.00  0.00    -0.502 OA
ATOM     25  H   UNL     1      16.221  26.292  41.900  1.00  0.00     0.293 HD
ENDBRANCH   2  24
BRANCH   6  26
ATOM     26  O   UNL     1      13.295  21.005  43.240  1.00  0.00    -0.507 OA
ATOM     27  H   UNL     1      12.939  21.147  42.302  1.00  0.00     0.293 HD
ENDBRANCH   6  26
BRANCH   8  28
ATOM     28  O   UNL     1      17.056  18.368  44.713  1.00  0.00    -0.508 OA
ATOM     29  H   UNL     1      17.302  18.238  45.688  1.00  0.00     0.293 HD
ENDBRANCH   8  28
TORSDOF 7
ENDMDL
MODEL 6
REMARK VINA RESULT:    -6.364      3.865      6.772
REMARK INTER + INTRA:          -8.195
REMARK INTER:                  -7.838
REMARK INTRA:                  -0.358
REMARK UNBOUND:                -0.343
REMARK SMILES O=c1c(O)c(-c2cc(O)c(O)c(O)c2)oc2cc(O)cc(O)c12
REMARK SMILES IDX 5 1 3 2 2 3 1 4 23 5 21 6 20 7 18 8 17 9 16 10 15 11 6 12
REMARK SMILES IDX 7 13 8 14 14 15 10 16 12 17 9 18 11 20 13 22 4 24 22 26
REMARK SMILES IDX 19 28
REMARK H PARENT 9 19 11 21 13 23 4 25 22 27 19 29
REMARK Flexibility Score: inf
ROOT
ATOM      1  C   UNL     1      16.925  24.658  43.761  1.00  0.00     0.180 A 
ATOM      2  C   UNL     1      15.937  24.752  42.760  1.00  0.00     0.208 A 
ATOM      3  C   UNL     1      15.106  23.647  42.523  1.00  0.00     0.238 A 
ATOM      4  O   UNL     1      14.210  23.723  41.638  1.00  0.00    -0.285 OA
ATOM      5  C   UNL     1      15.286  22.465  43.270  1.00  0.00     0.111 A 
ATOM      6  C   UNL     1      14.492  21.306  43.090  1.00  0.00     0.134 A 
ATOM      7  C   UNL     1      14.741  20.165  43.867  1.00  0.00     0.093 A 
ATOM      8  C   UNL     1      15.764  20.160  44.818  1.00  0.00     0.123 A 
ATOM      9  C   UNL     1      16.551  21.302  45.001  1.00  0.00     0.094 A 
ATOM     10  C   UNL     1      16.317  22.449  44.238  1.00  0.00     0.146 A 
ATOM     11  O   UNL     1      17.076  23.522  44.435  1.00  0.00    -0.452 OA
ENDROOT
BRANCH   1  12
ATOM     12  C   UNL     1      17.828  25.786  44.082  1.00  0.00     0.029 A 
ATOM     13  C   UNL     1      17.450  26.715  45.061  1.00  0.00     0.062 A 
ATOM     14  C   UNL     1      18.274  27.800  45.370  1.00  0.00     0.162 A 
ATOM     15  C   UNL     1      19.031  25.981  43.385  1.00  0.00     0.062 A 
ATOM     16  C   UNL     1      19.491  27.984  44.689  1.00  0.00     0.200 A 
ATOM     17  C   UNL     1      19.866  27.065  43.679  1.00  0.00     0.162 A 
BRANCH  14  18
ATOM     18  O   UNL     1      17.864  28.689  46.365  1.00  0.00    -0.504 OA
ATOM     19  H   UNL     1      18.378  29.536  46.580  1.00  0.00     0.293 HD
ENDBRANCH  14  18
BRANCH  16  20
ATOM     20  O   UNL     1      20.289  29.077  45.036  1.00  0.00    -0.502 OA
ATOM     21  H   UNL     1      21.236  29.002  45.380  1.00  0.00     0.293 HD
ENDBRANCH  16  20
BRANCH  17  22
ATOM     22  O   UNL     1      21.046  27.192  42.944  1.00  0.00    -0.504 OA
ATOM     23  H   UNL     1      21.243  27.957  42.314  1.00  0.00     0.293 HD
ENDBRANCH  17  22
ENDBRANCH   1  12
BRANCH   2  24
ATOM     24  O   UNL     1      15.812  25.918  42.000  1.00  0.00    -0.502 OA
ATOM     25  H   UNL     1      15.373  25.925  41.087  1.00  0.00     0.293 HD
ENDBRANCH   2  24
BRANCH   6  26
ATOM     26  O   UNL     1      13.463  21.279  42.148  1.00  0.00    -0.507 OA
ATOM     27  H   UNL     1      13.566  20.801  41.260  1.00  0.00     0.293 HD
ENDBRANCH   6  26
BRANCH   8  28
ATOM     28  O   UNL     1      15.990  19.013  45.577  1.00  0.00    -0.508 OA
ATOM     29  H   UNL     1      16.060  18.098  45.145  1.00  0.00     0.293 HD
ENDBRANCH   8  28
TORSDOF 7
ENDMDL
MODEL 7
REMARK VINA RESULT:    -6.236      2.375      7.137
REMARK INTER + INTRA:          -8.037
REMARK INTER:                  -7.750
REMARK INTRA:                  -0.287
REMARK UNBOUND:                -0.343
REMARK SMILES O=c1c(O)c(-c2cc(O)c(O)c(O)c2)oc2cc(O)cc(O)c12
REMARK SMILES IDX 5 1 3 2 2 3 1 4 23 5 21 6 20 7 18 8 17 9 16 10 15 11 6 12
REMARK SMILES IDX 7 13 8 14 14 15 10 16 12 17 9 18 11 20 13 22 4 24 22 26
REMARK SMILES IDX 19 28
REMARK H PARENT 9 19 11 21 13 23 4 25 22 27 19 29
REMARK Flexibility Score: inf
ROOT
ATOM      1  C   UNL     1      18.655  24.848  40.131  1.00  0.00     0.180 A 
ATOM      2  C   UNL     1      19.464  23.855  39.543  1.00  0.00     0.208 A 
ATOM      3  C   UNL     1      18.993  23.184  38.404  1.00  0.00     0.238 A 
ATOM      4  O   UNL     1      19.714  22.302  37.862  1.00  0.00    -0.285 OA
ATOM      5  C   UNL     1      17.721  23.499  37.885  1.00  0.00     0.111 A 
ATOM      6  C   UNL     1      17.173  22.868  36.742  1.00  0.00     0.134 A 
ATOM      7  C   UNL     1      15.894  23.231  36.294  1.00  0.00     0.093 A 
ATOM      8  C   UNL     1      15.155  24.210  36.961  1.00  0.00     0.123 A 
ATOM      9  C   UNL     1      15.693  24.838  38.090  1.00  0.00     0.094 A 
ATOM     10  C   UNL     1      16.965  24.491  38.552  1.00  0.00     0.146 A 
ATOM     11  O   UNL     1      17.454  25.107  39.623  1.00  0.00    -0.452 OA
ENDROOT
BRANCH   1  12
ATOM     12  C   UNL     1      19.089  25.611  41.323  1.00  0.00     0.029 A 
ATOM     13  C   UNL     1      18.438  25.406  42.548  1.00  0.00     0.062 A 
ATOM     14  C   UNL     1      18.813  26.127  43.684  1.00  0.00     0.162 A 
ATOM     15  C   UNL     1      20.100  26.582  41.242  1.00  0.00     0.062 A 
ATOM     16  C   UNL     1      19.843  27.083  43.609  1.00  0.00     0.200 A 
ATOM     17  C   UNL     1      20.485  27.316  42.370  1.00  0.00     0.162 A 
BRANCH  14  18
ATOM     18  O   UNL     1      18.148  25.877  44.885  1.00  0.00    -0.504 OA
ATOM     19  H   UNL     1      17.171  26.108  45.022  1.00  0.00     0.293 HD
ENDBRANCH  14  18
BRANCH  16  20
ATOM     20  O   UNL     1      20.193  27.776  44.772  1.00  0.00    -0.502 OA
ATOM     21  H   UNL     1      20.890  27.461  45.431  1.00  0.00     0.293 HD
ENDBRANCH  16  20
BRANCH  17  22
ATOM     22  O   UNL     1      21.499  28.263  42.210  1.00  0.00    -0.504 OA
ATOM     23  H   UNL     1      21.458  29.204  42.574  1.00  0.00     0.293 HD
ENDBRANCH  17  22
ENDBRANCH   1  12
BRANCH   2  24
ATOM     24  O   UNL     1      20.700  23.527  40.107  1.00  0.00    -0.502 OA
ATOM     25  H   UNL     1      21.481  24.173  40.112  1.00  0.00     0.293 HD
ENDBRANCH   2  24
BRANCH   6  26
ATOM     26  O   UNL     1      17.885  21.885  36.053  1.00  0.00    -0.507 OA
ATOM     27  H   UNL     1      18.894  21.820  36.109  1.00  0.00     0.293 HD
ENDBRANCH   6  26
BRANCH   8  28
ATOM     28  O   UNL     1      13.888  24.551  36.494  1.00  0.00    -0.508 OA
ATOM     29  H   UNL     1      13.067  24.017  36.753  1.00  0.00     0.293 HD
ENDBRANCH   8  28
TORSDOF 7
ENDMDL
MODEL 8
REMARK VINA RESULT:    -6.234      1.602      7.057
REMARK INTER + INTRA:          -8.035
REMARK INTER:                  -7.681
REMARK INTRA:                  -0.354
REMARK UNBOUND:                -0.343
REMARK SMILES O=c1c(O)c(-c2cc(O)c(O)c(O)c2)oc2cc(O)cc(O)c12
REMARK SMILES IDX 5 1 3 2 2 3 1 4 23 5 21 6 20 7 18 8 17 9 16 10 15 11 6 12
REMARK SMILES IDX 7 13 8 14 14 15 10 16 12 17 9 18 11 20 13 22 4 24 22 26
REMARK SMILES IDX 19 28
REMARK H PARENT 9 19 11 21 13 23 4 25 22 27 19 29
REMARK Flexibility Score: inf
ROOT
ATOM      1  C   UNL     1      17.563  25.270  42.275  1.00  0.00     0.180 A 
ATOM      2  C   UNL     1      16.742  25.556  41.167  1.00  0.00     0.208 A 
ATOM      3  C   UNL     1      17.026  24.944  39.936  1.00  0.00     0.238 A 
ATOM      4  O   UNL     1      16.291  25.184  38.940  1.00  0.00    -0.285 OA
ATOM      5  C   UNL     1      18.132  24.076  39.828  1.00  0.00     0.111 A 
ATOM      6  C   UNL     1      18.488  23.422  38.624  1.00  0.00     0.134 A 
ATOM      7  C   UNL     1      19.610  22.581  38.595  1.00  0.00     0.093 A 
ATOM      8  C   UNL     1      20.381  22.380  39.742  1.00  0.00     0.123 A 
ATOM      9  C   UNL     1      20.033  23.023  40.935  1.00  0.00     0.094 A 
ATOM     10  C   UNL     1      18.918  23.864  40.985  1.00  0.00     0.146 A 
ATOM     11  O   UNL     1      18.607  24.458  42.132  1.00  0.00    -0.452 OA
ENDROOT
BRANCH   1  12
ATOM     12  C   UNL     1      17.318  25.862  43.610  1.00  0.00     0.029 A 
ATOM     13  C   UNL     1      16.513  25.177  44.531  1.00  0.00     0.062 A 
ATOM     14  C   UNL     1      16.248  25.721  45.789  1.00  0.00     0.162 A 
ATOM     15  C   UNL     1      17.826  27.125  43.954  1.00  0.00     0.062 A 
ATOM     16  C   UNL     1      16.775  26.976  46.145  1.00  0.00     0.200 A 
ATOM     17  C   UNL     1      17.566  27.686  45.210  1.00  0.00     0.162 A 
BRANCH  14  18
ATOM     18  O   UNL     1      15.455  24.995  46.679  1.00  0.00    -0.504 OA
ATOM     19  H   UNL     1      15.180  24.036  46.501  1.00  0.00     0.293 HD
ENDBRANCH  14  18
BRANCH  16  20
ATOM     20  O   UNL     1      16.493  27.480  47.418  1.00  0.00    -0.502 OA
ATOM     21  H   UNL     1      15.590  27.831  47.701  1.00  0.00     0.293 HD
ENDBRANCH  16  20
BRANCH  17  22
ATOM     22  O   UNL     1      18.106  28.946  45.479  1.00  0.00    -0.504 OA
ATOM     23  H   UNL     1      18.110  29.377  46.392  1.00  0.00     0.293 HD
ENDBRANCH  17  22
ENDBRANCH   1  12
BRANCH   2  24
ATOM     24  O   UNL     1      15.682  26.458  41.289  1.00  0.00    -0.502 OA
ATOM     25  H   UNL     1      15.682  27.361  40.829  1.00  0.00     0.293 HD
ENDBRANCH   2  24
BRANCH   6  26
ATOM     26  O   UNL     1      17.740  23.603  37.460  1.00  0.00    -0.507 OA
ATOM     27  H   UNL     1      16.954  24.241  37.425  1.00  0.00     0.293 HD
ENDBRANCH   6  26
BRANCH   8  28
ATOM     28  O   UNL     1      21.490  21.539  39.686  1.00  0.00    -0.508 OA
ATOM     29  H   UNL     1      22.387  21.868  39.348  1.00  0.00     0.293 HD
ENDBRANCH   8  28
TORSDOF 7
ENDMDL
MODEL 9
REMARK VINA RESULT:    -6.191      2.005      7.148
REMARK INTER + INTRA:          -7.982
REMARK INTER:                  -7.690
REMARK INTRA:                  -0.292
REMARK UNBOUND:                -0.343
REMARK SMILES O=c1c(O)c(-c2cc(O)c(O)c(O)c2)oc2cc(O)cc(O)c12
REMARK SMILES IDX 5 1 3 2 2 3 1 4 23 5 21 6 20 7 18 8 17 9 16 10 15 11 6 12
REMARK SMILES IDX 7 13 8 14 14 15 10 16 12 17 9 18 11 20 13 22 4 24 22 26
REMARK SMILES IDX 19 28
REMARK H PARENT 9 19 11 21 13 23 4 25 22 27 19 29
REMARK Flexibility Score: inf
ROOT
ATOM      1  C   UNL     1      19.134  25.183  40.609  1.00  0.00     0.180 A 
ATOM      2  C   UNL     1      19.540  23.847  40.421  1.00  0.00     0.208 A 
ATOM      3  C   UNL     1      19.801  23.395  39.118  1.00  0.00     0.238 A 
ATOM      4  O   UNL     1      20.177  22.205  38.939  1.00  0.00    -0.285 OA
ATOM      5  C   UNL     1      19.633  24.273  38.028  1.00  0.00     0.111 A 
ATOM      6  C   UNL     1      19.872  23.895  36.685  1.00  0.00     0.134 A 
ATOM      7  C   UNL     1      19.672  24.826  35.655  1.00  0.00     0.093 A 
ATOM      8  C   UNL     1      19.240  26.123  35.940  1.00  0.00     0.123 A 
ATOM      9  C   UNL     1      19.004  26.503  37.265  1.00  0.00     0.094 A 
ATOM     10  C   UNL     1      19.199  25.590  38.306  1.00  0.00     0.146 A 
ATOM     11  O   UNL     1      18.972  25.978  39.556  1.00  0.00    -0.452 OA
ENDROOT
BRANCH   1  12
ATOM     12  C   UNL     1      18.858  25.738  41.954  1.00  0.00     0.029 A 
ATOM     13  C   UNL     1      17.662  25.405  42.605  1.00  0.00     0.062 A 
ATOM     14  C   UNL     1      17.367  25.931  43.865  1.00  0.00     0.162 A 
ATOM     15  C   UNL     1      19.740  26.641  42.567  1.00  0.00     0.062 A 
ATOM     16  C   UNL     1      18.261  26.817  44.492  1.00  0.00     0.200 A 
ATOM     17  C   UNL     1      19.457  27.180  43.827  1.00  0.00     0.162 A 
BRANCH  14  18
ATOM     18  O   UNL     1      16.172  25.557  44.483  1.00  0.00    -0.504 OA
ATOM     19  H   UNL     1      16.055  25.571  45.489  1.00  0.00     0.293 HD
ENDBRANCH  14  18
BRANCH  16  20
ATOM     20  O   UNL     1      17.931  27.313  45.756  1.00  0.00    -0.502 OA
ATOM     21  H   UNL     1      17.636  26.737  46.531  1.00  0.00     0.293 HD
ENDBRANCH  16  20
BRANCH  17  22
ATOM     22  O   UNL     1      20.384  28.071  44.373  1.00  0.00    -0.504 OA
ATOM     23  H   UNL     1      21.183  28.434  43.874  1.00  0.00     0.293 HD
ENDBRANCH  17  22
ENDBRANCH   1  12
BRANCH   2  24
ATOM     24  O   UNL     1      19.652  22.983  41.514  1.00  0.00    -0.502 OA
ATOM     25  H   UNL     1      20.534  22.566  41.788  1.00  0.00     0.293 HD
ENDBRANCH   2  24
BRANCH   6  26
ATOM     26  O   UNL     1      20.303  22.607  36.367  1.00  0.00    -0.507 OA
ATOM     27  H   UNL     1      19.862  21.784  36.762  1.00  0.00     0.293 HD
ENDBRANCH   6  26
BRANCH   8  28
ATOM     28  O   UNL     1      19.049  27.028  34.898  1.00  0.00    -0.508 OA
ATOM     29  H   UNL     1      19.815  27.313  34.297  1.00  0.00     0.293 HD
ENDBRANCH   8  28
TORSDOF 7
ENDMDL
