MODEL 1
REMARK VINA RESULT:    -3.476      0.000      0.000
REMARK INTER + INTRA:         -14.151
REMARK INTER:                  -8.760
REMARK INTRA:                  -5.391
REMARK UNBOUND:                -5.391
REMARK SMILES CCCCCCCCCCCCCCCCCCCCCCCCCCCC(=O)[O-]
REMARK SMILES IDX 15 1 16 2 17 3 18 4 19 5 20 6 21 7 22 8 23 9 24 10 25 11
REMARK SMILES IDX 26 12 27 13 28 14 29 15 30 16 14 17 13 18 12 19 11 20 10 21
REMARK SMILES IDX 9 22 8 23 7 24 6 25 5 26 4 27 3 28 2 29 1 30
REMARK H PARENT
REMARK Flexibility Score: inf
ROOT
ATOM      1  C   UNL     1      19.318  11.311 -16.361  1.00  0.00     0.000 C 
ENDROOT
BRANCH   1   2
ATOM      2  C   UNL     1      17.957  11.985 -16.647  1.00  0.00     0.000 C 
BRANCH   2   3
ATOM      3  C   UNL     1      17.979  13.076 -17.733  1.00  0.00     0.000 C 
BRANCH   3   4
ATOM      4  C   UNL     1      17.523  12.567 -19.108  1.00  0.00     0.000 C 
BRANCH   4   5
ATOM      5  C   UNL     1      18.703  12.510 -20.085  1.00  0.00     0.000 C 
BRANCH   5   6
ATOM      6  C   UNL     1      19.880  13.357 -19.577  1.00  0.00     0.000 C 
BRANCH   6   7
ATOM      7  C   UNL     1      21.248  12.702 -19.841  1.00  0.00     0.000 C 
BRANCH   7   8
ATOM      8  C   UNL     1      22.385  13.173 -18.914  1.00  0.00     0.000 C 
BRANCH   8   9
ATOM      9  C   UNL     1      21.992  13.164 -17.427  1.00  0.00     0.000 C 
BRANCH   9  10
ATOM     10  C   UNL     1      22.125  14.560 -16.781  1.00  0.00     0.000 C 
BRANCH  10  11
ATOM     11  C   UNL     1      20.806  15.095 -16.195  1.00  0.00     0.000 C 
BRANCH  11  12
ATOM     12  C   UNL     1      20.106  16.100 -17.119  1.00  0.00     0.006 C 
BRANCH  12  13
ATOM     13  C   UNL     1      21.129  16.955 -17.873  1.00  0.00     0.053 C 
BRANCH  13  14
ATOM     14  C   UNL     1      20.896  16.871 -19.348  1.00  0.00     0.041 C 
ATOM     15  O   UNL     1      21.834  16.534 -20.118  1.00  0.00    -0.550 OA
ATOM     16  O   UNL     1      19.632  17.120 -19.869  1.00  0.00    -0.550 OA
ENDBRANCH  13  14
ENDBRANCH  12  13
ENDBRANCH  11  12
ENDBRANCH  10  11
ENDBRANCH   9  10
ENDBRANCH   8   9
ENDBRANCH   7   8
ENDBRANCH   6   7
ENDBRANCH   5   6
ENDBRANCH   4   5
ENDBRANCH   3   4
ENDBRANCH   2   3
ENDBRANCH   1   2
BRANCH   1  17
ATOM     17  C   UNL     1      19.420   9.826 -16.752  1.00  0.00     0.000 C 
BRANCH  17  18
ATOM     18  C   UNL     1      19.673   9.611 -18.254  1.00  0.00     0.000 C 
BRANCH  18  19
ATOM     19  C   UNL     1      18.592   8.746 -18.922  1.00  0.00     0.000 C 
BRANCH  19  20
ATOM     20  C   UNL     1      19.104   7.473 -19.624  1.00  0.00     0.000 C 
BRANCH  20  21
ATOM     21  C   UNL     1      18.631   6.158 -18.971  1.00  0.00     0.000 C 
BRANCH  21  22
ATOM     22  C   UNL     1      19.119   6.000 -17.520  1.00  0.00    -0.000 C 
BRANCH  22  23
ATOM     23  C   UNL     1      20.634   6.224 -17.369  1.00  0.00    -0.000 C 
BRANCH  23  24
ATOM     24  C   UNL     1      21.495   5.138 -18.049  1.00  0.00    -0.000 C 
BRANCH  24  25
ATOM     25  C   UNL     1      22.360   5.712 -19.187  1.00  0.00    -0.000 C 
BRANCH  25  26
ATOM     26  C   UNL     1      23.127   6.977 -18.773  1.00  0.00    -0.000 C 
BRANCH  26  27
ATOM     27  C   UNL     1      22.812   8.181 -19.673  1.00  0.00    -0.000 C 
BRANCH  27  28
ATOM     28  C   UNL     1      23.117   9.501 -18.948  1.00  0.00    -0.000 C 
BRANCH  28  29
ATOM     29  C   UNL     1      24.310   9.387 -17.986  1.00  0.00    -0.003 C 
ATOM     30  C   UNL     1      24.944  10.741 -17.666  1.00  0.00     0.004 C 
ENDBRANCH  28  29
ENDBRANCH  27  28
ENDBRANCH  26  27
ENDBRANCH  25  26
ENDBRANCH  24  25
ENDBRANCH  23  24
ENDBRANCH  22  23
ENDBRANCH  21  22
ENDBRANCH  20  21
ENDBRANCH  19  20
ENDBRANCH  18  19
ENDBRANCH  17  18
ENDBRANCH   1  17
TORSDOF 26
ENDMDL
MODEL 2
REMARK VINA RESULT:    -3.440      3.970      8.055
REMARK INTER + INTRA:         -14.060
REMARK INTER:                  -8.835
REMARK INTRA:                  -5.225
REMARK UNBOUND:                -5.391
REMARK SMILES CCCCCCCCCCCCCCCCCCCCCCCCCCCC(=O)[O-]
REMARK SMILES IDX 15 1 16 2 17 3 18 4 19 5 20 6 21 7 22 8 23 9 24 10 25 11
REMARK SMILES IDX 26 12 27 13 28 14 29 15 30 16 14 17 13 18 12 19 11 20 10 21
REMARK SMILES IDX 9 22 8 23 7 24 6 25 5 26 4 27 3 28 2 29 1 30
REMARK H PARENT
REMARK Flexibility Score: inf
ROOT
ATOM      1  C   UNL     1      19.612  12.131 -19.824  1.00  0.00     0.000 C 
ENDROOT
BRANCH   1   2
ATOM      2  C   UNL     1      19.528  10.606 -20.052  1.00  0.00     0.000 C 
BRANCH   2   3
ATOM      3  C   UNL     1      20.867   9.852 -19.961  1.00  0.00     0.000 C 
BRANCH   3   4
ATOM      4  C   UNL     1      20.795   8.602 -19.072  1.00  0.00     0.000 C 
BRANCH   4   5
ATOM      5  C   UNL     1      20.483   8.983 -17.620  1.00  0.00     0.000 C 
BRANCH   5   6
ATOM      6  C   UNL     1      19.242   8.236 -17.110  1.00  0.00     0.000 C 
BRANCH   6   7
ATOM      7  C   UNL     1      18.589   7.351 -18.187  1.00  0.00     0.000 C 
BRANCH   7   8
ATOM      8  C   UNL     1      17.796   6.145 -17.649  1.00  0.00     0.000 C 
BRANCH   8   9
ATOM      9  C   UNL     1      18.673   4.901 -17.425  1.00  0.00     0.000 C 
BRANCH   9  10
ATOM     10  C   UNL     1      19.975   4.948 -18.253  1.00  0.00     0.000 C 
BRANCH  10  11
ATOM     11  C   UNL     1      21.245   5.079 -17.394  1.00  0.00     0.000 C 
BRANCH  11  12
ATOM     12  C   UNL     1      22.520   5.230 -18.233  1.00  0.00     0.006 C 
BRANCH  12  13
ATOM     13  C   UNL     1      23.529   4.126 -17.901  1.00  0.00     0.053 C 
BRANCH  13  14
ATOM     14  C   UNL     1      23.195   2.871 -18.643  1.00  0.00     0.041 C 
ATOM     15  O   UNL     1      22.792   1.854 -18.017  1.00  0.00    -0.550 OA
ATOM     16  O   UNL     1      23.284   2.836 -20.029  1.00  0.00    -0.550 OA
ENDBRANCH  13  14
ENDBRANCH  12  13
ENDBRANCH  11  12
ENDBRANCH  10  11
ENDBRANCH   9  10
ENDBRANCH   8   9
ENDBRANCH   7   8
ENDBRANCH   6   7
ENDBRANCH   5   6
ENDBRANCH   4   5
ENDBRANCH   3   4
ENDBRANCH   2   3
ENDBRANCH   1   2
BRANCH   1  17
ATOM     17  C   UNL     1      18.600  12.710 -18.818  1.00  0.00     0.000 C 
BRANCH  17  18
ATOM     18  C   UNL     1      17.868  11.628 -18.006  1.00  0.00     0.000 C 
BRANCH  18  19
ATOM     19  C   UNL     1      18.089  11.769 -16.491  1.00  0.00     0.000 C 
BRANCH  19  20
ATOM     20  C   UNL     1      19.471  12.308 -16.072  1.00  0.00     0.000 C 
BRANCH  20  21
ATOM     21  C   UNL     1      19.421  13.652 -15.317  1.00  0.00     0.000 C 
BRANCH  21  22
ATOM     22  C   UNL     1      20.328  14.727 -15.942  1.00  0.00    -0.000 C 
BRANCH  22  23
ATOM     23  C   UNL     1      21.660  14.157 -16.462  1.00  0.00    -0.000 C 
BRANCH  23  24
ATOM     24  C   UNL     1      21.923  14.452 -17.955  1.00  0.00    -0.000 C 
BRANCH  24  25
ATOM     25  C   UNL     1      22.780  13.357 -18.620  1.00  0.00    -0.000 C 
BRANCH  25  26
ATOM     26  C   UNL     1      22.810  12.051 -17.811  1.00  0.00    -0.000 C 
BRANCH  26  27
ATOM     27  C   UNL     1      24.114  11.264 -18.007  1.00  0.00    -0.000 C 
BRANCH  27  28
ATOM     28  C   UNL     1      24.344  10.947 -19.493  1.00  0.00    -0.000 C 
BRANCH  28  29
ATOM     29  C   UNL     1      24.726   9.479 -19.734  1.00  0.00    -0.003 C 
ATOM     30  C   UNL     1      24.429   8.585 -18.531  1.00  0.00     0.004 C 
ENDBRANCH  28  29
ENDBRANCH  27  28
ENDBRANCH  26  27
ENDBRANCH  25  26
ENDBRANCH  24  25
ENDBRANCH  23  24
ENDBRANCH  22  23
ENDBRANCH  21  22
ENDBRANCH  20  21
ENDBRANCH  19  20
ENDBRANCH  18  19
ENDBRANCH  17  18
ENDBRANCH   1  17
TORSDOF 26
ENDMDL
MODEL 3
REMARK VINA RESULT:    -3.399      3.403      7.726
REMARK INTER + INTRA:         -13.957
REMARK INTER:                  -8.913
REMARK INTRA:                  -5.044
REMARK UNBOUND:                -5.391
REMARK SMILES CCCCCCCCCCCCCCCCCCCCCCCCCCCC(=O)[O-]
REMARK SMILES IDX 15 1 16 2 17 3 18 4 19 5 20 6 21 7 22 8 23 9 24 10 25 11
REMARK SMILES IDX 26 12 27 13 28 14 29 15 30 16 14 17 13 18 12 19 11 20 10 21
REMARK SMILES IDX 9 22 8 23 7 24 6 25 5 26 4 27 3 28 2 29 1 30
REMARK H PARENT
REMARK Flexibility Score: inf
ROOT
ATOM      1  C   UNL     1      18.376  12.822 -19.160  1.00  0.00     0.000 C 
ENDROOT
BRANCH   1   2
ATOM      2  C   UNL     1      18.994  11.847 -20.187  1.00  0.00     0.000 C 
BRANCH   2   3
ATOM      3  C   UNL     1      20.422  12.192 -20.646  1.00  0.00     0.000 C 
BRANCH   3   4
ATOM      4  C   UNL     1      21.224  12.966 -19.589  1.00  0.00     0.000 C 
BRANCH   4   5
ATOM      5  C   UNL     1      22.621  13.315 -20.114  1.00  0.00     0.000 C 
BRANCH   5   6
ATOM      6  C   UNL     1      23.700  12.971 -19.075  1.00  0.00     0.000 C 
BRANCH   6   7
ATOM      7  C   UNL     1      23.325  11.763 -18.198  1.00  0.00     0.000 C 
BRANCH   7   8
ATOM      8  C   UNL     1      23.654  10.387 -18.808  1.00  0.00     0.000 C 
BRANCH   8   9
ATOM      9  C   UNL     1      22.735   9.265 -18.294  1.00  0.00     0.000 C 
BRANCH   9  10
ATOM     10  C   UNL     1      21.778   8.747 -19.388  1.00  0.00     0.000 C 
BRANCH  10  11
ATOM     11  C   UNL     1      20.353   8.467 -18.878  1.00  0.00     0.000 C 
BRANCH  11  12
ATOM     12  C   UNL     1      20.330   7.905 -17.451  1.00  0.00     0.006 C 
BRANCH  12  13
ATOM     13  C   UNL     1      19.007   7.188 -17.166  1.00  0.00     0.053 C 
BRANCH  13  14
ATOM     14  C   UNL     1      19.141   5.720 -17.423  1.00  0.00     0.041 C 
ATOM     15  O   UNL     1      18.115   4.990 -17.471  1.00  0.00    -0.550 OA
ATOM     16  O   UNL     1      20.394   5.165 -17.655  1.00  0.00    -0.550 OA
ENDBRANCH  13  14
ENDBRANCH  12  13
ENDBRANCH  11  12
ENDBRANCH  10  11
ENDBRANCH   9  10
ENDBRANCH   8   9
ENDBRANCH   7   8
ENDBRANCH   6   7
ENDBRANCH   5   6
ENDBRANCH   4   5
ENDBRANCH   3   4
ENDBRANCH   2   3
ENDBRANCH   1   2
BRANCH   1  17
ATOM     17  C   UNL     1      17.613  12.165 -17.996  1.00  0.00     0.000 C 
BRANCH  17  18
ATOM     18  C   UNL     1      18.435  11.091 -17.263  1.00  0.00     0.000 C 
BRANCH  18  19
ATOM     19  C   UNL     1      19.543  11.689 -16.382  1.00  0.00     0.000 C 
BRANCH  19  20
ATOM     20  C   UNL     1      19.111  12.862 -15.479  1.00  0.00     0.000 C 
BRANCH  20  21
ATOM     21  C   UNL     1      19.848  14.185 -15.771  1.00  0.00     0.000 C 
BRANCH  21  22
ATOM     22  C   UNL     1      21.301  13.974 -16.232  1.00  0.00    -0.000 C 
BRANCH  22  23
ATOM     23  C   UNL     1      21.999  15.286 -16.635  1.00  0.00    -0.000 C 
BRANCH  23  24
ATOM     24  C   UNL     1      21.045  16.497 -16.724  1.00  0.00    -0.000 C 
BRANCH  24  25
ATOM     25  C   UNL     1      20.903  17.019 -18.166  1.00  0.00    -0.000 C 
BRANCH  25  26
ATOM     26  C   UNL     1      19.596  16.568 -18.837  1.00  0.00    -0.000 C 
BRANCH  26  27
ATOM     27  C   UNL     1      19.805  16.095 -20.283  1.00  0.00    -0.000 C 
BRANCH  27  28
ATOM     28  C   UNL     1      19.620  17.257 -21.271  1.00  0.00    -0.000 C 
BRANCH  28  29
ATOM     29  C   UNL     1      20.889  17.548 -22.088  1.00  0.00    -0.003 C 
ATOM     30  C   UNL     1      22.040  16.603 -21.749  1.00  0.00     0.004 C 
ENDBRANCH  28  29
ENDBRANCH  27  28
ENDBRANCH  26  27
ENDBRANCH  25  26
ENDBRANCH  24  25
ENDBRANCH  23  24
ENDBRANCH  22  23
ENDBRANCH  21  22
ENDBRANCH  20  21
ENDBRANCH  19  20
ENDBRANCH  18  19
ENDBRANCH  17  18
ENDBRANCH   1  17
TORSDOF 26
ENDMDL
MODEL 4
REMARK VINA RESULT:    -3.390      5.038      9.739
REMARK INTER + INTRA:         -13.934
REMARK INTER:                 -10.120
REMARK INTRA:                  -3.813
REMARK UNBOUND:                -5.391
REMARK SMILES CCCCCCCCCCCCCCCCCCCCCCCCCCCC(=O)[O-]
REMARK SMILES IDX 15 1 16 2 17 3 18 4 19 5 20 6 21 7 22 8 23 9 24 10 25 11
REMARK SMILES IDX 26 12 27 13 28 14 29 15 30 16 14 17 13 18 12 19 11 20 10 21
REMARK SMILES IDX 9 22 8 23 7 24 6 25 5 26 4 27 3 28 2 29 1 30
REMARK H PARENT
REMARK Flexibility Score: inf
ROOT
ATOM      1  C   UNL     1      21.166  12.749 -19.729  1.00  0.00     0.000 C 
ENDROOT
BRANCH   1   2
ATOM      2  C   UNL     1      21.487  11.242 -19.841  1.00  0.00     0.000 C 
BRANCH   2   3
ATOM      3  C   UNL     1      22.135  10.613 -18.594  1.00  0.00     0.000 C 
BRANCH   3   4
ATOM      4  C   UNL     1      21.653   9.181 -18.322  1.00  0.00     0.000 C 
BRANCH   4   5
ATOM      5  C   UNL     1      20.122   9.108 -18.347  1.00  0.00     0.000 C 
BRANCH   5   6
ATOM      6  C   UNL     1      19.560   8.885 -16.934  1.00  0.00     0.000 C 
BRANCH   6   7
ATOM      7  C   UNL     1      18.923   7.496 -16.754  1.00  0.00     0.000 C 
BRANCH   7   8
ATOM      8  C   UNL     1      18.382   6.854 -18.046  1.00  0.00     0.000 C 
BRANCH   8   9
ATOM      9  C   UNL     1      18.033   5.365 -17.878  1.00  0.00     0.000 C 
BRANCH   9  10
ATOM     10  C   UNL     1      16.930   4.910 -18.859  1.00  0.00     0.000 C 
BRANCH  10  11
ATOM     11  C   UNL     1      16.302   3.554 -18.492  1.00  0.00     0.000 C 
BRANCH  11  12
ATOM     12  C   UNL     1      17.245   2.658 -17.680  1.00  0.00     0.006 C 
BRANCH  12  13
ATOM     13  C   UNL     1      17.779   1.506 -18.536  1.00  0.00     0.053 C 
BRANCH  13  14
ATOM     14  C   UNL     1      17.281   0.194 -18.017  1.00  0.00     0.041 C 
ATOM     15  O   UNL     1      17.394  -0.086 -16.794  1.00  0.00    -0.550 OA
ATOM     16  O   UNL     1      16.650  -0.700 -18.873  1.00  0.00    -0.550 OA
ENDBRANCH  13  14
ENDBRANCH  12  13
ENDBRANCH  11  12
ENDBRANCH  10  11
ENDBRANCH   9  10
ENDBRANCH   8   9
ENDBRANCH   7   8
ENDBRANCH   6   7
ENDBRANCH   5   6
ENDBRANCH   4   5
ENDBRANCH   3   4
ENDBRANCH   2   3
ENDBRANCH   1   2
BRANCH   1  17
ATOM     17  C   UNL     1      19.769  13.170 -20.220  1.00  0.00     0.000 C 
BRANCH  17  18
ATOM     18  C   UNL     1      18.804  13.518 -19.073  1.00  0.00     0.000 C 
BRANCH  18  19
ATOM     19  C   UNL     1      18.160  12.275 -18.439  1.00  0.00     0.000 C 
BRANCH  19  20
ATOM     20  C   UNL     1      18.011  12.316 -16.906  1.00  0.00     0.000 C 
BRANCH  20  21
ATOM     21  C   UNL     1      19.339  12.155 -16.138  1.00  0.00     0.000 C 
BRANCH  21  22
ATOM     22  C   UNL     1      19.955  13.501 -15.716  1.00  0.00    -0.000 C 
BRANCH  22  23
ATOM     23  C   UNL     1      21.372  13.714 -16.279  1.00  0.00    -0.000 C 
BRANCH  23  24
ATOM     24  C   UNL     1      21.753  15.199 -16.464  1.00  0.00    -0.000 C 
BRANCH  24  25
ATOM     25  C   UNL     1      20.528  16.074 -16.793  1.00  0.00    -0.000 C 
BRANCH  25  26
ATOM     26  C   UNL     1      20.844  17.181 -17.812  1.00  0.00    -0.000 C 
BRANCH  26  27
ATOM     27  C   UNL     1      21.803  16.712 -18.915  1.00  0.00    -0.000 C 
BRANCH  27  28
ATOM     28  C   UNL     1      21.096  16.683 -20.280  1.00  0.00    -0.000 C 
BRANCH  28  29
ATOM     29  C   UNL     1      19.622  17.107 -20.192  1.00  0.00    -0.003 C 
ATOM     30  C   UNL     1      18.808  16.673 -21.412  1.00  0.00     0.004 C 
ENDBRANCH  28  29
ENDBRANCH  27  28
ENDBRANCH  26  27
ENDBRANCH  25  26
ENDBRANCH  24  25
ENDBRANCH  23  24
ENDBRANCH  22  23
ENDBRANCH  21  22
ENDBRANCH  20  21
ENDBRANCH  19  20
ENDBRANCH  18  19
ENDBRANCH  17  18
ENDBRANCH   1  17
TORSDOF 26
ENDMDL
MODEL 5
REMARK VINA RESULT:    -3.382      2.495      5.160
REMARK INTER + INTRA:         -13.914
REMARK INTER:                  -8.648
REMARK INTRA:                  -5.265
REMARK UNBOUND:                -5.391
REMARK SMILES CCCCCCCCCCCCCCCCCCCCCCCCCCCC(=O)[O-]
REMARK SMILES IDX 15 1 16 2 17 3 18 4 19 5 20 6 21 7 22 8 23 9 24 10 25 11
REMARK SMILES IDX 26 12 27 13 28 14 29 15 30 16 14 17 13 18 12 19 11 20 10 21
REMARK SMILES IDX 9 22 8 23 7 24 6 25 5 26 4 27 3 28 2 29 1 30
REMARK H PARENT
REMARK Flexibility Score: inf
ROOT
ATOM      1  C   UNL     1      19.403  13.075 -19.859  1.00  0.00     0.000 C 
ENDROOT
BRANCH   1   2
ATOM      2  C   UNL     1      19.479  14.559 -20.281  1.00  0.00     0.000 C 
BRANCH   2   3
ATOM      3  C   UNL     1      20.887  15.180 -20.257  1.00  0.00     0.000 C 
BRANCH   3   4
ATOM      4  C   UNL     1      20.930  16.548 -19.562  1.00  0.00     0.000 C 
BRANCH   4   5
ATOM      5  C   UNL     1      19.868  16.633 -18.460  1.00  0.00     0.000 C 
BRANCH   5   6
ATOM      6  C   UNL     1      20.519  16.841 -17.084  1.00  0.00     0.000 C 
BRANCH   6   7
ATOM      7  C   UNL     1      20.544  15.559 -16.232  1.00  0.00     0.000 C 
BRANCH   7   8
ATOM      8  C   UNL     1      21.835  14.727 -16.343  1.00  0.00     0.000 C 
BRANCH   8   9
ATOM      9  C   UNL     1      21.584  13.287 -16.823  1.00  0.00     0.000 C 
BRANCH   9  10
ATOM     10  C   UNL     1      22.542  12.876 -17.962  1.00  0.00     0.000 C 
BRANCH  10  11
ATOM     11  C   UNL     1      22.707  11.353 -18.108  1.00  0.00     0.000 C 
BRANCH  11  12
ATOM     12  C   UNL     1      24.172  10.922 -18.246  1.00  0.00     0.006 C 
BRANCH  12  13
ATOM     13  C   UNL     1      24.336   9.431 -17.936  1.00  0.00     0.053 C 
BRANCH  13  14
ATOM     14  C   UNL     1      23.997   8.607 -19.138  1.00  0.00     0.041 C 
ATOM     15  O   UNL     1      23.556   7.435 -18.997  1.00  0.00    -0.550 OA
ATOM     16  O   UNL     1      24.124   9.146 -20.412  1.00  0.00    -0.550 OA
ENDBRANCH  13  14
ENDBRANCH  12  13
ENDBRANCH  11  12
ENDBRANCH  10  11
ENDBRANCH   9  10
ENDBRANCH   8   9
ENDBRANCH   7   8
ENDBRANCH   6   7
ENDBRANCH   5   6
ENDBRANCH   4   5
ENDBRANCH   3   4
ENDBRANCH   2   3
ENDBRANCH   1   2
BRANCH   1  17
ATOM     17  C   UNL     1      18.111  12.655 -19.135  1.00  0.00     0.000 C 
BRANCH  17  18
ATOM     18  C   UNL     1      18.051  13.139 -17.675  1.00  0.00     0.000 C 
BRANCH  18  19
ATOM     19  C   UNL     1      17.956  11.981 -16.669  1.00  0.00     0.000 C 
BRANCH  19  20
ATOM     20  C   UNL     1      18.276  10.583 -17.235  1.00  0.00     0.000 C 
BRANCH  20  21
ATOM     21  C   UNL     1      19.591   9.975 -16.705  1.00  0.00     0.000 C 
BRANCH  21  22
ATOM     22  C   UNL     1      19.467   8.478 -16.371  1.00  0.00    -0.000 C 
BRANCH  22  23
ATOM     23  C   UNL     1      20.549   7.621 -17.053  1.00  0.00    -0.000 C 
BRANCH  23  24
ATOM     24  C   UNL     1      19.991   6.381 -17.785  1.00  0.00    -0.000 C 
BRANCH  24  25
ATOM     25  C   UNL     1      18.457   6.283 -17.674  1.00  0.00    -0.000 C 
BRANCH  25  26
ATOM     26  C   UNL     1      17.734   6.865 -18.899  1.00  0.00    -0.000 C 
BRANCH  26  27
ATOM     27  C   UNL     1      18.691   7.177 -20.059  1.00  0.00    -0.000 C 
BRANCH  27  28
ATOM     28  C   UNL     1      18.155   8.335 -20.915  1.00  0.00    -0.000 C 
BRANCH  28  29
ATOM     29  C   UNL     1      19.108   9.540 -20.946  1.00  0.00    -0.003 C 
ATOM     30  C   UNL     1      20.444   9.255 -20.261  1.00  0.00     0.004 C 
ENDBRANCH  28  29
ENDBRANCH  27  28
ENDBRANCH  26  27
ENDBRANCH  25  26
ENDBRANCH  24  25
ENDBRANCH  23  24
ENDBRANCH  22  23
ENDBRANCH  21  22
ENDBRANCH  20  21
ENDBRANCH  19  20
ENDBRANCH  18  19
ENDBRANCH  17  18
ENDBRANCH   1  17
TORSDOF 26
ENDMDL
MODEL 6
REMARK VINA RESULT:    -3.375      4.554      8.373
REMARK INTER + INTRA:         -13.897
REMARK INTER:                  -9.579
REMARK INTRA:                  -4.318
REMARK UNBOUND:                -5.391
REMARK SMILES CCCCCCCCCCCCCCCCCCCCCCCCCCCC(=O)[O-]
REMARK SMILES IDX 15 1 16 2 17 3 18 4 19 5 20 6 21 7 22 8 23 9 24 10 25 11
REMARK SMILES IDX 26 12 27 13 28 14 29 15 30 16 14 17 13 18 12 19 11 20 10 21
REMARK SMILES IDX 9 22 8 23 7 24 6 25 5 26 4 27 3 28 2 29 1 30
REMARK H PARENT
REMARK Flexibility Score: inf
ROOT
ATOM      1  C   UNL     1      21.685  14.722 -16.398  1.00  0.00     0.000 C 
ENDROOT
BRANCH   1   2
ATOM      2  C   UNL     1      20.993  13.376 -16.086  1.00  0.00     0.000 C 
BRANCH   2   3
ATOM      3  C   UNL     1      19.516  13.478 -15.665  1.00  0.00     0.000 C 
BRANCH   3   4
ATOM      4  C   UNL     1      18.687  12.253 -16.076  1.00  0.00     0.000 C 
BRANCH   4   5
ATOM      5  C   UNL     1      19.550  11.244 -16.843  1.00  0.00     0.000 C 
BRANCH   5   6
ATOM      6  C   UNL     1      18.800   9.918 -17.042  1.00  0.00     0.000 C 
BRANCH   6   7
ATOM      7  C   UNL     1      19.496   8.727 -16.359  1.00  0.00     0.000 C 
BRANCH   7   8
ATOM      8  C   UNL     1      19.401   7.392 -17.121  1.00  0.00     0.000 C 
BRANCH   8   9
ATOM      9  C   UNL     1      18.378   7.425 -18.270  1.00  0.00     0.000 C 
BRANCH   9  10
ATOM     10  C   UNL     1      17.562   6.118 -18.362  1.00  0.00     0.000 C 
BRANCH  10  11
ATOM     11  C   UNL     1      18.282   4.899 -17.759  1.00  0.00     0.000 C 
BRANCH  11  12
ATOM     12  C   UNL     1      17.434   3.622 -17.803  1.00  0.00     0.006 C 
BRANCH  12  13
ATOM     13  C   UNL     1      17.887   2.702 -18.940  1.00  0.00     0.053 C 
BRANCH  13  14
ATOM     14  C   UNL     1      18.111   1.313 -18.432  1.00  0.00     0.041 C 
ATOM     15  O   UNL     1      19.183   0.707 -18.698  1.00  0.00    -0.550 OA
ATOM     16  O   UNL     1      17.156   0.704 -17.627  1.00  0.00    -0.550 OA
ENDBRANCH  13  14
ENDBRANCH  12  13
ENDBRANCH  11  12
ENDBRANCH  10  11
ENDBRANCH   9  10
ENDBRANCH   8   9
ENDBRANCH   7   8
ENDBRANCH   6   7
ENDBRANCH   5   6
ENDBRANCH   4   5
ENDBRANCH   3   4
ENDBRANCH   2   3
ENDBRANCH   1   2
BRANCH   1  17
ATOM     17  C   UNL     1      20.782  15.966 -16.325  1.00  0.00     0.000 C 
BRANCH  17  18
ATOM     18  C   UNL     1      20.817  16.815 -17.608  1.00  0.00     0.000 C 
BRANCH  18  19
ATOM     19  C   UNL     1      19.667  16.485 -18.572  1.00  0.00     0.000 C 
BRANCH  19  20
ATOM     20  C   UNL     1      20.002  15.463 -19.677  1.00  0.00     0.000 C 
BRANCH  20  21
ATOM     21  C   UNL     1      19.491  14.036 -19.392  1.00  0.00     0.000 C 
BRANCH  21  22
ATOM     22  C   UNL     1      20.304  12.951 -20.119  1.00  0.00    -0.000 C 
BRANCH  22  23
ATOM     23  C   UNL     1      21.752  12.844 -19.607  1.00  0.00    -0.000 C 
BRANCH  23  24
ATOM     24  C   UNL     1      22.445  11.513 -19.971  1.00  0.00    -0.000 C 
BRANCH  24  25
ATOM     25  C   UNL     1      21.897  10.330 -19.150  1.00  0.00    -0.000 C 
BRANCH  25  26
ATOM     26  C   UNL     1      21.085   9.341 -20.001  1.00  0.00    -0.000 C 
BRANCH  26  27
ATOM     27  C   UNL     1      21.754   7.962 -20.103  1.00  0.00    -0.000 C 
BRANCH  27  28
ATOM     28  C   UNL     1      22.655   7.698 -18.887  1.00  0.00    -0.000 C 
BRANCH  28  29
ATOM     29  C   UNL     1      22.986   6.209 -18.706  1.00  0.00    -0.003 C 
ATOM     30  C   UNL     1      21.784   5.301 -18.959  1.00  0.00     0.004 C 
ENDBRANCH  28  29
ENDBRANCH  27  28
ENDBRANCH  26  27
ENDBRANCH  25  26
ENDBRANCH  24  25
ENDBRANCH  23  24
ENDBRANCH  22  23
ENDBRANCH  21  22
ENDBRANCH  20  21
ENDBRANCH  19  20
ENDBRANCH  18  19
ENDBRANCH  17  18
ENDBRANCH   1  17
TORSDOF 26
ENDMDL
MODEL 7
REMARK VINA RESULT:    -3.368      3.514      7.398
REMARK INTER + INTRA:         -13.877
REMARK INTER:                  -8.431
REMARK INTRA:                  -5.446
REMARK UNBOUND:                -5.391
REMARK SMILES CCCCCCCCCCCCCCCCCCCCCCCCCCCC(=O)[O-]
REMARK SMILES IDX 15 1 16 2 17 3 18 4 19 5 20 6 21 7 22 8 23 9 24 10 25 11
REMARK SMILES IDX 26 12 27 13 28 14 29 15 30 16 14 17 13 18 12 19 11 20 10 21
REMARK SMILES IDX 9 22 8 23 7 24 6 25 5 26 4 27 3 28 2 29 1 30
REMARK H PARENT
REMARK Flexibility Score: inf
ROOT
ATOM      1  C   UNL     1      19.393  12.392 -15.984  1.00  0.00     0.000 C 
ENDROOT
BRANCH   1   2
ATOM      2  C   UNL     1      17.985  12.299 -16.613  1.00  0.00     0.000 C 
BRANCH   2   3
ATOM      3  C   UNL     1      17.953  11.908 -18.101  1.00  0.00     0.000 C 
BRANCH   3   4
ATOM      4  C   UNL     1      18.647  12.934 -19.008  1.00  0.00     0.000 C 
BRANCH   4   5
ATOM      5  C   UNL     1      19.013  12.308 -20.359  1.00  0.00     0.000 C 
BRANCH   5   6
ATOM      6  C   UNL     1      20.456  11.780 -20.347  1.00  0.00     0.000 C 
BRANCH   6   7
ATOM      7  C   UNL     1      21.277  12.305 -19.156  1.00  0.00     0.000 C 
BRANCH   7   8
ATOM      8  C   UNL     1      22.027  11.224 -18.354  1.00  0.00     0.000 C 
BRANCH   8   9
ATOM      9  C   UNL     1      22.026   9.851 -19.048  1.00  0.00     0.000 C 
BRANCH   9  10
ATOM     10  C   UNL     1      21.411   8.748 -18.160  1.00  0.00     0.000 C 
BRANCH  10  11
ATOM     11  C   UNL     1      20.180   9.215 -17.364  1.00  0.00     0.000 C 
BRANCH  11  12
ATOM     12  C   UNL     1      19.458   8.065 -16.651  1.00  0.00     0.006 C 
BRANCH  12  13
ATOM     13  C   UNL     1      19.788   6.721 -17.306  1.00  0.00     0.053 C 
BRANCH  13  14
ATOM     14  C   UNL     1      18.534   6.019 -17.720  1.00  0.00     0.041 C 
ATOM     15  O   UNL     1      17.716   6.587 -18.492  1.00  0.00    -0.550 OA
ATOM     16  O   UNL     1      18.288   4.720 -17.291  1.00  0.00    -0.550 OA
ENDBRANCH  13  14
ENDBRANCH  12  13
ENDBRANCH  11  12
ENDBRANCH  10  11
ENDBRANCH   9  10
ENDBRANCH   8   9
ENDBRANCH   7   8
ENDBRANCH   6   7
ENDBRANCH   5   6
ENDBRANCH   4   5
ENDBRANCH   3   4
ENDBRANCH   2   3
ENDBRANCH   1   2
BRANCH   1  17
ATOM     17  C   UNL     1      19.783  13.774 -15.428  1.00  0.00     0.000 C 
BRANCH  17  18
ATOM     18  C   UNL     1      20.930  14.439 -16.210  1.00  0.00     0.000 C 
BRANCH  18  19
ATOM     19  C   UNL     1      20.712  15.946 -16.418  1.00  0.00     0.000 C 
BRANCH  19  20
ATOM     20  C   UNL     1      19.824  16.327 -17.618  1.00  0.00     0.000 C 
BRANCH  20  21
ATOM     21  C   UNL     1      20.401  15.913 -18.987  1.00  0.00     0.000 C 
BRANCH  21  22
ATOM     22  C   UNL     1      20.734  17.115 -19.887  1.00  0.00    -0.000 C 
BRANCH  22  23
ATOM     23  C   UNL     1      21.279  16.700 -21.265  1.00  0.00    -0.000 C 
BRANCH  23  24
ATOM     24  C   UNL     1      21.645  15.203 -21.365  1.00  0.00    -0.000 C 
BRANCH  24  25
ATOM     25  C   UNL     1      23.104  14.991 -21.813  1.00  0.00    -0.000 C 
BRANCH  25  26
ATOM     26  C   UNL     1      23.819  13.891 -21.012  1.00  0.00    -0.000 C 
BRANCH  26  27
ATOM     27  C   UNL     1      24.772  14.457 -19.950  1.00  0.00    -0.000 C 
BRANCH  27  28
ATOM     28  C   UNL     1      24.054  14.619 -18.601  1.00  0.00    -0.000 C 
BRANCH  28  29
ATOM     29  C   UNL     1      23.991  16.082 -18.135  1.00  0.00    -0.003 C 
ATOM     30  C   UNL     1      24.629  17.048 -19.131  1.00  0.00     0.004 C 
ENDBRANCH  28  29
ENDBRANCH  27  28
ENDBRANCH  26  27
ENDBRANCH  25  26
ENDBRANCH  24  25
ENDBRANCH  23  24
ENDBRANCH  22  23
ENDBRANCH  21  22
ENDBRANCH  20  21
ENDBRANCH  19  20
ENDBRANCH  18  19
ENDBRANCH  17  18
ENDBRANCH   1  17
TORSDOF 26
ENDMDL
MODEL 8
REMARK VINA RESULT:    -3.344      3.308      7.571
REMARK INTER + INTRA:         -13.819
REMARK INTER:                  -8.647
REMARK INTRA:                  -5.172
REMARK UNBOUND:                -5.391
REMARK SMILES CCCCCCCCCCCCCCCCCCCCCCCCCCCC(=O)[O-]
REMARK SMILES IDX 15 1 16 2 17 3 18 4 19 5 20 6 21 7 22 8 23 9 24 10 25 11
REMARK SMILES IDX 26 12 27 13 28 14 29 15 30 16 14 17 13 18 12 19 11 20 10 21
REMARK SMILES IDX 9 22 8 23 7 24 6 25 5 26 4 27 3 28 2 29 1 30
REMARK H PARENT
REMARK Flexibility Score: inf
ROOT
ATOM      1  C   UNL     1      20.705  11.515 -20.204  1.00  0.00     0.000 C 
ENDROOT
BRANCH   1   2
ATOM      2  C   UNL     1      20.401  13.008 -20.456  1.00  0.00     0.000 C 
BRANCH   2   3
ATOM      3  C   UNL     1      19.037  13.498 -19.938  1.00  0.00     0.000 C 
BRANCH   3   4
ATOM      4  C   UNL     1      17.964  12.399 -19.932  1.00  0.00     0.000 C 
BRANCH   4   5
ATOM      5  C   UNL     1      17.187  12.403 -18.611  1.00  0.00     0.000 C 
BRANCH   5   6
ATOM      6  C   UNL     1      18.043  12.977 -17.471  1.00  0.00     0.000 C 
BRANCH   6   7
ATOM      7  C   UNL     1      18.338  11.947 -16.365  1.00  0.00     0.000 C 
BRANCH   7   8
ATOM      8  C   UNL     1      19.514  10.996 -16.657  1.00  0.00     0.000 C 
BRANCH   8   9
ATOM      9  C   UNL     1      19.101   9.513 -16.664  1.00  0.00     0.000 C 
BRANCH   9  10
ATOM     10  C   UNL     1      19.635   8.765 -17.904  1.00  0.00     0.000 C 
BRANCH  10  11
ATOM     11  C   UNL     1      20.894   7.927 -17.621  1.00  0.00     0.000 C 
BRANCH  11  12
ATOM     12  C   UNL     1      20.968   6.654 -18.473  1.00  0.00     0.006 C 
BRANCH  12  13
ATOM     13  C   UNL     1      20.087   5.548 -17.884  1.00  0.00     0.053 C 
BRANCH  13  14
ATOM     14  C   UNL     1      18.702   5.629 -18.443  1.00  0.00     0.041 C 
ATOM     15  O   UNL     1      18.514   5.532 -19.686  1.00  0.00    -0.550 OA
ATOM     16  O   UNL     1      17.614   5.767 -17.591  1.00  0.00    -0.550 OA
ENDBRANCH  13  14
ENDBRANCH  12  13
ENDBRANCH  11  12
ENDBRANCH  10  11
ENDBRANCH   9  10
ENDBRANCH   8   9
ENDBRANCH   7   8
ENDBRANCH   6   7
ENDBRANCH   5   6
ENDBRANCH   4   5
ENDBRANCH   3   4
ENDBRANCH   2   3
ENDBRANCH   1   2
BRANCH   1  17
ATOM     17  C   UNL     1      22.007  10.986 -20.834  1.00  0.00     0.000 C 
BRANCH  17  18
ATOM     18  C   UNL     1      22.947  10.322 -19.813  1.00  0.00     0.000 C 
BRANCH  18  19
ATOM     19  C   UNL     1      22.778  10.888 -18.394  1.00  0.00     0.000 C 
BRANCH  19  20
ATOM     20  C   UNL     1      23.717  12.055 -18.031  1.00  0.00     0.000 C 
BRANCH  20  21
ATOM     21  C   UNL     1      23.033  13.437 -18.029  1.00  0.00     0.000 C 
BRANCH  21  22
ATOM     22  C   UNL     1      22.028  13.608 -16.876  1.00  0.00    -0.000 C 
BRANCH  22  23
ATOM     23  C   UNL     1      21.853  15.076 -16.446  1.00  0.00    -0.000 C 
BRANCH  23  24
ATOM     24  C   UNL     1      20.380  15.531 -16.371  1.00  0.00    -0.000 C 
BRANCH  24  25
ATOM     25  C   UNL     1      19.985  16.418 -17.568  1.00  0.00    -0.000 C 
BRANCH  25  26
ATOM     26  C   UNL     1      21.200  17.029 -18.282  1.00  0.00    -0.000 C 
BRANCH  26  27
ATOM     27  C   UNL     1      21.345  16.538 -19.729  1.00  0.00    -0.000 C 
BRANCH  27  28
ATOM     28  C   UNL     1      22.825  16.464 -20.137  1.00  0.00    -0.000 C 
BRANCH  28  29
ATOM     29  C   UNL     1      23.768  16.992 -19.045  1.00  0.00    -0.003 C 
ATOM     30  C   UNL     1      25.134  16.305 -19.060  1.00  0.00     0.004 C 
ENDBRANCH  28  29
ENDBRANCH  27  28
ENDBRANCH  26  27
ENDBRANCH  25  26
ENDBRANCH  24  25
ENDBRANCH  23  24
ENDBRANCH  22  23
ENDBRANCH  21  22
ENDBRANCH  20  21
ENDBRANCH  19  20
ENDBRANCH  18  19
ENDBRANCH  17  18
ENDBRANCH   1  17
TORSDOF 26
ENDMDL
MODEL 9
REMARK VINA RESULT:    -3.324      2.288      4.736
REMARK INTER + INTRA:         -13.768
REMARK INTER:                  -8.545
REMARK INTRA:                  -5.223
REMARK UNBOUND:                -5.391
REMARK SMILES CCCCCCCCCCCCCCCCCCCCCCCCCCCC(=O)[O-]
REMARK SMILES IDX 15 1 16 2 17 3 18 4 19 5 20 6 21 7 22 8 23 9 24 10 25 11
REMARK SMILES IDX 26 12 27 13 28 14 29 15 30 16 14 17 13 18 12 19 11 20 10 21
REMARK SMILES IDX 9 22 8 23 7 24 6 25 5 26 4 27 3 28 2 29 1 30
REMARK H PARENT
REMARK Flexibility Score: inf
ROOT
ATOM      1  C   UNL     1      18.345  12.631 -17.147  1.00  0.00     0.000 C 
ENDROOT
BRANCH   1   2
ATOM      2  C   UNL     1      19.102  13.908 -16.721  1.00  0.00     0.000 C 
BRANCH   2   3
ATOM      3  C   UNL     1      20.545  13.685 -16.232  1.00  0.00     0.000 C 
BRANCH   3   4
ATOM      4  C   UNL     1      21.453  14.901 -16.464  1.00  0.00     0.000 C 
BRANCH   4   5
ATOM      5  C   UNL     1      20.648  16.204 -16.398  1.00  0.00     0.000 C 
BRANCH   5   6
ATOM      6  C   UNL     1      21.013  17.136 -17.563  1.00  0.00     0.000 C 
BRANCH   6   7
ATOM      7  C   UNL     1      22.064  16.530 -18.510  1.00  0.00     0.000 C 
BRANCH   7   8
ATOM      8  C   UNL     1      21.586  16.309 -19.958  1.00  0.00     0.000 C 
BRANCH   8   9
ATOM      9  C   UNL     1      20.054  16.240 -20.083  1.00  0.00     0.000 C 
BRANCH   9  10
ATOM     10  C   UNL     1      19.541  14.787 -20.168  1.00  0.00     0.000 C 
BRANCH  10  11
ATOM     11  C   UNL     1      20.584  13.797 -20.717  1.00  0.00     0.000 C 
BRANCH  11  12
ATOM     12  C   UNL     1      20.906  12.664 -19.736  1.00  0.00     0.006 C 
BRANCH  12  13
ATOM     13  C   UNL     1      22.391  12.293 -19.796  1.00  0.00     0.053 C 
BRANCH  13  14
ATOM     14  C   UNL     1      22.771  11.463 -18.611  1.00  0.00     0.041 C 
ATOM     15  O   UNL     1      23.308  12.002 -17.607  1.00  0.00    -0.550 OA
ATOM     16  O   UNL     1      22.492  10.102 -18.596  1.00  0.00    -0.550 OA
ENDBRANCH  13  14
ENDBRANCH  12  13
ENDBRANCH  11  12
ENDBRANCH  10  11
ENDBRANCH   9  10
ENDBRANCH   8   9
ENDBRANCH   7   8
ENDBRANCH   6   7
ENDBRANCH   5   6
ENDBRANCH   4   5
ENDBRANCH   3   4
ENDBRANCH   2   3
ENDBRANCH   1   2
BRANCH   1  17
ATOM     17  C   UNL     1      18.647  11.370 -16.316  1.00  0.00     0.000 C 
BRANCH  17  18
ATOM     18  C   UNL     1      19.309  10.249 -17.136  1.00  0.00     0.000 C 
BRANCH  18  19
ATOM     19  C   UNL     1      19.238   8.882 -16.439  1.00  0.00     0.000 C 
BRANCH  19  20
ATOM     20  C   UNL     1      20.241   7.827 -16.948  1.00  0.00     0.000 C 
BRANCH  20  21
ATOM     21  C   UNL     1      19.606   6.457 -17.266  1.00  0.00     0.000 C 
BRANCH  21  22
ATOM     22  C   UNL     1      18.138   6.566 -17.714  1.00  0.00    -0.000 C 
BRANCH  22  23
ATOM     23  C   UNL     1      17.904   6.030 -19.138  1.00  0.00    -0.000 C 
BRANCH  23  24
ATOM     24  C   UNL     1      18.551   6.894 -20.243  1.00  0.00    -0.000 C 
BRANCH  24  25
ATOM     25  C   UNL     1      18.213   8.389 -20.082  1.00  0.00    -0.000 C 
BRANCH  25  26
ATOM     26  C   UNL     1      19.314   9.310 -20.630  1.00  0.00    -0.000 C 
BRANCH  26  27
ATOM     27  C   UNL     1      18.787  10.306 -21.674  1.00  0.00    -0.000 C 
BRANCH  27  28
ATOM     28  C   UNL     1      17.347  10.732 -21.346  1.00  0.00    -0.000 C 
BRANCH  28  29
ATOM     29  C   UNL     1      17.288  11.958 -20.422  1.00  0.00    -0.003 C 
ATOM     30  C   UNL     1      15.858  12.413 -20.133  1.00  0.00     0.004 C 
ENDBRANCH  28  29
ENDBRANCH  27  28
ENDBRANCH  26  27
ENDBRANCH  25  26
ENDBRANCH  24  25
ENDBRANCH  23  24
ENDBRANCH  22  23
ENDBRANCH  21  22
ENDBRANCH  20  21
ENDBRANCH  19  20
ENDBRANCH  18  19
ENDBRANCH  17  18
ENDBRANCH   1  17
TORSDOF 26
ENDMDL
