MODEL 1
REMARK VINA RESULT:    -3.682      0.000      0.000
REMARK INTER + INTRA:          -4.064
REMARK INTER:                  -3.897
REMARK INTRA:                  -0.167
REMARK UNBOUND:                -0.167
REMARK SMILES CC(C)[C@@H]1CC[C@@H](C)CC1=O
REMARK SMILES IDX 8 1 7 2 6 3 5 4 4 5 10 6 11 7 9 8 2 9 1 10 3 11
REMARK H PARENT
REMARK Flexibility Score: inf
ROOT
ATOM      1  C   UNL     1      -6.814  23.032   8.333  1.00  0.00     0.008 C 
ATOM      2  C   UNL     1      -7.220  22.127   9.502  1.00  0.00    -0.007 C 
ATOM      3  C   UNL     1      -8.723  22.287   9.815  1.00  0.00     0.004 C 
ATOM      4  C   UNL     1      -9.153  21.399  10.998  1.00  0.00     0.012 C 
ATOM      5  C   UNL     1      -8.328  21.701  12.274  1.00  0.00     0.058 C 
ATOM      6  C   UNL     1      -6.858  21.609  11.898  1.00  0.00     0.136 C 
ATOM      7  O   UNL     1      -6.097  20.827  12.449  1.00  0.00    -0.299 OA
ATOM      8  C   UNL     1      -6.369  22.436  10.745  1.00  0.00     0.079 C 
ENDROOT
BRANCH   5   9
ATOM      9  C   UNL     1      -8.706  20.786  13.485  1.00  0.00    -0.007 C 
ATOM     10  C   UNL     1      -9.913  19.879  13.193  1.00  0.00     0.008 C 
ATOM     11  C   UNL     1      -9.021  21.632  14.733  1.00  0.00     0.008 C 
ENDBRANCH   5   9
TORSDOF 1
ENDMDL
MODEL 2
REMARK VINA RESULT:    -3.507      1.047      4.416
REMARK INTER + INTRA:          -3.879
REMARK INTER:                  -3.704
REMARK INTRA:                  -0.175
REMARK UNBOUND:                -0.167
REMARK SMILES CC(C)[C@@H]1CC[C@@H](C)CC1=O
REMARK SMILES IDX 8 1 7 2 6 3 5 4 4 5 10 6 11 7 9 8 2 9 1 10 3 11
REMARK H PARENT
REMARK Flexibility Score: inf
ROOT
ATOM      1  C   UNL     1      -8.845  20.820  13.737  1.00  0.00     0.008 C 
ATOM      2  C   UNL     1      -8.248  21.704  12.636  1.00  0.00    -0.007 C 
ATOM      3  C   UNL     1      -9.054  21.560  11.328  1.00  0.00     0.004 C 
ATOM      4  C   UNL     1      -8.464  22.428  10.200  1.00  0.00     0.012 C 
ATOM      5  C   UNL     1      -6.978  22.085   9.928  1.00  0.00     0.058 C 
ATOM      6  C   UNL     1      -6.242  22.163  11.255  1.00  0.00     0.136 C 
ATOM      7  O   UNL     1      -5.298  22.921  11.428  1.00  0.00    -0.299 OA
ATOM      8  C   UNL     1      -6.768  21.354  12.405  1.00  0.00     0.079 C 
ENDROOT
BRANCH   5   9
ATOM      9  C   UNL     1      -6.331  22.977   8.818  1.00  0.00    -0.007 C 
ATOM     10  C   UNL     1      -7.101  24.289   8.584  1.00  0.00     0.008 C 
ATOM     11  C   UNL     1      -6.247  22.215   7.482  1.00  0.00     0.008 C 
ENDBRANCH   5   9
TORSDOF 1
ENDMDL
MODEL 3
REMARK VINA RESULT:    -3.394      2.749      4.053
REMARK INTER + INTRA:          -3.759
REMARK INTER:                  -3.585
REMARK INTRA:                  -0.174
REMARK UNBOUND:                -0.167
REMARK SMILES CC(C)[C@@H]1CC[C@@H](C)CC1=O
REMARK SMILES IDX 8 1 7 2 6 3 5 4 4 5 10 6 11 7 9 8 2 9 1 10 3 11
REMARK H PARENT
REMARK Flexibility Score: inf
ROOT
ATOM      1  C   UNL     1      -2.998  24.321   6.810  1.00  0.00     0.008 C 
ATOM      2  C   UNL     1      -3.648  23.670   8.037  1.00  0.00    -0.007 C 
ATOM      3  C   UNL     1      -5.186  23.725   7.931  1.00  0.00     0.004 C 
ATOM      4  C   UNL     1      -5.862  23.091   9.161  1.00  0.00     0.012 C 
ATOM      5  C   UNL     1      -5.414  23.772  10.478  1.00  0.00     0.058 C 
ATOM      6  C   UNL     1      -3.895  23.764  10.501  1.00  0.00     0.136 C 
ATOM      7  O   UNL     1      -3.263  23.223  11.398  1.00  0.00    -0.299 OA
ATOM      8  C   UNL     1      -3.167  24.353   9.328  1.00  0.00     0.079 C 
ENDROOT
BRANCH   5   9
ATOM      9  C   UNL     1      -6.046  23.125  11.754  1.00  0.00    -0.007 C 
ATOM     10  C   UNL     1      -6.701  21.762  11.469  1.00  0.00     0.008 C 
ATOM     11  C   UNL     1      -7.105  24.056  12.374  1.00  0.00     0.008 C 
ENDBRANCH   5   9
TORSDOF 1
ENDMDL
MODEL 4
REMARK VINA RESULT:    -3.385      1.449      4.549
REMARK INTER + INTRA:          -3.750
REMARK INTER:                  -3.578
REMARK INTRA:                  -0.172
REMARK UNBOUND:                -0.167
REMARK SMILES CC(C)[C@@H]1CC[C@@H](C)CC1=O
REMARK SMILES IDX 8 1 7 2 6 3 5 4 4 5 10 6 11 7 9 8 2 9 1 10 3 11
REMARK H PARENT
REMARK Flexibility Score: inf
ROOT
ATOM      1  C   UNL     1      -9.206  22.971  15.448  1.00  0.00     0.008 C 
ATOM      2  C   UNL     1      -8.117  22.849  14.375  1.00  0.00    -0.007 C 
ATOM      3  C   UNL     1      -8.190  24.034  13.390  1.00  0.00     0.004 C 
ATOM      4  C   UNL     1      -7.115  23.926  12.292  1.00  0.00     0.012 C 
ATOM      5  C   UNL     1      -7.229  22.597  11.505  1.00  0.00     0.058 C 
ATOM      6  C   UNL     1      -7.232  21.465  12.519  1.00  0.00     0.136 C 
ATOM      7  O   UNL     1      -6.390  20.579  12.503  1.00  0.00    -0.299 OA
ATOM      8  C   UNL     1      -8.244  21.511  13.627  1.00  0.00     0.079 C 
ENDROOT
BRANCH   5   9
ATOM      9  C   UNL     1      -6.124  22.430  10.410  1.00  0.00    -0.007 C 
ATOM     10  C   UNL     1      -5.069  23.548  10.454  1.00  0.00     0.008 C 
ATOM     11  C   UNL     1      -6.748  22.403   9.001  1.00  0.00     0.008 C 
ENDBRANCH   5   9
TORSDOF 1
ENDMDL
MODEL 5
REMARK VINA RESULT:    -3.265      3.483      5.061
REMARK INTER + INTRA:          -3.623
REMARK INTER:                  -3.455
REMARK INTRA:                  -0.168
REMARK UNBOUND:                -0.167
REMARK SMILES CC(C)[C@@H]1CC[C@@H](C)CC1=O
REMARK SMILES IDX 8 1 7 2 6 3 5 4 4 5 10 6 11 7 9 8 2 9 1 10 3 11
REMARK H PARENT
REMARK Flexibility Score: inf
ROOT
ATOM      1  C   UNL     1      -2.181  24.916  11.043  1.00  0.00     0.008 C 
ATOM      2  C   UNL     1      -3.197  23.959  10.410  1.00  0.00    -0.007 C 
ATOM      3  C   UNL     1      -3.475  24.353   8.944  1.00  0.00     0.004 C 
ATOM      4  C   UNL     1      -4.506  23.415   8.289  1.00  0.00     0.012 C 
ATOM      5  C   UNL     1      -5.841  23.389   9.075  1.00  0.00     0.058 C 
ATOM      6  C   UNL     1      -5.510  23.075  10.525  1.00  0.00     0.136 C 
ATOM      7  O   UNL     1      -5.974  22.100  11.098  1.00  0.00    -0.299 OA
ATOM      8  C   UNL     1      -4.502  23.940  11.224  1.00  0.00     0.079 C 
ENDROOT
BRANCH   5   9
ATOM      9  C   UNL     1      -6.898  22.411   8.466  1.00  0.00    -0.007 C 
ATOM     10  C   UNL     1      -6.423  21.761   7.155  1.00  0.00     0.008 C 
ATOM     11  C   UNL     1      -8.228  23.141   8.195  1.00  0.00     0.008 C 
ENDBRANCH   5   9
TORSDOF 1
ENDMDL
MODEL 6
REMARK VINA RESULT:    -3.264      1.526      2.258
REMARK INTER + INTRA:          -3.621
REMARK INTER:                  -3.450
REMARK INTRA:                  -0.171
REMARK UNBOUND:                -0.167
REMARK SMILES CC(C)[C@@H]1CC[C@@H](C)CC1=O
REMARK SMILES IDX 8 1 7 2 6 3 5 4 4 5 10 6 11 7 9 8 2 9 1 10 3 11
REMARK H PARENT
REMARK Flexibility Score: inf
ROOT
ATOM      1  C   UNL     1      -5.332  23.274  11.081  1.00  0.00     0.008 C 
ATOM      2  C   UNL     1      -6.500  22.285  11.167  1.00  0.00    -0.007 C 
ATOM      3  C   UNL     1      -7.650  22.720  10.234  1.00  0.00     0.004 C 
ATOM      4  C   UNL     1      -8.844  21.749  10.315  1.00  0.00     0.012 C 
ATOM      5  C   UNL     1      -9.380  21.616  11.762  1.00  0.00     0.058 C 
ATOM      6  C   UNL     1      -8.200  21.265  12.654  1.00  0.00     0.136 C 
ATOM      7  O   UNL     1      -8.178  20.243  13.325  1.00  0.00    -0.299 OA
ATOM      8  C   UNL     1      -6.995  22.159  12.618  1.00  0.00     0.079 C 
ENDROOT
BRANCH   5   9
ATOM      9  C   UNL     1     -10.565  20.603  11.892  1.00  0.00    -0.007 C 
ATOM     10  C   UNL     1     -10.873  19.875  10.572  1.00  0.00     0.008 C 
ATOM     11  C   UNL     1     -11.845  21.316  12.367  1.00  0.00     0.008 C 
ENDBRANCH   5   9
TORSDOF 1
ENDMDL
MODEL 7
REMARK VINA RESULT:    -3.175      1.661      2.306
REMARK INTER + INTRA:          -3.527
REMARK INTER:                  -3.353
REMARK INTRA:                  -0.175
REMARK UNBOUND:                -0.167
REMARK SMILES CC(C)[C@@H]1CC[C@@H](C)CC1=O
REMARK SMILES IDX 8 1 7 2 6 3 5 4 4 5 10 6 11 7 9 8 2 9 1 10 3 11
REMARK H PARENT
REMARK Flexibility Score: inf
ROOT
ATOM      1  C   UNL     1      -6.351  22.522   9.777  1.00  0.00     0.008 C 
ATOM      2  C   UNL     1      -7.313  22.393  10.964  1.00  0.00    -0.007 C 
ATOM      3  C   UNL     1      -7.558  23.769  11.617  1.00  0.00     0.004 C 
ATOM      4  C   UNL     1      -8.510  23.662  12.824  1.00  0.00     0.012 C 
ATOM      5  C   UNL     1      -7.977  22.675  13.892  1.00  0.00     0.058 C 
ATOM      6  C   UNL     1      -7.677  21.362  13.188  1.00  0.00     0.136 C 
ATOM      7  O   UNL     1      -8.216  20.314  13.514  1.00  0.00    -0.299 OA
ATOM      8  C   UNL     1      -6.767  21.391  11.995  1.00  0.00     0.079 C 
ENDROOT
BRANCH   5   9
ATOM      9  C   UNL     1      -8.941  22.506  15.112  1.00  0.00    -0.007 C 
ATOM     10  C   UNL     1     -10.393  22.891  14.783  1.00  0.00     0.008 C 
ATOM     11  C   UNL     1      -8.468  23.357  16.306  1.00  0.00     0.008 C 
ENDBRANCH   5   9
TORSDOF 1
ENDMDL
MODEL 8
REMARK VINA RESULT:    -3.106      2.479      5.778
REMARK INTER + INTRA:          -3.454
REMARK INTER:                  -3.280
REMARK INTRA:                  -0.174
REMARK UNBOUND:                -0.167
REMARK SMILES CC(C)[C@@H]1CC[C@@H](C)CC1=O
REMARK SMILES IDX 8 1 7 2 6 3 5 4 4 5 10 6 11 7 9 8 2 9 1 10 3 11
REMARK H PARENT
REMARK Flexibility Score: inf
ROOT
ATOM      1  C   UNL     1      -7.191  21.750  12.334  1.00  0.00     0.008 C 
ATOM      2  C   UNL     1      -6.344  22.064  11.096  1.00  0.00    -0.007 C 
ATOM      3  C   UNL     1      -5.495  23.332  11.325  1.00  0.00     0.004 C 
ATOM      4  C   UNL     1      -4.645  23.678  10.088  1.00  0.00     0.012 C 
ATOM      5  C   UNL     1      -5.522  23.870   8.824  1.00  0.00     0.058 C 
ATOM      6  C   UNL     1      -6.395  22.634   8.684  1.00  0.00     0.136 C 
ATOM      7  O   UNL     1      -6.361  21.928   7.686  1.00  0.00    -0.299 OA
ATOM      8  C   UNL     1      -7.240  22.227   9.856  1.00  0.00     0.079 C 
ENDROOT
BRANCH   5   9
ATOM      9  C   UNL     1      -4.690  24.178   7.536  1.00  0.00    -0.007 C 
ATOM     10  C   UNL     1      -3.238  23.677   7.630  1.00  0.00     0.008 C 
ATOM     11  C   UNL     1      -4.666  25.691   7.248  1.00  0.00     0.008 C 
ENDBRANCH   5   9
TORSDOF 1
ENDMDL
MODEL 9
REMARK VINA RESULT:    -3.048      1.736      2.629
REMARK INTER + INTRA:          -3.393
REMARK INTER:                  -3.226
REMARK INTRA:                  -0.167
REMARK UNBOUND:                -0.167
REMARK SMILES CC(C)[C@@H]1CC[C@@H](C)CC1=O
REMARK SMILES IDX 8 1 7 2 6 3 5 4 4 5 10 6 11 7 9 8 2 9 1 10 3 11
REMARK H PARENT
REMARK Flexibility Score: inf
ROOT
ATOM      1  C   UNL     1      -4.654  23.663   8.591  1.00  0.00     0.008 C 
ATOM      2  C   UNL     1      -5.811  23.517   9.585  1.00  0.00    -0.007 C 
ATOM      3  C   UNL     1      -5.275  23.378  11.025  1.00  0.00     0.004 C 
ATOM      4  C   UNL     1      -6.420  23.213  12.043  1.00  0.00     0.012 C 
ATOM      5  C   UNL     1      -7.315  21.994  11.709  1.00  0.00     0.058 C 
ATOM      6  C   UNL     1      -7.754  22.134  10.261  1.00  0.00     0.136 C 
ATOM      7  O   UNL     1      -8.933  22.188   9.944  1.00  0.00    -0.299 OA
ATOM      8  C   UNL     1      -6.693  22.312   9.215  1.00  0.00     0.079 C 
ENDROOT
BRANCH   5   9
ATOM      9  C   UNL     1      -8.516  21.821  12.696  1.00  0.00    -0.007 C 
ATOM     10  C   UNL     1      -8.484  22.829  13.857  1.00  0.00     0.008 C 
ATOM     11  C   UNL     1      -8.541  20.397  13.285  1.00  0.00     0.008 C 
ENDBRANCH   5   9
TORSDOF 1
ENDMDL
