MODEL 1
REMARK VINA RESULT:     9.850      0.000      0.000
REMARK INTER + INTRA:          14.328
REMARK INTER:                  15.032
REMARK INTRA:                  -0.704
REMARK UNBOUND:                -0.704
REMARK SMILES CC(=O)CCC=C(C)CCC=C(C)CCC=C(C)C
REMARK SMILES IDX 10 1 11 2 12 3 13 4 14 5 15 6 16 7 18 8 17 9 19 10 9 11 7 12
REMARK SMILES IDX 6 13 8 14 5 15 4 16 2 17 3 18 1 19
REMARK H PARENT
REMARK Flexibility Score: inf
ROOT
ATOM      1  C   UNL     1      15.222  15.149 -12.469  1.00  0.00     0.032 C 
ENDROOT
BRANCH   1   2
ATOM      2  C   UNL     1      15.590  14.963 -11.015  1.00  0.00    -0.028 C 
ATOM      3  C   UNL     1      14.704  15.101 -10.006  1.00  0.00    -0.077 C 
ATOM      4  C   UNL     1      13.262  15.466 -10.267  1.00  0.00     0.039 C 
BRANCH   3   5
ATOM      5  C   UNL     1      15.166  14.882  -8.579  1.00  0.00     0.034 C 
BRANCH   5   6
ATOM      6  C   UNL     1      15.122  16.181  -7.761  1.00  0.00     0.032 C 
BRANCH   6   7
ATOM      7  C   UNL     1      13.920  16.220  -6.846  1.00  0.00    -0.028 C 
ATOM      8  C   UNL     1      14.137  18.673  -6.393  1.00  0.00     0.039 C 
ATOM      9  C   UNL     1      13.447  17.336  -6.252  1.00  0.00    -0.080 C 
ATOM     10  C   UNL     1      12.205  17.228  -5.406  1.00  0.00     0.039 C 
ENDBRANCH   6   7
ENDBRANCH   5   6
ENDBRANCH   3   5
ENDBRANCH   1   2
BRANCH   1  11
ATOM     11  C   UNL     1      16.354  14.722 -13.413  1.00  0.00     0.034 C 
BRANCH  11  12
ATOM     12  C   UNL     1      17.658  15.416 -13.081  1.00  0.00    -0.077 C 
ATOM     13  C   UNL     1      17.655  16.733 -12.770  1.00  0.00    -0.028 C 
ATOM     14  C   UNL     1      18.939  14.621 -13.160  1.00  0.00     0.039 C 
BRANCH  13  15
ATOM     15  C   UNL     1      18.884  17.525 -12.403  1.00  0.00     0.035 C 
BRANCH  15  16
ATOM     16  C   UNL     1      18.505  18.764 -11.587  1.00  0.00     0.079 C 
BRANCH  16  17
ATOM     17  C   UNL     1      18.682  20.016 -12.401  1.00  0.00     0.130 C 
ATOM     18  O   UNL     1      17.812  20.354 -13.191  1.00  0.00    -0.300 OA
ATOM     19  C   UNL     1      19.906  20.865 -12.233  1.00  0.00     0.087 C 
ENDBRANCH  16  17
ENDBRANCH  15  16
ENDBRANCH  13  15
ENDBRANCH  11  12
ENDBRANCH   1  11
TORSDOF 9
ENDMDL
MODEL 2
REMARK VINA RESULT:     9.874      2.020      6.627
REMARK INTER + INTRA:          14.366
REMARK INTER:                  15.267
REMARK INTRA:                  -0.901
REMARK UNBOUND:                -0.704
REMARK SMILES CC(=O)CCC=C(C)CCC=C(C)CCC=C(C)C
REMARK SMILES IDX 10 1 11 2 12 3 13 4 14 5 15 6 16 7 18 8 17 9 19 10 9 11 7 12
REMARK SMILES IDX 6 13 8 14 5 15 4 16 2 17 3 18 1 19
REMARK H PARENT
REMARK Flexibility Score: inf
ROOT
ATOM      1  C   UNL     1      15.416  14.487 -12.698  1.00  0.00     0.032 C 
ENDROOT
BRANCH   1   2
ATOM      2  C   UNL     1      16.393  15.636 -12.615  1.00  0.00    -0.028 C 
ATOM      3  C   UNL     1      17.682  15.539 -13.005  1.00  0.00    -0.077 C 
ATOM      4  C   UNL     1      18.245  14.248 -13.550  1.00  0.00     0.039 C 
BRANCH   3   5
ATOM      5  C   UNL     1      18.583  16.753 -12.895  1.00  0.00     0.034 C 
BRANCH   5   6
ATOM      6  C   UNL     1      18.161  17.672 -11.740  1.00  0.00     0.032 C 
BRANCH   6   7
ATOM      7  C   UNL     1      19.020  18.914 -11.677  1.00  0.00    -0.028 C 
ATOM      8  C   UNL     1      17.578  20.194 -13.275  1.00  0.00     0.039 C 
ATOM      9  C   UNL     1      18.752  20.063 -12.334  1.00  0.00    -0.080 C 
ATOM     10  C   UNL     1      19.675  21.237 -12.131  1.00  0.00     0.039 C 
ENDBRANCH   6   7
ENDBRANCH   5   6
ENDBRANCH   3   5
ENDBRANCH   1   2
BRANCH   1  11
ATOM     11  C   UNL     1      15.084  13.906 -11.316  1.00  0.00     0.034 C 
BRANCH  11  12
ATOM     12  C   UNL     1      14.644  14.981 -10.344  1.00  0.00    -0.077 C 
ATOM     13  C   UNL     1      15.496  15.399  -9.379  1.00  0.00    -0.028 C 
ATOM     14  C   UNL     1      13.236  15.516 -10.449  1.00  0.00     0.039 C 
BRANCH  13  15
ATOM     15  C   UNL     1      15.178  16.473  -8.369  1.00  0.00     0.035 C 
BRANCH  15  16
ATOM     16  C   UNL     1      14.270  15.925  -7.265  1.00  0.00     0.079 C 
BRANCH  16  17
ATOM     17  C   UNL     1      13.774  17.035  -6.379  1.00  0.00     0.130 C 
ATOM     18  O   UNL     1      14.483  18.009  -6.172  1.00  0.00    -0.300 OA
ATOM     19  C   UNL     1      12.406  16.966  -5.770  1.00  0.00     0.087 C 
ENDBRANCH  16  17
ENDBRANCH  15  16
ENDBRANCH  13  15
ENDBRANCH  11  12
ENDBRANCH   1  11
TORSDOF 9
ENDMDL
MODEL 3
REMARK VINA RESULT:    12.044      4.279      7.582
REMARK INTER + INTRA:          17.676
REMARK INTER:                  18.419
REMARK INTRA:                  -0.743
REMARK UNBOUND:                -0.704
REMARK SMILES CC(=O)CCC=C(C)CCC=C(C)CCC=C(C)C
REMARK SMILES IDX 10 1 11 2 12 3 13 4 14 5 15 6 16 7 18 8 17 9 19 10 9 11 7 12
REMARK SMILES IDX 6 13 8 14 5 15 4 16 2 17 3 18 1 19
REMARK H PARENT
REMARK Flexibility Score: inf
ROOT
ATOM      1  C   UNL     1      20.372  21.615 -12.759  1.00  0.00     0.032 C 
ENDROOT
BRANCH   1   2
ATOM      2  C   UNL     1      19.912  20.399 -11.988  1.00  0.00    -0.028 C 
ATOM      3  C   UNL     1      18.728  19.789 -12.208  1.00  0.00    -0.077 C 
ATOM      4  C   UNL     1      17.762  20.297 -13.252  1.00  0.00     0.039 C 
BRANCH   3   5
ATOM      5  C   UNL     1      18.361  18.566 -11.391  1.00  0.00     0.034 C 
BRANCH   5   6
ATOM      6  C   UNL     1      18.655  17.265 -12.151  1.00  0.00     0.032 C 
BRANCH   6   7
ATOM      7  C   UNL     1      17.384  16.519 -12.486  1.00  0.00    -0.028 C 
ATOM      8  C   UNL     1      18.596  14.549 -13.446  1.00  0.00     0.039 C 
ATOM      9  C   UNL     1      17.342  15.287 -13.037  1.00  0.00    -0.080 C 
ATOM     10  C   UNL     1      15.998  14.648 -13.265  1.00  0.00     0.039 C 
ENDBRANCH   6   7
ENDBRANCH   5   6
ENDBRANCH   3   5
ENDBRANCH   1   2
BRANCH   1  11
ATOM     11  C   UNL     1      21.803  21.458 -13.290  1.00  0.00     0.034 C 
BRANCH  11  12
ATOM     12  C   UNL     1      22.070  22.370 -14.469  1.00  0.00    -0.077 C 
ATOM     13  C   UNL     1      21.333  23.494 -14.626  1.00  0.00    -0.028 C 
ATOM     14  C   UNL     1      23.124  21.964 -15.471  1.00  0.00     0.039 C 
BRANCH  13  15
ATOM     15  C   UNL     1      21.521  24.486 -15.747  1.00  0.00     0.035 C 
BRANCH  15  16
ATOM     16  C   UNL     1      20.725  25.765 -15.474  1.00  0.00     0.079 C 
BRANCH  16  17
ATOM     17  C   UNL     1      19.277  25.583 -15.838  1.00  0.00     0.130 C 
ATOM     18  O   UNL     1      18.899  25.839 -16.972  1.00  0.00    -0.300 OA
ATOM     19  C   UNL     1      18.299  25.066 -14.826  1.00  0.00     0.087 C 
ENDBRANCH  16  17
ENDBRANCH  15  16
ENDBRANCH  13  15
ENDBRANCH  11  12
ENDBRANCH   1  11
TORSDOF 9
ENDMDL
MODEL 4
REMARK VINA RESULT:    12.047      4.190      9.689
REMARK INTER + INTRA:          17.681
REMARK INTER:                  18.606
REMARK INTRA:                  -0.925
REMARK UNBOUND:                -0.704
REMARK SMILES CC(=O)CCC=C(C)CCC=C(C)CCC=C(C)C
REMARK SMILES IDX 10 1 11 2 12 3 13 4 14 5 15 6 16 7 18 8 17 9 19 10 9 11 7 12
REMARK SMILES IDX 6 13 8 14 5 15 4 16 2 17 3 18 1 19
REMARK H PARENT
REMARK Flexibility Score: inf
ROOT
ATOM      1  C   UNL     1      21.059  20.999 -12.864  1.00  0.00     0.032 C 
ENDROOT
BRANCH   1   2
ATOM      2  C   UNL     1      21.276  22.234 -13.709  1.00  0.00    -0.028 C 
ATOM      3  C   UNL     1      22.130  22.273 -14.753  1.00  0.00    -0.077 C 
ATOM      4  C   UNL     1      22.949  21.066 -15.147  1.00  0.00     0.039 C 
BRANCH   3   5
ATOM      5  C   UNL     1      22.270  23.555 -15.548  1.00  0.00     0.034 C 
BRANCH   5   6
ATOM      6  C   UNL     1      21.494  24.712 -14.904  1.00  0.00     0.032 C 
BRANCH   6   7
ATOM      7  C   UNL     1      20.598  25.405 -15.905  1.00  0.00    -0.028 C 
ATOM      8  C   UNL     1      18.503  24.896 -14.632  1.00  0.00     0.039 C 
ATOM      9  C   UNL     1      19.259  25.524 -15.779  1.00  0.00    -0.080 C 
ATOM     10  C   UNL     1      18.504  26.290 -16.834  1.00  0.00     0.039 C 
ENDBRANCH   6   7
ENDBRANCH   5   6
ENDBRANCH   3   5
ENDBRANCH   1   2
BRANCH   1  11
ATOM     11  C   UNL     1      19.810  21.114 -11.980  1.00  0.00     0.034 C 
BRANCH  11  12
ATOM     12  C   UNL     1      18.828  19.990 -12.241  1.00  0.00    -0.077 C 
ATOM     13  C   UNL     1      19.022  18.784 -11.658  1.00  0.00    -0.028 C 
ATOM     14  C   UNL     1      17.685  20.238 -13.196  1.00  0.00     0.039 C 
BRANCH  13  15
ATOM     15  C   UNL     1      18.104  17.600 -11.827  1.00  0.00     0.035 C 
BRANCH  15  16
ATOM     16  C   UNL     1      18.410  16.860 -13.133  1.00  0.00     0.079 C 
BRANCH  16  17
ATOM     17  C   UNL     1      17.790  15.490 -13.130  1.00  0.00     0.130 C 
ATOM     18  O   UNL     1      18.474  14.514 -13.403  1.00  0.00    -0.300 OA
ATOM     19  C   UNL     1      16.346  15.311 -12.770  1.00  0.00     0.087 C 
ENDBRANCH  16  17
ENDBRANCH  15  16
ENDBRANCH  13  15
ENDBRANCH  11  12
ENDBRANCH   1  11
TORSDOF 9
ENDMDL
MODEL 5
REMARK VINA RESULT:    12.049      4.299      8.604
REMARK INTER + INTRA:          17.684
REMARK INTER:                  17.667
REMARK INTRA:                   0.017
REMARK UNBOUND:                -0.704
REMARK SMILES CC(=O)CCC=C(C)CCC=C(C)CCC=C(C)C
REMARK SMILES IDX 10 1 11 2 12 3 13 4 14 5 15 6 16 7 18 8 17 9 19 10 9 11 7 12
REMARK SMILES IDX 6 13 8 14 5 15 4 16 2 17 3 18 1 19
REMARK H PARENT
REMARK Flexibility Score: inf
ROOT
ATOM      1  C   UNL     1      19.413  20.443 -11.725  1.00  0.00     0.032 C 
ENDROOT
BRANCH   1   2
ATOM      2  C   UNL     1      18.986  21.593 -12.607  1.00  0.00    -0.028 C 
ATOM      3  C   UNL     1      17.840  21.590 -13.321  1.00  0.00    -0.077 C 
ATOM      4  C   UNL     1      16.896  20.411 -13.292  1.00  0.00     0.039 C 
BRANCH   3   5
ATOM      5  C   UNL     1      17.492  22.797 -14.168  1.00  0.00     0.034 C 
BRANCH   5   6
ATOM      6  C   UNL     1      18.348  24.017 -13.800  1.00  0.00     0.032 C 
BRANCH   6   7
ATOM      7  C   UNL     1      18.111  25.169 -14.750  1.00  0.00    -0.028 C 
ATOM      8  C   UNL     1      20.416  25.057 -15.723  1.00  0.00     0.039 C 
ATOM      9  C   UNL     1      19.018  25.624 -15.641  1.00  0.00    -0.080 C 
ATOM     10  C   UNL     1      18.619  26.748 -16.561  1.00  0.00     0.039 C 
ENDBRANCH   6   7
ENDBRANCH   5   6
ENDBRANCH   3   5
ENDBRANCH   1   2
BRANCH   1  11
ATOM     11  C   UNL     1      19.716  19.173 -12.532  1.00  0.00     0.034 C 
BRANCH  11  12
ATOM     12  C   UNL     1      18.804  18.027 -12.146  1.00  0.00    -0.077 C 
ATOM     13  C   UNL     1      18.399  17.148 -13.090  1.00  0.00    -0.028 C 
ATOM     14  C   UNL     1      18.330  17.934 -10.715  1.00  0.00     0.039 C 
BRANCH  13  15
ATOM     15  C   UNL     1      17.510  15.959 -12.822  1.00  0.00     0.035 C 
BRANCH  15  16
ATOM     16  C   UNL     1      17.978  14.742 -13.625  1.00  0.00     0.079 C 
BRANCH  16  17
ATOM     17  C   UNL     1      19.161  14.089 -12.966  1.00  0.00     0.130 C 
ATOM     18  O   UNL     1      19.302  12.876 -13.036  1.00  0.00    -0.300 OA
ATOM     19  C   UNL     1      20.182  14.916 -12.245  1.00  0.00     0.087 C 
ENDBRANCH  16  17
ENDBRANCH  15  16
ENDBRANCH  13  15
ENDBRANCH  11  12
ENDBRANCH   1  11
TORSDOF 9
ENDMDL
MODEL 6
REMARK VINA RESULT:    12.328      4.346      7.153
REMARK INTER + INTRA:          18.111
REMARK INTER:                  17.181
REMARK INTRA:                   0.930
REMARK UNBOUND:                -0.704
REMARK SMILES CC(=O)CCC=C(C)CCC=C(C)CCC=C(C)C
REMARK SMILES IDX 10 1 11 2 12 3 13 4 14 5 15 6 16 7 18 8 17 9 19 10 9 11 7 12
REMARK SMILES IDX 6 13 8 14 5 15 4 16 2 17 3 18 1 19
REMARK H PARENT
REMARK Flexibility Score: inf
ROOT
ATOM      1  C   UNL     1      20.293  20.189 -12.562  1.00  0.00     0.032 C 
ENDROOT
BRANCH   1   2
ATOM      2  C   UNL     1      19.659  18.817 -12.558  1.00  0.00    -0.028 C 
ATOM      3  C   UNL     1      18.685  18.457 -11.695  1.00  0.00    -0.077 C 
ATOM      4  C   UNL     1      18.163  19.415 -10.651  1.00  0.00     0.039 C 
BRANCH   3   5
ATOM      5  C   UNL     1      18.102  17.060 -11.777  1.00  0.00     0.034 C 
BRANCH   5   6
ATOM      6  C   UNL     1      17.870  16.624 -13.230  1.00  0.00     0.032 C 
BRANCH   6   7
ATOM      7  C   UNL     1      17.946  15.122 -13.378  1.00  0.00    -0.028 C 
ATOM      8  C   UNL     1      20.277  14.985 -12.474  1.00  0.00     0.039 C 
ATOM      9  C   UNL     1      19.006  14.370 -13.013  1.00  0.00    -0.080 C 
ATOM     10  C   UNL     1      18.915  12.875 -13.172  1.00  0.00     0.039 C 
ENDBRANCH   6   7
ENDBRANCH   5   6
ENDBRANCH   3   5
ENDBRANCH   1   2
BRANCH   1  11
ATOM     11  C   UNL     1      19.376  21.254 -11.947  1.00  0.00     0.034 C 
BRANCH  11  12
ATOM     12  C   UNL     1      18.470  21.886 -12.983  1.00  0.00    -0.077 C 
ATOM     13  C   UNL     1      18.591  23.205 -13.262  1.00  0.00    -0.028 C 
ATOM     14  C   UNL     1      17.415  21.028 -13.639  1.00  0.00     0.039 C 
BRANCH  13  15
ATOM     15  C   UNL     1      17.761  23.938 -14.286  1.00  0.00     0.035 C 
BRANCH  15  16
ATOM     16  C   UNL     1      18.272  25.370 -14.469  1.00  0.00     0.079 C 
BRANCH  16  17
ATOM     17  C   UNL     1      19.045  25.502 -15.752  1.00  0.00     0.130 C 
ATOM     18  O   UNL     1      18.509  25.993 -16.736  1.00  0.00    -0.300 OA
ATOM     19  C   UNL     1      20.476  25.061 -15.826  1.00  0.00     0.087 C 
ENDBRANCH  16  17
ENDBRANCH  15  16
ENDBRANCH  13  15
ENDBRANCH  11  12
ENDBRANCH   1  11
TORSDOF 9
ENDMDL
MODEL 7
REMARK VINA RESULT:    12.712      6.470     11.778
REMARK INTER + INTRA:          18.696
REMARK INTER:                  18.154
REMARK INTRA:                   0.541
REMARK UNBOUND:                -0.704
REMARK SMILES CC(=O)CCC=C(C)CCC=C(C)CCC=C(C)C
REMARK SMILES IDX 10 1 11 2 12 3 13 4 14 5 15 6 16 7 18 8 17 9 19 10 9 11 7 12
REMARK SMILES IDX 6 13 8 14 5 15 4 16 2 17 3 18 1 19
REMARK H PARENT
REMARK Flexibility Score: inf
ROOT
ATOM      1  C   UNL     1      11.147  13.273  -2.885  1.00  0.00     0.032 C 
ENDROOT
BRANCH   1   2
ATOM      2  C   UNL     1      11.247  14.557  -3.677  1.00  0.00    -0.028 C 
ATOM      3  C   UNL     1      10.690  14.718  -4.896  1.00  0.00    -0.077 C 
ATOM      4  C   UNL     1       9.924  13.602  -5.566  1.00  0.00     0.039 C 
BRANCH   3   5
ATOM      5  C   UNL     1      10.835  16.048  -5.607  1.00  0.00     0.034 C 
BRANCH   5   6
ATOM      6  C   UNL     1      12.231  16.654  -5.402  1.00  0.00     0.032 C 
BRANCH   6   7
ATOM      7  C   UNL     1      13.214  16.143  -6.431  1.00  0.00    -0.028 C 
ATOM      8  C   UNL     1      14.415  18.333  -6.614  1.00  0.00     0.039 C 
ATOM      9  C   UNL     1      14.219  16.875  -6.958  1.00  0.00    -0.080 C 
ATOM     10  C   UNL     1      15.153  16.211  -7.936  1.00  0.00     0.039 C 
ENDBRANCH   6   7
ENDBRANCH   5   6
ENDBRANCH   3   5
ENDBRANCH   1   2
BRANCH   1  11
ATOM     11  C   UNL     1      11.970  13.324  -1.591  1.00  0.00     0.034 C 
BRANCH  11  12
ATOM     12  C   UNL     1      11.106  13.624  -0.384  1.00  0.00    -0.077 C 
ATOM     13  C   UNL     1      11.654  13.598   0.854  1.00  0.00    -0.028 C 
ATOM     14  C   UNL     1       9.636  13.893  -0.597  1.00  0.00     0.039 C 
BRANCH  13  15
ATOM     15  C   UNL     1      10.900  13.898   2.125  1.00  0.00     0.035 C 
BRANCH  15  16
ATOM     16  C   UNL     1       9.673  14.767   1.834  1.00  0.00     0.079 C 
BRANCH  16  17
ATOM     17  C   UNL     1      10.016  16.228   1.934  1.00  0.00     0.130 C 
ATOM     18  O   UNL     1       9.122  17.062   1.948  1.00  0.00    -0.300 OA
ATOM     19  C   UNL     1      11.445  16.667   2.041  1.00  0.00     0.087 C 
ENDBRANCH  16  17
ENDBRANCH  15  16
ENDBRANCH  13  15
ENDBRANCH  11  12
ENDBRANCH   1  11
TORSDOF 9
ENDMDL
MODEL 8
REMARK VINA RESULT:    12.809      6.278     11.614
REMARK INTER + INTRA:          18.844
REMARK INTER:                  19.820
REMARK INTRA:                  -0.976
REMARK UNBOUND:                -0.704
REMARK SMILES CC(=O)CCC=C(C)CCC=C(C)CCC=C(C)C
REMARK SMILES IDX 10 1 11 2 12 3 13 4 14 5 15 6 16 7 18 8 17 9 19 10 9 11 7 12
REMARK SMILES IDX 6 13 8 14 5 15 4 16 2 17 3 18 1 19
REMARK H PARENT
REMARK Flexibility Score: inf
ROOT
ATOM      1  C   UNL     1      10.968  14.782  -3.623  1.00  0.00     0.032 C 
ENDROOT
BRANCH   1   2
ATOM      2  C   UNL     1      11.857  15.902  -4.113  1.00  0.00    -0.028 C 
ATOM      3  C   UNL     1      11.829  16.367  -5.381  1.00  0.00    -0.077 C 
ATOM      4  C   UNL     1      10.898  15.779  -6.415  1.00  0.00     0.039 C 
BRANCH   3   5
ATOM      5  C   UNL     1      12.751  17.503  -5.773  1.00  0.00     0.034 C 
BRANCH   5   6
ATOM      6  C   UNL     1      14.176  17.009  -6.057  1.00  0.00     0.032 C 
BRANCH   6   7
ATOM      7  C   UNL     1      14.416  16.824  -7.538  1.00  0.00    -0.028 C 
ATOM      8  C   UNL     1      15.444  14.558  -7.258  1.00  0.00     0.039 C 
ATOM      9  C   UNL     1      14.953  15.717  -8.094  1.00  0.00    -0.080 C 
ATOM     10  C   UNL     1      15.082  15.657  -9.593  1.00  0.00     0.039 C 
ENDBRANCH   6   7
ENDBRANCH   5   6
ENDBRANCH   3   5
ENDBRANCH   1   2
BRANCH   1  11
ATOM     11  C   UNL     1      11.697  13.848  -2.647  1.00  0.00     0.034 C 
BRANCH  11  12
ATOM     12  C   UNL     1      11.012  13.797  -1.298  1.00  0.00    -0.077 C 
ATOM     13  C   UNL     1      11.757  13.697  -0.173  1.00  0.00    -0.028 C 
ATOM     14  C   UNL     1       9.502  13.805  -1.254  1.00  0.00     0.039 C 
BRANCH  13  15
ATOM     15  C   UNL     1      11.190  13.658   1.224  1.00  0.00     0.035 C 
BRANCH  15  16
ATOM     16  C   UNL     1      10.963  15.076   1.755  1.00  0.00     0.079 C 
BRANCH  16  17
ATOM     17  C   UNL     1       9.497  15.342   1.961  1.00  0.00     0.130 C 
ATOM     18  O   UNL     1       8.727  14.407   2.125  1.00  0.00    -0.300 OA
ATOM     19  C   UNL     1       8.978  16.748   1.992  1.00  0.00     0.087 C 
ENDBRANCH  16  17
ENDBRANCH  15  16
ENDBRANCH  13  15
ENDBRANCH  11  12
ENDBRANCH   1  11
TORSDOF 9
ENDMDL
