MODEL 1
REMARK VINA RESULT:    -2.366      0.000      0.000
REMARK INTER + INTRA:          -4.484
REMARK INTER:                  -3.611
REMARK INTRA:                  -0.873
REMARK UNBOUND:                -0.873
REMARK SMILES CC(=O)CCC=C(C)CCC=C(C)CCC=C(C)C
REMARK SMILES IDX 10 1 11 2 12 3 13 4 14 5 15 6 16 7 18 8 17 9 19 10 9 11 7 12
REMARK SMILES IDX 6 13 8 14 5 15 4 16 2 17 3 18 1 19
REMARK H PARENT
REMARK Flexibility Score: inf
ROOT
ATOM      1  C   UNL     1      -6.376 -13.755  -8.730  1.00  0.00     0.032 C 
ENDROOT
BRANCH   1   2
ATOM      2  C   UNL     1      -5.390 -12.684  -9.124  1.00  0.00    -0.028 C 
ATOM      3  C   UNL     1      -5.181 -11.543  -8.429  1.00  0.00    -0.077 C 
ATOM      4  C   UNL     1      -5.980 -11.205  -7.191  1.00  0.00     0.039 C 
BRANCH   3   5
ATOM      5  C   UNL     1      -4.134 -10.567  -8.916  1.00  0.00     0.034 C 
BRANCH   5   6
ATOM      6  C   UNL     1      -2.789 -11.270  -9.125  1.00  0.00     0.032 C 
BRANCH   6   7
ATOM      7  C   UNL     1      -2.345 -11.964  -7.861  1.00  0.00    -0.028 C 
ATOM      8  C   UNL     1      -1.431 -13.777  -6.476  1.00  0.00     0.039 C 
ATOM      9  C   UNL     1      -1.875 -13.230  -7.809  1.00  0.00    -0.080 C 
ATOM     10  C   UNL     1      -1.800 -14.108  -9.037  1.00  0.00     0.039 C 
ENDBRANCH   6   7
ENDBRANCH   5   6
ENDBRANCH   3   5
ENDBRANCH   1   2
BRANCH   1  11
ATOM     11  C   UNL     1      -5.678 -15.110  -8.577  1.00  0.00     0.034 C 
BRANCH  11  12
ATOM     12  C   UNL     1      -4.854 -15.153  -7.308  1.00  0.00    -0.077 C 
ATOM     13  C   UNL     1      -3.815 -16.015  -7.231  1.00  0.00    -0.028 C 
ATOM     14  C   UNL     1      -5.208 -14.225  -6.169  1.00  0.00     0.039 C 
BRANCH  13  15
ATOM     15  C   UNL     1      -2.937 -16.188  -6.017  1.00  0.00     0.035 C 
BRANCH  15  16
ATOM     16  C   UNL     1      -2.668 -17.672  -5.748  1.00  0.00     0.079 C 
BRANCH  16  17
ATOM     17  C   UNL     1      -3.951 -18.400  -5.448  1.00  0.00     0.130 C 
ATOM     18  O   UNL     1      -4.745 -17.918  -4.655  1.00  0.00    -0.300 OA
ATOM     19  C   UNL     1      -4.284 -19.704  -6.111  1.00  0.00     0.087 C 
ENDBRANCH  16  17
ENDBRANCH  15  16
ENDBRANCH  13  15
ENDBRANCH  11  12
ENDBRANCH   1  11
TORSDOF 9
ENDMDL
MODEL 2
REMARK VINA RESULT:    -2.335      1.174      3.154
REMARK INTER + INTRA:          -4.437
REMARK INTER:                  -3.131
REMARK INTRA:                  -1.306
REMARK UNBOUND:                -0.873
REMARK SMILES CC(=O)CCC=C(C)CCC=C(C)CCC=C(C)C
REMARK SMILES IDX 10 1 11 2 12 3 13 4 14 5 15 6 16 7 18 8 17 9 19 10 9 11 7 12
REMARK SMILES IDX 6 13 8 14 5 15 4 16 2 17 3 18 1 19
REMARK H PARENT
REMARK Flexibility Score: inf
ROOT
ATOM      1  C   UNL     1      -1.961 -14.113  -9.093  1.00  0.00     0.032 C 
ENDROOT
BRANCH   1   2
ATOM      2  C   UNL     1      -3.218 -13.279  -9.125  1.00  0.00    -0.028 C 
ATOM      3  C   UNL     1      -3.244 -11.931  -9.014  1.00  0.00    -0.077 C 
ATOM      4  C   UNL     1      -1.986 -11.124  -8.787  1.00  0.00     0.039 C 
BRANCH   3   5
ATOM      5  C   UNL     1      -4.572 -11.213  -9.098  1.00  0.00     0.034 C 
BRANCH   5   6
ATOM      6  C   UNL     1      -5.726 -12.158  -8.748  1.00  0.00     0.032 C 
BRANCH   6   7
ATOM      7  C   UNL     1      -6.082 -12.050  -7.287  1.00  0.00    -0.028 C 
ATOM      8  C   UNL     1      -6.368 -12.806  -4.965  1.00  0.00     0.039 C 
ATOM      9  C   UNL     1      -6.018 -13.074  -6.406  1.00  0.00    -0.080 C 
ATOM     10  C   UNL     1      -5.624 -14.470  -6.830  1.00  0.00     0.039 C 
ENDBRANCH   6   7
ENDBRANCH   5   6
ENDBRANCH   3   5
ENDBRANCH   1   2
BRANCH   1  11
ATOM     11  C   UNL     1      -1.206 -13.911  -7.775  1.00  0.00     0.034 C 
BRANCH  11  12
ATOM     12  C   UNL     1      -1.986 -14.485  -6.612  1.00  0.00    -0.077 C 
ATOM     13  C   UNL     1      -2.057 -15.829  -6.471  1.00  0.00    -0.028 C 
ATOM     14  C   UNL     1      -2.652 -13.544  -5.636  1.00  0.00     0.039 C 
BRANCH  13  15
ATOM     15  C   UNL     1      -2.828 -16.534  -5.384  1.00  0.00     0.035 C 
BRANCH  15  16
ATOM     16  C   UNL     1      -4.019 -17.298  -5.970  1.00  0.00     0.079 C 
BRANCH  16  17
ATOM     17  C   UNL     1      -3.977 -18.747  -5.560  1.00  0.00     0.130 C 
ATOM     18  O   UNL     1      -5.020 -19.334  -5.321  1.00  0.00    -0.300 OA
ATOM     19  C   UNL     1      -2.679 -19.490  -5.449  1.00  0.00     0.087 C 
ENDBRANCH  16  17
ENDBRANCH  15  16
ENDBRANCH  13  15
ENDBRANCH  11  12
ENDBRANCH   1  11
TORSDOF 9
ENDMDL
MODEL 3
REMARK VINA RESULT:    -1.981      1.799      5.292
REMARK INTER + INTRA:          -3.896
REMARK INTER:                  -1.958
REMARK INTRA:                  -1.938
REMARK UNBOUND:                -0.873
REMARK SMILES CC(=O)CCC=C(C)CCC=C(C)CCC=C(C)C
REMARK SMILES IDX 10 1 11 2 12 3 13 4 14 5 15 6 16 7 18 8 17 9 19 10 9 11 7 12
REMARK SMILES IDX 6 13 8 14 5 15 4 16 2 17 3 18 1 19
REMARK H PARENT
REMARK Flexibility Score: inf
ROOT
ATOM      1  C   UNL     1      -1.105 -14.100  -7.819  1.00  0.00     0.032 C 
ENDROOT
BRANCH   1   2
ATOM      2  C   UNL     1      -1.853 -14.710  -6.660  1.00  0.00    -0.028 C 
ATOM      3  C   UNL     1      -2.561 -14.003  -5.749  1.00  0.00    -0.077 C 
ATOM      4  C   UNL     1      -2.620 -12.493  -5.782  1.00  0.00     0.039 C 
BRANCH   3   5
ATOM      5  C   UNL     1      -3.296 -14.744  -4.654  1.00  0.00     0.034 C 
BRANCH   5   6
ATOM      6  C   UNL     1      -4.418 -15.607  -5.239  1.00  0.00     0.032 C 
BRANCH   6   7
ATOM      7  C   UNL     1      -4.147 -17.072  -5.001  1.00  0.00    -0.028 C 
ATOM      8  C   UNL     1      -3.617 -19.399  -5.587  1.00  0.00     0.039 C 
ATOM      9  C   UNL     1      -3.913 -17.975  -5.980  1.00  0.00    -0.080 C 
ATOM     10  C   UNL     1      -3.957 -17.599  -7.443  1.00  0.00     0.039 C 
ENDBRANCH   6   7
ENDBRANCH   5   6
ENDBRANCH   3   5
ENDBRANCH   1   2
BRANCH   1  11
ATOM     11  C   UNL     1      -1.886 -14.277  -9.125  1.00  0.00     0.034 C 
BRANCH  11  12
ATOM     12  C   UNL     1      -3.195 -13.518  -9.079  1.00  0.00    -0.077 C 
ATOM     13  C   UNL     1      -4.352 -14.213  -8.989  1.00  0.00    -0.028 C 
ATOM     14  C   UNL     1      -3.172 -12.008  -9.122  1.00  0.00     0.039 C 
BRANCH  13  15
ATOM     15  C   UNL     1      -5.724 -13.589  -8.972  1.00  0.00     0.035 C 
BRANCH  15  16
ATOM     16  C   UNL     1      -6.395 -13.787  -7.610  1.00  0.00     0.079 C 
BRANCH  16  17
ATOM     17  C   UNL     1      -6.152 -12.597  -6.718  1.00  0.00     0.130 C 
ATOM     18  O   UNL     1      -6.369 -12.689  -5.520  1.00  0.00    -0.300 OA
ATOM     19  C   UNL     1      -5.638 -11.299  -7.269  1.00  0.00     0.087 C 
ENDBRANCH  16  17
ENDBRANCH  15  16
ENDBRANCH  13  15
ENDBRANCH  11  12
ENDBRANCH   1  11
TORSDOF 9
ENDMDL
MODEL 4
REMARK VINA RESULT:    -1.797      1.007      2.975
REMARK INTER + INTRA:          -3.617
REMARK INTER:                  -2.273
REMARK INTRA:                  -1.343
REMARK UNBOUND:                -0.873
REMARK SMILES CC(=O)CCC=C(C)CCC=C(C)CCC=C(C)C
REMARK SMILES IDX 10 1 11 2 12 3 13 4 14 5 15 6 16 7 18 8 17 9 19 10 9 11 7 12
REMARK SMILES IDX 6 13 8 14 5 15 4 16 2 17 3 18 1 19
REMARK H PARENT
REMARK Flexibility Score: inf
ROOT
ATOM      1  C   UNL     1      -2.801 -11.675  -7.496  1.00  0.00     0.032 C 
ENDROOT
BRANCH   1   2
ATOM      2  C   UNL     1      -4.017 -11.907  -8.358  1.00  0.00    -0.028 C 
ATOM      3  C   UNL     1      -5.293 -11.745  -7.939  1.00  0.00    -0.077 C 
ATOM      4  C   UNL     1      -5.624 -11.361  -6.515  1.00  0.00     0.039 C 
BRANCH   3   5
ATOM      5  C   UNL     1      -6.423 -11.977  -8.918  1.00  0.00     0.034 C 
BRANCH   5   6
ATOM      6  C   UNL     1      -6.950 -13.411  -8.811  1.00  0.00     0.032 C 
BRANCH   6   7
ATOM      7  C   UNL     1      -5.862 -14.407  -9.125  1.00  0.00    -0.028 C 
ATOM      8  C   UNL     1      -4.184 -16.144  -8.669  1.00  0.00     0.039 C 
ATOM      9  C   UNL     1      -5.226 -15.161  -8.201  1.00  0.00    -0.080 C 
ATOM     10  C   UNL     1      -5.518 -15.033  -6.724  1.00  0.00     0.039 C 
ENDBRANCH   6   7
ENDBRANCH   5   6
ENDBRANCH   3   5
ENDBRANCH   1   2
BRANCH   1  11
ATOM     11  C   UNL     1      -1.884 -12.902  -7.507  1.00  0.00     0.034 C 
BRANCH  11  12
ATOM     12  C   UNL     1      -2.253 -13.862  -6.396  1.00  0.00    -0.077 C 
ATOM     13  C   UNL     1      -1.823 -15.143  -6.467  1.00  0.00    -0.028 C 
ATOM     14  C   UNL     1      -3.078 -13.360  -5.233  1.00  0.00     0.039 C 
BRANCH  13  15
ATOM     15  C   UNL     1      -2.147 -16.210  -5.452  1.00  0.00     0.035 C 
BRANCH  15  16
ATOM     16  C   UNL     1      -2.617 -17.493  -6.144  1.00  0.00     0.079 C 
BRANCH  16  17
ATOM     17  C   UNL     1      -3.825 -18.062  -5.447  1.00  0.00     0.130 C 
ATOM     18  O   UNL     1      -4.579 -17.314  -4.844  1.00  0.00    -0.300 OA
ATOM     19  C   UNL     1      -4.130 -19.531  -5.486  1.00  0.00     0.087 C 
ENDBRANCH  16  17
ENDBRANCH  15  16
ENDBRANCH  13  15
ENDBRANCH  11  12
ENDBRANCH   1  11
TORSDOF 9
ENDMDL
MODEL 5
REMARK VINA RESULT:    -1.741      1.354      5.063
REMARK INTER + INTRA:          -3.530
REMARK INTER:                  -3.444
REMARK INTRA:                  -0.086
REMARK UNBOUND:                -0.873
REMARK SMILES CC(=O)CCC=C(C)CCC=C(C)CCC=C(C)C
REMARK SMILES IDX 10 1 11 2 12 3 13 4 14 5 15 6 16 7 18 8 17 9 19 10 9 11 7 12
REMARK SMILES IDX 6 13 8 14 5 15 4 16 2 17 3 18 1 19
REMARK H PARENT
REMARK Flexibility Score: inf
ROOT
ATOM      1  C   UNL     1      -2.533 -11.615  -7.919  1.00  0.00     0.032 C 
ENDROOT
BRANCH   1   2
ATOM      2  C   UNL     1      -2.144 -12.773  -7.034  1.00  0.00    -0.028 C 
ATOM      3  C   UNL     1      -1.839 -14.011  -7.485  1.00  0.00    -0.077 C 
ATOM      4  C   UNL     1      -1.919 -14.369  -8.952  1.00  0.00     0.039 C 
BRANCH   3   5
ATOM      5  C   UNL     1      -1.428 -15.074  -6.491  1.00  0.00     0.034 C 
BRANCH   5   6
ATOM      6  C   UNL     1      -2.654 -15.661  -5.784  1.00  0.00     0.032 C 
BRANCH   6   7
ATOM      7  C   UNL     1      -2.709 -17.158  -5.961  1.00  0.00    -0.028 C 
ATOM      8  C   UNL     1      -3.638 -19.426  -5.776  1.00  0.00     0.039 C 
ATOM      9  C   UNL     1      -3.698 -17.949  -5.486  1.00  0.00    -0.080 C 
ATOM     10  C   UNL     1      -4.840 -17.396  -4.666  1.00  0.00     0.039 C 
ENDBRANCH   6   7
ENDBRANCH   5   6
ENDBRANCH   3   5
ENDBRANCH   1   2
BRANCH   1  11
ATOM     11  C   UNL     1      -3.657 -10.794  -7.278  1.00  0.00     0.034 C 
BRANCH  11  12
ATOM     12  C   UNL     1      -4.984 -11.512  -7.394  1.00  0.00    -0.077 C 
ATOM     13  C   UNL     1      -5.301 -12.118  -8.562  1.00  0.00    -0.028 C 
ATOM     14  C   UNL     1      -5.911 -11.545  -6.201  1.00  0.00     0.039 C 
BRANCH  13  15
ATOM     15  C   UNL     1      -6.601 -12.835  -8.827  1.00  0.00     0.035 C 
BRANCH  15  16
ATOM     16  C   UNL     1      -6.355 -14.319  -9.110  1.00  0.00     0.079 C 
BRANCH  16  17
ATOM     17  C   UNL     1      -5.447 -14.917  -8.067  1.00  0.00     0.130 C 
ATOM     18  O   UNL     1      -4.638 -15.772  -8.393  1.00  0.00    -0.300 OA
ATOM     19  C   UNL     1      -5.505 -14.477  -6.634  1.00  0.00     0.087 C 
ENDBRANCH  16  17
ENDBRANCH  15  16
ENDBRANCH  13  15
ENDBRANCH  11  12
ENDBRANCH   1  11
TORSDOF 9
ENDMDL
MODEL 6
REMARK VINA RESULT:    -1.696      1.305      3.357
REMARK INTER + INTRA:          -3.462
REMARK INTER:                  -1.699
REMARK INTRA:                  -1.763
REMARK UNBOUND:                -0.873
REMARK SMILES CC(=O)CCC=C(C)CCC=C(C)CCC=C(C)C
REMARK SMILES IDX 10 1 11 2 12 3 13 4 14 5 15 6 16 7 18 8 17 9 19 10 9 11 7 12
REMARK SMILES IDX 6 13 8 14 5 15 4 16 2 17 3 18 1 19
REMARK H PARENT
REMARK Flexibility Score: inf
ROOT
ATOM      1  C   UNL     1      -1.806 -12.857  -6.487  1.00  0.00     0.032 C 
ENDROOT
BRANCH   1   2
ATOM      2  C   UNL     1      -2.846 -12.110  -7.283  1.00  0.00    -0.028 C 
ATOM      3  C   UNL     1      -3.383 -12.551  -8.444  1.00  0.00    -0.077 C 
ATOM      4  C   UNL     1      -2.934 -13.841  -9.092  1.00  0.00     0.039 C 
BRANCH   3   5
ATOM      5  C   UNL     1      -4.446 -11.718  -9.125  1.00  0.00     0.034 C 
BRANCH   5   6
ATOM      6  C   UNL     1      -5.844 -12.275  -8.834  1.00  0.00     0.032 C 
BRANCH   6   7
ATOM      7  C   UNL     1      -6.215 -12.062  -7.388  1.00  0.00    -0.028 C 
ATOM      8  C   UNL     1      -6.461 -12.625  -5.008  1.00  0.00     0.039 C 
ATOM      9  C   UNL     1      -6.085 -12.996  -6.419  1.00  0.00    -0.080 C 
ATOM     10  C   UNL     1      -5.593 -14.394  -6.716  1.00  0.00     0.039 C 
ENDBRANCH   6   7
ENDBRANCH   5   6
ENDBRANCH   3   5
ENDBRANCH   1   2
BRANCH   1  11
ATOM     11  C   UNL     1      -2.344 -13.226  -5.100  1.00  0.00     0.034 C 
BRANCH  11  12
ATOM     12  C   UNL     1      -2.513 -14.724  -4.967  1.00  0.00    -0.077 C 
ATOM     13  C   UNL     1      -1.917 -15.533  -5.873  1.00  0.00    -0.028 C 
ATOM     14  C   UNL     1      -3.331 -15.274  -3.822  1.00  0.00     0.039 C 
BRANCH  13  15
ATOM     15  C   UNL     1      -2.032 -17.036  -5.882  1.00  0.00     0.035 C 
BRANCH  15  16
ATOM     16  C   UNL     1      -3.414 -17.473  -6.375  1.00  0.00     0.079 C 
BRANCH  16  17
ATOM     17  C   UNL     1      -3.966 -18.575  -5.510  1.00  0.00     0.130 C 
ATOM     18  O   UNL     1      -4.908 -18.342  -4.767  1.00  0.00    -0.300 OA
ATOM     19  C   UNL     1      -3.391 -19.960  -5.546  1.00  0.00     0.087 C 
ENDBRANCH  16  17
ENDBRANCH  15  16
ENDBRANCH  13  15
ENDBRANCH  11  12
ENDBRANCH   1  11
TORSDOF 9
ENDMDL
MODEL 7
REMARK VINA RESULT:    -1.252      2.365      3.549
REMARK INTER + INTRA:          -2.784
REMARK INTER:                  -2.106
REMARK INTRA:                  -0.678
REMARK UNBOUND:                -0.873
REMARK SMILES CC(=O)CCC=C(C)CCC=C(C)CCC=C(C)C
REMARK SMILES IDX 10 1 11 2 12 3 13 4 14 5 15 6 16 7 18 8 17 9 19 10 9 11 7 12
REMARK SMILES IDX 6 13 8 14 5 15 4 16 2 17 3 18 1 19
REMARK H PARENT
REMARK Flexibility Score: inf
ROOT
ATOM      1  C   UNL     1      -5.174 -15.123  -6.325  1.00  0.00     0.032 C 
ENDROOT
BRANCH   1   2
ATOM      2  C   UNL     1      -5.241 -13.701  -6.822  1.00  0.00    -0.028 C 
ATOM      3  C   UNL     1      -5.773 -13.330  -8.009  1.00  0.00    -0.077 C 
ATOM      4  C   UNL     1      -6.312 -14.342  -8.993  1.00  0.00     0.039 C 
BRANCH   3   5
ATOM      5  C   UNL     1      -5.809 -11.862  -8.371  1.00  0.00     0.034 C 
BRANCH   5   6
ATOM      6  C   UNL     1      -4.391 -11.299  -8.505  1.00  0.00     0.032 C 
BRANCH   6   7
ATOM      7  C   UNL     1      -3.460 -12.327  -9.098  1.00  0.00    -0.028 C 
ATOM      8  C   UNL     1      -1.666 -14.007  -9.124  1.00  0.00     0.039 C 
ATOM      9  C   UNL     1      -2.495 -12.974  -8.406  1.00  0.00    -0.080 C 
ATOM     10  C   UNL     1      -2.218 -12.677  -6.950  1.00  0.00     0.039 C 
ENDBRANCH   6   7
ENDBRANCH   5   6
ENDBRANCH   3   5
ENDBRANCH   1   2
BRANCH   1  11
ATOM     11  C   UNL     1      -4.130 -15.926  -7.108  1.00  0.00     0.034 C 
BRANCH  11  12
ATOM     12  C   UNL     1      -3.242 -16.716  -6.172  1.00  0.00    -0.077 C 
ATOM     13  C   UNL     1      -2.086 -16.160  -5.740  1.00  0.00    -0.028 C 
ATOM     14  C   UNL     1      -3.675 -18.096  -5.735  1.00  0.00     0.039 C 
BRANCH  13  15
ATOM     15  C   UNL     1      -1.093 -16.846  -4.837  1.00  0.00     0.035 C 
BRANCH  15  16
ATOM     16  C   UNL     1      -0.724 -15.950  -3.652  1.00  0.00     0.079 C 
BRANCH  16  17
ATOM     17  C   UNL     1       0.587 -16.378  -3.047  1.00  0.00     0.130 C 
ATOM     18  O   UNL     1       0.930 -17.547  -3.123  1.00  0.00    -0.300 OA
ATOM     19  C   UNL     1       1.489 -15.396  -2.359  1.00  0.00     0.087 C 
ENDBRANCH  16  17
ENDBRANCH  15  16
ENDBRANCH  13  15
ENDBRANCH  11  12
ENDBRANCH   1  11
TORSDOF 9
ENDMDL
MODEL 8
REMARK VINA RESULT:    -1.170      1.187      3.311
REMARK INTER + INTRA:          -2.659
REMARK INTER:                  -1.790
REMARK INTRA:                  -0.868
REMARK UNBOUND:                -0.873
REMARK SMILES CC(=O)CCC=C(C)CCC=C(C)CCC=C(C)C
REMARK SMILES IDX 10 1 11 2 12 3 13 4 14 5 15 6 16 7 18 8 17 9 19 10 9 11 7 12
REMARK SMILES IDX 6 13 8 14 5 15 4 16 2 17 3 18 1 19
REMARK H PARENT
REMARK Flexibility Score: inf
ROOT
ATOM      1  C   UNL     1      -1.995 -12.661  -6.396  1.00  0.00     0.032 C 
ENDROOT
BRANCH   1   2
ATOM      2  C   UNL     1      -3.227 -11.906  -6.827  1.00  0.00    -0.028 C 
ATOM      3  C   UNL     1      -3.400 -11.363  -8.054  1.00  0.00    -0.077 C 
ATOM      4  C   UNL     1      -2.322 -11.420  -9.112  1.00  0.00     0.039 C 
BRANCH   3   5
ATOM      5  C   UNL     1      -4.702 -10.660  -8.369  1.00  0.00     0.034 C 
BRANCH   5   6
ATOM      6  C   UNL     1      -5.900 -11.519  -7.950  1.00  0.00     0.032 C 
BRANCH   6   7
ATOM      7  C   UNL     1      -5.945 -12.800  -8.746  1.00  0.00    -0.028 C 
ATOM      8  C   UNL     1      -6.084 -15.224  -9.125  1.00  0.00     0.039 C 
ATOM      9  C   UNL     1      -6.004 -14.036  -8.202  1.00  0.00    -0.080 C 
ATOM     10  C   UNL     1      -5.973 -14.255  -6.707  1.00  0.00     0.039 C 
ENDBRANCH   6   7
ENDBRANCH   5   6
ENDBRANCH   3   5
ENDBRANCH   1   2
BRANCH   1  11
ATOM     11  C   UNL     1      -1.536 -13.627  -7.493  1.00  0.00     0.034 C 
BRANCH  11  12
ATOM     12  C   UNL     1      -2.454 -14.827  -7.575  1.00  0.00    -0.077 C 
ATOM     13  C   UNL     1      -2.750 -15.504  -6.442  1.00  0.00    -0.028 C 
ATOM     14  C   UNL     1      -3.024 -15.228  -8.916  1.00  0.00     0.039 C 
BRANCH  13  15
ATOM     15  C   UNL     1      -3.619 -16.735  -6.384  1.00  0.00     0.035 C 
BRANCH  15  16
ATOM     16  C   UNL     1      -2.768 -17.992  -6.187  1.00  0.00     0.079 C 
BRANCH  16  17
ATOM     17  C   UNL     1      -3.550 -19.058  -5.464  1.00  0.00     0.130 C 
ATOM     18  O   UNL     1      -2.987 -20.083  -5.113  1.00  0.00    -0.300 OA
ATOM     19  C   UNL     1      -5.008 -18.883  -5.155  1.00  0.00     0.087 C 
ENDBRANCH  16  17
ENDBRANCH  15  16
ENDBRANCH  13  15
ENDBRANCH  11  12
ENDBRANCH   1  11
TORSDOF 9
ENDMDL
MODEL 9
REMARK VINA RESULT:    -1.131      0.874      1.637
REMARK INTER + INTRA:          -2.599
REMARK INTER:                  -3.096
REMARK INTRA:                   0.497
REMARK UNBOUND:                -0.873
REMARK SMILES CC(=O)CCC=C(C)CCC=C(C)CCC=C(C)C
REMARK SMILES IDX 10 1 11 2 12 3 13 4 14 5 15 6 16 7 18 8 17 9 19 10 9 11 7 12
REMARK SMILES IDX 6 13 8 14 5 15 4 16 2 17 3 18 1 19
REMARK H PARENT
REMARK Flexibility Score: inf
ROOT
ATOM      1  C   UNL     1      -5.683 -13.429  -5.968  1.00  0.00     0.032 C 
ENDROOT
BRANCH   1   2
ATOM      2  C   UNL     1      -5.065 -12.342  -6.811  1.00  0.00    -0.028 C 
ATOM      3  C   UNL     1      -5.467 -12.023  -8.063  1.00  0.00    -0.077 C 
ATOM      4  C   UNL     1      -6.565 -12.786  -8.768  1.00  0.00     0.039 C 
BRANCH   3   5
ATOM      5  C   UNL     1      -4.783 -10.884  -8.786  1.00  0.00     0.034 C 
BRANCH   5   6
ATOM      6  C   UNL     1      -3.275 -10.893  -8.512  1.00  0.00     0.032 C 
BRANCH   6   7
ATOM      7  C   UNL     1      -2.632 -12.127  -9.096  1.00  0.00    -0.028 C 
ATOM      8  C   UNL     1      -1.453 -14.283  -9.087  1.00  0.00     0.039 C 
ATOM      9  C   UNL     1      -2.016 -13.084  -8.367  1.00  0.00    -0.080 C 
ATOM     10  C   UNL     1      -1.864 -12.976  -6.868  1.00  0.00     0.039 C 
ENDBRANCH   6   7
ENDBRANCH   5   6
ENDBRANCH   3   5
ENDBRANCH   1   2
BRANCH   1  11
ATOM     11  C   UNL     1      -5.936 -14.689  -6.804  1.00  0.00     0.034 C 
BRANCH  11  12
ATOM     12  C   UNL     1      -4.635 -15.383  -7.142  1.00  0.00    -0.077 C 
ATOM     13  C   UNL     1      -3.733 -15.600  -6.157  1.00  0.00    -0.028 C 
ATOM     14  C   UNL     1      -4.384 -15.825  -8.565  1.00  0.00     0.039 C 
BRANCH  13  15
ATOM     15  C   UNL     1      -2.385 -16.244  -6.359  1.00  0.00     0.035 C 
BRANCH  15  16
ATOM     16  C   UNL     1      -2.289 -17.559  -5.581  1.00  0.00     0.079 C 
BRANCH  16  17
ATOM     17  C   UNL     1      -3.657 -18.153  -5.366  1.00  0.00     0.130 C 
ATOM     18  O   UNL     1      -4.509 -17.504  -4.780  1.00  0.00    -0.300 OA
ATOM     19  C   UNL     1      -4.001 -19.525  -5.867  1.00  0.00     0.087 C 
ENDBRANCH  16  17
ENDBRANCH  15  16
ENDBRANCH  13  15
ENDBRANCH  11  12
ENDBRANCH   1  11
TORSDOF 9
ENDMDL
