MODEL 1
REMARK VINA RESULT:    -7.747      0.000      0.000
REMARK INTER + INTRA:          -9.424
REMARK INTER:                  -9.106
REMARK INTRA:                  -0.318
REMARK UNBOUND:                -0.318
REMARK SMILES O=c1cc(-c2ccc(O)c(O)c2)oc2cc(O)cc(O)c12
REMARK SMILES IDX 4 1 3 2 2 3 1 4 21 5 19 6 18 7 16 8 15 9 14 10 13 11 5 12
REMARK SMILES IDX 6 13 7 14 8 15 12 16 10 17 9 18 11 20 20 22 17 24
REMARK H PARENT 9 19 11 21 20 23 17 25
REMARK Flexibility Score: inf
ROOT
ATOM      1  C   UNL     1      68.214 -14.635 -20.630  1.00  0.00     0.138 A 
ATOM      2  C   UNL     1      67.257 -14.349 -21.613  1.00  0.00     0.100 A 
ATOM      3  C   UNL     1      67.539 -13.398 -22.596  1.00  0.00     0.197 A 
ATOM      4  O   UNL     1      66.684 -13.208 -23.500  1.00  0.00    -0.289 OA
ATOM      5  C   UNL     1      68.774 -12.709 -22.573  1.00  0.00     0.107 A 
ATOM      6  C   UNL     1      69.155 -11.692 -23.499  1.00  0.00     0.134 A 
ATOM      7  C   UNL     1      70.450 -11.163 -23.450  1.00  0.00     0.093 A 
ATOM      8  C   UNL     1      71.358 -11.571 -22.469  1.00  0.00     0.123 A 
ATOM      9  C   UNL     1      70.979 -12.524 -21.528  1.00  0.00     0.094 A 
ATOM     10  C   UNL     1      69.705 -13.097 -21.572  1.00  0.00     0.146 A 
ATOM     11  O   UNL     1      69.388 -14.013 -20.664  1.00  0.00    -0.456 OA
ENDROOT
BRANCH   1  12
ATOM     12  C   UNL     1      67.965 -15.635 -19.561  1.00  0.00     0.021 A 
ATOM     13  C   UNL     1      66.776 -16.384 -19.579  1.00  0.00     0.016 A 
ATOM     14  C   UNL     1      66.522 -17.337 -18.588  1.00  0.00     0.051 A 
ATOM     15  C   UNL     1      67.456 -17.564 -17.571  1.00  0.00     0.157 A 
ATOM     16  C   UNL     1      68.907 -15.879 -18.542  1.00  0.00     0.062 A 
ATOM     17  C   UNL     1      68.652 -16.836 -17.550  1.00  0.00     0.158 A 
BRANCH  15  18
ATOM     18  O   UNL     1      67.206 -18.513 -16.580  1.00  0.00    -0.504 OA
ATOM     19  H   UNL     1      67.948 -19.089 -16.201  1.00  0.00     0.293 HD
ENDBRANCH  15  18
BRANCH  17  20
ATOM     20  O   UNL     1      69.585 -17.074 -16.542  1.00  0.00    -0.504 OA
ATOM     21  H   UNL     1      69.824 -16.362 -15.861  1.00  0.00     0.293 HD
ENDBRANCH  17  20
ENDBRANCH   1  12
BRANCH   6  22
ATOM     22  O   UNL     1      68.296 -11.153 -24.463  1.00  0.00    -0.507 OA
ATOM     23  H   UNL     1      67.569 -11.665 -24.939  1.00  0.00     0.293 HD
ENDBRANCH   6  22
BRANCH   8  24
ATOM     24  O   UNL     1      72.640 -11.028 -22.419  1.00  0.00    -0.508 OA
ATOM     25  H   UNL     1      72.809 -10.047 -22.608  1.00  0.00     0.293 HD
ENDBRANCH   8  24
TORSDOF 5
ENDMDL
MODEL 2
REMARK VINA RESULT:    -7.672      3.767      6.068
REMARK INTER + INTRA:          -9.335
REMARK INTER:                  -9.072
REMARK INTRA:                  -0.263
REMARK UNBOUND:                -0.318
REMARK SMILES O=c1cc(-c2ccc(O)c(O)c2)oc2cc(O)cc(O)c12
REMARK SMILES IDX 4 1 3 2 2 3 1 4 21 5 19 6 18 7 16 8 15 9 14 10 13 11 5 12
REMARK SMILES IDX 6 13 7 14 8 15 12 16 10 17 9 18 11 20 20 22 17 24
REMARK H PARENT 9 19 11 21 20 23 17 25
REMARK Flexibility Score: inf
ROOT
ATOM      1  C   UNL     1      64.779 -16.442 -17.318  1.00  0.00     0.138 A 
ATOM      2  C   UNL     1      64.474 -15.972 -18.603  1.00  0.00     0.100 A 
ATOM      3  C   UNL     1      65.507 -15.677 -19.494  1.00  0.00     0.197 A 
ATOM      4  O   UNL     1      65.200 -15.316 -20.660  1.00  0.00    -0.289 OA
ATOM      5  C   UNL     1      66.853 -15.825 -19.084  1.00  0.00     0.107 A 
ATOM      6  C   UNL     1      67.988 -15.518 -19.893  1.00  0.00     0.134 A 
ATOM      7  C   UNL     1      69.272 -15.815 -19.421  1.00  0.00     0.093 A 
ATOM      8  C   UNL     1      69.466 -16.353 -18.146  1.00  0.00     0.123 A 
ATOM      9  C   UNL     1      68.368 -16.607 -17.329  1.00  0.00     0.094 A 
ATOM     10  C   UNL     1      67.071 -16.354 -17.783  1.00  0.00     0.146 A 
ATOM     11  O   UNL     1      66.050 -16.624 -16.977  1.00  0.00    -0.456 OA
ENDROOT
BRANCH   1  12
ATOM     12  C   UNL     1      63.719 -16.768 -16.331  1.00  0.00     0.021 A 
ATOM     13  C   UNL     1      63.608 -16.002 -15.158  1.00  0.00     0.016 A 
ATOM     14  C   UNL     1      62.615 -16.284 -14.216  1.00  0.00     0.051 A 
ATOM     15  C   UNL     1      61.711 -17.330 -14.436  1.00  0.00     0.157 A 
ATOM     16  C   UNL     1      62.797 -17.811 -16.551  1.00  0.00     0.062 A 
ATOM     17  C   UNL     1      61.800 -18.092 -15.606  1.00  0.00     0.158 A 
BRANCH  15  18
ATOM     18  O   UNL     1      60.719 -17.616 -13.498  1.00  0.00    -0.504 OA
ATOM     19  H   UNL     1      59.736 -17.576 -13.739  1.00  0.00     0.293 HD
ENDBRANCH  15  18
BRANCH  17  20
ATOM     20  O   UNL     1      60.891 -19.126 -15.827  1.00  0.00    -0.504 OA
ATOM     21  H   UNL     1      60.132 -19.032 -16.493  1.00  0.00     0.293 HD
ENDBRANCH  17  20
ENDBRANCH   1  12
BRANCH   6  22
ATOM     22  O   UNL     1      67.909 -14.901 -21.146  1.00  0.00    -0.507 OA
ATOM     23  H   UNL     1      67.579 -15.346 -21.988  1.00  0.00     0.293 HD
ENDBRANCH   6  22
BRANCH   8  24
ATOM     24  O   UNL     1      70.749 -16.632 -17.681  1.00  0.00    -0.508 OA
ATOM     25  H   UNL     1      70.991 -17.543 -17.309  1.00  0.00     0.293 HD
ENDBRANCH   8  24
TORSDOF 5
ENDMDL
MODEL 3
REMARK VINA RESULT:    -7.552      2.163      6.931
REMARK INTER + INTRA:          -9.194
REMARK INTER:                  -8.903
REMARK INTRA:                  -0.290
REMARK UNBOUND:                -0.318
REMARK SMILES O=c1cc(-c2ccc(O)c(O)c2)oc2cc(O)cc(O)c12
REMARK SMILES IDX 4 1 3 2 2 3 1 4 21 5 19 6 18 7 16 8 15 9 14 10 13 11 5 12
REMARK SMILES IDX 6 13 7 14 8 15 12 16 10 17 9 18 11 20 20 22 17 24
REMARK H PARENT 9 19 11 21 20 23 17 25
REMARK Flexibility Score: inf
ROOT
ATOM      1  C   UNL     1      67.734 -14.402 -19.930  1.00  0.00     0.138 A 
ATOM      2  C   UNL     1      66.432 -13.884 -19.939  1.00  0.00     0.100 A 
ATOM      3  C   UNL     1      65.420 -14.544 -19.240  1.00  0.00     0.197 A 
ATOM      4  O   UNL     1      64.276 -14.021 -19.216  1.00  0.00    -0.289 OA
ATOM      5  C   UNL     1      65.709 -15.748 -18.555  1.00  0.00     0.107 A 
ATOM      6  C   UNL     1      64.750 -16.529 -17.843  1.00  0.00     0.134 A 
ATOM      7  C   UNL     1      65.176 -17.640 -17.105  1.00  0.00     0.093 A 
ATOM      8  C   UNL     1      66.517 -18.034 -17.103  1.00  0.00     0.123 A 
ATOM      9  C   UNL     1      67.451 -17.310 -17.838  1.00  0.00     0.094 A 
ATOM     10  C   UNL     1      67.065 -16.176 -18.556  1.00  0.00     0.146 A 
ATOM     11  O   UNL     1      67.991 -15.505 -19.233  1.00  0.00    -0.456 OA
ENDROOT
BRANCH   1  12
ATOM     12  C   UNL     1      68.847 -13.741 -20.657  1.00  0.00     0.021 A 
ATOM     13  C   UNL     1      69.027 -12.353 -20.529  1.00  0.00     0.016 A 
ATOM     14  C   UNL     1      70.071 -11.708 -21.198  1.00  0.00     0.051 A 
ATOM     15  C   UNL     1      70.959 -12.441 -21.995  1.00  0.00     0.157 A 
ATOM     16  C   UNL     1      69.752 -14.474 -21.451  1.00  0.00     0.062 A 
ATOM     17  C   UNL     1      70.800 -13.826 -22.119  1.00  0.00     0.158 A 
BRANCH  15  18
ATOM     18  O   UNL     1      72.001 -11.801 -22.664  1.00  0.00    -0.504 OA
ATOM     19  H   UNL     1      71.823 -11.082 -23.355  1.00  0.00     0.293 HD
ENDBRANCH  15  18
BRANCH  17  20
ATOM     20  O   UNL     1      71.692 -14.554 -22.904  1.00  0.00    -0.504 OA
ATOM     21  H   UNL     1      72.675 -14.311 -22.956  1.00  0.00     0.293 HD
ENDBRANCH  17  20
ENDBRANCH   1  12
BRANCH   6  22
ATOM     22  O   UNL     1      63.375 -16.272 -17.849  1.00  0.00    -0.507 OA
ATOM     23  H   UNL     1      62.825 -16.055 -17.032  1.00  0.00     0.293 HD
ENDBRANCH   6  22
BRANCH   8  24
ATOM     24  O   UNL     1      66.928 -19.150 -16.377  1.00  0.00    -0.508 OA
ATOM     25  H   UNL     1      67.700 -19.102 -15.723  1.00  0.00     0.293 HD
ENDBRANCH   8  24
TORSDOF 5
ENDMDL
MODEL 4
REMARK VINA RESULT:    -7.426      1.946      3.422
REMARK INTER + INTRA:          -9.046
REMARK INTER:                  -8.755
REMARK INTRA:                  -0.291
REMARK UNBOUND:                -0.318
REMARK SMILES O=c1cc(-c2ccc(O)c(O)c2)oc2cc(O)cc(O)c12
REMARK SMILES IDX 4 1 3 2 2 3 1 4 21 5 19 6 18 7 16 8 15 9 14 10 13 11 5 12
REMARK SMILES IDX 6 13 7 14 8 15 12 16 10 17 9 18 11 20 20 22 17 24
REMARK H PARENT 9 19 11 21 20 23 17 25
REMARK Flexibility Score: inf
ROOT
ATOM      1  C   UNL     1      67.052 -15.584 -20.036  1.00  0.00     0.138 A 
ATOM      2  C   UNL     1      68.431 -15.330 -20.009  1.00  0.00     0.100 A 
ATOM      3  C   UNL     1      69.015 -14.582 -21.032  1.00  0.00     0.197 A 
ATOM      4  O   UNL     1      70.243 -14.320 -20.948  1.00  0.00    -0.289 OA
ATOM      5  C   UNL     1      68.219 -14.113 -22.103  1.00  0.00     0.107 A 
ATOM      6  C   UNL     1      68.713 -13.375 -23.220  1.00  0.00     0.134 A 
ATOM      7  C   UNL     1      67.811 -12.862 -24.161  1.00  0.00     0.093 A 
ATOM      8  C   UNL     1      66.440 -13.111 -24.057  1.00  0.00     0.123 A 
ATOM      9  C   UNL     1      65.955 -13.875 -23.000  1.00  0.00     0.094 A 
ATOM     10  C   UNL     1      66.824 -14.372 -22.025  1.00  0.00     0.146 A 
ATOM     11  O   UNL     1      66.318 -15.085 -21.024  1.00  0.00    -0.456 OA
ENDROOT
BRANCH   1  12
ATOM     12  C   UNL     1      66.380 -16.375 -18.975  1.00  0.00     0.021 A 
ATOM     13  C   UNL     1      65.003 -16.201 -18.750  1.00  0.00     0.016 A 
ATOM     14  C   UNL     1      64.345 -16.938 -17.763  1.00  0.00     0.051 A 
ATOM     15  C   UNL     1      65.049 -17.870 -16.991  1.00  0.00     0.157 A 
ATOM     16  C   UNL     1      67.079 -17.324 -18.202  1.00  0.00     0.062 A 
ATOM     17  C   UNL     1      66.417 -18.065 -17.213  1.00  0.00     0.158 A 
BRANCH  15  18
ATOM     18  O   UNL     1      64.397 -18.607 -16.003  1.00  0.00    -0.504 OA
ATOM     19  H   UNL     1      64.041 -19.538 -16.187  1.00  0.00     0.293 HD
ENDBRANCH  15  18
BRANCH  17  20
ATOM     20  O   UNL     1      67.113 -19.002 -16.450  1.00  0.00    -0.504 OA
ATOM     21  H   UNL     1      66.883 -19.170 -15.477  1.00  0.00     0.293 HD
ENDBRANCH  17  20
ENDBRANCH   1  12
BRANCH   6  22
ATOM     22  O   UNL     1      70.070 -13.142 -23.464  1.00  0.00    -0.507 OA
ATOM     23  H   UNL     1      70.738 -12.845 -22.770  1.00  0.00     0.293 HD
ENDBRANCH   6  22
BRANCH   8  24
ATOM     24  O   UNL     1      65.553 -12.609 -25.006  1.00  0.00    -0.508 OA
ATOM     25  H   UNL     1      64.815 -11.963 -24.752  1.00  0.00     0.293 HD
ENDBRANCH   8  24
TORSDOF 5
ENDMDL
MODEL 5
REMARK VINA RESULT:    -7.409      2.387      7.284
REMARK INTER + INTRA:          -9.027
REMARK INTER:                  -8.748
REMARK INTRA:                  -0.279
REMARK UNBOUND:                -0.318
REMARK SMILES O=c1cc(-c2ccc(O)c(O)c2)oc2cc(O)cc(O)c12
REMARK SMILES IDX 4 1 3 2 2 3 1 4 21 5 19 6 18 7 16 8 15 9 14 10 13 11 5 12
REMARK SMILES IDX 6 13 7 14 8 15 12 16 10 17 9 18 11 20 20 22 17 24
REMARK H PARENT 9 19 11 21 20 23 17 25
REMARK Flexibility Score: inf
ROOT
ATOM      1  C   UNL     1      67.831 -15.113 -19.723  1.00  0.00     0.138 A 
ATOM      2  C   UNL     1      68.248 -16.286 -19.079  1.00  0.00     0.100 A 
ATOM      3  C   UNL     1      67.335 -17.019 -18.320  1.00  0.00     0.197 A 
ATOM      4  O   UNL     1      67.724 -18.099 -17.805  1.00  0.00    -0.289 OA
ATOM      5  C   UNL     1      66.005 -16.557 -18.179  1.00  0.00     0.107 A 
ATOM      6  C   UNL     1      64.999 -17.199 -17.398  1.00  0.00     0.134 A 
ATOM      7  C   UNL     1      63.686 -16.714 -17.428  1.00  0.00     0.093 A 
ATOM      8  C   UNL     1      63.356 -15.573 -18.164  1.00  0.00     0.123 A 
ATOM      9  C   UNL     1      64.342 -14.907 -18.888  1.00  0.00     0.094 A 
ATOM     10  C   UNL     1      65.654 -15.387 -18.906  1.00  0.00     0.146 A 
ATOM     11  O   UNL     1      66.562 -14.730 -19.621  1.00  0.00    -0.456 OA
ENDROOT
BRANCH   1  12
ATOM     12  C   UNL     1      68.760 -14.295 -20.542  1.00  0.00     0.021 A 
ATOM     13  C   UNL     1      68.731 -12.894 -20.429  1.00  0.00     0.016 A 
ATOM     14  C   UNL     1      69.600 -12.102 -21.183  1.00  0.00     0.051 A 
ATOM     15  C   UNL     1      70.520 -12.696 -22.055  1.00  0.00     0.157 A 
ATOM     16  C   UNL     1      69.698 -14.886 -21.412  1.00  0.00     0.062 A 
ATOM     17  C   UNL     1      70.571 -14.090 -22.167  1.00  0.00     0.158 A 
BRANCH  15  18
ATOM     18  O   UNL     1      71.388 -11.909 -22.810  1.00  0.00    -0.504 OA
ATOM     19  H   UNL     1      72.043 -11.273 -22.371  1.00  0.00     0.293 HD
ENDBRANCH  15  18
BRANCH  17  20
ATOM     20  O   UNL     1      71.496 -14.679 -23.027  1.00  0.00    -0.504 OA
ATOM     21  H   UNL     1      71.791 -15.642 -22.911  1.00  0.00     0.293 HD
ENDBRANCH  17  20
ENDBRANCH   1  12
BRANCH   6  22
ATOM     22  O   UNL     1      65.241 -18.294 -16.561  1.00  0.00    -0.507 OA
ATOM     23  H   UNL     1      65.769 -18.259 -15.703  1.00  0.00     0.293 HD
ENDBRANCH   6  22
BRANCH   8  24
ATOM     24  O   UNL     1      62.050 -15.089 -18.177  1.00  0.00    -0.508 OA
ATOM     25  H   UNL     1      61.850 -14.105 -18.313  1.00  0.00     0.293 HD
ENDBRANCH   8  24
TORSDOF 5
ENDMDL
MODEL 6
REMARK VINA RESULT:    -7.328      2.002      2.573
REMARK INTER + INTRA:          -8.932
REMARK INTER:                  -8.621
REMARK INTRA:                  -0.310
REMARK UNBOUND:                -0.318
REMARK SMILES O=c1cc(-c2ccc(O)c(O)c2)oc2cc(O)cc(O)c12
REMARK SMILES IDX 4 1 3 2 2 3 1 4 21 5 19 6 18 7 16 8 15 9 14 10 13 11 5 12
REMARK SMILES IDX 6 13 7 14 8 15 12 16 10 17 9 18 11 20 20 22 17 24
REMARK H PARENT 9 19 11 21 20 23 17 25
REMARK Flexibility Score: inf
ROOT
ATOM      1  C   UNL     1      66.284 -15.620 -20.258  1.00  0.00     0.138 A 
ATOM      2  C   UNL     1      65.415 -15.113 -21.234  1.00  0.00     0.100 A 
ATOM      3  C   UNL     1      65.936 -14.470 -22.357  1.00  0.00     0.197 A 
ATOM      4  O   UNL     1      65.133 -14.081 -23.244  1.00  0.00    -0.289 OA
ATOM      5  C   UNL     1      67.336 -14.307 -22.488  1.00  0.00     0.107 A 
ATOM      6  C   UNL     1      67.978 -13.634 -23.569  1.00  0.00     0.134 A 
ATOM      7  C   UNL     1      69.376 -13.638 -23.652  1.00  0.00     0.093 A 
ATOM      8  C   UNL     1      70.155 -14.238 -22.659  1.00  0.00     0.123 A 
ATOM      9  C   UNL     1      69.539 -14.851 -21.572  1.00  0.00     0.094 A 
ATOM     10  C   UNL     1      68.145 -14.895 -21.478  1.00  0.00     0.146 A 
ATOM     11  O   UNL     1      67.597 -15.503 -20.432  1.00  0.00    -0.456 OA
ENDROOT
BRANCH   1  12
ATOM     12  C   UNL     1      65.783 -16.311 -19.043  1.00  0.00     0.021 A 
ATOM     13  C   UNL     1      64.475 -16.059 -18.595  1.00  0.00     0.016 A 
ATOM     14  C   UNL     1      63.978 -16.702 -17.458  1.00  0.00     0.051 A 
ATOM     15  C   UNL     1      64.775 -17.615 -16.758  1.00  0.00     0.157 A 
ATOM     16  C   UNL     1      66.575 -17.241 -18.341  1.00  0.00     0.062 A 
ATOM     17  C   UNL     1      66.074 -17.887 -17.202  1.00  0.00     0.158 A 
BRANCH  15  18
ATOM     18  O   UNL     1      64.282 -18.258 -15.623  1.00  0.00    -0.504 OA
ATOM     19  H   UNL     1      64.141 -19.261 -15.602  1.00  0.00     0.293 HD
ENDBRANCH  15  18
BRANCH  17  20
ATOM     20  O   UNL     1      66.861 -18.806 -16.509  1.00  0.00    -0.504 OA
ATOM     21  H   UNL     1      66.757 -19.805 -16.647  1.00  0.00     0.293 HD
ENDBRANCH  17  20
ENDBRANCH   1  12
BRANCH   6  22
ATOM     22  O   UNL     1      67.295 -12.931 -24.567  1.00  0.00    -0.507 OA
ATOM     23  H   UNL     1      67.227 -11.926 -24.621  1.00  0.00     0.293 HD
ENDBRANCH   6  22
BRANCH   8  24
ATOM     24  O   UNL     1      71.546 -14.223 -22.742  1.00  0.00    -0.508 OA
ATOM     25  H   UNL     1      72.054 -13.378 -22.975  1.00  0.00     0.293 HD
ENDBRANCH   8  24
TORSDOF 5
ENDMDL
MODEL 7
REMARK VINA RESULT:    -7.273      3.205      5.401
REMARK INTER + INTRA:          -8.866
REMARK INTER:                  -8.585
REMARK INTRA:                  -0.281
REMARK UNBOUND:                -0.318
REMARK SMILES O=c1cc(-c2ccc(O)c(O)c2)oc2cc(O)cc(O)c12
REMARK SMILES IDX 4 1 3 2 2 3 1 4 21 5 19 6 18 7 16 8 15 9 14 10 13 11 5 12
REMARK SMILES IDX 6 13 7 14 8 15 12 16 10 17 9 18 11 20 20 22 17 24
REMARK H PARENT 9 19 11 21 20 23 17 25
REMARK Flexibility Score: inf
ROOT
ATOM      1  C   UNL     1      65.442 -16.460 -18.344  1.00  0.00     0.138 A 
ATOM      2  C   UNL     1      66.708 -16.324 -17.760  1.00  0.00     0.100 A 
ATOM      3  C   UNL     1      67.753 -15.764 -18.497  1.00  0.00     0.197 A 
ATOM      4  O   UNL     1      68.861 -15.598 -17.924  1.00  0.00    -0.289 OA
ATOM      5  C   UNL     1      67.534 -15.368 -19.837  1.00  0.00     0.107 A 
ATOM      6  C   UNL     1      68.534 -14.822 -20.697  1.00  0.00     0.134 A 
ATOM      7  C   UNL     1      68.172 -14.357 -21.968  1.00  0.00     0.093 A 
ATOM      8  C   UNL     1      66.860 -14.474 -22.431  1.00  0.00     0.123 A 
ATOM      9  C   UNL     1      65.888 -15.053 -21.620  1.00  0.00     0.094 A 
ATOM     10  C   UNL     1      66.209 -15.496 -20.334  1.00  0.00     0.146 A 
ATOM     11  O   UNL     1      65.249 -16.029 -19.587  1.00  0.00    -0.456 OA
ENDROOT
BRANCH   1  12
ATOM     12  C   UNL     1      64.296 -17.050 -17.606  1.00  0.00     0.021 A 
ATOM     13  C   UNL     1      64.419 -18.337 -17.054  1.00  0.00     0.016 A 
ATOM     14  C   UNL     1      63.358 -18.911 -16.349  1.00  0.00     0.051 A 
ATOM     15  C   UNL     1      62.162 -18.205 -16.175  1.00  0.00     0.157 A 
ATOM     16  C   UNL     1      63.094 -16.340 -17.416  1.00  0.00     0.062 A 
ATOM     17  C   UNL     1      62.031 -16.917 -16.706  1.00  0.00     0.158 A 
BRANCH  15  18
ATOM     18  O   UNL     1      61.100 -18.775 -15.473  1.00  0.00    -0.504 OA
ATOM     19  H   UNL     1      60.501 -18.218 -14.876  1.00  0.00     0.293 HD
ENDBRANCH  15  18
BRANCH  17  20
ATOM     20  O   UNL     1      60.842 -16.213 -16.521  1.00  0.00    -0.504 OA
ATOM     21  H   UNL     1      60.528 -15.516 -17.187  1.00  0.00     0.293 HD
ENDBRANCH  17  20
ENDBRANCH   1  12
BRANCH   6  22
ATOM     22  O   UNL     1      69.890 -14.739 -20.363  1.00  0.00    -0.507 OA
ATOM     23  H   UNL     1      70.648 -15.057 -20.947  1.00  0.00     0.293 HD
ENDBRANCH   6  22
BRANCH   8  24
ATOM     24  O   UNL     1      66.513 -14.022 -23.703  1.00  0.00    -0.508 OA
ATOM     25  H   UNL     1      65.606 -13.613 -23.891  1.00  0.00     0.293 HD
ENDBRANCH   8  24
TORSDOF 5
ENDMDL
MODEL 8
REMARK VINA RESULT:    -7.271      2.164      2.722
REMARK INTER + INTRA:          -8.864
REMARK INTER:                  -8.559
REMARK INTRA:                  -0.305
REMARK UNBOUND:                -0.318
REMARK SMILES O=c1cc(-c2ccc(O)c(O)c2)oc2cc(O)cc(O)c12
REMARK SMILES IDX 4 1 3 2 2 3 1 4 21 5 19 6 18 7 16 8 15 9 14 10 13 11 5 12
REMARK SMILES IDX 6 13 7 14 8 15 12 16 10 17 9 18 11 20 20 22 17 24
REMARK H PARENT 9 19 11 21 20 23 17 25
REMARK Flexibility Score: inf
ROOT
ATOM      1  C   UNL     1      67.052 -14.714 -19.030  1.00  0.00     0.138 A 
ATOM      2  C   UNL     1      66.701 -13.357 -19.023  1.00  0.00     0.100 A 
ATOM      3  C   UNL     1      67.419 -12.454 -19.809  1.00  0.00     0.197 A 
ATOM      4  O   UNL     1      67.040 -11.254 -19.828  1.00  0.00    -0.289 OA
ATOM      5  C   UNL     1      68.514 -12.909 -20.580  1.00  0.00     0.107 A 
ATOM      6  C   UNL     1      69.343 -12.073 -21.387  1.00  0.00     0.134 A 
ATOM      7  C   UNL     1      70.325 -12.653 -22.199  1.00  0.00     0.093 A 
ATOM      8  C   UNL     1      70.549 -14.032 -22.187  1.00  0.00     0.123 A 
ATOM      9  C   UNL     1      69.781 -14.850 -21.363  1.00  0.00     0.094 A 
ATOM     10  C   UNL     1      68.770 -14.307 -20.567  1.00  0.00     0.146 A 
ATOM     11  O   UNL     1      68.050 -15.124 -19.806  1.00  0.00    -0.456 OA
ENDROOT
BRANCH   1  12
ATOM     12  C   UNL     1      66.324 -15.717 -18.213  1.00  0.00     0.021 A 
ATOM     13  C   UNL     1      64.957 -15.528 -17.943  1.00  0.00     0.016 A 
ATOM     14  C   UNL     1      64.248 -16.461 -17.182  1.00  0.00     0.051 A 
ATOM     15  C   UNL     1      64.889 -17.603 -16.689  1.00  0.00     0.157 A 
ATOM     16  C   UNL     1      66.959 -16.876 -17.724  1.00  0.00     0.062 A 
ATOM     17  C   UNL     1      66.245 -17.812 -16.963  1.00  0.00     0.158 A 
BRANCH  15  18
ATOM     18  O   UNL     1      64.184 -18.536 -15.929  1.00  0.00    -0.504 OA
ATOM     19  H   UNL     1      63.803 -18.299 -15.020  1.00  0.00     0.293 HD
ENDBRANCH  15  18
BRANCH  17  20
ATOM     20  O   UNL     1      66.877 -18.957 -16.479  1.00  0.00    -0.504 OA
ATOM     21  H   UNL     1      66.820 -19.223 -15.503  1.00  0.00     0.293 HD
ENDBRANCH  17  20
ENDBRANCH   1  12
BRANCH   6  22
ATOM     22  O   UNL     1      69.259 -10.677 -21.407  1.00  0.00    -0.507 OA
ATOM     23  H   UNL     1      69.744 -10.079 -22.059  1.00  0.00     0.293 HD
ENDBRANCH   6  22
BRANCH   8  24
ATOM     24  O   UNL     1      71.539 -14.598 -22.988  1.00  0.00    -0.508 OA
ATOM     25  H   UNL     1      72.284 -15.158 -22.593  1.00  0.00     0.293 HD
ENDBRANCH   8  24
TORSDOF 5
ENDMDL
MODEL 9
REMARK VINA RESULT:    -7.185      1.366      6.739
REMARK INTER + INTRA:          -8.763
REMARK INTER:                  -8.447
REMARK INTRA:                  -0.317
REMARK UNBOUND:                -0.318
REMARK SMILES O=c1cc(-c2ccc(O)c(O)c2)oc2cc(O)cc(O)c12
REMARK SMILES IDX 4 1 3 2 2 3 1 4 21 5 19 6 18 7 16 8 15 9 14 10 13 11 5 12
REMARK SMILES IDX 6 13 7 14 8 15 12 16 10 17 9 18 11 20 20 22 17 24
REMARK H PARENT 9 19 11 21 20 23 17 25
REMARK Flexibility Score: inf
ROOT
ATOM      1  C   UNL     1      68.407 -13.784 -21.248  1.00  0.00     0.138 A 
ATOM      2  C   UNL     1      67.085 -14.153 -21.536  1.00  0.00     0.100 A 
ATOM      3  C   UNL     1      66.462 -15.141 -20.773  1.00  0.00     0.197 A 
ATOM      4  O   UNL     1      65.256 -15.406 -21.016  1.00  0.00    -0.289 OA
ATOM      5  C   UNL     1      67.177 -15.785 -19.736  1.00  0.00     0.107 A 
ATOM      6  C   UNL     1      66.658 -16.833 -18.920  1.00  0.00     0.134 A 
ATOM      7  C   UNL     1      67.419 -17.314 -17.847  1.00  0.00     0.093 A 
ATOM      8  C   UNL     1      68.705 -16.827 -17.599  1.00  0.00     0.123 A 
ATOM      9  C   UNL     1      69.241 -15.841 -18.423  1.00  0.00     0.094 A 
ATOM     10  C   UNL     1      68.494 -15.316 -19.480  1.00  0.00     0.146 A 
ATOM     11  O   UNL     1      69.038 -14.366 -20.234  1.00  0.00    -0.456 OA
ENDROOT
BRANCH   1  12
ATOM     12  C   UNL     1      69.118 -12.741 -22.029  1.00  0.00     0.021 A 
ATOM     13  C   UNL     1      68.403 -11.965 -22.958  1.00  0.00     0.016 A 
ATOM     14  C   UNL     1      69.048 -10.972 -23.700  1.00  0.00     0.051 A 
ATOM     15  C   UNL     1      70.415 -10.730 -23.517  1.00  0.00     0.157 A 
ATOM     16  C   UNL     1      70.491 -12.483 -21.841  1.00  0.00     0.062 A 
ATOM     17  C   UNL     1      71.136 -11.484 -22.585  1.00  0.00     0.158 A 
BRANCH  15  18
ATOM     18  O   UNL     1      71.062  -9.741 -24.256  1.00  0.00    -0.504 OA
ATOM     19  H   UNL     1      70.545  -9.001 -24.718  1.00  0.00     0.293 HD
ENDBRANCH  15  18
BRANCH  17  20
ATOM     20  O   UNL     1      72.494 -11.233 -22.398  1.00  0.00    -0.504 OA
ATOM     21  H   UNL     1      72.830 -10.323 -22.102  1.00  0.00     0.293 HD
ENDBRANCH  17  20
ENDBRANCH   1  12
BRANCH   6  22
ATOM     22  O   UNL     1      65.421 -17.450 -19.133  1.00  0.00    -0.507 OA
ATOM     23  H   UNL     1      65.165 -17.957 -19.967  1.00  0.00     0.293 HD
ENDBRANCH   6  22
BRANCH   8  24
ATOM     24  O   UNL     1      69.460 -17.322 -16.538  1.00  0.00    -0.508 OA
ATOM     25  H   UNL     1      70.030 -18.154 -16.636  1.00  0.00     0.293 HD
ENDBRANCH   8  24
TORSDOF 5
ENDMDL
