MODEL 1
REMARK VINA RESULT:    -6.036      0.000      0.000
REMARK INTER + INTRA:          -7.517
REMARK INTER:                  -7.271
REMARK INTRA:                  -0.246
REMARK UNBOUND:                -0.246
REMARK SMILES C=CCc1ccc(O)c(OC)c1
REMARK SMILES IDX 9 1 7 2 6 3 5 4 4 5 12 6 10 7 11 8 8 9 3 11 2 12 1 13
REMARK H PARENT 8 10
REMARK Flexibility Score: inf
ROOT
ATOM      1  C   UNL     1       8.487 -55.337 -30.357  1.00  0.00     0.160 A 
ATOM      2  C   UNL     1       8.117 -54.630 -31.515  1.00  0.00     0.157 A 
ATOM      3  C   UNL     1       6.789 -54.648 -31.953  1.00  0.00     0.050 A 
ATOM      4  C   UNL     1       5.822 -55.367 -31.249  1.00  0.00     0.008 A 
ATOM      5  C   UNL     1       6.176 -56.086 -30.098  1.00  0.00    -0.040 A 
ATOM      6  C   UNL     1       7.506 -56.062 -29.651  1.00  0.00     0.054 A 
ENDROOT
BRANCH   1   7
ATOM      7  O   UNL     1       9.827 -55.297 -29.937  1.00  0.00    -0.493 OA
ATOM      8  C   UNL     1      10.253 -55.417 -28.584  1.00  0.00     0.278 C 
ENDBRANCH   1   7
BRANCH   2   9
ATOM      9  O   UNL     1       9.056 -53.900 -32.245  1.00  0.00    -0.504 OA
ATOM     10  H   UNL     1       8.796 -53.332 -33.044  1.00  0.00     0.293 HD
ENDBRANCH   2   9
BRANCH   5  11
ATOM     11  C   UNL     1       5.129 -56.839 -29.320  1.00  0.00     0.062 C 
BRANCH  11  12
ATOM     12  C   UNL     1       3.789 -56.172 -29.445  1.00  0.00    -0.030 C 
ATOM     13  C   UNL     1       3.330 -55.335 -28.510  1.00  0.00     0.004 C 
ENDBRANCH  11  12
ENDBRANCH   5  11
TORSDOF 4
ENDMDL
MODEL 2
REMARK VINA RESULT:    -5.887      2.350      4.356
REMARK INTER + INTRA:          -7.338
REMARK INTER:                  -7.080
REMARK INTRA:                  -0.259
REMARK UNBOUND:                -0.246
REMARK SMILES C=CCc1ccc(O)c(OC)c1
REMARK SMILES IDX 9 1 7 2 6 3 5 4 4 5 12 6 10 7 11 8 8 9 3 11 2 12 1 13
REMARK H PARENT 8 10
REMARK Flexibility Score: inf
ROOT
ATOM      1  C   UNL     1       8.435 -56.132 -28.871  1.00  0.00     0.160 A 
ATOM      2  C   UNL     1       7.035 -56.192 -28.989  1.00  0.00     0.157 A 
ATOM      3  C   UNL     1       6.399 -55.621 -30.096  1.00  0.00     0.050 A 
ATOM      4  C   UNL     1       7.146 -54.987 -31.090  1.00  0.00     0.008 A 
ATOM      5  C   UNL     1       8.542 -54.908 -30.983  1.00  0.00    -0.040 A 
ATOM      6  C   UNL     1       9.183 -55.488 -29.877  1.00  0.00     0.054 A 
ENDROOT
BRANCH   1   7
ATOM      7  O   UNL     1       9.047 -56.718 -27.751  1.00  0.00    -0.493 OA
ATOM      8  C   UNL     1      10.403 -56.510 -27.370  1.00  0.00     0.278 C 
ENDBRANCH   1   7
BRANCH   2   9
ATOM      9  O   UNL     1       6.256 -56.819 -28.015  1.00  0.00    -0.504 OA
ATOM     10  H   UNL     1       5.375 -56.431 -27.697  1.00  0.00     0.293 HD
ENDBRANCH   2   9
BRANCH   5  11
ATOM     11  C   UNL     1       9.353 -54.249 -32.068  1.00  0.00     0.062 C 
BRANCH  11  12
ATOM     12  C   UNL     1      10.243 -55.249 -32.749  1.00  0.00    -0.030 C 
ATOM     13  C   UNL     1       9.752 -56.188 -33.564  1.00  0.00     0.004 C 
ENDBRANCH  11  12
ENDBRANCH   5  11
TORSDOF 4
ENDMDL
MODEL 3
REMARK VINA RESULT:    -5.789      2.334      5.053
REMARK INTER + INTRA:          -7.220
REMARK INTER:                  -6.954
REMARK INTRA:                  -0.266
REMARK UNBOUND:                -0.246
REMARK SMILES C=CCc1ccc(O)c(OC)c1
REMARK SMILES IDX 9 1 7 2 6 3 5 4 4 5 12 6 10 7 11 8 8 9 3 11 2 12 1 13
REMARK H PARENT 8 10
REMARK Flexibility Score: inf
ROOT
ATOM      1  C   UNL     1       6.536 -55.876 -29.939  1.00  0.00     0.160 A 
ATOM      2  C   UNL     1       7.221 -56.249 -28.769  1.00  0.00     0.157 A 
ATOM      3  C   UNL     1       8.587 -55.980 -28.640  1.00  0.00     0.050 A 
ATOM      4  C   UNL     1       9.282 -55.343 -29.669  1.00  0.00     0.008 A 
ATOM      5  C   UNL     1       8.617 -54.973 -30.847  1.00  0.00    -0.040 A 
ATOM      6  C   UNL     1       7.244 -55.234 -30.975  1.00  0.00     0.054 A 
ENDROOT
BRANCH   1   7
ATOM      7  O   UNL     1       5.163 -56.154 -30.039  1.00  0.00    -0.493 OA
ATOM      8  C   UNL     1       4.128 -55.278 -29.604  1.00  0.00     0.278 C 
ENDBRANCH   1   7
BRANCH   2   9
ATOM      9  O   UNL     1       6.559 -56.887 -27.719  1.00  0.00    -0.504 OA
ATOM     10  H   UNL     1       7.028 -57.544 -27.105  1.00  0.00     0.293 HD
ENDBRANCH   2   9
BRANCH   5  11
ATOM     11  C   UNL     1       9.358 -54.260 -31.947  1.00  0.00     0.062 C 
BRANCH  11  12
ATOM     12  C   UNL     1      10.327 -55.187 -32.624  1.00  0.00    -0.030 C 
ATOM     13  C   UNL     1       9.916 -56.157 -33.446  1.00  0.00     0.004 C 
ENDBRANCH  11  12
ENDBRANCH   5  11
TORSDOF 4
ENDMDL
MODEL 4
REMARK VINA RESULT:    -5.749      1.143      2.404
REMARK INTER + INTRA:          -7.172
REMARK INTER:                  -6.972
REMARK INTRA:                  -0.200
REMARK UNBOUND:                -0.246
REMARK SMILES C=CCc1ccc(O)c(OC)c1
REMARK SMILES IDX 9 1 7 2 6 3 5 4 4 5 12 6 10 7 11 8 8 9 3 11 2 12 1 13
REMARK H PARENT 8 10
REMARK Flexibility Score: inf
ROOT
ATOM      1  C   UNL     1       8.779 -54.919 -30.795  1.00  0.00     0.160 A 
ATOM      2  C   UNL     1       9.197 -55.446 -29.560  1.00  0.00     0.157 A 
ATOM      3  C   UNL     1       8.269 -56.051 -28.706  1.00  0.00     0.050 A 
ATOM      4  C   UNL     1       6.924 -56.134 -29.069  1.00  0.00     0.008 A 
ATOM      5  C   UNL     1       6.488 -55.604 -30.292  1.00  0.00    -0.040 A 
ATOM      6  C   UNL     1       7.419 -55.005 -31.155  1.00  0.00     0.054 A 
ENDROOT
BRANCH   1   7
ATOM      7  O   UNL     1       9.733 -54.322 -31.635  1.00  0.00    -0.493 OA
ATOM      8  C   UNL     1      10.472 -55.013 -32.637  1.00  0.00     0.278 C 
ENDBRANCH   1   7
BRANCH   2   9
ATOM      9  O   UNL     1      10.532 -55.382 -29.163  1.00  0.00    -0.504 OA
ATOM     10  H   UNL     1      11.011 -56.173 -28.748  1.00  0.00     0.293 HD
ENDBRANCH   2   9
BRANCH   5  11
ATOM     11  C   UNL     1       5.042 -55.718 -30.699  1.00  0.00     0.062 C 
BRANCH  11  12
ATOM     12  C   UNL     1       4.248 -56.440 -29.648  1.00  0.00    -0.030 C 
ATOM     13  C   UNL     1       3.360 -55.805 -28.877  1.00  0.00     0.004 C 
ENDBRANCH  11  12
ENDBRANCH   5  11
TORSDOF 4
ENDMDL
MODEL 5
REMARK VINA RESULT:    -5.650      2.916      4.570
REMARK INTER + INTRA:          -7.053
REMARK INTER:                  -6.809
REMARK INTRA:                  -0.243
REMARK UNBOUND:                -0.246
REMARK SMILES C=CCc1ccc(O)c(OC)c1
REMARK SMILES IDX 9 1 7 2 6 3 5 4 4 5 12 6 10 7 11 8 8 9 3 11 2 12 1 13
REMARK H PARENT 8 10
REMARK Flexibility Score: inf
ROOT
ATOM      1  C   UNL     1       5.480 -56.100 -28.222  1.00  0.00     0.160 A 
ATOM      2  C   UNL     1       4.438 -55.812 -29.123  1.00  0.00     0.157 A 
ATOM      3  C   UNL     1       4.729 -55.506 -30.456  1.00  0.00     0.050 A 
ATOM      4  C   UNL     1       6.051 -55.481 -30.903  1.00  0.00     0.008 A 
ATOM      5  C   UNL     1       7.102 -55.756 -30.016  1.00  0.00    -0.040 A 
ATOM      6  C   UNL     1       6.813 -56.072 -28.679  1.00  0.00     0.054 A 
ENDROOT
BRANCH   1   7
ATOM      7  O   UNL     1       5.158 -56.410 -26.890  1.00  0.00    -0.493 OA
ATOM      8  C   UNL     1       5.628 -57.559 -26.192  1.00  0.00     0.278 C 
ENDBRANCH   1   7
BRANCH   2   9
ATOM      9  O   UNL     1       3.105 -55.828 -28.712  1.00  0.00    -0.504 OA
ATOM     10  H   UNL     1       2.345 -55.585 -29.337  1.00  0.00     0.293 HD
ENDBRANCH   2   9
BRANCH   5  11
ATOM     11  C   UNL     1       8.528 -55.757 -30.502  1.00  0.00     0.062 C 
BRANCH  11  12
ATOM     12  C   UNL     1       9.048 -54.354 -30.632  1.00  0.00    -0.030 C 
ATOM     13  C   UNL     1       9.663 -53.734 -29.621  1.00  0.00     0.004 C 
ENDBRANCH  11  12
ENDBRANCH   5  11
TORSDOF 4
ENDMDL
MODEL 6
REMARK VINA RESULT:    -5.549      2.006      4.211
REMARK INTER + INTRA:          -6.931
REMARK INTER:                  -6.781
REMARK INTRA:                  -0.150
REMARK UNBOUND:                -0.246
REMARK SMILES C=CCc1ccc(O)c(OC)c1
REMARK SMILES IDX 9 1 7 2 6 3 5 4 4 5 12 6 10 7 11 8 8 9 3 11 2 12 1 13
REMARK H PARENT 8 10
REMARK Flexibility Score: inf
ROOT
ATOM      1  C   UNL     1       6.554 -55.378 -30.216  1.00  0.00     0.160 A 
ATOM      2  C   UNL     1       6.527 -54.974 -31.564  1.00  0.00     0.157 A 
ATOM      3  C   UNL     1       7.720 -54.674 -32.229  1.00  0.00     0.050 A 
ATOM      4  C   UNL     1       8.943 -54.770 -31.565  1.00  0.00     0.008 A 
ATOM      5  C   UNL     1       8.987 -55.161 -30.219  1.00  0.00    -0.040 A 
ATOM      6  C   UNL     1       7.792 -55.471 -29.551  1.00  0.00     0.054 A 
ENDROOT
BRANCH   1   7
ATOM      7  O   UNL     1       5.341 -55.678 -29.575  1.00  0.00    -0.493 OA
ATOM      8  C   UNL     1       5.231 -56.156 -28.238  1.00  0.00     0.278 C 
ENDBRANCH   1   7
BRANCH   2   9
ATOM      9  O   UNL     1       5.323 -54.867 -32.261  1.00  0.00    -0.504 OA
ATOM     10  H   UNL     1       4.688 -54.089 -32.125  1.00  0.00     0.293 HD
ENDBRANCH   2   9
BRANCH   5  11
ATOM     11  C   UNL     1      10.308 -55.293 -29.507  1.00  0.00     0.062 C 
BRANCH  11  12
ATOM     12  C   UNL     1      10.104 -55.410 -28.023  1.00  0.00    -0.030 C 
ATOM     13  C   UNL     1      10.429 -56.520 -27.354  1.00  0.00     0.004 C 
ENDBRANCH  11  12
ENDBRANCH   5  11
TORSDOF 4
ENDMDL
MODEL 7
REMARK VINA RESULT:    -5.464      1.763      3.928
REMARK INTER + INTRA:          -6.829
REMARK INTER:                  -6.658
REMARK INTRA:                  -0.171
REMARK UNBOUND:                -0.246
REMARK SMILES C=CCc1ccc(O)c(OC)c1
REMARK SMILES IDX 9 1 7 2 6 3 5 4 4 5 12 6 10 7 11 8 8 9 3 11 2 12 1 13
REMARK H PARENT 8 10
REMARK Flexibility Score: inf
ROOT
ATOM      1  C   UNL     1       7.618 -55.391 -31.813  1.00  0.00     0.160 A 
ATOM      2  C   UNL     1       6.255 -55.214 -31.514  1.00  0.00     0.157 A 
ATOM      3  C   UNL     1       5.788 -55.434 -30.214  1.00  0.00     0.050 A 
ATOM      4  C   UNL     1       6.667 -55.832 -29.206  1.00  0.00     0.008 A 
ATOM      5  C   UNL     1       8.026 -56.023 -29.489  1.00  0.00    -0.040 A 
ATOM      6  C   UNL     1       8.500 -55.794 -30.790  1.00  0.00     0.054 A 
ENDROOT
BRANCH   1   7
ATOM      7  O   UNL     1       8.060 -55.157 -33.126  1.00  0.00    -0.493 OA
ATOM      8  C   UNL     1       9.194 -55.780 -33.719  1.00  0.00     0.278 C 
ENDBRANCH   1   7
BRANCH   2   9
ATOM      9  O   UNL     1       5.347 -54.816 -32.496  1.00  0.00    -0.504 OA
ATOM     10  H   UNL     1       5.072 -55.427 -33.257  1.00  0.00     0.293 HD
ENDBRANCH   2   9
BRANCH   5  11
ATOM     11  C   UNL     1       8.982 -56.425 -28.396  1.00  0.00     0.062 C 
BRANCH  11  12
ATOM     12  C   UNL     1      10.220 -55.574 -28.432  1.00  0.00    -0.030 C 
ATOM     13  C   UNL     1      10.192 -54.279 -28.106  1.00  0.00     0.004 C 
ENDBRANCH  11  12
ENDBRANCH   5  11
TORSDOF 4
ENDMDL
MODEL 8
REMARK VINA RESULT:    -5.369      1.546      2.357
REMARK INTER + INTRA:          -6.714
REMARK INTER:                  -6.515
REMARK INTRA:                  -0.199
REMARK UNBOUND:                -0.246
REMARK SMILES C=CCc1ccc(O)c(OC)c1
REMARK SMILES IDX 9 1 7 2 6 3 5 4 4 5 12 6 10 7 11 8 8 9 3 11 2 12 1 13
REMARK H PARENT 8 10
REMARK Flexibility Score: inf
ROOT
ATOM      1  C   UNL     1       9.158 -55.826 -28.697  1.00  0.00     0.160 A 
ATOM      2  C   UNL     1       9.934 -54.871 -29.379  1.00  0.00     0.157 A 
ATOM      3  C   UNL     1       9.397 -54.182 -30.471  1.00  0.00     0.050 A 
ATOM      4  C   UNL     1       8.091 -54.435 -30.894  1.00  0.00     0.008 A 
ATOM      5  C   UNL     1       7.307 -55.391 -30.233  1.00  0.00    -0.040 A 
ATOM      6  C   UNL     1       7.840 -56.078 -29.130  1.00  0.00     0.054 A 
ENDROOT
BRANCH   1   7
ATOM      7  O   UNL     1       9.721 -56.499 -27.601  1.00  0.00    -0.493 OA
ATOM      8  C   UNL     1       9.109 -57.592 -26.923  1.00  0.00     0.278 C 
ENDBRANCH   1   7
BRANCH   2   9
ATOM      9  O   UNL     1      11.242 -54.591 -28.985  1.00  0.00    -0.504 OA
ATOM     10  H   UNL     1      11.998 -54.490 -29.653  1.00  0.00     0.293 HD
ENDBRANCH   2   9
BRANCH   5  11
ATOM     11  C   UNL     1       5.888 -55.646 -30.669  1.00  0.00     0.062 C 
BRANCH  11  12
ATOM     12  C   UNL     1       5.023 -55.992 -29.490  1.00  0.00    -0.030 C 
ATOM     13  C   UNL     1       3.906 -55.313 -29.214  1.00  0.00     0.004 C 
ENDBRANCH  11  12
ENDBRANCH   5  11
TORSDOF 4
ENDMDL
MODEL 9
REMARK VINA RESULT:    -5.331      3.254      4.872
REMARK INTER + INTRA:          -6.668
REMARK INTER:                  -6.438
REMARK INTRA:                  -0.230
REMARK UNBOUND:                -0.246
REMARK SMILES C=CCc1ccc(O)c(OC)c1
REMARK SMILES IDX 9 1 7 2 6 3 5 4 4 5 12 6 10 7 11 8 8 9 3 11 2 12 1 13
REMARK H PARENT 8 10
REMARK Flexibility Score: inf
ROOT
ATOM      1  C   UNL     1       5.013 -56.337 -27.385  1.00  0.00     0.160 A 
ATOM      2  C   UNL     1       3.872 -55.788 -27.997  1.00  0.00     0.157 A 
ATOM      3  C   UNL     1       3.928 -55.351 -29.324  1.00  0.00     0.050 A 
ATOM      4  C   UNL     1       5.115 -55.454 -30.052  1.00  0.00     0.008 A 
ATOM      5  C   UNL     1       6.265 -55.990 -29.455  1.00  0.00    -0.040 A 
ATOM      6  C   UNL     1       6.209 -56.437 -28.125  1.00  0.00     0.054 A 
ENDROOT
BRANCH   1   7
ATOM      7  O   UNL     1       4.926 -56.771 -26.053  1.00  0.00    -0.493 OA
ATOM      8  C   UNL     1       5.681 -57.846 -25.503  1.00  0.00     0.278 C 
ENDBRANCH   1   7
BRANCH   2   9
ATOM      9  O   UNL     1       2.668 -55.669 -27.301  1.00  0.00    -0.504 OA
ATOM     10  H   UNL     1       2.627 -55.674 -26.288  1.00  0.00     0.293 HD
ENDBRANCH   2   9
BRANCH   5  11
ATOM     11  C   UNL     1       7.540 -56.128 -30.246  1.00  0.00     0.062 C 
BRANCH  11  12
ATOM     12  C   UNL     1       7.507 -55.252 -31.466  1.00  0.00    -0.030 C 
ATOM     13  C   UNL     1       8.439 -54.320 -31.688  1.00  0.00     0.004 C 
ENDBRANCH  11  12
ENDBRANCH   5  11
TORSDOF 4
ENDMDL
