MODEL 1
REMARK VINA RESULT:    -4.522      0.000      0.000
REMARK INTER + INTRA:          -7.500
REMARK INTER:                  -6.505
REMARK INTRA:                  -0.995
REMARK UNBOUND:                -0.995
REMARK SMILES CC(C)=CCCC(C)=CCCC(C)=CCO
REMARK SMILES IDX 10 1 9 2 7 3 8 4 6 5 5 6 4 7 1 8 2 9 3 10 11 11 12 12 14 13
REMARK SMILES IDX 13 14 15 15 16 16
REMARK H PARENT 16 17
REMARK Flexibility Score: inf
ROOT
ATOM      1  C   UNL     1       2.259  -3.805  -6.067  1.00  0.00     0.032 C 
ENDROOT
BRANCH   1   2
ATOM      2  C   UNL     1       1.194  -2.738  -6.073  1.00  0.00    -0.028 C 
ATOM      3  C   UNL     1       1.170  -1.677  -5.232  1.00  0.00    -0.077 C 
ATOM      4  C   UNL     1       2.274  -1.428  -4.232  1.00  0.00     0.039 C 
BRANCH   3   5
ATOM      5  C   UNL     1       0.013  -0.706  -5.308  1.00  0.00     0.034 C 
BRANCH   5   6
ATOM      6  C   UNL     1      -1.126  -1.145  -4.381  1.00  0.00     0.032 C 
BRANCH   6   7
ATOM      7  C   UNL     1      -2.188  -1.888  -5.153  1.00  0.00    -0.028 C 
ATOM      8  C   UNL     1      -3.542  -3.815  -5.855  1.00  0.00     0.039 C 
ATOM      9  C   UNL     1      -2.417  -3.216  -5.050  1.00  0.00    -0.080 C 
ATOM     10  C   UNL     1      -1.572  -4.109  -4.172  1.00  0.00     0.039 C 
ENDBRANCH   6   7
ENDBRANCH   5   6
ENDBRANCH   3   5
ENDBRANCH   1   2
BRANCH   1  11
ATOM     11  C   UNL     1       1.678  -5.149  -6.522  1.00  0.00     0.034 C 
BRANCH  11  12
ATOM     12  C   UNL     1       2.760  -6.211  -6.569  1.00  0.00    -0.075 C 
ATOM     13  C   UNL     1       3.215  -6.754  -7.721  1.00  0.00    -0.000 C 
ATOM     14  C   UNL     1       3.393  -6.649  -5.273  1.00  0.00     0.039 C 
BRANCH  13  15
ATOM     15  C   UNL     1       2.685  -6.424  -9.089  1.00  0.00     0.183 C 
BRANCH  15  16
ATOM     16  O   UNL     1       1.448  -7.050  -9.290  1.00  0.00    -0.392 OA
ATOM     17  H   UNL     1       0.813  -6.609  -8.667  1.00  0.00     0.210 HD
ENDBRANCH  15  16
ENDBRANCH  13  15
ENDBRANCH  11  12
ENDBRANCH   1  11
TORSDOF 8
ENDMDL
MODEL 2
REMARK VINA RESULT:    -4.421      3.237      6.147
REMARK INTER + INTRA:          -7.355
REMARK INTER:                  -6.098
REMARK INTRA:                  -1.256
REMARK UNBOUND:                -0.995
REMARK SMILES CC(C)=CCCC(C)=CCCC(C)=CCO
REMARK SMILES IDX 10 1 9 2 7 3 8 4 6 5 5 6 4 7 1 8 2 9 3 10 11 11 12 12 14 13
REMARK SMILES IDX 13 14 15 15 16 16
REMARK H PARENT 16 17
REMARK Flexibility Score: inf
ROOT
ATOM      1  C   UNL     1      -3.588  -3.657  -4.979  1.00  0.00     0.032 C 
ENDROOT
BRANCH   1   2
ATOM      2  C   UNL     1      -2.224  -3.943  -4.402  1.00  0.00    -0.028 C 
ATOM      3  C   UNL     1      -1.162  -4.366  -5.124  1.00  0.00    -0.077 C 
ATOM      4  C   UNL     1      -1.232  -4.528  -6.624  1.00  0.00     0.039 C 
BRANCH   3   5
ATOM      5  C   UNL     1       0.138  -4.669  -4.412  1.00  0.00     0.034 C 
BRANCH   5   6
ATOM      6  C   UNL     1       1.244  -3.711  -4.866  1.00  0.00     0.032 C 
BRANCH   6   7
ATOM      7  C   UNL     1       1.136  -2.390  -4.146  1.00  0.00    -0.028 C 
ATOM      8  C   UNL     1       0.657   0.006  -3.875  1.00  0.00     0.039 C 
ATOM      9  C   UNL     1       0.758  -1.231  -4.731  1.00  0.00    -0.080 C 
ATOM     10  C   UNL     1       0.455  -1.142  -6.208  1.00  0.00     0.039 C 
ENDBRANCH   6   7
ENDBRANCH   5   6
ENDBRANCH   3   5
ENDBRANCH   1   2
BRANCH   1  11
ATOM     11  C   UNL     1      -4.658  -4.507  -4.284  1.00  0.00     0.034 C 
BRANCH  11  12
ATOM     12  C   UNL     1      -4.818  -5.842  -4.985  1.00  0.00    -0.075 C 
ATOM     13  C   UNL     1      -5.574  -6.011  -6.094  1.00  0.00    -0.000 C 
ATOM     14  C   UNL     1      -4.061  -7.030  -4.447  1.00  0.00     0.039 C 
BRANCH  13  15
ATOM     15  C   UNL     1      -6.387  -4.927  -6.747  1.00  0.00     0.183 C 
BRANCH  15  16
ATOM     16  O   UNL     1      -6.755  -5.317  -8.041  1.00  0.00    -0.392 OA
ATOM     17  H   UNL     1      -6.619  -4.519  -8.616  1.00  0.00     0.210 HD
ENDBRANCH  15  16
ENDBRANCH  13  15
ENDBRANCH  11  12
ENDBRANCH   1  11
TORSDOF 8
ENDMDL
MODEL 3
REMARK VINA RESULT:    -4.416      4.118      7.814
REMARK INTER + INTRA:          -7.347
REMARK INTER:                  -6.708
REMARK INTRA:                  -0.639
REMARK UNBOUND:                -0.995
REMARK SMILES CC(C)=CCCC(C)=CCCC(C)=CCO
REMARK SMILES IDX 10 1 9 2 7 3 8 4 6 5 5 6 4 7 1 8 2 9 3 10 11 11 12 12 14 13
REMARK SMILES IDX 13 14 15 15 16 16
REMARK H PARENT 16 17
REMARK Flexibility Score: inf
ROOT
ATOM      1  C   UNL     1      -5.838  -5.743  -6.198  1.00  0.00     0.032 C 
ENDROOT
BRANCH   1   2
ATOM      2  C   UNL     1      -4.644  -4.917  -5.792  1.00  0.00    -0.028 C 
ATOM      3  C   UNL     1      -3.615  -5.377  -5.044  1.00  0.00    -0.077 C 
ATOM      4  C   UNL     1      -3.537  -6.816  -4.594  1.00  0.00     0.039 C 
BRANCH   3   5
ATOM      5  C   UNL     1      -2.503  -4.425  -4.661  1.00  0.00     0.034 C 
BRANCH   5   6
ATOM      6  C   UNL     1      -2.360  -3.309  -5.701  1.00  0.00     0.032 C 
BRANCH   6   7
ATOM      7  C   UNL     1      -1.872  -2.036  -5.056  1.00  0.00    -0.028 C 
ATOM      8  C   UNL     1      -0.312  -0.198  -4.575  1.00  0.00     0.039 C 
ATOM      9  C   UNL     1      -0.647  -1.500  -5.257  1.00  0.00    -0.080 C 
ATOM     10  C   UNL     1       0.390  -2.174  -6.124  1.00  0.00     0.039 C 
ENDBRANCH   6   7
ENDBRANCH   5   6
ENDBRANCH   3   5
ENDBRANCH   1   2
BRANCH   1  11
ATOM     11  C   UNL     1      -7.084  -4.861  -6.340  1.00  0.00     0.034 C 
BRANCH  11  12
ATOM     12  C   UNL     1      -7.829  -5.188  -7.619  1.00  0.00    -0.075 C 
ATOM     13  C   UNL     1      -7.865  -4.359  -8.688  1.00  0.00    -0.000 C 
ATOM     14  C   UNL     1      -8.524  -6.521  -7.724  1.00  0.00     0.039 C 
BRANCH  13  15
ATOM     15  C   UNL     1      -7.224  -2.999  -8.737  1.00  0.00     0.183 C 
BRANCH  15  16
ATOM     16  O   UNL     1      -8.210  -2.005  -8.750  1.00  0.00    -0.392 OA
ATOM     17  H   UNL     1      -9.039  -2.444  -9.075  1.00  0.00     0.210 HD
ENDBRANCH  15  16
ENDBRANCH  13  15
ENDBRANCH  11  12
ENDBRANCH   1  11
TORSDOF 8
ENDMDL
MODEL 4
REMARK VINA RESULT:    -4.410      2.342      6.292
REMARK INTER + INTRA:          -7.339
REMARK INTER:                  -6.302
REMARK INTRA:                  -1.037
REMARK UNBOUND:                -0.995
REMARK SMILES CC(C)=CCCC(C)=CCCC(C)=CCO
REMARK SMILES IDX 10 1 9 2 7 3 8 4 6 5 5 6 4 7 1 8 2 9 3 10 11 11 12 12 14 13
REMARK SMILES IDX 13 14 15 15 16 16
REMARK H PARENT 16 17
REMARK Flexibility Score: inf
ROOT
ATOM      1  C   UNL     1       1.561  -2.156  -5.487  1.00  0.00     0.032 C 
ENDROOT
BRANCH   1   2
ATOM      2  C   UNL     1       2.295  -3.339  -6.065  1.00  0.00    -0.028 C 
ATOM      3  C   UNL     1       2.434  -4.532  -5.442  1.00  0.00    -0.077 C 
ATOM      4  C   UNL     1       1.791  -4.812  -4.104  1.00  0.00     0.039 C 
BRANCH   3   5
ATOM      5  C   UNL     1       3.243  -5.620  -6.112  1.00  0.00     0.034 C 
BRANCH   5   6
ATOM      6  C   UNL     1       3.497  -5.281  -7.584  1.00  0.00     0.032 C 
BRANCH   6   7
ATOM      7  C   UNL     1       4.943  -4.912  -7.807  1.00  0.00    -0.028 C 
ATOM      8  C   UNL     1       6.985  -4.439  -9.090  1.00  0.00     0.039 C 
ATOM      9  C   UNL     1       5.540  -4.865  -9.018  1.00  0.00    -0.080 C 
ATOM     10  C   UNL     1       4.810  -5.240 -10.286  1.00  0.00     0.039 C 
ENDBRANCH   6   7
ENDBRANCH   5   6
ENDBRANCH   3   5
ENDBRANCH   1   2
BRANCH   1  11
ATOM     11  C   UNL     1       0.262  -1.896  -6.257  1.00  0.00     0.034 C 
BRANCH  11  12
ATOM     12  C   UNL     1      -0.936  -2.396  -5.473  1.00  0.00    -0.075 C 
ATOM     13  C   UNL     1      -1.518  -3.597  -5.695  1.00  0.00    -0.000 C 
ATOM     14  C   UNL     1      -1.474  -1.535  -4.359  1.00  0.00     0.039 C 
BRANCH  13  15
ATOM     15  C   UNL     1      -1.097  -4.565  -6.767  1.00  0.00     0.183 C 
BRANCH  15  16
ATOM     16  O   UNL     1      -2.037  -4.569  -7.805  1.00  0.00    -0.392 OA
ATOM     17  H   UNL     1      -2.907  -4.802  -7.388  1.00  0.00     0.210 HD
ENDBRANCH  15  16
ENDBRANCH  13  15
ENDBRANCH  11  12
ENDBRANCH   1  11
TORSDOF 8
ENDMDL
MODEL 5
REMARK VINA RESULT:    -4.377      1.162      1.619
REMARK INTER + INTRA:          -7.291
REMARK INTER:                  -6.108
REMARK INTRA:                  -1.183
REMARK UNBOUND:                -0.995
REMARK SMILES CC(C)=CCCC(C)=CCCC(C)=CCO
REMARK SMILES IDX 10 1 9 2 7 3 8 4 6 5 5 6 4 7 1 8 2 9 3 10 11 11 12 12 14 13
REMARK SMILES IDX 13 14 15 15 16 16
REMARK H PARENT 16 17
REMARK Flexibility Score: inf
ROOT
ATOM      1  C   UNL     1       2.120  -3.287  -6.100  1.00  0.00     0.032 C 
ENDROOT
BRANCH   1   2
ATOM      2  C   UNL     1       0.922  -2.510  -5.615  1.00  0.00    -0.028 C 
ATOM      3  C   UNL     1       0.980  -1.492  -4.726  1.00  0.00    -0.077 C 
ATOM      4  C   UNL     1       2.293  -0.986  -4.178  1.00  0.00     0.039 C 
BRANCH   3   5
ATOM      5  C   UNL     1      -0.306  -0.832  -4.280  1.00  0.00     0.034 C 
BRANCH   5   6
ATOM      6  C   UNL     1      -1.474  -1.258  -5.176  1.00  0.00     0.032 C 
BRANCH   6   7
ATOM      7  C   UNL     1      -2.479  -2.069  -4.395  1.00  0.00    -0.028 C 
ATOM      8  C   UNL     1      -3.925  -3.988  -3.877  1.00  0.00     0.039 C 
ATOM      9  C   UNL     1      -2.953  -3.274  -4.782  1.00  0.00    -0.080 C 
ATOM     10  C   UNL     1      -2.550  -3.909  -6.092  1.00  0.00     0.039 C 
ENDBRANCH   6   7
ENDBRANCH   5   6
ENDBRANCH   3   5
ENDBRANCH   1   2
BRANCH   1  11
ATOM     11  C   UNL     1       2.306  -4.565  -5.275  1.00  0.00     0.034 C 
BRANCH  11  12
ATOM     12  C   UNL     1       1.127  -5.501  -5.465  1.00  0.00    -0.075 C 
ATOM     13  C   UNL     1       0.999  -6.324  -6.531  1.00  0.00    -0.000 C 
ATOM     14  C   UNL     1       0.070  -5.549  -4.392  1.00  0.00     0.039 C 
BRANCH  13  15
ATOM     15  C   UNL     1       1.966  -6.390  -7.681  1.00  0.00     0.183 C 
BRANCH  15  16
ATOM     16  O   UNL     1       1.297  -6.778  -8.849  1.00  0.00    -0.392 OA
ATOM     17  H   UNL     1       2.001  -7.081  -9.480  1.00  0.00     0.210 HD
ENDBRANCH  15  16
ENDBRANCH  13  15
ENDBRANCH  11  12
ENDBRANCH   1  11
TORSDOF 8
ENDMDL
MODEL 6
REMARK VINA RESULT:    -4.362      2.166      5.312
REMARK INTER + INTRA:          -7.269
REMARK INTER:                  -5.893
REMARK INTRA:                  -1.376
REMARK UNBOUND:                -0.995
REMARK SMILES CC(C)=CCCC(C)=CCCC(C)=CCO
REMARK SMILES IDX 10 1 9 2 7 3 8 4 6 5 5 6 4 7 1 8 2 9 3 10 11 11 12 12 14 13
REMARK SMILES IDX 13 14 15 15 16 16
REMARK H PARENT 16 17
REMARK Flexibility Score: inf
ROOT
ATOM      1  C   UNL     1      -1.789  -1.925  -5.031  1.00  0.00     0.032 C 
ENDROOT
BRANCH   1   2
ATOM      2  C   UNL     1      -1.958  -3.232  -4.299  1.00  0.00    -0.028 C 
ATOM      3  C   UNL     1      -2.660  -4.288  -4.772  1.00  0.00    -0.077 C 
ATOM      4  C   UNL     1      -3.298  -4.273  -6.140  1.00  0.00     0.039 C 
BRANCH   3   5
ATOM      5  C   UNL     1      -2.796  -5.524  -3.910  1.00  0.00     0.034 C 
BRANCH   5   6
ATOM      6  C   UNL     1      -2.136  -6.731  -4.584  1.00  0.00     0.032 C 
BRANCH   6   7
ATOM      7  C   UNL     1      -0.703  -6.877  -4.135  1.00  0.00    -0.028 C 
ATOM      8  C   UNL     1       1.742  -6.662  -4.268  1.00  0.00     0.039 C 
ATOM      9  C   UNL     1       0.368  -6.491  -4.864  1.00  0.00    -0.080 C 
ATOM     10  C   UNL     1       0.225  -5.914  -6.253  1.00  0.00     0.039 C 
ENDBRANCH   6   7
ENDBRANCH   5   6
ENDBRANCH   3   5
ENDBRANCH   1   2
BRANCH   1  11
ATOM     11  C   UNL     1      -0.424  -1.866  -5.725  1.00  0.00     0.034 C 
BRANCH  11  12
ATOM     12  C   UNL     1       0.625  -1.287  -4.796  1.00  0.00    -0.075 C 
ATOM     13  C   UNL     1       1.834  -1.859  -4.595  1.00  0.00    -0.000 C 
ATOM     14  C   UNL     1       0.324   0.015  -4.098  1.00  0.00     0.039 C 
BRANCH  13  15
ATOM     15  C   UNL     1       2.280  -3.154  -5.216  1.00  0.00     0.183 C 
BRANCH  15  16
ATOM     16  O   UNL     1       2.813  -2.918  -6.489  1.00  0.00    -0.392 OA
ATOM     17  H   UNL     1       2.040  -2.913  -7.113  1.00  0.00     0.210 HD
ENDBRANCH  15  16
ENDBRANCH  13  15
ENDBRANCH  11  12
ENDBRANCH   1  11
TORSDOF 8
ENDMDL
MODEL 7
REMARK VINA RESULT:    -4.361      2.997      5.194
REMARK INTER + INTRA:          -7.268
REMARK INTER:                  -6.118
REMARK INTRA:                  -1.150
REMARK UNBOUND:                -0.995
REMARK SMILES CC(C)=CCCC(C)=CCCC(C)=CCO
REMARK SMILES IDX 10 1 9 2 7 3 8 4 6 5 5 6 4 7 1 8 2 9 3 10 11 11 12 12 14 13
REMARK SMILES IDX 13 14 15 15 16 16
REMARK H PARENT 16 17
REMARK Flexibility Score: inf
ROOT
ATOM      1  C   UNL     1       0.138  -4.436  -4.228  1.00  0.00     0.032 C 
ENDROOT
BRANCH   1   2
ATOM      2  C   UNL     1      -1.349  -4.184  -4.261  1.00  0.00    -0.028 C 
ATOM      3  C   UNL     1      -2.102  -4.202  -5.384  1.00  0.00    -0.077 C 
ATOM      4  C   UNL     1      -1.517  -4.551  -6.732  1.00  0.00     0.039 C 
BRANCH   3   5
ATOM      5  C   UNL     1      -3.577  -3.878  -5.284  1.00  0.00     0.034 C 
BRANCH   5   6
ATOM      6  C   UNL     1      -4.416  -5.160  -5.280  1.00  0.00     0.032 C 
BRANCH   6   7
ATOM      7  C   UNL     1      -5.301  -5.225  -6.501  1.00  0.00    -0.028 C 
ATOM      8  C   UNL     1      -7.394  -5.124  -7.784  1.00  0.00     0.039 C 
ATOM      9  C   UNL     1      -6.644  -5.075  -6.478  1.00  0.00    -0.080 C 
ATOM     10  C   UNL     1      -7.406  -4.880  -5.188  1.00  0.00     0.039 C 
ENDBRANCH   6   7
ENDBRANCH   5   6
ENDBRANCH   3   5
ENDBRANCH   1   2
BRANCH   1  11
ATOM     11  C   UNL     1       0.898  -3.144  -3.906  1.00  0.00     0.034 C 
BRANCH  11  12
ATOM     12  C   UNL     1       1.333  -2.447  -5.181  1.00  0.00    -0.075 C 
ATOM     13  C   UNL     1       0.883  -1.225  -5.547  1.00  0.00    -0.000 C 
ATOM     14  C   UNL     1       2.353  -3.127  -6.058  1.00  0.00     0.039 C 
BRANCH  13  15
ATOM     15  C   UNL     1      -0.133  -0.423  -4.781  1.00  0.00     0.183 C 
BRANCH  15  16
ATOM     16  O   UNL     1      -1.426  -0.768  -5.194  1.00  0.00    -0.392 OA
ATOM     17  H   UNL     1      -1.943  -0.936  -4.363  1.00  0.00     0.210 HD
ENDBRANCH  15  16
ENDBRANCH  13  15
ENDBRANCH  11  12
ENDBRANCH   1  11
TORSDOF 8
ENDMDL
MODEL 8
REMARK VINA RESULT:    -4.356      2.805      5.339
REMARK INTER + INTRA:          -7.261
REMARK INTER:                  -6.243
REMARK INTRA:                  -1.018
REMARK UNBOUND:                -0.995
REMARK SMILES CC(C)=CCCC(C)=CCCC(C)=CCO
REMARK SMILES IDX 10 1 9 2 7 3 8 4 6 5 5 6 4 7 1 8 2 9 3 10 11 11 12 12 14 13
REMARK SMILES IDX 13 14 15 15 16 16
REMARK H PARENT 16 17
REMARK Flexibility Score: inf
ROOT
ATOM      1  C   UNL     1       0.650  -3.805  -5.930  1.00  0.00     0.032 C 
ENDROOT
BRANCH   1   2
ATOM      2  C   UNL     1      -0.398  -4.692  -5.307  1.00  0.00    -0.028 C 
ATOM      3  C   UNL     1      -0.323  -6.041  -5.252  1.00  0.00    -0.077 C 
ATOM      4  C   UNL     1       0.882  -6.794  -5.764  1.00  0.00     0.039 C 
BRANCH   3   5
ATOM      5  C   UNL     1      -1.472  -6.817  -4.646  1.00  0.00     0.034 C 
BRANCH   5   6
ATOM      6  C   UNL     1      -2.491  -5.868  -4.006  1.00  0.00     0.032 C 
BRANCH   6   7
ATOM      7  C   UNL     1      -3.888  -6.186  -4.476  1.00  0.00    -0.028 C 
ATOM      8  C   UNL     1      -5.907  -5.991  -5.865  1.00  0.00     0.039 C 
ATOM      9  C   UNL     1      -4.523  -5.536  -5.476  1.00  0.00    -0.080 C 
ATOM     10  C   UNL     1      -3.895  -4.364  -6.195  1.00  0.00     0.039 C 
ENDBRANCH   6   7
ENDBRANCH   5   6
ENDBRANCH   3   5
ENDBRANCH   1   2
BRANCH   1  11
ATOM     11  C   UNL     1       0.102  -2.389  -6.143  1.00  0.00     0.034 C 
BRANCH  11  12
ATOM     12  C   UNL     1       0.278  -1.553  -4.890  1.00  0.00    -0.075 C 
ATOM     13  C   UNL     1      -0.712  -1.348  -3.991  1.00  0.00    -0.000 C 
ATOM     14  C   UNL     1       1.635  -0.960  -4.607  1.00  0.00     0.039 C 
BRANCH  13  15
ATOM     15  C   UNL     1      -2.116  -1.871  -4.132  1.00  0.00     0.183 C 
BRANCH  15  16
ATOM     16  O   UNL     1      -2.842  -1.063  -5.016  1.00  0.00    -0.392 OA
ATOM     17  H   UNL     1      -2.698  -0.128  -4.715  1.00  0.00     0.210 HD
ENDBRANCH  15  16
ENDBRANCH  13  15
ENDBRANCH  11  12
ENDBRANCH   1  11
TORSDOF 8
ENDMDL
