MODEL 1
REMARK VINA RESULT:    -5.611      0.000      0.000
REMARK INTER + INTRA:          -7.976
REMARK INTER:                  -7.907
REMARK INTRA:                  -0.069
REMARK UNBOUND:                -0.069
REMARK SMILES CC1=CCC(=C(C)C)C(=O)CC(C)=CCC1
REMARK SMILES IDX 12 1 14 2 13 3 15 4 16 5 2 6 1 7 3 8 11 10 9 11 10 12 5 13
REMARK SMILES IDX 6 14 7 15 8 16 4 17
REMARK H PARENT
REMARK Flexibility Score: 60.00
ROOT
ATOM      1  C   UNL     1      28.266  12.641  83.850  1.00  0.00    -0.070 C 
ATOM      2  C   UNL     1      27.229  13.434  84.206  1.00  0.00    -0.027 C 
ATOM      3  C   UNL     1      28.499  11.379  84.639  1.00  0.00     0.039 C 
ENDROOT
BRANCH   2   4
ATOM      4  C   UNL     1      26.943  14.795  83.624  1.00  0.00     0.032 C 
BRANCH   4   5
ATOM      5  C   UNL     1      25.693  14.729  82.739  1.00  0.00     0.034 C 
BRANCH   5   6
ATOM      6  C   UNL     1      25.836  15.548  81.471  1.00  0.00    -0.077 C 
ATOM      7  C   UNL     1      25.441  17.003  81.503  1.00  0.00     0.039 C 
ATOM      8  C   UNL     1      26.372  15.065  80.322  1.00  0.00    -0.023 CG0
ATOM      9  G   UNL     1      26.787  13.635  80.028  1.00  0.00     0.000 G0
ENDBRANCH   5   6
ENDBRANCH   4   5
ENDBRANCH   2   4
BRANCH   1  10
ATOM     10  C   UNL     1      29.189  12.948  82.686  1.00  0.00     0.111 C 
BRANCH  10  11
ATOM     11  C   UNL     1      28.642  12.424  81.381  1.00  0.00     0.163 C 
ATOM     12  O   UNL     1      28.481  11.176  81.285  1.00  0.00    -0.294 OA
BRANCH  11  13
ATOM     13  C   UNL     1      28.266  13.299  80.221  1.00  0.00    -0.002 C 
ATOM     14  C   UNL     1      29.196  13.644  79.279  1.00  0.00    -0.069 C 
ATOM     15  C   UNL     1      28.813  14.323  77.984  1.00  0.00     0.039 C 
ATOM     16  C   UNL     1      30.673  13.410  79.506  1.00  0.00     0.039 C 
BRANCH  13  17
ATOM     17  C   UNL     1      26.789  13.633  80.031  1.00  0.00     0.066 CG0
ATOM     18  G   UNL     1      26.380  15.069  80.304  1.00  0.00     0.000 G0
ENDBRANCH  13  17
ENDBRANCH  11  13
ENDBRANCH  10  11
ENDBRANCH   1  10
TORSDOF 0
ENDMDL
MODEL 2
REMARK VINA RESULT:    -5.533      1.994      4.004
REMARK INTER + INTRA:          -7.866
REMARK INTER:                  -7.744
REMARK INTRA:                  -0.122
REMARK UNBOUND:                -0.069
REMARK SMILES CC1=CCC(=C(C)C)C(=O)CC(C)=CCC1
REMARK SMILES IDX 12 1 14 2 13 3 15 4 16 5 2 6 1 7 3 8 11 10 9 11 10 12 5 13
REMARK SMILES IDX 6 14 7 15 8 16 4 17
REMARK H PARENT
REMARK Flexibility Score: 60.00
ROOT
ATOM      1  C   UNL     1      26.272  15.642  81.061  1.00  0.00    -0.070 C 
ATOM      2  C   UNL     1      26.534  15.665  82.389  1.00  0.00    -0.027 C 
ATOM      3  C   UNL     1      25.997  16.952  80.369  1.00  0.00     0.039 C 
ENDROOT
BRANCH   2   4
ATOM      4  C   UNL     1      26.685  14.445  83.261  1.00  0.00     0.032 C 
BRANCH   4   5
ATOM      5  C   UNL     1      28.171  14.169  83.517  1.00  0.00     0.034 C 
BRANCH   5   6
ATOM      6  C   UNL     1      28.531  12.709  83.324  1.00  0.00    -0.077 C 
ATOM      7  C   UNL     1      28.258  11.744  84.451  1.00  0.00     0.039 C 
ATOM      8  C   UNL     1      29.020  12.204  82.165  1.00  0.00    -0.023 CG0
ATOM      9  G   UNL     1      29.428  12.974  80.922  1.00  0.00     0.000 G0
ENDBRANCH   5   6
ENDBRANCH   4   5
ENDBRANCH   2   4
BRANCH   1  10
ATOM     10  C   UNL     1      26.263  14.370  80.236  1.00  0.00     0.111 C 
BRANCH  10  11
ATOM     11  C   UNL     1      27.576  14.151  79.525  1.00  0.00     0.163 C 
ATOM     12  O   UNL     1      27.954  15.052  78.727  1.00  0.00    -0.294 OA
BRANCH  11  13
ATOM     13  C   UNL     1      28.448  12.948  79.734  1.00  0.00    -0.002 C 
ATOM     14  C   UNL     1      28.474  11.938  78.811  1.00  0.00    -0.069 C 
ATOM     15  C   UNL     1      29.500  10.829  78.864  1.00  0.00     0.039 C 
ATOM     16  C   UNL     1      27.441  11.848  77.711  1.00  0.00     0.039 C 
BRANCH  13  17
ATOM     17  C   UNL     1      29.429  12.974  80.902  1.00  0.00     0.066 CG0
ATOM     18  G   UNL     1      29.015  12.216  82.150  1.00  0.00     0.000 G0
ENDBRANCH  13  17
ENDBRANCH  11  13
ENDBRANCH  10  11
ENDBRANCH   1  10
TORSDOF 0
ENDMDL
MODEL 3
REMARK VINA RESULT:    -5.445      2.079      3.950
REMARK INTER + INTRA:          -7.742
REMARK INTER:                  -7.799
REMARK INTRA:                   0.057
REMARK UNBOUND:                -0.069
REMARK SMILES CC1=CCC(=C(C)C)C(=O)CC(C)=CCC1
REMARK SMILES IDX 12 1 14 2 13 3 15 4 16 5 2 6 1 7 3 8 11 10 9 11 10 12 5 13
REMARK SMILES IDX 6 14 7 15 8 16 4 17
REMARK H PARENT
REMARK Flexibility Score: 60.00
ROOT
ATOM      1  C   UNL     1      26.223  14.754  79.092  1.00  0.00    -0.070 C 
ATOM      2  C   UNL     1      25.609  15.332  80.150  1.00  0.00    -0.027 C 
ATOM      3  C   UNL     1      25.919  15.289  77.716  1.00  0.00     0.039 C 
ENDROOT
BRANCH   2   4
ATOM      4  C   UNL     1      25.683  14.833  81.570  1.00  0.00     0.032 C 
BRANCH   4   5
ATOM      5  C   UNL     1      26.777  15.591  82.331  1.00  0.00     0.034 C 
BRANCH   5   6
ATOM      6  C   UNL     1      27.751  14.660  83.026  1.00  0.00    -0.077 C 
ATOM      7  C   UNL     1      27.326  14.001  84.314  1.00  0.00     0.039 C 
ATOM      8  C   UNL     1      28.963  14.326  82.516  1.00  0.00    -0.023 CG0
ATOM      9  G   UNL     1      29.631  14.895  81.277  1.00  0.00     0.000 G0
ENDBRANCH   5   6
ENDBRANCH   4   5
ENDBRANCH   2   4
BRANCH   1  10
ATOM     10  C   UNL     1      27.213  13.614  79.223  1.00  0.00     0.111 C 
BRANCH  10  11
ATOM     11  C   UNL     1      28.636  14.079  79.029  1.00  0.00     0.163 C 
ATOM     12  O   UNL     1      28.917  14.622  77.925  1.00  0.00    -0.294 OA
BRANCH  11  13
ATOM     13  C   UNL     1      29.707  13.951  80.072  1.00  0.00    -0.002 C 
ATOM     14  C   UNL     1      30.787  13.137  79.865  1.00  0.00    -0.069 C 
ATOM     15  C   UNL     1      31.992  13.155  80.778  1.00  0.00     0.039 C 
ATOM     16  C   UNL     1      30.812  12.132  78.736  1.00  0.00     0.039 C 
BRANCH  13  17
ATOM     17  C   UNL     1      29.644  14.887  81.275  1.00  0.00     0.066 CG0
ATOM     18  G   UNL     1      28.967  14.345  82.520  1.00  0.00     0.000 G0
ENDBRANCH  13  17
ENDBRANCH  11  13
ENDBRANCH  10  11
ENDBRANCH   1  10
TORSDOF 0
ENDMDL
MODEL 4
REMARK VINA RESULT:    -5.429      1.857      3.862
REMARK INTER + INTRA:          -7.720
REMARK INTER:                  -8.079
REMARK INTRA:                   0.359
REMARK UNBOUND:                -0.069
REMARK SMILES CC1=CCC(=C(C)C)C(=O)CC(C)=CCC1
REMARK SMILES IDX 12 1 14 2 13 3 15 4 16 5 2 6 1 7 3 8 11 10 9 11 10 12 5 13
REMARK SMILES IDX 6 14 7 15 8 16 4 17
REMARK H PARENT
REMARK Flexibility Score: 60.00
ROOT
ATOM      1  C   UNL     1      26.979  13.829  77.617  1.00  0.00    -0.070 C 
ATOM      2  C   UNL     1      26.065  14.779  77.922  1.00  0.00    -0.027 C 
ATOM      3  C   UNL     1      26.593  12.766  76.621  1.00  0.00     0.039 C 
ENDROOT
BRANCH   2   4
ATOM      4  C   UNL     1      26.230  15.822  78.997  1.00  0.00     0.032 C 
BRANCH   4   5
ATOM      5  C   UNL     1      26.108  15.169  80.379  1.00  0.00     0.034 C 
BRANCH   5   6
ATOM      6  C   UNL     1      27.101  15.733  81.376  1.00  0.00    -0.077 C 
ATOM      7  C   UNL     1      27.033  17.203  81.709  1.00  0.00     0.039 C 
ATOM      8  C   UNL     1      28.006  14.976  82.045  1.00  0.00    -0.023 CG0
ATOM      9  G   UNL     1      28.302  13.501  81.844  1.00  0.00     0.000 G0
ENDBRANCH   5   6
ENDBRANCH   4   5
ENDBRANCH   2   4
BRANCH   1  10
ATOM     10  C   UNL     1      28.374  13.794  78.208  1.00  0.00     0.111 C 
BRANCH  10  11
ATOM     11  C   UNL     1      28.473  12.824  79.360  1.00  0.00     0.163 C 
ATOM     12  O   UNL     1      27.947  11.689  79.202  1.00  0.00    -0.294 OA
BRANCH  11  13
ATOM     13  C   UNL     1      29.173  13.130  80.652  1.00  0.00    -0.002 C 
ATOM     14  C   UNL     1      30.537  13.234  80.698  1.00  0.00    -0.069 C 
ATOM     15  C   UNL     1      31.261  13.764  81.914  1.00  0.00     0.039 C 
ATOM     16  C   UNL     1      31.402  12.774  79.546  1.00  0.00     0.039 C 
BRANCH  13  17
ATOM     17  C   UNL     1      28.314  13.498  81.857  1.00  0.00     0.066 CG0
ATOM     18  G   UNL     1      27.996  14.971  82.037  1.00  0.00     0.000 G0
ENDBRANCH  13  17
ENDBRANCH  11  13
ENDBRANCH  10  11
ENDBRANCH   1  10
TORSDOF 0
ENDMDL
MODEL 5
REMARK VINA RESULT:    -5.427      2.273      4.902
REMARK INTER + INTRA:          -7.717
REMARK INTER:                  -7.773
REMARK INTRA:                   0.056
REMARK UNBOUND:                -0.069
REMARK SMILES CC1=CCC(=C(C)C)C(=O)CC(C)=CCC1
REMARK SMILES IDX 12 1 14 2 13 3 15 4 16 5 2 6 1 7 3 8 11 10 9 11 10 12 5 13
REMARK SMILES IDX 6 14 7 15 8 16 4 17
REMARK H PARENT
REMARK Flexibility Score: 60.00
ROOT
ATOM      1  C   UNL     1      30.190  14.016  80.768  1.00  0.00    -0.070 C 
ATOM      2  C   UNL     1      30.757  13.246  79.810  1.00  0.00    -0.027 C 
ATOM      3  C   UNL     1      31.020  14.374  81.973  1.00  0.00     0.039 C 
ENDROOT
BRANCH   2   4
ATOM      4  C   UNL     1      30.030  12.675  78.619  1.00  0.00     0.032 C 
BRANCH   4   5
ATOM      5  C   UNL     1      29.755  11.184  78.843  1.00  0.00     0.034 C 
BRANCH   5   6
ATOM      6  C   UNL     1      28.283  10.893  79.066  1.00  0.00    -0.077 C 
ATOM      7  C   UNL     1      27.414  10.610  77.866  1.00  0.00     0.039 C 
ATOM      8  C   UNL     1      27.715  10.799  80.294  1.00  0.00    -0.023 CG0
ATOM      9  G   UNL     1      28.362  11.093  81.635  1.00  0.00     0.000 G0
ENDBRANCH   5   6
ENDBRANCH   4   5
ENDBRANCH   2   4
BRANCH   1  10
ATOM     10  C   UNL     1      28.774  14.550  80.679  1.00  0.00     0.111 C 
BRANCH  10  11
ATOM     11  C   UNL     1      27.774  13.599  81.288  1.00  0.00     0.163 C 
ATOM     12  O   UNL     1      26.567  13.741  80.952  1.00  0.00    -0.294 OA
BRANCH  11  13
ATOM     13  C   UNL     1      28.141  12.497  82.239  1.00  0.00    -0.002 C 
ATOM     14  C   UNL     1      28.112  12.707  83.591  1.00  0.00    -0.069 C 
ATOM     15  C   UNL     1      28.246  11.572  84.581  1.00  0.00     0.039 C 
ATOM     16  C   UNL     1      27.994  14.098  84.172  1.00  0.00     0.039 C 
BRANCH  13  17
ATOM     17  C   UNL     1      28.365  11.103  81.662  1.00  0.00     0.066 CG0
ATOM     18  G   UNL     1      27.733  10.821  80.311  1.00  0.00     0.000 G0
ENDBRANCH  13  17
ENDBRANCH  11  13
ENDBRANCH  10  11
ENDBRANCH   1  10
TORSDOF 0
ENDMDL
MODEL 6
REMARK VINA RESULT:    -5.384      1.592      3.877
REMARK INTER + INTRA:          -7.657
REMARK INTER:                  -7.881
REMARK INTRA:                   0.225
REMARK UNBOUND:                -0.069
REMARK SMILES CC1=CCC(=C(C)C)C(=O)CC(C)=CCC1
REMARK SMILES IDX 12 1 14 2 13 3 15 4 16 5 2 6 1 7 3 8 11 10 9 11 10 12 5 13
REMARK SMILES IDX 6 14 7 15 8 16 4 17
REMARK H PARENT
REMARK Flexibility Score: 60.00
ROOT
ATOM      1  C   UNL     1      28.077  11.761  80.425  1.00  0.00    -0.070 C 
ATOM      2  C   UNL     1      27.863  12.131  79.141  1.00  0.00    -0.027 C 
ATOM      3  C   UNL     1      26.925  11.168  81.194  1.00  0.00     0.039 C 
ENDROOT
BRANCH   2   4
ATOM      4  C   UNL     1      28.855  12.869  78.279  1.00  0.00     0.032 C 
BRANCH   4   5
ATOM      5  C   UNL     1      28.747  14.377  78.536  1.00  0.00     0.034 C 
BRANCH   5   6
ATOM      6  C   UNL     1      27.366  14.786  79.010  1.00  0.00    -0.077 C 
ATOM      7  C   UNL     1      26.221  14.734  78.029  1.00  0.00     0.039 C 
ATOM      8  C   UNL     1      27.083  15.128  80.292  1.00  0.00    -0.023 CG0
ATOM      9  G   UNL     1      28.064  15.307  81.437  1.00  0.00     0.000 G0
ENDBRANCH   5   6
ENDBRANCH   4   5
ENDBRANCH   2   4
BRANCH   1  10
ATOM     10  C   UNL     1      29.419  11.892  81.118  1.00  0.00     0.111 C 
BRANCH  10  11
ATOM     11  C   UNL     1      29.574  13.231  81.797  1.00  0.00     0.163 C 
ATOM     12  O   UNL     1      30.748  13.660  81.961  1.00  0.00    -0.294 OA
BRANCH  11  13
ATOM     13  C   UNL     1      28.419  14.072  82.257  1.00  0.00    -0.002 C 
ATOM     14  C   UNL     1      27.814  13.825  83.459  1.00  0.00    -0.069 C 
ATOM     15  C   UNL     1      26.810  14.781  84.064  1.00  0.00     0.039 C 
ATOM     16  C   UNL     1      28.078  12.551  84.230  1.00  0.00     0.039 C 
BRANCH  13  17
ATOM     17  C   UNL     1      28.067  15.309  81.437  1.00  0.00     0.066 CG0
ATOM     18  G   UNL     1      27.071  15.112  80.309  1.00  0.00     0.000 G0
ENDBRANCH  13  17
ENDBRANCH  11  13
ENDBRANCH  10  11
ENDBRANCH   1  10
TORSDOF 0
ENDMDL
MODEL 7
REMARK VINA RESULT:    -5.341      2.123      5.050
REMARK INTER + INTRA:          -7.596
REMARK INTER:                  -7.858
REMARK INTRA:                   0.262
REMARK UNBOUND:                -0.069
REMARK SMILES CC1=CCC(=C(C)C)C(=O)CC(C)=CCC1
REMARK SMILES IDX 12 1 14 2 13 3 15 4 16 5 2 6 1 7 3 8 11 10 9 11 10 12 5 13
REMARK SMILES IDX 6 14 7 15 8 16 4 17
REMARK H PARENT
REMARK Flexibility Score: 60.00
ROOT
ATOM      1  C   UNL     1      27.319  14.432  78.433  1.00  0.00    -0.070 C 
ATOM      2  C   UNL     1      26.911  13.218  77.996  1.00  0.00    -0.027 C 
ATOM      3  C   UNL     1      26.352  15.583  78.335  1.00  0.00     0.039 C 
ENDROOT
BRANCH   2   4
ATOM      4  C   UNL     1      27.792  12.000  77.885  1.00  0.00     0.032 C 
BRANCH   4   5
ATOM      5  C   UNL     1      27.420  10.988  78.975  1.00  0.00     0.034 C 
BRANCH   5   6
ATOM      6  C   UNL     1      28.385  11.015  80.144  1.00  0.00    -0.077 C 
ATOM      7  C   UNL     1      29.588  10.105  80.108  1.00  0.00     0.039 C 
ATOM      8  C   UNL     1      28.270  11.867  81.193  1.00  0.00    -0.023 CG0
ATOM      9  G   UNL     1      27.130  12.827  81.481  1.00  0.00     0.000 G0
ENDBRANCH   5   6
ENDBRANCH   4   5
ENDBRANCH   2   4
BRANCH   1  10
ATOM     10  C   UNL     1      28.688  14.685  79.034  1.00  0.00     0.111 C 
BRANCH  10  11
ATOM     11  C   UNL     1      28.643  14.718  80.542  1.00  0.00     0.163 C 
ATOM     12  O   UNL     1      29.677  15.125  81.139  1.00  0.00    -0.294 OA
BRANCH  11  13
ATOM     13  C   UNL     1      27.443  14.319  81.351  1.00  0.00    -0.002 C 
ATOM     14  C   UNL     1      26.568  15.264  81.811  1.00  0.00    -0.069 C 
ATOM     15  C   UNL     1      25.236  14.894  82.423  1.00  0.00     0.039 C 
ATOM     16  C   UNL     1      26.908  16.737  81.778  1.00  0.00     0.039 C 
BRANCH  13  17
ATOM     17  C   UNL     1      27.137  12.830  81.483  1.00  0.00     0.066 CG0
ATOM     18  G   UNL     1      28.281  11.876  81.191  1.00  0.00     0.000 G0
ENDBRANCH  13  17
ENDBRANCH  11  13
ENDBRANCH  10  11
ENDBRANCH   1  10
TORSDOF 0
ENDMDL
MODEL 8
REMARK VINA RESULT:    -5.318      2.073      4.785
REMARK INTER + INTRA:          -7.563
REMARK INTER:                  -7.863
REMARK INTRA:                   0.301
REMARK UNBOUND:                -0.069
REMARK SMILES CC1=CCC(=C(C)C)C(=O)CC(C)=CCC1
REMARK SMILES IDX 12 1 14 2 13 3 15 4 16 5 2 6 1 7 3 8 11 10 9 11 10 12 5 13
REMARK SMILES IDX 6 14 7 15 8 16 4 17
REMARK H PARENT
REMARK Flexibility Score: 60.00
ROOT
ATOM      1  C   UNL     1      27.299  14.300  79.326  1.00  0.00    -0.070 C 
ATOM      2  C   UNL     1      27.018  12.979  79.411  1.00  0.00    -0.027 C 
ATOM      3  C   UNL     1      26.546  15.123  78.313  1.00  0.00     0.039 C 
ENDROOT
BRANCH   2   4
ATOM      4  C   UNL     1      27.773  11.989  80.259  1.00  0.00     0.032 C 
BRANCH   4   5
ATOM      5  C   UNL     1      26.990  11.703  81.546  1.00  0.00     0.034 C 
BRANCH   5   6
ATOM      6  C   UNL     1      27.556  12.440  82.744  1.00  0.00    -0.077 C 
ATOM      7  C   UNL     1      28.716  11.826  83.487  1.00  0.00     0.039 C 
ATOM      8  C   UNL     1      27.125  13.662  83.146  1.00  0.00    -0.023 CG0
ATOM      9  G   UNL     1      25.948  14.450  82.600  1.00  0.00     0.000 G0
ENDBRANCH   5   6
ENDBRANCH   4   5
ENDBRANCH   2   4
BRANCH   1  10
ATOM     10  C   UNL     1      28.315  14.995  80.212  1.00  0.00     0.111 C 
BRANCH  10  11
ATOM     11  C   UNL     1      27.652  15.850  81.264  1.00  0.00     0.163 C 
ATOM     12  O   UNL     1      28.336  16.788  81.756  1.00  0.00    -0.294 OA
BRANCH  11  13
ATOM     13  C   UNL     1      26.238  15.656  81.729  1.00  0.00    -0.002 C 
ATOM     14  C   UNL     1      25.232  16.448  81.247  1.00  0.00    -0.069 C 
ATOM     15  C   UNL     1      23.775  16.140  81.507  1.00  0.00     0.039 C 
ATOM     16  C   UNL     1      25.525  17.709  80.466  1.00  0.00     0.039 C 
BRANCH  13  17
ATOM     17  C   UNL     1      25.937  14.443  82.605  1.00  0.00     0.066 CG0
ATOM     18  G   UNL     1      27.135  13.682  83.142  1.00  0.00     0.000 G0
ENDBRANCH  13  17
ENDBRANCH  11  13
ENDBRANCH  10  11
ENDBRANCH   1  10
TORSDOF 0
ENDMDL
MODEL 9
REMARK VINA RESULT:    -5.172      1.948      4.993
REMARK INTER + INTRA:          -7.357
REMARK INTER:                  -7.382
REMARK INTRA:                   0.025
REMARK UNBOUND:                -0.069
REMARK SMILES CC1=CCC(=C(C)C)C(=O)CC(C)=CCC1
REMARK SMILES IDX 12 1 14 2 13 3 15 4 16 5 2 6 1 7 3 8 11 10 9 11 10 12 5 13
REMARK SMILES IDX 6 14 7 15 8 16 4 17
REMARK H PARENT
REMARK Flexibility Score: 60.00
ROOT
ATOM      1  C   UNL     1      26.724  15.578  80.132  1.00  0.00    -0.070 C 
ATOM      2  C   UNL     1      26.969  15.121  78.882  1.00  0.00    -0.027 C 
ATOM      3  C   UNL     1      25.630  16.599  80.313  1.00  0.00     0.039 C 
ENDROOT
BRANCH   2   4
ATOM      4  C   UNL     1      28.113  14.216  78.503  1.00  0.00     0.032 C 
BRANCH   4   5
ATOM      5  C   UNL     1      27.748  12.759  78.808  1.00  0.00     0.034 C 
BRANCH   5   6
ATOM      6  C   UNL     1      28.888  11.999  79.457  1.00  0.00    -0.077 C 
ATOM      7  C   UNL     1      30.175  11.833  78.687  1.00  0.00     0.039 C 
ATOM      8  C   UNL     1      28.846  11.521  80.725  1.00  0.00    -0.023 CG0
ATOM      9  G   UNL     1      27.658  11.515  81.669  1.00  0.00     0.000 G0
ENDBRANCH   5   6
ENDBRANCH   4   5
ENDBRANCH   2   4
BRANCH   1  10
ATOM     10  C   UNL     1      27.479  15.101  81.357  1.00  0.00     0.111 C 
BRANCH  10  11
ATOM     11  C   UNL     1      26.790  13.935  82.023  1.00  0.00     0.163 C 
ATOM     12  O   UNL     1      25.531  13.977  82.099  1.00  0.00    -0.294 OA
BRANCH  11  13
ATOM     13  C   UNL     1      27.513  12.739  82.571  1.00  0.00    -0.002 C 
ATOM     14  C   UNL     1      27.881  12.690  83.888  1.00  0.00    -0.069 C 
ATOM     15  C   UNL     1      28.398  11.423  84.530  1.00  0.00     0.039 C 
ATOM     16  C   UNL     1      27.838  13.921  84.766  1.00  0.00     0.039 C 
BRANCH  13  17
ATOM     17  C   UNL     1      27.659  11.520  81.666  1.00  0.00     0.066 CG0
ATOM     18  G   UNL     1      28.850  11.513  80.726  1.00  0.00     0.000 G0
ENDBRANCH  13  17
ENDBRANCH  11  13
ENDBRANCH  10  11
ENDBRANCH   1  10
TORSDOF 0
ENDMDL
