MODEL 1
REMARK VINA RESULT:    -7.094      0.000      0.000
REMARK INTER + INTRA:          -7.189
REMARK INTER:                  -7.716
REMARK INTRA:                   0.527
REMARK UNBOUND:                 0.527
REMARK SMILES C[C@H]1[C@H]2C3=CC[C@H]4[C@@]5(C)CC[C@H](O)C(C)(C)[C@H]5CC[C@@]4(C)[C@@]3(C)CC[C@]2(C(=O)[O-])CC[C@@H]1C
REMARK SMILES IDX 26 1 30 2 25 3 3 4 31 5 24 6 4 7 2 8 32 9 22 10 5 11 1 12
REMARK SMILES IDX 33 13 23 14 20 15 6 16 7 17 19 18 21 19 8 20 18 21 17 22
REMARK SMILES IDX 10 23 9 24 14 25 11 26 12 27 15 28 16 29 27 30 28 31 29 32
REMARK SMILES IDX 13 33
REMARK H PARENT 13 34
REMARK Flexibility Score: inf
ROOT
ATOM      1  C   UNL     1      14.283 -29.261  20.389  1.00  0.00     0.017 C 
ATOM      2  C   UNL     1      15.487 -30.203  20.078  1.00  0.00     0.014 C 
ATOM      3  C   UNL     1      14.030 -29.170  21.944  1.00  0.00     0.014 C 
ATOM      4  C   UNL     1      14.673 -27.855  19.822  1.00  0.00     0.030 C 
ATOM      5  C   UNL     1      15.841 -30.231  18.572  1.00  0.00     0.004 C 
ATOM      6  C   UNL     1      14.700 -27.961  22.648  1.00  0.00     0.013 C 
ATOM      7  C   UNL     1      13.940 -26.738  20.570  1.00  0.00    -0.063 C 
ATOM      8  C   UNL     1      15.009 -27.789  18.293  1.00  0.00    -0.003 C 
ATOM      9  C   UNL     1      16.133 -28.833  17.961  1.00  0.00    -0.011 C 
ATOM     10  C   UNL     1      14.402 -26.507  22.031  1.00  0.00    -0.006 C 
ATOM     11  C   UNL     1      12.677 -26.479  20.225  1.00  0.00    -0.027 C 
ATOM     12  C   UNL     1      13.846 -27.969  17.297  1.00  0.00     0.008 C 
ATOM     13  C   UNL     1      17.539 -28.333  18.343  1.00  0.00     0.008 C 
ATOM     14  C   UNL     1      15.818 -25.820  21.967  1.00  0.00     0.017 C 
ATOM     15  C   UNL     1      13.369 -25.505  22.871  1.00  0.00    -0.020 C 
ATOM     16  C   UNL     1      11.604 -26.507  21.258  1.00  0.00     0.032 C 
ATOM     17  C   UNL     1      11.846 -25.475  22.348  1.00  0.00     0.006 C 
ATOM     18  C   UNL     1      13.395 -25.830  24.395  1.00  0.00     0.008 C 
ATOM     19  C   UNL     1      13.856 -24.015  22.740  1.00  0.00     0.012 C 
ATOM     20  C   UNL     1      10.684 -25.398  23.470  1.00  0.00    -0.025 C 
ATOM     21  C   UNL     1      12.361 -26.896  24.774  1.00  0.00     0.005 C 
ATOM     22  C   UNL     1      10.905 -26.374  24.709  1.00  0.00     0.003 C 
ATOM     23  C   UNL     1       9.275 -25.638  22.839  1.00  0.00     0.010 C 
ATOM     24  C   UNL     1      10.661 -23.920  24.001  1.00  0.00     0.012 C 
ATOM     25  C   UNL     1       9.823 -27.537  24.958  1.00  0.00    -0.006 C 
ATOM     26  C   UNL     1       8.168 -25.764  23.884  1.00  0.00     0.033 C 
ATOM     27  C   UNL     1       8.322 -27.081  24.665  1.00  0.00     0.120 C 
ATOM     28  C   UNL     1      10.106 -28.801  24.088  1.00  0.00     0.014 C 
ATOM     29  C   UNL     1       9.938 -28.016  26.434  1.00  0.00     0.014 C 
ENDROOT
BRANCH   1  30
ATOM     30  C   UNL     1      13.014 -29.847  19.773  1.00  0.00     0.048 C 
ATOM     31  O   UNL     1      11.877 -29.558  20.226  1.00  0.00    -0.550 OA
ATOM     32  O   UNL     1      13.087 -30.766  18.726  1.00  0.00    -0.550 OA
ENDBRANCH   1  30
BRANCH  27  33
ATOM     33  O   UNL     1       7.503 -27.070  25.819  1.00  0.00    -0.393 OA
ATOM     34  H   UNL     1       6.969 -27.911  25.828  1.00  0.00     0.210 HD
ENDBRANCH  27  33
TORSDOF 2
ENDMDL
MODEL 2
REMARK VINA RESULT:    -6.742      2.315      4.367
REMARK INTER + INTRA:          -6.806
REMARK INTER:                  -7.332
REMARK INTRA:                   0.526
REMARK UNBOUND:                 0.527
REMARK SMILES C[C@H]1[C@H]2C3=CC[C@H]4[C@@]5(C)CC[C@H](O)C(C)(C)[C@H]5CC[C@@]4(C)[C@@]3(C)CC[C@]2(C(=O)[O-])CC[C@@H]1C
REMARK SMILES IDX 26 1 30 2 25 3 3 4 31 5 24 6 4 7 2 8 32 9 22 10 5 11 1 12
REMARK SMILES IDX 33 13 23 14 20 15 6 16 7 17 19 18 21 19 8 20 18 21 17 22
REMARK SMILES IDX 10 23 9 24 14 25 11 26 12 27 15 28 16 29 27 30 28 31 29 32
REMARK SMILES IDX 13 33
REMARK H PARENT 13 34
REMARK Flexibility Score: inf
ROOT
ATOM      1  C   UNL     1      14.326 -28.465  19.477  1.00  0.00     0.017 C 
ATOM      2  C   UNL     1      15.106 -29.004  18.238  1.00  0.00     0.014 C 
ATOM      3  C   UNL     1      13.095 -27.587  19.024  1.00  0.00     0.014 C 
ATOM      4  C   UNL     1      13.831 -29.727  20.262  1.00  0.00     0.030 C 
ATOM      5  C   UNL     1      16.254 -29.963  18.636  1.00  0.00     0.004 C 
ATOM      6  C   UNL     1      11.742 -28.344  18.947  1.00  0.00     0.013 C 
ATOM      7  C   UNL     1      12.579 -29.406  21.084  1.00  0.00    -0.063 C 
ATOM      8  C   UNL     1      14.936 -30.730  20.735  1.00  0.00    -0.003 C 
ATOM      9  C   UNL     1      15.803 -31.170  19.503  1.00  0.00    -0.011 C 
ATOM     10  C   UNL     1      11.291 -29.158  20.257  1.00  0.00    -0.006 C 
ATOM     11  C   UNL     1      12.742 -28.792  22.257  1.00  0.00    -0.027 C 
ATOM     12  C   UNL     1      15.873 -30.278  21.872  1.00  0.00     0.008 C 
ATOM     13  C   UNL     1      15.114 -32.251  18.649  1.00  0.00     0.008 C 
ATOM     14  C   UNL     1      10.823 -30.554  19.699  1.00  0.00     0.017 C 
ATOM     15  C   UNL     1      10.059 -28.520  21.181  1.00  0.00    -0.020 C 
ATOM     16  C   UNL     1      12.029 -27.513  22.532  1.00  0.00     0.032 C 
ATOM     17  C   UNL     1      10.519 -27.689  22.481  1.00  0.00     0.006 C 
ATOM     18  C   UNL     1       9.105 -27.647  20.310  1.00  0.00     0.008 C 
ATOM     19  C   UNL     1       9.173 -29.685  21.755  1.00  0.00     0.012 C 
ATOM     20  C   UNL     1       9.676 -26.357  22.839  1.00  0.00    -0.025 C 
ATOM     21  C   UNL     1       9.559 -26.185  20.248  1.00  0.00     0.005 C 
ATOM     22  C   UNL     1       9.349 -25.432  21.584  1.00  0.00     0.003 C 
ATOM     23  C   UNL     1      10.387 -25.523  23.953  1.00  0.00     0.010 C 
ATOM     24  C   UNL     1       8.319 -26.833  23.471  1.00  0.00     0.012 C 
ATOM     25  C   UNL     1       9.966 -23.947  21.558  1.00  0.00    -0.006 C 
ATOM     26  C   UNL     1       9.729 -24.164  24.190  1.00  0.00     0.033 C 
ATOM     27  C   UNL     1       9.975 -23.238  22.987  1.00  0.00     0.120 C 
ATOM     28  C   UNL     1      11.429 -23.928  21.017  1.00  0.00     0.014 C 
ATOM     29  C   UNL     1       9.143 -23.085  20.558  1.00  0.00     0.014 C 
ENDROOT
BRANCH   1  30
ATOM     30  C   UNL     1      15.240 -27.550  20.289  1.00  0.00     0.048 C 
ATOM     31  O   UNL     1      14.771 -26.622  20.997  1.00  0.00    -0.550 OA
ATOM     32  O   UNL     1      16.627 -27.683  20.220  1.00  0.00    -0.550 OA
ENDBRANCH   1  30
BRANCH  27  33
ATOM     33  O   UNL     1       9.131 -22.103  23.056  1.00  0.00    -0.393 OA
ATOM     34  H   UNL     1       8.492 -22.146  22.294  1.00  0.00     0.210 HD
ENDBRANCH  27  33
TORSDOF 2
ENDMDL
MODEL 3
REMARK VINA RESULT:    -6.608      2.086      7.197
REMARK INTER + INTRA:          -6.661
REMARK INTER:                  -7.203
REMARK INTRA:                   0.542
REMARK UNBOUND:                 0.527
REMARK SMILES C[C@H]1[C@H]2C3=CC[C@H]4[C@@]5(C)CC[C@H](O)C(C)(C)[C@H]5CC[C@@]4(C)[C@@]3(C)CC[C@]2(C(=O)[O-])CC[C@@H]1C
REMARK SMILES IDX 26 1 30 2 25 3 3 4 31 5 24 6 4 7 2 8 32 9 22 10 5 11 1 12
REMARK SMILES IDX 33 13 23 14 20 15 6 16 7 17 19 18 21 19 8 20 18 21 17 22
REMARK SMILES IDX 10 23 9 24 14 25 11 26 12 27 15 28 16 29 27 30 28 31 29 32
REMARK SMILES IDX 13 33
REMARK H PARENT 13 34
REMARK Flexibility Score: inf
ROOT
ATOM      1  C   UNL     1      10.321 -24.617  21.360  1.00  0.00     0.017 C 
ATOM      2  C   UNL     1       9.846 -23.153  21.611  1.00  0.00     0.014 C 
ATOM      3  C   UNL     1      11.820 -24.643  20.869  1.00  0.00     0.014 C 
ATOM      4  C   UNL     1      10.190 -25.358  22.734  1.00  0.00     0.030 C 
ATOM      5  C   UNL     1       8.417 -23.089  22.203  1.00  0.00     0.004 C 
ATOM      6  C   UNL     1      12.873 -24.869  21.986  1.00  0.00     0.013 C 
ATOM      7  C   UNL     1      11.164 -26.536  22.818  1.00  0.00    -0.063 C 
ATOM      8  C   UNL     1       8.764 -25.374  23.383  1.00  0.00    -0.003 C 
ATOM      9  C   UNL     1       8.235 -23.902  23.514  1.00  0.00    -0.011 C 
ATOM     10  C   UNL     1      12.661 -26.149  22.934  1.00  0.00    -0.006 C 
ATOM     11  C   UNL     1      10.820 -27.677  22.218  1.00  0.00    -0.027 C 
ATOM     12  C   UNL     1       7.681 -26.239  22.710  1.00  0.00     0.008 C 
ATOM     13  C   UNL     1       8.834 -23.162  24.724  1.00  0.00     0.008 C 
ATOM     14  C   UNL     1      12.883 -25.590  24.389  1.00  0.00     0.017 C 
ATOM     15  C   UNL     1      13.672 -27.455  22.712  1.00  0.00    -0.020 C 
ATOM     16  C   UNL     1      11.730 -28.293  21.212  1.00  0.00     0.032 C 
ATOM     17  C   UNL     1      13.076 -28.656  21.820  1.00  0.00     0.006 C 
ATOM     18  C   UNL     1      15.046 -27.003  22.132  1.00  0.00     0.008 C 
ATOM     19  C   UNL     1      13.988 -28.120  24.101  1.00  0.00     0.012 C 
ATOM     20  C   UNL     1      14.093 -29.395  20.804  1.00  0.00    -0.025 C 
ATOM     21  C   UNL     1      15.046 -26.985  20.599  1.00  0.00     0.005 C 
ATOM     22  C   UNL     1      15.029 -28.404  19.980  1.00  0.00     0.003 C 
ATOM     23  C   UNL     1      13.327 -30.347  19.832  1.00  0.00     0.010 C 
ATOM     24  C   UNL     1      15.008 -30.329  21.675  1.00  0.00     0.012 C 
ATOM     25  C   UNL     1      14.874 -28.375  18.379  1.00  0.00    -0.006 C 
ATOM     26  C   UNL     1      14.220 -30.920  18.733  1.00  0.00     0.033 C 
ATOM     27  C   UNL     1      14.617 -29.814  17.741  1.00  0.00     0.120 C 
ATOM     28  C   UNL     1      13.712 -27.443  17.916  1.00  0.00     0.014 C 
ATOM     29  C   UNL     1      16.167 -27.761  17.767  1.00  0.00     0.014 C 
ENDROOT
BRANCH   1  30
ATOM     30  C   UNL     1       9.483 -25.233  20.241  1.00  0.00     0.048 C 
ATOM     31  O   UNL     1       9.867 -26.265  19.633  1.00  0.00    -0.550 OA
ATOM     32  O   UNL     1       8.295 -24.633  19.826  1.00  0.00    -0.550 OA
ENDBRANCH   1  30
BRANCH  27  33
ATOM     33  O   UNL     1      15.672 -30.254  16.905  1.00  0.00    -0.393 OA
ATOM     34  H   UNL     1      16.099 -31.044  17.335  1.00  0.00     0.210 HD
ENDBRANCH  27  33
TORSDOF 2
ENDMDL
MODEL 4
REMARK VINA RESULT:    -6.588      2.272      3.332
REMARK INTER + INTRA:          -6.639
REMARK INTER:                  -7.170
REMARK INTRA:                   0.531
REMARK UNBOUND:                 0.527
REMARK SMILES C[C@H]1[C@H]2C3=CC[C@H]4[C@@]5(C)CC[C@H](O)C(C)(C)[C@H]5CC[C@@]4(C)[C@@]3(C)CC[C@]2(C(=O)[O-])CC[C@@H]1C
REMARK SMILES IDX 26 1 30 2 25 3 3 4 31 5 24 6 4 7 2 8 32 9 22 10 5 11 1 12
REMARK SMILES IDX 33 13 23 14 20 15 6 16 7 17 19 18 21 19 8 20 18 21 17 22
REMARK SMILES IDX 10 23 9 24 14 25 11 26 12 27 15 28 16 29 27 30 28 31 29 32
REMARK SMILES IDX 13 33
REMARK H PARENT 13 34
REMARK Flexibility Score: inf
ROOT
ATOM      1  C   UNL     1      10.422 -29.828  19.969  1.00  0.00     0.017 C 
ATOM      2  C   UNL     1      10.249 -31.341  19.633  1.00  0.00     0.014 C 
ATOM      3  C   UNL     1      10.409 -29.595  21.529  1.00  0.00     0.014 C 
ATOM      4  C   UNL     1      11.807 -29.406  19.371  1.00  0.00     0.030 C 
ATOM      5  C   UNL     1      10.370 -31.627  18.117  1.00  0.00     0.004 C 
ATOM      6  C   UNL     1      11.809 -29.539  22.197  1.00  0.00     0.013 C 
ATOM      7  C   UNL     1      12.389 -28.208  20.127  1.00  0.00    -0.063 C 
ATOM      8  C   UNL     1      11.998 -29.626  17.832  1.00  0.00    -0.003 C 
ATOM      9  C   UNL     1      11.695 -31.126  17.479  1.00  0.00    -0.011 C 
ATOM     10  C   UNL     1      12.870 -28.507  21.570  1.00  0.00    -0.006 C 
ATOM     11  C   UNL     1      11.934 -26.992  19.819  1.00  0.00    -0.027 C 
ATOM     12  C   UNL     1      11.204 -28.715  16.875  1.00  0.00     0.008 C 
ATOM     13  C   UNL     1      12.871 -32.062  17.811  1.00  0.00     0.008 C 
ATOM     14  C   UNL     1      14.197 -29.345  21.453  1.00  0.00     0.017 C 
ATOM     15  C   UNL     1      13.199 -27.117  22.428  1.00  0.00    -0.020 C 
ATOM     16  C   UNL     1      11.372 -26.116  20.885  1.00  0.00     0.032 C 
ATOM     17  C   UNL     1      12.407 -25.798  21.953  1.00  0.00     0.006 C 
ATOM     18  C   UNL     1      12.978 -27.341  23.955  1.00  0.00     0.008 C 
ATOM     19  C   UNL     1      14.717 -26.742  22.263  1.00  0.00     0.012 C 
ATOM     20  C   UNL     1      11.890 -24.793  23.109  1.00  0.00    -0.025 C 
ATOM     21  C   UNL     1      11.538 -27.033  24.380  1.00  0.00     0.005 C 
ATOM     22  C   UNL     1      11.212 -25.520  24.353  1.00  0.00     0.003 C 
ATOM     23  C   UNL     1      10.926 -23.711  22.526  1.00  0.00     0.010 C 
ATOM     24  C   UNL     1      13.148 -24.003  23.622  1.00  0.00     0.012 C 
ATOM     25  C   UNL     1       9.661 -25.219  24.651  1.00  0.00    -0.006 C 
ATOM     26  C   UNL     1      10.264 -22.858  23.607  1.00  0.00     0.033 C 
ATOM     27  C   UNL     1       9.249 -23.699  24.399  1.00  0.00     0.120 C 
ATOM     28  C   UNL     1       8.713 -26.110  23.790  1.00  0.00     0.014 C 
ATOM     29  C   UNL     1       9.356 -25.599  26.130  1.00  0.00     0.014 C 
ENDROOT
BRANCH   1  30
ATOM     30  C   UNL     1       9.238 -29.048  19.400  1.00  0.00     0.048 C 
ATOM     31  O   UNL     1       8.881 -27.950  19.900  1.00  0.00    -0.550 OA
ATOM     32  O   UNL     1       8.485 -29.562  18.345  1.00  0.00    -0.550 OA
ENDBRANCH   1  30
BRANCH  27  33
ATOM     33  O   UNL     1       8.858 -23.020  25.578  1.00  0.00    -0.393 OA
ATOM     34  H   UNL     1       9.409 -23.366  26.332  1.00  0.00     0.210 HD
ENDBRANCH  27  33
TORSDOF 2
ENDMDL
MODEL 5
REMARK VINA RESULT:    -6.469      2.378      7.170
REMARK INTER + INTRA:          -6.509
REMARK INTER:                  -7.049
REMARK INTRA:                   0.541
REMARK UNBOUND:                 0.527
REMARK SMILES C[C@H]1[C@H]2C3=CC[C@H]4[C@@]5(C)CC[C@H](O)C(C)(C)[C@H]5CC[C@@]4(C)[C@@]3(C)CC[C@]2(C(=O)[O-])CC[C@@H]1C
REMARK SMILES IDX 26 1 30 2 25 3 3 4 31 5 24 6 4 7 2 8 32 9 22 10 5 11 1 12
REMARK SMILES IDX 33 13 23 14 20 15 6 16 7 17 19 18 21 19 8 20 18 21 17 22
REMARK SMILES IDX 10 23 9 24 14 25 11 26 12 27 15 28 16 29 27 30 28 31 29 32
REMARK SMILES IDX 13 33
REMARK H PARENT 13 34
REMARK Flexibility Score: inf
ROOT
ATOM      1  C   UNL     1      10.971 -24.190  22.624  1.00  0.00     0.017 C 
ATOM      2  C   UNL     1      11.084 -22.979  23.601  1.00  0.00     0.014 C 
ATOM      3  C   UNL     1      11.882 -25.385  23.106  1.00  0.00     0.014 C 
ATOM      4  C   UNL     1       9.465 -24.620  22.635  1.00  0.00     0.030 C 
ATOM      5  C   UNL     1      10.119 -21.828  23.227  1.00  0.00     0.004 C 
ATOM      6  C   UNL     1      11.157 -26.460  23.958  1.00  0.00     0.013 C 
ATOM      7  C   UNL     1       9.313 -26.098  22.266  1.00  0.00    -0.063 C 
ATOM      8  C   UNL     1       8.425 -23.521  22.229  1.00  0.00    -0.003 C 
ATOM      9  C   UNL     1       8.628 -22.252  23.132  1.00  0.00    -0.011 C 
ATOM     10  C   UNL     1       9.822 -27.101  23.333  1.00  0.00    -0.006 C 
ATOM     11  C   UNL     1       9.353 -26.428  20.974  1.00  0.00    -0.027 C 
ATOM     12  C   UNL     1       8.384 -23.085  20.752  1.00  0.00     0.008 C 
ATOM     13  C   UNL     1       7.996 -22.409  24.527  1.00  0.00     0.008 C 
ATOM     14  C   UNL     1       8.791 -27.075  24.523  1.00  0.00     0.017 C 
ATOM     15  C   UNL     1       9.910 -28.658  22.747  1.00  0.00    -0.020 C 
ATOM     16  C   UNL     1      10.333 -27.443  20.496  1.00  0.00     0.032 C 
ATOM     17  C   UNL     1      10.108 -28.795  21.154  1.00  0.00     0.006 C 
ATOM     18  C   UNL     1      11.018 -29.469  23.485  1.00  0.00     0.008 C 
ATOM     19  C   UNL     1       8.560 -29.409  23.039  1.00  0.00     0.012 C 
ATOM     20  C   UNL     1      11.090 -29.968  20.632  1.00  0.00    -0.025 C 
ATOM     21  C   UNL     1      12.382 -29.337  22.798  1.00  0.00     0.005 C 
ATOM     22  C   UNL     1      12.452 -30.092  21.448  1.00  0.00     0.003 C 
ATOM     23  C   UNL     1      11.387 -29.817  19.106  1.00  0.00     0.010 C 
ATOM     24  C   UNL     1      10.302 -31.320  20.775  1.00  0.00     0.012 C 
ATOM     25  C   UNL     1      13.830 -29.823  20.664  1.00  0.00    -0.006 C 
ATOM     26  C   UNL     1      12.459 -30.786  18.609  1.00  0.00     0.033 C 
ATOM     27  C   UNL     1      13.834 -30.392  19.174  1.00  0.00     0.120 C 
ATOM     28  C   UNL     1      14.176 -28.303  20.585  1.00  0.00     0.014 C 
ATOM     29  C   UNL     1      14.995 -30.471  21.468  1.00  0.00     0.014 C 
ENDROOT
BRANCH   1  30
ATOM     30  C   UNL     1      11.487 -23.775  21.247  1.00  0.00     0.048 C 
ATOM     31  O   UNL     1      11.792 -24.634  20.380  1.00  0.00    -0.550 OA
ATOM     32  O   UNL     1      11.688 -22.430  20.936  1.00  0.00    -0.550 OA
ENDBRANCH   1  30
BRANCH  27  33
ATOM     33  O   UNL     1      14.768 -31.437  18.974  1.00  0.00    -0.393 OA
ATOM     34  H   UNL     1      15.562 -31.059  18.507  1.00  0.00     0.210 HD
ENDBRANCH  27  33
TORSDOF 2
ENDMDL
MODEL 6
REMARK VINA RESULT:    -6.256      1.552      7.178
REMARK INTER + INTRA:          -6.277
REMARK INTER:                  -6.804
REMARK INTRA:                   0.527
REMARK UNBOUND:                 0.527
REMARK SMILES C[C@H]1[C@H]2C3=CC[C@H]4[C@@]5(C)CC[C@H](O)C(C)(C)[C@H]5CC[C@@]4(C)[C@@]3(C)CC[C@]2(C(=O)[O-])CC[C@@H]1C
REMARK SMILES IDX 26 1 30 2 25 3 3 4 31 5 24 6 4 7 2 8 32 9 22 10 5 11 1 12
REMARK SMILES IDX 33 13 23 14 20 15 6 16 7 17 19 18 21 19 8 20 18 21 17 22
REMARK SMILES IDX 10 23 9 24 14 25 11 26 12 27 15 28 16 29 27 30 28 31 29 32
REMARK SMILES IDX 13 33
REMARK H PARENT 13 34
REMARK Flexibility Score: inf
ROOT
ATOM      1  C   UNL     1      10.038 -27.507  22.946  1.00  0.00     0.017 C 
ATOM      2  C   UNL     1       8.720 -26.690  23.115  1.00  0.00     0.014 C 
ATOM      3  C   UNL     1      10.536 -27.462  21.449  1.00  0.00     0.014 C 
ATOM      4  C   UNL     1      11.092 -26.833  23.887  1.00  0.00     0.030 C 
ATOM      5  C   UNL     1       8.258 -26.614  24.591  1.00  0.00     0.004 C 
ATOM      6  C   UNL     1      11.593 -26.368  21.142  1.00  0.00     0.013 C 
ATOM      7  C   UNL     1      12.517 -27.084  23.385  1.00  0.00    -0.063 C 
ATOM      8  C   UNL     1      10.718 -26.752  25.406  1.00  0.00    -0.003 C 
ATOM      9  C   UNL     1       9.326 -26.042  25.563  1.00  0.00    -0.011 C 
ATOM     10  C   UNL     1      12.898 -26.339  22.080  1.00  0.00    -0.006 C 
ATOM     11  C   UNL     1      13.081 -28.260  23.666  1.00  0.00    -0.027 C 
ATOM     12  C   UNL     1      10.705 -28.066  26.211  1.00  0.00     0.008 C 
ATOM     13  C   UNL     1       9.426 -24.510  25.453  1.00  0.00     0.008 C 
ATOM     14  C   UNL     1      13.071 -24.817  22.449  1.00  0.00     0.017 C 
ATOM     15  C   UNL     1      14.331 -26.889  21.433  1.00  0.00    -0.020 C 
ATOM     16  C   UNL     1      13.616 -29.109  22.565  1.00  0.00     0.032 C 
ATOM     17  C   UNL     1      14.728 -28.406  21.802  1.00  0.00     0.006 C 
ATOM     18  C   UNL     1      14.350 -26.704  19.885  1.00  0.00     0.008 C 
ATOM     19  C   UNL     1      15.526 -26.028  21.984  1.00  0.00     0.012 C 
ATOM     20  C   UNL     1      15.407 -29.294  20.635  1.00  0.00    -0.025 C 
ATOM     21  C   UNL     1      13.773 -27.921  19.153  1.00  0.00     0.005 C 
ATOM     22  C   UNL     1      14.702 -29.157  19.214  1.00  0.00     0.003 C 
ATOM     23  C   UNL     1      15.496 -30.798  21.050  1.00  0.00     0.010 C 
ATOM     24  C   UNL     1      16.895 -28.807  20.499  1.00  0.00     0.012 C 
ATOM     25  C   UNL     1      14.023 -30.469  18.577  1.00  0.00    -0.006 C 
ATOM     26  C   UNL     1      15.954 -31.705  19.910  1.00  0.00     0.033 C 
ATOM     27  C   UNL     1      14.856 -31.804  18.836  1.00  0.00     0.120 C 
ATOM     28  C   UNL     1      12.579 -30.706  19.117  1.00  0.00     0.014 C 
ATOM     29  C   UNL     1      13.862 -30.250  17.044  1.00  0.00     0.014 C 
ENDROOT
BRANCH   1  30
ATOM     30  C   UNL     1       9.765 -28.975  23.271  1.00  0.00     0.048 C 
ATOM     31  O   UNL     1      10.488 -29.891  22.803  1.00  0.00    -0.550 OA
ATOM     32  O   UNL     1       8.669 -29.341  24.052  1.00  0.00    -0.550 OA
ENDBRANCH   1  30
BRANCH  27  33
ATOM     33  O   UNL     1      15.373 -32.383  17.653  1.00  0.00    -0.393 OA
ATOM     34  H   UNL     1      16.108 -31.800  17.318  1.00  0.00     0.210 HD
ENDBRANCH  27  33
TORSDOF 2
ENDMDL
MODEL 7
REMARK VINA RESULT:    -6.235      2.028      4.178
REMARK INTER + INTRA:          -6.254
REMARK INTER:                  -6.966
REMARK INTRA:                   0.711
REMARK UNBOUND:                 0.527
REMARK SMILES C[C@H]1[C@H]2C3=CC[C@H]4[C@@]5(C)CC[C@H](O)C(C)(C)[C@H]5CC[C@@]4(C)[C@@]3(C)CC[C@]2(C(=O)[O-])CC[C@@H]1C
REMARK SMILES IDX 26 1 30 2 25 3 3 4 31 5 24 6 4 7 2 8 32 9 22 10 5 11 1 12
REMARK SMILES IDX 33 13 23 14 20 15 6 16 7 17 19 18 21 19 8 20 18 21 17 22
REMARK SMILES IDX 10 23 9 24 14 25 11 26 12 27 15 28 16 29 27 30 28 31 29 32
REMARK SMILES IDX 13 33
REMARK H PARENT 13 34
REMARK Flexibility Score: inf
ROOT
ATOM      1  C   UNL     1      13.872 -28.008  19.905  1.00  0.00     0.017 C 
ATOM      2  C   UNL     1      14.544 -28.238  18.516  1.00  0.00     0.014 C 
ATOM      3  C   UNL     1      12.520 -27.212  19.747  1.00  0.00     0.014 C 
ATOM      4  C   UNL     1      13.595 -29.433  20.495  1.00  0.00     0.030 C 
ATOM      5  C   UNL     1      15.816 -29.114  18.614  1.00  0.00     0.004 C 
ATOM      6  C   UNL     1      11.244 -28.092  19.673  1.00  0.00     0.013 C 
ATOM      7  C   UNL     1      12.428 -29.400  21.485  1.00  0.00    -0.063 C 
ATOM      8  C   UNL     1      14.839 -30.370  20.663  1.00  0.00    -0.003 C 
ATOM      9  C   UNL     1      15.588 -30.494  19.289  1.00  0.00    -0.011 C 
ATOM     10  C   UNL     1      11.032 -29.162  20.853  1.00  0.00    -0.006 C 
ATOM     11  C   UNL     1      12.673 -28.980  22.727  1.00  0.00    -0.027 C 
ATOM     12  C   UNL     1      15.860 -30.014  21.761  1.00  0.00     0.008 C 
ATOM     13  C   UNL     1      14.905 -31.486  18.329  1.00  0.00     0.008 C 
ATOM     14  C   UNL     1      10.632 -30.488  20.102  1.00  0.00     0.017 C 
ATOM     15  C   UNL     1       9.867 -28.834  21.998  1.00  0.00    -0.020 C 
ATOM     16  C   UNL     1      11.882 -27.855  23.301  1.00  0.00     0.032 C 
ATOM     17  C   UNL     1      10.400 -28.188  23.373  1.00  0.00     0.006 C 
ATOM     18  C   UNL     1       8.737 -27.940  21.402  1.00  0.00     0.008 C 
ATOM     19  C   UNL     1       9.169 -30.172  22.440  1.00  0.00     0.012 C 
ATOM     20  C   UNL     1       9.486 -27.041  24.051  1.00  0.00    -0.025 C 
ATOM     21  C   UNL     1       9.042 -26.446  21.560  1.00  0.00     0.005 C 
ATOM     22  C   UNL     1       8.925 -25.960  23.025  1.00  0.00     0.003 C 
ATOM     23  C   UNL     1      10.245 -26.333  25.219  1.00  0.00     0.010 C 
ATOM     24  C   UNL     1       8.266 -27.767  24.722  1.00  0.00     0.012 C 
ATOM     25  C   UNL     1       9.394 -24.432  23.205  1.00  0.00    -0.006 C 
ATOM     26  C   UNL     1       9.497 -25.117  25.765  1.00  0.00     0.033 C 
ATOM     27  C   UNL     1       9.508 -23.979  24.730  1.00  0.00     0.120 C 
ATOM     28  C   UNL     1      10.772 -24.155  22.530  1.00  0.00     0.014 C 
ATOM     29  C   UNL     1       8.379 -23.510  22.468  1.00  0.00     0.014 C 
ENDROOT
BRANCH   1  30
ATOM     30  C   UNL     1      14.789 -27.147  20.771  1.00  0.00     0.048 C 
ATOM     31  O   UNL     1      16.041 -27.228  20.677  1.00  0.00    -0.550 OA
ATOM     32  O   UNL     1      14.260 -26.286  21.733  1.00  0.00    -0.550 OA
ENDBRANCH   1  30
BRANCH  27  33
ATOM     33  O   UNL     1       8.577 -22.975  25.090  1.00  0.00    -0.393 OA
ATOM     34  H   UNL     1       8.987 -22.413  25.803  1.00  0.00     0.210 HD
ENDBRANCH  27  33
TORSDOF 2
ENDMDL
MODEL 8
REMARK VINA RESULT:    -6.178      1.698      7.275
REMARK INTER + INTRA:          -6.193
REMARK INTER:                  -6.720
REMARK INTRA:                   0.527
REMARK UNBOUND:                 0.527
REMARK SMILES C[C@H]1[C@H]2C3=CC[C@H]4[C@@]5(C)CC[C@H](O)C(C)(C)[C@H]5CC[C@@]4(C)[C@@]3(C)CC[C@]2(C(=O)[O-])CC[C@@H]1C
REMARK SMILES IDX 26 1 30 2 25 3 3 4 31 5 24 6 4 7 2 8 32 9 22 10 5 11 1 12
REMARK SMILES IDX 33 13 23 14 20 15 6 16 7 17 19 18 21 19 8 20 18 21 17 22
REMARK SMILES IDX 10 23 9 24 14 25 11 26 12 27 15 28 16 29 27 30 28 31 29 32
REMARK SMILES IDX 13 33
REMARK H PARENT 13 34
REMARK Flexibility Score: inf
ROOT
ATOM      1  C   UNL     1       9.681 -27.862  25.051  1.00  0.00     0.017 C 
ATOM      2  C   UNL     1       8.302 -27.446  25.650  1.00  0.00     0.014 C 
ATOM      3  C   UNL     1       9.708 -27.625  23.492  1.00  0.00     0.014 C 
ATOM      4  C   UNL     1      10.750 -26.958  25.754  1.00  0.00     0.030 C 
ATOM      5  C   UNL     1       8.271 -27.555  27.193  1.00  0.00     0.004 C 
ATOM      6  C   UNL     1      10.322 -26.272  23.043  1.00  0.00     0.013 C 
ATOM      7  C   UNL     1      11.990 -26.788  24.872  1.00  0.00    -0.063 C 
ATOM      8  C   UNL     1      10.811 -27.039  27.317  1.00  0.00    -0.003 C 
ATOM      9  C   UNL     1       9.388 -26.747  27.911  1.00  0.00    -0.011 C 
ATOM     10  C   UNL     1      11.786 -25.919  23.605  1.00  0.00    -0.006 C 
ATOM     11  C   UNL     1      12.891 -27.772  24.862  1.00  0.00    -0.027 C 
ATOM     12  C   UNL     1      11.361 -28.335  27.945  1.00  0.00     0.008 C 
ATOM     13  C   UNL     1       9.059 -25.243  27.950  1.00  0.00     0.008 C 
ATOM     14  C   UNL     1      11.662 -24.423  24.083  1.00  0.00     0.017 C 
ATOM     15  C   UNL     1      13.069 -26.029  22.548  1.00  0.00    -0.020 C 
ATOM     16  C   UNL     1      13.292 -28.400  23.572  1.00  0.00     0.032 C 
ATOM     17  C   UNL     1      13.926 -27.390  22.629  1.00  0.00     0.006 C 
ATOM     18  C   UNL     1      12.603 -25.788  21.079  1.00  0.00     0.008 C 
ATOM     19  C   UNL     1      14.110 -24.892  22.861  1.00  0.00     0.012 C 
ATOM     20  C   UNL     1      14.452 -28.013  21.233  1.00  0.00    -0.025 C 
ATOM     21  C   UNL     1      12.173 -27.089  20.392  1.00  0.00     0.005 C 
ATOM     22  C   UNL     1      13.364 -28.023  20.070  1.00  0.00     0.003 C 
ATOM     23  C   UNL     1      15.033 -29.448  21.440  1.00  0.00     0.010 C 
ATOM     24  C   UNL     1      15.666 -27.130  20.768  1.00  0.00     0.012 C 
ATOM     25  C   UNL     1      12.891 -29.447  19.490  1.00  0.00    -0.006 C 
ATOM     26  C   UNL     1      15.367 -30.151  20.125  1.00  0.00     0.033 C 
ATOM     27  C   UNL     1      14.074 -30.509  19.372  1.00  0.00     0.120 C 
ATOM     28  C   UNL     1      11.767 -30.092  20.359  1.00  0.00     0.014 C 
ATOM     29  C   UNL     1      12.254 -29.225  18.087  1.00  0.00     0.014 C 
ENDROOT
BRANCH   1  30
ATOM     30  C   UNL     1       9.894 -29.358  25.271  1.00  0.00     0.048 C 
ATOM     31  O   UNL     1      10.619 -30.034  24.496  1.00  0.00    -0.550 OA
ATOM     32  O   UNL     1       9.242 -30.028  26.306  1.00  0.00    -0.550 OA
ENDBRANCH   1  30
BRANCH  27  33
ATOM     33  O   UNL     1      14.366 -30.879  18.037  1.00  0.00    -0.393 OA
ATOM     34  H   UNL     1      14.627 -31.840  18.031  1.00  0.00     0.210 HD
ENDBRANCH  27  33
TORSDOF 2
ENDMDL
MODEL 9
REMARK VINA RESULT:    -6.058      2.072      3.649
REMARK INTER + INTRA:          -6.062
REMARK INTER:                  -6.631
REMARK INTRA:                   0.569
REMARK UNBOUND:                 0.527
REMARK SMILES C[C@H]1[C@H]2C3=CC[C@H]4[C@@]5(C)CC[C@H](O)C(C)(C)[C@H]5CC[C@@]4(C)[C@@]3(C)CC[C@]2(C(=O)[O-])CC[C@@H]1C
REMARK SMILES IDX 26 1 30 2 25 3 3 4 31 5 24 6 4 7 2 8 32 9 22 10 5 11 1 12
REMARK SMILES IDX 33 13 23 14 20 15 6 16 7 17 19 18 21 19 8 20 18 21 17 22
REMARK SMILES IDX 10 23 9 24 14 25 11 26 12 27 15 28 16 29 27 30 28 31 29 32
REMARK SMILES IDX 13 33
REMARK H PARENT 13 34
REMARK Flexibility Score: inf
ROOT
ATOM      1  C   UNL     1      14.734 -28.273  20.674  1.00  0.00     0.017 C 
ATOM      2  C   UNL     1      16.075 -27.575  20.288  1.00  0.00     0.014 C 
ATOM      3  C   UNL     1      13.729 -27.239  21.316  1.00  0.00     0.014 C 
ATOM      4  C   UNL     1      14.143 -28.846  19.342  1.00  0.00     0.030 C 
ATOM      5  C   UNL     1      17.046 -28.528  19.552  1.00  0.00     0.004 C 
ATOM      6  C   UNL     1      12.709 -26.616  20.326  1.00  0.00     0.013 C 
ATOM      7  C   UNL     1      12.620 -28.979  19.429  1.00  0.00    -0.063 C 
ATOM      8  C   UNL     1      15.050 -29.852  18.554  1.00  0.00    -0.003 C 
ATOM      9  C   UNL     1      16.447 -29.190  18.281  1.00  0.00    -0.011 C 
ATOM     10  C   UNL     1      11.840 -27.639  19.441  1.00  0.00    -0.006 C 
ATOM     11  C   UNL     1      12.120 -30.043  20.059  1.00  0.00    -0.027 C 
ATOM     12  C   UNL     1      15.267 -31.250  19.166  1.00  0.00     0.008 C 
ATOM     13  C   UNL     1      16.417 -28.208  17.095  1.00  0.00     0.008 C 
ATOM     14  C   UNL     1      11.916 -27.045  17.985  1.00  0.00     0.017 C 
ATOM     15  C   UNL     1      10.236 -27.844  19.843  1.00  0.00    -0.020 C 
ATOM     16  C   UNL     1      11.165 -29.857  21.187  1.00  0.00     0.032 C 
ATOM     17  C   UNL     1       9.901 -29.138  20.741  1.00  0.00     0.006 C 
ATOM     18  C   UNL     1       9.667 -26.566  20.531  1.00  0.00     0.008 C 
ATOM     19  C   UNL     1       9.386 -28.045  18.536  1.00  0.00     0.012 C 
ATOM     20  C   UNL     1       8.785 -28.963  21.898  1.00  0.00    -0.025 C 
ATOM     21  C   UNL     1       9.855 -26.599  22.052  1.00  0.00     0.005 C 
ATOM     22  C   UNL     1       8.931 -27.625  22.751  1.00  0.00     0.003 C 
ATOM     23  C   UNL     1       8.754 -30.205  22.844  1.00  0.00     0.010 C 
ATOM     24  C   UNL     1       7.387 -28.944  21.182  1.00  0.00     0.012 C 
ATOM     25  C   UNL     1       9.242 -27.762  24.323  1.00  0.00    -0.006 C 
ATOM     26  C   UNL     1       7.852 -30.005  24.061  1.00  0.00     0.033 C 
ATOM     27  C   UNL     1       8.473 -28.974  25.019  1.00  0.00     0.120 C 
ATOM     28  C   UNL     1      10.764 -27.947  24.609  1.00  0.00     0.014 C 
ATOM     29  C   UNL     1       8.848 -26.430  25.025  1.00  0.00     0.014 C 
ENDROOT
BRANCH   1  30
ATOM     30  C   UNL     1      15.008 -29.334  21.738  1.00  0.00     0.048 C 
ATOM     31  O   UNL     1      14.156 -29.604  22.624  1.00  0.00    -0.550 OA
ATOM     32  O   UNL     1      16.236 -29.993  21.790  1.00  0.00    -0.550 OA
ENDBRANCH   1  30
BRANCH  27  33
ATOM     33  O   UNL     1       7.523 -28.558  25.982  1.00  0.00    -0.393 OA
ATOM     34  H   UNL     1       7.742 -27.624  26.250  1.00  0.00     0.210 HD
ENDBRANCH  27  33
TORSDOF 2
ENDMDL
