MODEL 1
REMARK VINA RESULT:    -4.557      0.000      0.000
REMARK INTER + INTRA:         -11.112
REMARK INTER:                  -8.553
REMARK INTRA:                  -2.559
REMARK UNBOUND:                -2.559
REMARK SMILES CCCCCCCCC=CCCCCCCCC(=O)[O-]
REMARK SMILES IDX 10 1 9 2 11 3 12 4 13 5 14 6 15 7 16 8 17 9 18 10 19 11
REMARK SMILES IDX 20 12 8 13 7 14 6 15 5 16 4 17 3 18 2 19 1 20
REMARK H PARENT
REMARK Flexibility Score: inf
ROOT
ATOM      1  C   UNL     1      95.369   6.258  23.665  1.00  0.00    -0.031 C 
ATOM      2  C   UNL     1      96.226   5.803  22.730  1.00  0.00    -0.031 C 
ENDROOT
BRANCH   1   3
ATOM      3  C   UNL     1      95.769   6.733  25.038  1.00  0.00     0.027 C 
BRANCH   3   4
ATOM      4  C   UNL     1      95.699   5.587  26.060  1.00  0.00     0.004 C 
BRANCH   4   5
ATOM      5  C   UNL     1      97.088   5.060  26.462  1.00  0.00     0.000 C 
BRANCH   5   6
ATOM      6  C   UNL     1      97.316   3.564  26.181  1.00  0.00     0.000 C 
BRANCH   6   7
ATOM      7  C   UNL     1      96.310   2.988  25.169  1.00  0.00     0.000 C 
BRANCH   7   8
ATOM      8  C   UNL     1      96.984   2.121  24.095  1.00  0.00     0.006 C 
BRANCH   8   9
ATOM      9  C   UNL     1      98.512   2.270  24.093  1.00  0.00     0.053 C 
BRANCH   9  10
ATOM     10  C   UNL     1      99.165   0.954  24.379  1.00  0.00     0.041 C 
ATOM     11  O   UNL     1      99.508   0.660  25.554  1.00  0.00    -0.550 OA
ATOM     12  O   UNL     1      99.438   0.073  23.340  1.00  0.00    -0.550 OA
ENDBRANCH   9  10
ENDBRANCH   8   9
ENDBRANCH   7   8
ENDBRANCH   6   7
ENDBRANCH   5   6
ENDBRANCH   4   5
ENDBRANCH   3   4
ENDBRANCH   1   3
BRANCH   2  13
ATOM     13  C   UNL     1      97.717   5.650  22.919  1.00  0.00     0.027 C 
BRANCH  13  14
ATOM     14  C   UNL     1      98.492   6.258  21.744  1.00  0.00     0.004 C 
BRANCH  14  15
ATOM     15  C   UNL     1      97.974   7.659  21.374  1.00  0.00     0.000 C 
BRANCH  15  16
ATOM     16  C   UNL     1      98.002   7.917  19.859  1.00  0.00     0.000 C 
BRANCH  16  17
ATOM     17  C   UNL     1      97.015   7.022  19.090  1.00  0.00    -0.000 C 
BRANCH  17  18
ATOM     18  C   UNL     1      95.661   7.706  18.837  1.00  0.00    -0.000 C 
BRANCH  18  19
ATOM     19  C   UNL     1      94.597   7.382  19.905  1.00  0.00    -0.003 C 
ATOM     20  C   UNL     1      94.331   8.561  20.842  1.00  0.00     0.004 C 
ENDBRANCH  18  19
ENDBRANCH  17  18
ENDBRANCH  16  17
ENDBRANCH  15  16
ENDBRANCH  14  15
ENDBRANCH  13  14
ENDBRANCH   2  13
TORSDOF 15
ENDMDL
MODEL 2
REMARK VINA RESULT:    -4.513      3.210      6.340
REMARK INTER + INTRA:         -11.029
REMARK INTER:                  -8.666
REMARK INTRA:                  -2.363
REMARK UNBOUND:                -2.559
REMARK SMILES CCCCCCCCC=CCCCCCCCC(=O)[O-]
REMARK SMILES IDX 10 1 9 2 11 3 12 4 13 5 14 6 15 7 16 8 17 9 18 10 19 11
REMARK SMILES IDX 20 12 8 13 7 14 6 15 5 16 4 17 3 18 2 19 1 20
REMARK H PARENT
REMARK Flexibility Score: inf
ROOT
ATOM      1  C   UNL     1      96.071   3.706  24.180  1.00  0.00    -0.031 C 
ATOM      2  C   UNL     1      96.666   2.523  23.936  1.00  0.00    -0.031 C 
ENDROOT
BRANCH   1   3
ATOM      3  C   UNL     1      96.271   4.528  25.427  1.00  0.00     0.027 C 
BRANCH   3   4
ATOM      4  C   UNL     1      95.328   5.740  25.447  1.00  0.00     0.004 C 
BRANCH   4   5
ATOM      5  C   UNL     1      96.061   7.071  25.204  1.00  0.00     0.000 C 
BRANCH   5   6
ATOM      6  C   UNL     1      96.201   7.468  23.723  1.00  0.00     0.000 C 
BRANCH   6   7
ATOM      7  C   UNL     1      94.972   7.078  22.882  1.00  0.00     0.000 C 
BRANCH   7   8
ATOM      8  C   UNL     1      95.351   6.600  21.473  1.00  0.00     0.006 C 
BRANCH   8   9
ATOM      9  C   UNL     1      96.867   6.604  21.236  1.00  0.00     0.053 C 
BRANCH   9  10
ATOM     10  C   UNL     1      97.199   7.361  19.988  1.00  0.00     0.041 C 
ATOM     11  O   UNL     1      96.613   7.086  18.908  1.00  0.00    -0.550 OA
ATOM     12  O   UNL     1      98.188   8.336  20.007  1.00  0.00    -0.550 OA
ENDBRANCH   9  10
ENDBRANCH   8   9
ENDBRANCH   7   8
ENDBRANCH   6   7
ENDBRANCH   5   6
ENDBRANCH   4   5
ENDBRANCH   3   4
ENDBRANCH   1   3
BRANCH   2  13
ATOM     13  C   UNL     1      97.593   1.804  24.888  1.00  0.00     0.027 C 
BRANCH  13  14
ATOM     14  C   UNL     1      98.514   0.832  24.141  1.00  0.00     0.004 C 
BRANCH  14  15
ATOM     15  C   UNL     1      99.888   0.702  24.821  1.00  0.00     0.000 C 
BRANCH  15  16
ATOM     16  C   UNL     1     101.053   0.930  23.844  1.00  0.00     0.000 C 
BRANCH  16  17
ATOM     17  C   UNL     1     101.069   2.355  23.267  1.00  0.00    -0.000 C 
BRANCH  17  18
ATOM     18  C   UNL     1     101.102   3.440  24.357  1.00  0.00    -0.000 C 
BRANCH  18  19
ATOM     19  C   UNL     1      99.930   4.440  24.270  1.00  0.00    -0.003 C 
ATOM     20  C   UNL     1      99.453   4.657  22.834  1.00  0.00     0.004 C 
ENDBRANCH  18  19
ENDBRANCH  17  18
ENDBRANCH  16  17
ENDBRANCH  15  16
ENDBRANCH  14  15
ENDBRANCH  13  14
ENDBRANCH   2  13
TORSDOF 15
ENDMDL
MODEL 3
REMARK VINA RESULT:    -4.495      3.771      6.753
REMARK INTER + INTRA:         -10.996
REMARK INTER:                  -8.092
REMARK INTRA:                  -2.904
REMARK UNBOUND:                -2.559
REMARK SMILES CCCCCCCCC=CCCCCCCCC(=O)[O-]
REMARK SMILES IDX 10 1 9 2 11 3 12 4 13 5 14 6 15 7 16 8 17 9 18 10 19 11
REMARK SMILES IDX 20 12 8 13 7 14 6 15 5 16 4 17 3 18 2 19 1 20
REMARK H PARENT
REMARK Flexibility Score: inf
ROOT
ATOM      1  C   UNL     1     101.677   3.552  26.940  1.00  0.00    -0.031 C 
ATOM      2  C   UNL     1     102.869   3.058  26.554  1.00  0.00    -0.031 C 
ENDROOT
BRANCH   1   3
ATOM      3  C   UNL     1     101.104   4.868  26.481  1.00  0.00     0.027 C 
BRANCH   3   4
ATOM      4  C   UNL     1      99.569   4.856  26.552  1.00  0.00     0.004 C 
BRANCH   4   5
ATOM      5  C   UNL     1      98.989   3.439  26.711  1.00  0.00     0.000 C 
BRANCH   5   6
ATOM      6  C   UNL     1      97.470   3.336  26.486  1.00  0.00     0.000 C 
BRANCH   6   7
ATOM      7  C   UNL     1      97.108   2.561  25.206  1.00  0.00     0.000 C 
BRANCH   7   8
ATOM      8  C   UNL     1      96.193   3.364  24.270  1.00  0.00     0.006 C 
BRANCH   8   9
ATOM      9  C   UNL     1      95.887   4.769  24.808  1.00  0.00     0.053 C 
BRANCH   9  10
ATOM     10  C   UNL     1      96.421   5.811  23.877  1.00  0.00     0.041 C 
ATOM     11  O   UNL     1      96.666   5.522  22.676  1.00  0.00    -0.550 OA
ATOM     12  O   UNL     1      96.693   7.090  24.347  1.00  0.00    -0.550 OA
ENDBRANCH   9  10
ENDBRANCH   8   9
ENDBRANCH   7   8
ENDBRANCH   6   7
ENDBRANCH   5   6
ENDBRANCH   4   5
ENDBRANCH   3   4
ENDBRANCH   1   3
BRANCH   2  13
ATOM     13  C   UNL     1     103.845   3.760  25.638  1.00  0.00     0.027 C 
BRANCH  13  14
ATOM     14  C   UNL     1     104.438   2.789  24.609  1.00  0.00     0.004 C 
BRANCH  14  15
ATOM     15  C   UNL     1     103.882   1.364  24.772  1.00  0.00     0.000 C 
BRANCH  15  16
ATOM     16  C   UNL     1     103.040   0.918  23.567  1.00  0.00     0.000 C 
BRANCH  16  17
ATOM     17  C   UNL     1     101.641   0.426  23.974  1.00  0.00    -0.000 C 
BRANCH  17  18
ATOM     18  C   UNL     1     100.596   1.555  24.000  1.00  0.00    -0.000 C 
BRANCH  18  19
ATOM     19  C   UNL     1     100.949   2.745  23.086  1.00  0.00    -0.003 C 
ATOM     20  C   UNL     1      99.849   3.806  23.057  1.00  0.00     0.004 C 
ENDBRANCH  18  19
ENDBRANCH  17  18
ENDBRANCH  16  17
ENDBRANCH  15  16
ENDBRANCH  14  15
ENDBRANCH  13  14
ENDBRANCH   2  13
TORSDOF 15
ENDMDL
MODEL 4
REMARK VINA RESULT:    -4.401      3.769      6.231
REMARK INTER + INTRA:         -10.820
REMARK INTER:                  -8.083
REMARK INTRA:                  -2.737
REMARK UNBOUND:                -2.559
REMARK SMILES CCCCCCCCC=CCCCCCCCC(=O)[O-]
REMARK SMILES IDX 10 1 9 2 11 3 12 4 13 5 14 6 15 7 16 8 17 9 18 10 19 11
REMARK SMILES IDX 20 12 8 13 7 14 6 15 5 16 4 17 3 18 2 19 1 20
REMARK H PARENT
REMARK Flexibility Score: inf
ROOT
ATOM      1  C   UNL     1     100.849   4.061  25.363  1.00  0.00    -0.031 C 
ATOM      2  C   UNL     1     100.274   3.720  26.531  1.00  0.00    -0.031 C 
ENDROOT
BRANCH   1   3
ATOM      3  C   UNL     1     100.192   3.936  24.013  1.00  0.00     0.027 C 
BRANCH   3   4
ATOM      4  C   UNL     1     100.828   2.803  23.192  1.00  0.00     0.004 C 
BRANCH   4   5
ATOM      5  C   UNL     1     100.432   1.404  23.698  1.00  0.00     0.000 C 
BRANCH   5   6
ATOM      6  C   UNL     1     101.561   0.630  24.400  1.00  0.00     0.000 C 
BRANCH   6   7
ATOM      7  C   UNL     1     102.760   0.353  23.475  1.00  0.00     0.000 C 
BRANCH   7   8
ATOM      8  C   UNL     1     104.082   0.885  24.049  1.00  0.00     0.006 C 
BRANCH   8   9
ATOM      9  C   UNL     1     103.867   1.896  25.184  1.00  0.00     0.053 C 
BRANCH   9  10
ATOM     10  C   UNL     1     104.597   3.169  24.893  1.00  0.00     0.041 C 
ATOM     11  O   UNL     1     104.315   4.220  25.527  1.00  0.00    -0.550 OA
ATOM     12  O   UNL     1     105.556   3.208  23.888  1.00  0.00    -0.550 OA
ENDBRANCH   9  10
ENDBRANCH   8   9
ENDBRANCH   7   8
ENDBRANCH   6   7
ENDBRANCH   5   6
ENDBRANCH   4   5
ENDBRANCH   3   4
ENDBRANCH   1   3
BRANCH   2  13
ATOM     13  C   UNL     1      98.897   3.115  26.678  1.00  0.00     0.027 C 
BRANCH  13  14
ATOM     14  C   UNL     1      98.027   3.937  27.638  1.00  0.00     0.004 C 
BRANCH  14  15
ATOM     15  C   UNL     1      97.637   5.299  27.039  1.00  0.00     0.000 C 
BRANCH  15  16
ATOM     16  C   UNL     1      96.465   5.195  26.050  1.00  0.00     0.000 C 
BRANCH  16  17
ATOM     17  C   UNL     1      96.893   5.469  24.598  1.00  0.00    -0.000 C 
BRANCH  17  18
ATOM     18  C   UNL     1      96.570   4.302  23.650  1.00  0.00    -0.000 C 
BRANCH  18  19
ATOM     19  C   UNL     1      96.061   3.039  24.376  1.00  0.00    -0.003 C 
ATOM     20  C   UNL     1      96.839   1.784  23.979  1.00  0.00     0.004 C 
ENDBRANCH  18  19
ENDBRANCH  17  18
ENDBRANCH  16  17
ENDBRANCH  15  16
ENDBRANCH  14  15
ENDBRANCH  13  14
ENDBRANCH   2  13
TORSDOF 15
ENDMDL
MODEL 5
REMARK VINA RESULT:    -4.399      3.579      6.536
REMARK INTER + INTRA:         -10.816
REMARK INTER:                  -8.072
REMARK INTRA:                  -2.744
REMARK UNBOUND:                -2.559
REMARK SMILES CCCCCCCCC=CCCCCCCCC(=O)[O-]
REMARK SMILES IDX 10 1 9 2 11 3 12 4 13 5 14 6 15 7 16 8 17 9 18 10 19 11
REMARK SMILES IDX 20 12 8 13 7 14 6 15 5 16 4 17 3 18 2 19 1 20
REMARK H PARENT
REMARK Flexibility Score: inf
ROOT
ATOM      1  C   UNL     1      98.049   4.041  27.474  1.00  0.00    -0.031 C 
ATOM      2  C   UNL     1      97.916   3.008  26.621  1.00  0.00    -0.031 C 
ENDROOT
BRANCH   1   3
ATOM      3  C   UNL     1      97.252   5.318  27.409  1.00  0.00     0.027 C 
BRANCH   3   4
ATOM      4  C   UNL     1      98.024   6.414  26.657  1.00  0.00     0.004 C 
BRANCH   4   5
ATOM      5  C   UNL     1      97.158   7.149  25.619  1.00  0.00     0.000 C 
BRANCH   5   6
ATOM      6  C   UNL     1      95.710   6.638  25.509  1.00  0.00     0.000 C 
BRANCH   6   7
ATOM      7  C   UNL     1      95.332   6.218  24.077  1.00  0.00     0.000 C 
BRANCH   7   8
ATOM      8  C   UNL     1      95.878   7.186  23.016  1.00  0.00     0.006 C 
BRANCH   8   9
ATOM      9  C   UNL     1      95.693   6.659  21.587  1.00  0.00     0.053 C 
BRANCH   9  10
ATOM     10  C   UNL     1      94.606   7.415  20.889  1.00  0.00     0.041 C 
ATOM     11  O   UNL     1      94.217   8.525  21.340  1.00  0.00    -0.550 OA
ATOM     12  O   UNL     1      93.990   6.873  19.769  1.00  0.00    -0.550 OA
ENDBRANCH   9  10
ENDBRANCH   8   9
ENDBRANCH   7   8
ENDBRANCH   6   7
ENDBRANCH   5   6
ENDBRANCH   4   5
ENDBRANCH   3   4
ENDBRANCH   1   3
BRANCH   2  13
ATOM     13  C   UNL     1      96.982   2.977  25.434  1.00  0.00     0.027 C 
BRANCH  13  14
ATOM     14  C   UNL     1      97.759   2.860  24.117  1.00  0.00     0.004 C 
BRANCH  14  15
ATOM     15  C   UNL     1      98.112   4.238  23.532  1.00  0.00     0.000 C 
BRANCH  15  16
ATOM     16  C   UNL     1      99.625   4.425  23.333  1.00  0.00     0.000 C 
BRANCH  16  17
ATOM     17  C   UNL     1     100.378   3.086  23.248  1.00  0.00    -0.000 C 
BRANCH  17  18
ATOM     18  C   UNL     1     101.602   3.030  24.178  1.00  0.00    -0.000 C 
BRANCH  18  19
ATOM     19  C   UNL     1     101.298   2.422  25.563  1.00  0.00    -0.003 C 
ATOM     20  C   UNL     1     101.746   3.328  26.710  1.00  0.00     0.004 C 
ENDBRANCH  18  19
ENDBRANCH  17  18
ENDBRANCH  16  17
ENDBRANCH  15  16
ENDBRANCH  14  15
ENDBRANCH  13  14
ENDBRANCH   2  13
TORSDOF 15
ENDMDL
MODEL 6
REMARK VINA RESULT:    -4.368      3.116      6.805
REMARK INTER + INTRA:         -10.757
REMARK INTER:                  -8.021
REMARK INTRA:                  -2.737
REMARK UNBOUND:                -2.559
REMARK SMILES CCCCCCCCC=CCCCCCCCC(=O)[O-]
REMARK SMILES IDX 10 1 9 2 11 3 12 4 13 5 14 6 15 7 16 8 17 9 18 10 19 11
REMARK SMILES IDX 20 12 8 13 7 14 6 15 5 16 4 17 3 18 2 19 1 20
REMARK H PARENT
REMARK Flexibility Score: inf
ROOT
ATOM      1  C   UNL     1      99.475   4.202  24.393  1.00  0.00    -0.031 C 
ATOM      2  C   UNL     1      99.031   3.020  23.925  1.00  0.00    -0.031 C 
ENDROOT
BRANCH   1   3
ATOM      3  C   UNL     1      99.488   4.600  25.846  1.00  0.00     0.027 C 
BRANCH   3   4
ATOM      4  C   UNL     1      98.347   5.579  26.161  1.00  0.00     0.004 C 
BRANCH   4   5
ATOM      5  C   UNL     1      97.021   4.867  26.483  1.00  0.00     0.000 C 
BRANCH   5   6
ATOM      6  C   UNL     1      95.837   5.274  25.588  1.00  0.00     0.000 C 
BRANCH   6   7
ATOM      7  C   UNL     1      96.264   6.145  24.393  1.00  0.00     0.000 C 
BRANCH   7   8
ATOM      8  C   UNL     1      96.191   5.389  23.058  1.00  0.00     0.006 C 
BRANCH   8   9
ATOM      9  C   UNL     1      96.353   6.317  21.846  1.00  0.00     0.053 C 
BRANCH   9  10
ATOM     10  C   UNL     1      97.753   6.841  21.774  1.00  0.00     0.041 C 
ATOM     11  O   UNL     1      97.969   8.080  21.828  1.00  0.00    -0.550 OA
ATOM     12  O   UNL     1      98.816   5.964  21.598  1.00  0.00    -0.550 OA
ENDBRANCH   9  10
ENDBRANCH   8   9
ENDBRANCH   7   8
ENDBRANCH   6   7
ENDBRANCH   5   6
ENDBRANCH   4   5
ENDBRANCH   3   4
ENDBRANCH   1   3
BRANCH   2  13
ATOM     13  C   UNL     1      98.432   1.920  24.770  1.00  0.00     0.027 C 
BRANCH  13  14
ATOM     14  C   UNL     1      99.439   0.788  25.006  1.00  0.00     0.004 C 
BRANCH  14  15
ATOM     15  C   UNL     1      99.724  -0.009  23.721  1.00  0.00     0.000 C 
BRANCH  15  16
ATOM     16  C   UNL     1     101.206   0.035  23.316  1.00  0.00     0.000 C 
BRANCH  16  17
ATOM     17  C   UNL     1     102.073   0.799  24.331  1.00  0.00    -0.000 C 
BRANCH  17  18
ATOM     18  C   UNL     1     102.663   2.097  23.754  1.00  0.00    -0.000 C 
BRANCH  18  19
ATOM     19  C   UNL     1     103.159   3.082  24.832  1.00  0.00    -0.003 C 
ATOM     20  C   UNL     1     102.591   2.770  26.216  1.00  0.00     0.004 C 
ENDBRANCH  18  19
ENDBRANCH  17  18
ENDBRANCH  16  17
ENDBRANCH  15  16
ENDBRANCH  14  15
ENDBRANCH  13  14
ENDBRANCH   2  13
TORSDOF 15
ENDMDL
MODEL 7
REMARK VINA RESULT:    -4.305      3.867      7.127
REMARK INTER + INTRA:         -10.639
REMARK INTER:                  -8.315
REMARK INTRA:                  -2.324
REMARK UNBOUND:                -2.559
REMARK SMILES CCCCCCCCC=CCCCCCCCC(=O)[O-]
REMARK SMILES IDX 10 1 9 2 11 3 12 4 13 5 14 6 15 7 16 8 17 9 18 10 19 11
REMARK SMILES IDX 20 12 8 13 7 14 6 15 5 16 4 17 3 18 2 19 1 20
REMARK H PARENT
REMARK Flexibility Score: inf
ROOT
ATOM      1  C   UNL     1     100.354   4.111  25.193  1.00  0.00    -0.031 C 
ATOM      2  C   UNL     1     101.454   4.321  25.940  1.00  0.00    -0.031 C 
ENDROOT
BRANCH   1   3
ATOM      3  C   UNL     1      99.449   2.912  25.315  1.00  0.00     0.027 C 
BRANCH   3   4
ATOM      4  C   UNL     1      98.692   2.655  24.003  1.00  0.00     0.004 C 
BRANCH   4   5
ATOM      5  C   UNL     1      97.410   1.829  24.205  1.00  0.00     0.000 C 
BRANCH   5   6
ATOM      6  C   UNL     1      96.100   2.616  24.021  1.00  0.00     0.000 C 
BRANCH   6   7
ATOM      7  C   UNL     1      96.323   4.138  23.956  1.00  0.00     0.000 C 
BRANCH   7   8
ATOM      8  C   UNL     1      95.706   4.876  25.154  1.00  0.00     0.006 C 
BRANCH   8   9
ATOM      9  C   UNL     1      96.513   6.116  25.562  1.00  0.00     0.053 C 
BRANCH   9  10
ATOM     10  C   UNL     1      97.439   5.786  26.690  1.00  0.00     0.041 C 
ATOM     11  O   UNL     1      97.281   4.726  27.351  1.00  0.00    -0.550 OA
ATOM     12  O   UNL     1      98.449   6.674  27.044  1.00  0.00    -0.550 OA
ENDBRANCH   9  10
ENDBRANCH   8   9
ENDBRANCH   7   8
ENDBRANCH   6   7
ENDBRANCH   5   6
ENDBRANCH   4   5
ENDBRANCH   3   4
ENDBRANCH   1   3
BRANCH   2  13
ATOM     13  C   UNL     1     101.988   3.372  26.988  1.00  0.00     0.027 C 
BRANCH  13  14
ATOM     14  C   UNL     1     103.444   2.985  26.697  1.00  0.00     0.004 C 
BRANCH  14  15
ATOM     15  C   UNL     1     103.723   2.880  25.188  1.00  0.00     0.000 C 
BRANCH  15  16
ATOM     16  C   UNL     1     104.308   1.516  24.790  1.00  0.00     0.000 C 
BRANCH  16  17
ATOM     17  C   UNL     1     103.707   0.976  23.481  1.00  0.00    -0.000 C 
BRANCH  17  18
ATOM     18  C   UNL     1     102.182   1.162  23.403  1.00  0.00    -0.000 C 
BRANCH  18  19
ATOM     19  C   UNL     1     101.386   0.026  24.077  1.00  0.00    -0.003 C 
ATOM     20  C   UNL     1     100.269  -0.514  23.184  1.00  0.00     0.004 C 
ENDBRANCH  18  19
ENDBRANCH  17  18
ENDBRANCH  16  17
ENDBRANCH  15  16
ENDBRANCH  14  15
ENDBRANCH  13  14
ENDBRANCH   2  13
TORSDOF 15
ENDMDL
MODEL 8
REMARK VINA RESULT:    -4.288      3.263      5.613
REMARK INTER + INTRA:         -10.607
REMARK INTER:                  -7.521
REMARK INTRA:                  -3.086
REMARK UNBOUND:                -2.559
REMARK SMILES CCCCCCCCC=CCCCCCCCC(=O)[O-]
REMARK SMILES IDX 10 1 9 2 11 3 12 4 13 5 14 6 15 7 16 8 17 9 18 10 19 11
REMARK SMILES IDX 20 12 8 13 7 14 6 15 5 16 4 17 3 18 2 19 1 20
REMARK H PARENT
REMARK Flexibility Score: inf
ROOT
ATOM      1  C   UNL     1      97.723   3.790  26.897  1.00  0.00    -0.031 C 
ATOM      2  C   UNL     1      96.882   3.342  25.945  1.00  0.00    -0.031 C 
ENDROOT
BRANCH   1   3
ATOM      3  C   UNL     1      97.983   5.243  27.198  1.00  0.00     0.027 C 
BRANCH   3   4
ATOM      4  C   UNL     1      99.490   5.543  27.213  1.00  0.00     0.004 C 
BRANCH   4   5
ATOM      5  C   UNL     1     100.349   4.279  27.390  1.00  0.00     0.000 C 
BRANCH   5   6
ATOM      6  C   UNL     1     101.841   4.461  27.058  1.00  0.00     0.000 C 
BRANCH   6   7
ATOM      7  C   UNL     1     102.627   3.138  27.097  1.00  0.00     0.000 C 
BRANCH   7   8
ATOM      8  C   UNL     1     103.867   3.163  26.192  1.00  0.00     0.006 C 
BRANCH   8   9
ATOM      9  C   UNL     1     103.511   3.079  24.701  1.00  0.00     0.053 C 
BRANCH   9  10
ATOM     10  C   UNL     1     103.989   1.784  24.124  1.00  0.00     0.041 C 
ATOM     11  O   UNL     1     105.142   1.700  23.626  1.00  0.00    -0.550 OA
ATOM     12  O   UNL     1     103.142   0.683  24.090  1.00  0.00    -0.550 OA
ENDBRANCH   9  10
ENDBRANCH   8   9
ENDBRANCH   7   8
ENDBRANCH   6   7
ENDBRANCH   5   6
ENDBRANCH   4   5
ENDBRANCH   3   4
ENDBRANCH   1   3
BRANCH   2  13
ATOM     13  C   UNL     1      96.099   4.218  24.994  1.00  0.00     0.027 C 
BRANCH  13  14
ATOM     14  C   UNL     1      96.744   4.243  23.602  1.00  0.00     0.004 C 
BRANCH  14  15
ATOM     15  C   UNL     1      97.726   5.416  23.443  1.00  0.00     0.000 C 
BRANCH  15  16
ATOM     16  C   UNL     1      99.086   4.974  22.881  1.00  0.00     0.000 C 
BRANCH  16  17
ATOM     17  C   UNL     1      99.881   4.108  23.873  1.00  0.00    -0.000 C 
BRANCH  17  18
ATOM     18  C   UNL     1     100.226   2.719  23.309  1.00  0.00    -0.000 C 
BRANCH  18  19
ATOM     19  C   UNL     1      99.420   1.573  23.955  1.00  0.00    -0.003 C 
ATOM     20  C   UNL     1      99.911   1.233  25.362  1.00  0.00     0.004 C 
ENDBRANCH  18  19
ENDBRANCH  17  18
ENDBRANCH  16  17
ENDBRANCH  15  16
ENDBRANCH  14  15
ENDBRANCH  13  14
ENDBRANCH   2  13
TORSDOF 15
ENDMDL
MODEL 9
REMARK VINA RESULT:    -4.286      2.736      4.964
REMARK INTER + INTRA:         -10.603
REMARK INTER:                  -8.028
REMARK INTRA:                  -2.575
REMARK UNBOUND:                -2.559
REMARK SMILES CCCCCCCCC=CCCCCCCCC(=O)[O-]
REMARK SMILES IDX 10 1 9 2 11 3 12 4 13 5 14 6 15 7 16 8 17 9 18 10 19 11
REMARK SMILES IDX 20 12 8 13 7 14 6 15 5 16 4 17 3 18 2 19 1 20
REMARK H PARENT
REMARK Flexibility Score: inf
ROOT
ATOM      1  C   UNL     1      98.559   5.011  27.865  1.00  0.00    -0.031 C 
ATOM      2  C   UNL     1      98.128   3.766  27.585  1.00  0.00    -0.031 C 
ENDROOT
BRANCH   1   3
ATOM      3  C   UNL     1      99.542   5.788  27.028  1.00  0.00     0.027 C 
BRANCH   3   4
ATOM      4  C   UNL     1     100.980   5.577  27.527  1.00  0.00     0.004 C 
BRANCH   4   5
ATOM      5  C   UNL     1     101.853   4.805  26.522  1.00  0.00     0.000 C 
BRANCH   5   6
ATOM      6  C   UNL     1     102.152   3.347  26.915  1.00  0.00     0.000 C 
BRANCH   6   7
ATOM      7  C   UNL     1     103.442   2.808  26.271  1.00  0.00     0.000 C 
BRANCH   7   8
ATOM      8  C   UNL     1     103.164   1.907  25.060  1.00  0.00     0.006 C 
BRANCH   8   9
ATOM      9  C   UNL     1     101.679   1.541  24.926  1.00  0.00     0.053 C 
BRANCH   9  10
ATOM     10  C   UNL     1     101.271   1.532  23.487  1.00  0.00     0.041 C 
ATOM     11  O   UNL     1     101.147   2.616  22.857  1.00  0.00    -0.550 OA
ATOM     12  O   UNL     1     100.982   0.331  22.852  1.00  0.00    -0.550 OA
ENDBRANCH   9  10
ENDBRANCH   8   9
ENDBRANCH   7   8
ENDBRANCH   6   7
ENDBRANCH   5   6
ENDBRANCH   4   5
ENDBRANCH   3   4
ENDBRANCH   1   3
BRANCH   2  13
ATOM     13  C   UNL     1      98.593   2.928  26.418  1.00  0.00     0.027 C 
BRANCH  13  14
ATOM     14  C   UNL     1      97.454   2.682  25.420  1.00  0.00     0.004 C 
BRANCH  14  15
ATOM     15  C   UNL     1      97.826   3.133  23.997  1.00  0.00     0.000 C 
BRANCH  15  16
ATOM     16  C   UNL     1      98.175   4.628  23.924  1.00  0.00     0.000 C 
BRANCH  16  17
ATOM     17  C   UNL     1      97.297   5.390  22.917  1.00  0.00    -0.000 C 
BRANCH  17  18
ATOM     18  C   UNL     1      96.206   6.235  23.596  1.00  0.00    -0.000 C 
BRANCH  18  19
ATOM     19  C   UNL     1      96.370   6.342  25.126  1.00  0.00    -0.003 C 
ATOM     20  C   UNL     1      95.272   5.597  25.885  1.00  0.00     0.004 C 
ENDBRANCH  18  19
ENDBRANCH  17  18
ENDBRANCH  16  17
ENDBRANCH  15  16
ENDBRANCH  14  15
ENDBRANCH  13  14
ENDBRANCH   2  13
TORSDOF 15
ENDMDL
