MODEL 1
REMARK VINA RESULT:    -2.788      0.000      0.000
REMARK INTER + INTRA:          -6.665
REMARK INTER:                  -4.743
REMARK INTRA:                  -1.921
REMARK UNBOUND:                -1.921
REMARK SMILES CCCCCCCCCCCCCC(=O)[O-]
REMARK SMILES IDX 8 1 9 2 10 3 11 4 12 5 13 6 14 7 15 8 16 9 7 10 6 11 5 12
REMARK SMILES IDX 4 13 3 14 2 15 1 16
REMARK H PARENT
REMARK Flexibility Score: inf
ROOT
ATOM      1  C   UNL     1       0.922  -0.548   9.156  1.00  0.00     0.000 C 
ENDROOT
BRANCH   1   2
ATOM      2  C   UNL     1       0.760  -1.795   8.279  1.00  0.00     0.000 C 
BRANCH   2   3
ATOM      3  C   UNL     1      -0.646  -2.394   8.430  1.00  0.00     0.000 C 
BRANCH   3   4
ATOM      4  C   UNL     1      -1.408  -2.465   7.097  1.00  0.00     0.000 C 
BRANCH   4   5
ATOM      5  C   UNL     1      -2.926  -2.276   7.272  1.00  0.00     0.006 C 
BRANCH   5   6
ATOM      6  C   UNL     1      -3.610  -1.850   5.967  1.00  0.00     0.053 C 
BRANCH   6   7
ATOM      7  C   UNL     1      -4.050  -3.031   5.156  1.00  0.00     0.041 C 
ATOM      8  O   UNL     1      -4.259  -4.140   5.714  1.00  0.00    -0.550 OA
ATOM      9  O   UNL     1      -4.256  -2.898   3.788  1.00  0.00    -0.550 OA
ENDBRANCH   6   7
ENDBRANCH   5   6
ENDBRANCH   4   5
ENDBRANCH   3   4
ENDBRANCH   2   3
ENDBRANCH   1   2
BRANCH   1  10
ATOM     10  C   UNL     1       1.152   0.704   8.297  1.00  0.00     0.000 C 
BRANCH  10  11
ATOM     11  C   UNL     1       1.176   0.397   6.788  1.00  0.00    -0.000 C 
BRANCH  11  12
ATOM     12  C   UNL     1       0.099   1.122   5.959  1.00  0.00    -0.000 C 
BRANCH  12  13
ATOM     13  C   UNL     1      -1.309   1.142   6.586  1.00  0.00    -0.000 C 
BRANCH  13  14
ATOM     14  C   UNL     1      -1.758   2.510   7.131  1.00  0.00    -0.000 C 
BRANCH  14  15
ATOM     15  C   UNL     1      -2.219   2.446   8.594  1.00  0.00    -0.003 C 
ATOM     16  C   UNL     1      -2.521   1.010   9.013  1.00  0.00     0.004 C 
ENDBRANCH  14  15
ENDBRANCH  13  14
ENDBRANCH  12  13
ENDBRANCH  11  12
ENDBRANCH  10  11
ENDBRANCH   1  10
TORSDOF 12
ENDMDL
MODEL 2
REMARK VINA RESULT:    -2.746      3.520      6.409
REMARK INTER + INTRA:          -6.594
REMARK INTER:                  -5.310
REMARK INTRA:                  -1.284
REMARK UNBOUND:                -1.921
REMARK SMILES CCCCCCCCCCCCCC(=O)[O-]
REMARK SMILES IDX 8 1 9 2 10 3 11 4 12 5 13 6 14 7 15 8 16 9 7 10 6 11 5 12
REMARK SMILES IDX 4 13 3 14 2 15 1 16
REMARK H PARENT
REMARK Flexibility Score: inf
ROOT
ATOM      1  C   UNL     1      -0.918  -1.900   7.056  1.00  0.00     0.000 C 
ENDROOT
BRANCH   1   2
ATOM      2  C   UNL     1      -0.514  -1.588   8.502  1.00  0.00     0.000 C 
BRANCH   2   3
ATOM      3  C   UNL     1       0.953  -1.141   8.578  1.00  0.00     0.000 C 
BRANCH   3   4
ATOM      4  C   UNL     1       1.116   0.256   9.199  1.00  0.00     0.000 C 
BRANCH   4   5
ATOM      5  C   UNL     1      -0.059   1.192   8.867  1.00  0.00     0.006 C 
BRANCH   5   6
ATOM      6  C   UNL     1       0.296   2.197   7.763  1.00  0.00     0.053 C 
BRANCH   6   7
ATOM      7  C   UNL     1      -0.233   1.770   6.428  1.00  0.00     0.041 C 
ATOM      8  O   UNL     1       0.534   1.236   5.584  1.00  0.00    -0.550 OA
ATOM      9  O   UNL     1      -1.580   1.933   6.128  1.00  0.00    -0.550 OA
ENDBRANCH   6   7
ENDBRANCH   5   6
ENDBRANCH   4   5
ENDBRANCH   3   4
ENDBRANCH   2   3
ENDBRANCH   1   2
BRANCH   1  10
ATOM     10  C   UNL     1      -0.672  -3.379   6.723  1.00  0.00     0.000 C 
BRANCH  10  11
ATOM     11  C   UNL     1      -1.006  -4.319   7.896  1.00  0.00    -0.000 C 
BRANCH  11  12
ATOM     12  C   UNL     1       0.064  -5.385   8.201  1.00  0.00    -0.000 C 
BRANCH  12  13
ATOM     13  C   UNL     1       1.499  -4.846   8.364  1.00  0.00    -0.000 C 
BRANCH  13  14
ATOM     14  C   UNL     1       2.522  -5.410   7.361  1.00  0.00    -0.000 C 
BRANCH  14  15
ATOM     15  C   UNL     1       2.026  -6.681   6.656  1.00  0.00    -0.003 C 
ATOM     16  C   UNL     1       2.952  -7.071   5.509  1.00  0.00     0.004 C 
ENDBRANCH  14  15
ENDBRANCH  13  14
ENDBRANCH  12  13
ENDBRANCH  11  12
ENDBRANCH  10  11
ENDBRANCH   1  10
TORSDOF 12
ENDMDL
MODEL 3
REMARK VINA RESULT:    -2.741      1.255      3.226
REMARK INTER + INTRA:          -6.585
REMARK INTER:                  -4.916
REMARK INTRA:                  -1.668
REMARK UNBOUND:                -1.921
REMARK SMILES CCCCCCCCCCCCCC(=O)[O-]
REMARK SMILES IDX 8 1 9 2 10 3 11 4 12 5 13 6 14 7 15 8 16 9 7 10 6 11 5 12
REMARK SMILES IDX 4 13 3 14 2 15 1 16
REMARK H PARENT
REMARK Flexibility Score: inf
ROOT
ATOM      1  C   UNL     1      -3.563   1.611   6.682  1.00  0.00     0.000 C 
ENDROOT
BRANCH   1   2
ATOM      2  C   UNL     1      -3.564   1.006   8.090  1.00  0.00     0.000 C 
BRANCH   2   3
ATOM      3  C   UNL     1      -3.346  -0.514   8.035  1.00  0.00     0.000 C 
BRANCH   3   4
ATOM      4  C   UNL     1      -2.785  -0.985   6.684  1.00  0.00     0.000 C 
BRANCH   4   5
ATOM      5  C   UNL     1      -3.439  -2.289   6.194  1.00  0.00     0.006 C 
BRANCH   5   6
ATOM      6  C   UNL     1      -4.693  -2.027   5.350  1.00  0.00     0.053 C 
BRANCH   6   7
ATOM      7  C   UNL     1      -4.786  -2.963   4.183  1.00  0.00     0.041 C 
ATOM      8  O   UNL     1      -4.927  -4.200   4.372  1.00  0.00    -0.550 OA
ATOM      9  O   UNL     1      -4.748  -2.464   2.887  1.00  0.00    -0.550 OA
ENDBRANCH   6   7
ENDBRANCH   5   6
ENDBRANCH   4   5
ENDBRANCH   3   4
ENDBRANCH   2   3
ENDBRANCH   1   2
BRANCH   1  10
ATOM     10  C   UNL     1      -2.324   2.492   6.462  1.00  0.00     0.000 C 
BRANCH  10  11
ATOM     11  C   UNL     1      -1.495   2.687   7.744  1.00  0.00    -0.000 C 
BRANCH  11  12
ATOM     12  C   UNL     1      -0.011   2.290   7.627  1.00  0.00    -0.000 C 
BRANCH  12  13
ATOM     13  C   UNL     1       0.349   1.456   6.381  1.00  0.00    -0.000 C 
BRANCH  13  14
ATOM     14  C   UNL     1       0.736  -0.005   6.668  1.00  0.00    -0.000 C 
BRANCH  14  15
ATOM     15  C   UNL     1       0.697  -0.350   8.163  1.00  0.00    -0.003 C 
ATOM     16  C   UNL     1       0.479  -1.844   8.378  1.00  0.00     0.004 C 
ENDBRANCH  14  15
ENDBRANCH  13  14
ENDBRANCH  12  13
ENDBRANCH  11  12
ENDBRANCH  10  11
ENDBRANCH   1  10
TORSDOF 12
ENDMDL
MODEL 4
REMARK VINA RESULT:    -2.711      4.378      6.977
REMARK INTER + INTRA:          -6.534
REMARK INTER:                  -5.657
REMARK INTRA:                  -0.877
REMARK UNBOUND:                -1.921
REMARK SMILES CCCCCCCCCCCCCC(=O)[O-]
REMARK SMILES IDX 8 1 9 2 10 3 11 4 12 5 13 6 14 7 15 8 16 9 7 10 6 11 5 12
REMARK SMILES IDX 4 13 3 14 2 15 1 16
REMARK H PARENT
REMARK Flexibility Score: inf
ROOT
ATOM      1  C   UNL     1       0.567  -3.722   9.218  1.00  0.00     0.000 C 
ENDROOT
BRANCH   1   2
ATOM      2  C   UNL     1      -0.400  -3.631   8.032  1.00  0.00     0.000 C 
BRANCH   2   3
ATOM      3  C   UNL     1      -0.020  -2.471   7.100  1.00  0.00     0.000 C 
BRANCH   3   4
ATOM      4  C   UNL     1      -0.423  -1.099   7.665  1.00  0.00     0.000 C 
BRANCH   4   5
ATOM      5  C   UNL     1       0.790  -0.191   7.934  1.00  0.00     0.006 C 
BRANCH   5   6
ATOM      6  C   UNL     1       0.444   1.296   7.784  1.00  0.00     0.053 C 
BRANCH   6   7
ATOM      7  C   UNL     1      -0.092   1.610   6.421  1.00  0.00     0.041 C 
ATOM      8  O   UNL     1       0.565   1.295   5.394  1.00  0.00    -0.550 OA
ATOM      9  O   UNL     1      -1.332   2.223   6.284  1.00  0.00    -0.550 OA
ENDBRANCH   6   7
ENDBRANCH   5   6
ENDBRANCH   4   5
ENDBRANCH   3   4
ENDBRANCH   2   3
ENDBRANCH   1   2
BRANCH   1  10
ATOM     10  C   UNL     1       2.027  -3.712   8.739  1.00  0.00     0.000 C 
BRANCH  10  11
ATOM     11  C   UNL     1       2.791  -4.992   9.123  1.00  0.00    -0.000 C 
BRANCH  11  12
ATOM     12  C   UNL     1       3.373  -5.784   7.937  1.00  0.00    -0.000 C 
BRANCH  12  13
ATOM     13  C   UNL     1       2.360  -6.157   6.836  1.00  0.00    -0.000 C 
BRANCH  13  14
ATOM     14  C   UNL     1       2.808  -7.293   5.899  1.00  0.00    -0.000 C 
BRANCH  14  15
ATOM     15  C   UNL     1       3.582  -6.784   4.674  1.00  0.00    -0.003 C 
ATOM     16  C   UNL     1       5.086  -6.938   4.872  1.00  0.00     0.004 C 
ENDBRANCH  14  15
ENDBRANCH  13  14
ENDBRANCH  12  13
ENDBRANCH  11  12
ENDBRANCH  10  11
ENDBRANCH   1  10
TORSDOF 12
ENDMDL
MODEL 5
REMARK VINA RESULT:    -2.675      1.323      2.046
REMARK INTER + INTRA:          -6.473
REMARK INTER:                  -4.563
REMARK INTRA:                  -1.909
REMARK UNBOUND:                -1.921
REMARK SMILES CCCCCCCCCCCCCC(=O)[O-]
REMARK SMILES IDX 8 1 9 2 10 3 11 4 12 5 13 6 14 7 15 8 16 9 7 10 6 11 5 12
REMARK SMILES IDX 4 13 3 14 2 15 1 16
REMARK H PARENT
REMARK Flexibility Score: inf
ROOT
ATOM      1  C   UNL     1      -0.537  -1.484   7.552  1.00  0.00     0.000 C 
ENDROOT
BRANCH   1   2
ATOM      2  C   UNL     1      -1.477  -1.281   8.746  1.00  0.00     0.000 C 
BRANCH   2   3
ATOM      3  C   UNL     1      -2.820  -0.688   8.293  1.00  0.00     0.000 C 
BRANCH   3   4
ATOM      4  C   UNL     1      -2.856  -0.380   6.788  1.00  0.00     0.000 C 
BRANCH   4   5
ATOM      5  C   UNL     1      -4.244  -0.618   6.168  1.00  0.00     0.006 C 
BRANCH   5   6
ATOM      6  C   UNL     1      -4.752  -2.044   6.417  1.00  0.00     0.053 C 
BRANCH   6   7
ATOM      7  C   UNL     1      -3.937  -3.063   5.680  1.00  0.00     0.041 C 
ATOM      8  O   UNL     1      -3.921  -3.073   4.421  1.00  0.00    -0.550 OA
ATOM      9  O   UNL     1      -3.170  -3.984   6.385  1.00  0.00    -0.550 OA
ENDBRANCH   6   7
ENDBRANCH   5   6
ENDBRANCH   4   5
ENDBRANCH   3   4
ENDBRANCH   2   3
ENDBRANCH   1   2
BRANCH   1  10
ATOM     10  C   UNL     1       0.703  -0.586   7.669  1.00  0.00     0.000 C 
BRANCH  10  11
ATOM     11  C   UNL     1       0.894   0.332   6.447  1.00  0.00    -0.000 C 
BRANCH  11  12
ATOM     12  C   UNL     1       0.296   1.744   6.594  1.00  0.00    -0.000 C 
BRANCH  12  13
ATOM     13  C   UNL     1       0.139   2.243   8.045  1.00  0.00    -0.000 C 
BRANCH  13  14
ATOM     14  C   UNL     1      -1.290   2.659   8.436  1.00  0.00    -0.000 C 
BRANCH  14  15
ATOM     15  C   UNL     1      -2.165   3.002   7.222  1.00  0.00    -0.003 C 
ATOM     16  C   UNL     1      -3.519   3.553   7.657  1.00  0.00     0.004 C 
ENDBRANCH  14  15
ENDBRANCH  13  14
ENDBRANCH  12  13
ENDBRANCH  11  12
ENDBRANCH  10  11
ENDBRANCH   1  10
TORSDOF 12
ENDMDL
MODEL 6
REMARK VINA RESULT:    -2.673      1.375      3.544
REMARK INTER + INTRA:          -6.469
REMARK INTER:                  -5.034
REMARK INTRA:                  -1.435
REMARK UNBOUND:                -1.921
REMARK SMILES CCCCCCCCCCCCCC(=O)[O-]
REMARK SMILES IDX 8 1 9 2 10 3 11 4 12 5 13 6 14 7 15 8 16 9 7 10 6 11 5 12
REMARK SMILES IDX 4 13 3 14 2 15 1 16
REMARK H PARENT
REMARK Flexibility Score: inf
ROOT
ATOM      1  C   UNL     1      -2.069   2.651   7.014  1.00  0.00     0.000 C 
ENDROOT
BRANCH   1   2
ATOM      2  C   UNL     1      -2.848   1.529   6.318  1.00  0.00     0.000 C 
BRANCH   2   3
ATOM      3  C   UNL     1      -3.196   0.406   7.306  1.00  0.00     0.000 C 
BRANCH   3   4
ATOM      4  C   UNL     1      -3.102  -0.992   6.673  1.00  0.00     0.000 C 
BRANCH   4   5
ATOM      5  C   UNL     1      -4.433  -1.452   6.054  1.00  0.00     0.006 C 
BRANCH   5   6
ATOM      6  C   UNL     1      -4.243  -2.615   5.071  1.00  0.00     0.053 C 
BRANCH   6   7
ATOM      7  C   UNL     1      -5.153  -2.499   3.886  1.00  0.00     0.041 C 
ATOM      8  O   UNL     1      -4.684  -2.553   2.719  1.00  0.00    -0.550 OA
ATOM      9  O   UNL     1      -6.524  -2.360   4.072  1.00  0.00    -0.550 OA
ENDBRANCH   6   7
ENDBRANCH   5   6
ENDBRANCH   4   5
ENDBRANCH   3   4
ENDBRANCH   2   3
ENDBRANCH   1   2
BRANCH   1  10
ATOM     10  C   UNL     1      -0.618   2.226   7.286  1.00  0.00     0.000 C 
BRANCH  10  11
ATOM     11  C   UNL     1      -0.006   1.416   6.129  1.00  0.00    -0.000 C 
BRANCH  11  12
ATOM     12  C   UNL     1       0.834   0.198   6.559  1.00  0.00    -0.000 C 
BRANCH  12  13
ATOM     13  C   UNL     1       0.741  -0.168   8.054  1.00  0.00    -0.000 C 
BRANCH  13  14
ATOM     14  C   UNL     1       0.200  -1.580   8.344  1.00  0.00    -0.000 C 
BRANCH  14  15
ATOM     15  C   UNL     1       0.256  -2.503   7.118  1.00  0.00    -0.003 C 
ATOM     16  C   UNL     1      -0.751  -3.642   7.241  1.00  0.00     0.004 C 
ENDBRANCH  14  15
ENDBRANCH  13  14
ENDBRANCH  12  13
ENDBRANCH  11  12
ENDBRANCH  10  11
ENDBRANCH   1  10
TORSDOF 12
ENDMDL
MODEL 7
REMARK VINA RESULT:    -2.670      1.206      1.513
REMARK INTER + INTRA:          -6.464
REMARK INTER:                  -4.854
REMARK INTRA:                  -1.609
REMARK UNBOUND:                -1.921
REMARK SMILES CCCCCCCCCCCCCC(=O)[O-]
REMARK SMILES IDX 8 1 9 2 10 3 11 4 12 5 13 6 14 7 15 8 16 9 7 10 6 11 5 12
REMARK SMILES IDX 4 13 3 14 2 15 1 16
REMARK H PARENT
REMARK Flexibility Score: inf
ROOT
ATOM      1  C   UNL     1       0.710  -0.428   7.989  1.00  0.00     0.000 C 
ENDROOT
BRANCH   1   2
ATOM      2  C   UNL     1      -0.280  -1.583   8.177  1.00  0.00     0.000 C 
BRANCH   2   3
ATOM      3  C   UNL     1      -0.072  -2.665   7.106  1.00  0.00     0.000 C 
BRANCH   3   4
ATOM      4  C   UNL     1      -1.322  -3.533   6.888  1.00  0.00     0.000 C 
BRANCH   4   5
ATOM      5  C   UNL     1      -2.532  -2.716   6.403  1.00  0.00     0.006 C 
BRANCH   5   6
ATOM      6  C   UNL     1      -3.843  -3.506   6.508  1.00  0.00     0.053 C 
BRANCH   6   7
ATOM      7  C   UNL     1      -4.651  -3.416   5.249  1.00  0.00     0.041 C 
ATOM      8  O   UNL     1      -5.873  -3.721   5.257  1.00  0.00    -0.550 OA
ATOM      9  O   UNL     1      -4.061  -2.966   4.074  1.00  0.00    -0.550 OA
ENDBRANCH   6   7
ENDBRANCH   5   6
ENDBRANCH   4   5
ENDBRANCH   3   4
ENDBRANCH   2   3
ENDBRANCH   1   2
BRANCH   1  10
ATOM     10  C   UNL     1       0.812  -0.026   6.511  1.00  0.00     0.000 C 
BRANCH  10  11
ATOM     11  C   UNL     1       0.364   1.424   6.253  1.00  0.00    -0.000 C 
BRANCH  11  12
ATOM     12  C   UNL     1      -0.055   2.209   7.511  1.00  0.00    -0.000 C 
BRANCH  12  13
ATOM     13  C   UNL     1      -1.568   2.480   7.642  1.00  0.00    -0.000 C 
BRANCH  13  14
ATOM     14  C   UNL     1      -2.397   2.148   6.389  1.00  0.00    -0.000 C 
BRANCH  14  15
ATOM     15  C   UNL     1      -3.324   0.941   6.589  1.00  0.00    -0.003 C 
ATOM     16  C   UNL     1      -3.384   0.532   8.058  1.00  0.00     0.004 C 
ENDBRANCH  14  15
ENDBRANCH  13  14
ENDBRANCH  12  13
ENDBRANCH  11  12
ENDBRANCH  10  11
ENDBRANCH   1  10
TORSDOF 12
ENDMDL
MODEL 8
REMARK VINA RESULT:    -2.601      2.737      3.926
REMARK INTER + INTRA:          -6.348
REMARK INTER:                  -4.391
REMARK INTRA:                  -1.956
REMARK UNBOUND:                -1.921
REMARK SMILES CCCCCCCCCCCCCC(=O)[O-]
REMARK SMILES IDX 8 1 9 2 10 3 11 4 12 5 13 6 14 7 15 8 16 9 7 10 6 11 5 12
REMARK SMILES IDX 4 13 3 14 2 15 1 16
REMARK H PARENT
REMARK Flexibility Score: inf
ROOT
ATOM      1  C   UNL     1       0.819   0.027   6.637  1.00  0.00     0.000 C 
ENDROOT
BRANCH   1   2
ATOM      2  C   UNL     1       0.964   0.132   8.160  1.00  0.00     0.000 C 
BRANCH   2   3
ATOM      3  C   UNL     1       0.843  -1.250   8.820  1.00  0.00     0.000 C 
BRANCH   3   4
ATOM      4  C   UNL     1       0.653  -2.382   7.798  1.00  0.00     0.000 C 
BRANCH   4   5
ATOM      5  C   UNL     1       0.080  -3.662   8.432  1.00  0.00     0.006 C 
BRANCH   5   6
ATOM      6  C   UNL     1      -0.095  -4.788   7.404  1.00  0.00     0.053 C 
BRANCH   6   7
ATOM      7  C   UNL     1       1.025  -5.781   7.469  1.00  0.00     0.041 C 
ATOM      8  O   UNL     1       0.788  -6.986   7.748  1.00  0.00    -0.550 OA
ATOM      9  O   UNL     1       2.327  -5.382   7.191  1.00  0.00    -0.550 OA
ENDBRANCH   6   7
ENDBRANCH   5   6
ENDBRANCH   4   5
ENDBRANCH   3   4
ENDBRANCH   2   3
ENDBRANCH   1   2
BRANCH   1  10
ATOM     10  C   UNL     1      -0.012   1.193   6.082  1.00  0.00     0.000 C 
BRANCH  10  11
ATOM     11  C   UNL     1      -0.382   2.229   7.159  1.00  0.00    -0.000 C 
BRANCH  11  12
ATOM     12  C   UNL     1      -1.891   2.504   7.308  1.00  0.00    -0.000 C 
BRANCH  12  13
ATOM     13  C   UNL     1      -2.792   1.253   7.268  1.00  0.00    -0.000 C 
BRANCH  13  14
ATOM     14  C   UNL     1      -2.707   0.351   8.512  1.00  0.00    -0.000 C 
BRANCH  14  15
ATOM     15  C   UNL     1      -2.847  -1.141   8.176  1.00  0.00    -0.003 C 
ATOM     16  C   UNL     1      -2.704  -1.383   6.677  1.00  0.00     0.004 C 
ENDBRANCH  14  15
ENDBRANCH  13  14
ENDBRANCH  12  13
ENDBRANCH  11  12
ENDBRANCH  10  11
ENDBRANCH   1  10
TORSDOF 12
ENDMDL
MODEL 9
REMARK VINA RESULT:    -2.594      2.199      4.848
REMARK INTER + INTRA:          -6.335
REMARK INTER:                  -5.046
REMARK INTRA:                  -1.289
REMARK UNBOUND:                -1.921
REMARK SMILES CCCCCCCCCCCCCC(=O)[O-]
REMARK SMILES IDX 8 1 9 2 10 3 11 4 12 5 13 6 14 7 15 8 16 9 7 10 6 11 5 12
REMARK SMILES IDX 4 13 3 14 2 15 1 16
REMARK H PARENT
REMARK Flexibility Score: inf
ROOT
ATOM      1  C   UNL     1       1.159   0.363   6.854  1.00  0.00     0.000 C 
ENDROOT
BRANCH   1   2
ATOM      2  C   UNL     1       0.309   1.542   6.367  1.00  0.00     0.000 C 
BRANCH   2   3
ATOM      3  C   UNL     1      -0.265   2.332   7.553  1.00  0.00     0.000 C 
BRANCH   3   4
ATOM      4  C   UNL     1      -1.765   2.632   7.396  1.00  0.00     0.000 C 
BRANCH   4   5
ATOM      5  C   UNL     1      -2.471   1.639   6.455  1.00  0.00     0.006 C 
BRANCH   5   6
ATOM      6  C   UNL     1      -3.146   0.495   7.223  1.00  0.00     0.053 C 
BRANCH   6   7
ATOM      7  C   UNL     1      -3.990  -0.357   6.325  1.00  0.00     0.041 C 
ATOM      8  O   UNL     1      -5.032   0.115   5.798  1.00  0.00    -0.550 OA
ATOM      9  O   UNL     1      -3.609  -1.664   6.046  1.00  0.00    -0.550 OA
ENDBRANCH   6   7
ENDBRANCH   5   6
ENDBRANCH   4   5
ENDBRANCH   3   4
ENDBRANCH   2   3
ENDBRANCH   1   2
BRANCH   1  10
ATOM     10  C   UNL     1       0.811  -0.004   8.304  1.00  0.00     0.000 C 
BRANCH  10  11
ATOM     11  C   UNL     1      -0.008  -1.304   8.411  1.00  0.00    -0.000 C 
BRANCH  11  12
ATOM     12  C   UNL     1      -0.306  -1.998   7.068  1.00  0.00    -0.000 C 
BRANCH  12  13
ATOM     13  C   UNL     1      -0.224  -3.538   7.093  1.00  0.00    -0.000 C 
BRANCH  13  14
ATOM     14  C   UNL     1       0.951  -4.112   7.905  1.00  0.00    -0.000 C 
BRANCH  14  15
ATOM     15  C   UNL     1       1.303  -5.552   7.505  1.00  0.00    -0.003 C 
ATOM     16  C   UNL     1       2.782  -5.680   7.155  1.00  0.00     0.004 C 
ENDBRANCH  14  15
ENDBRANCH  13  14
ENDBRANCH  12  13
ENDBRANCH  11  12
ENDBRANCH  10  11
ENDBRANCH   1  10
TORSDOF 12
ENDMDL
