MODEL 1
REMARK VINA RESULT:    13.548      0.000      0.000
REMARK INTER + INTRA:          20.553
REMARK INTER:                  19.092
REMARK INTRA:                   1.461
REMARK UNBOUND:                 1.461
REMARK SMILES CC1=CCCC(C)=CCC(C)(C)C=CC1
REMARK SMILES IDX 2 1 3 2 1 3 4 4 5 5 6 6 7 7 8 8 15 10 14 11 13 12 10 13
REMARK SMILES IDX 11 14 12 15 9 16
REMARK H PARENT
REMARK Flexibility Score: 60.00
ROOT
ATOM      1  C   UNL     1      -0.700   7.164  -7.863  1.00  0.00    -0.074 C 
ATOM      2  C   UNL     1       0.304   6.507  -7.207  1.00  0.00    -0.027 C 
ATOM      3  C   UNL     1      -1.586   8.064  -7.036  1.00  0.00     0.039 C 
ENDROOT
BRANCH   2   4
ATOM      4  C   UNL     1       1.428   5.627  -7.748  1.00  0.00     0.032 C 
BRANCH   4   5
ATOM      5  C   UNL     1       1.682   5.697  -9.271  1.00  0.00     0.034 C 
BRANCH   5   6
ATOM      6  C   UNL     1       1.249   4.466 -10.084  1.00  0.00    -0.077 C 
ATOM      7  C   UNL     1       1.769   3.120  -9.630  1.00  0.00     0.039 C 
ATOM      8  C   UNL     1       0.371   4.443 -11.130  1.00  0.00    -0.027 CG0
ATOM      9  G   UNL     1      -0.231   5.609 -11.888  1.00  0.00     0.000 G0
ENDBRANCH   5   6
ENDBRANCH   4   5
ENDBRANCH   2   4
BRANCH   1  10
ATOM     10  C   UNL     1      -1.076   6.986  -9.324  1.00  0.00     0.057 C 
BRANCH  10  11
ATOM     11  C   UNL     1      -2.188   5.985  -9.535  1.00  0.00    -0.026 C 
ATOM     12  C   UNL     1      -2.457   5.338 -10.696  1.00  0.00    -0.024 C 
BRANCH  12  13
ATOM     13  C   UNL     1      -1.800   5.588 -12.063  1.00  0.00    -0.014 C 
ATOM     14  C   UNL     1      -2.316   4.556 -13.102  1.00  0.00     0.016 C 
ATOM     15  C   UNL     1      -2.256   6.980 -12.560  1.00  0.00     0.016 C 
BRANCH  13  16
ATOM     16  C   UNL     1      -0.241   5.613 -11.895  1.00  0.00     0.038 CG0
ATOM     17  G   UNL     1       0.368   4.451 -11.136  1.00  0.00     0.000 G0
ENDBRANCH  13  16
ENDBRANCH  12  13
ENDBRANCH  10  11
ENDBRANCH   1  10
TORSDOF 0
ENDMDL
MODEL 2
REMARK VINA RESULT:    14.682      1.545      4.627
REMARK INTER + INTRA:          22.151
REMARK INTER:                  20.592
REMARK INTRA:                   1.560
REMARK UNBOUND:                 1.461
REMARK SMILES CC1=CCCC(C)=CCC(C)(C)C=CC1
REMARK SMILES IDX 2 1 3 2 1 3 4 4 5 5 6 6 7 7 8 8 15 10 14 11 13 12 10 13
REMARK SMILES IDX 11 14 12 15 9 16
REMARK H PARENT
REMARK Flexibility Score: 60.00
ROOT
ATOM      1  C   UNL     1      -1.913   5.572 -11.667  1.00  0.00    -0.074 C 
ATOM      2  C   UNL     1      -2.638   5.708 -10.516  1.00  0.00    -0.027 C 
ATOM      3  C   UNL     1      -2.678   5.616 -12.969  1.00  0.00     0.039 C 
ENDROOT
BRANCH   2   4
ATOM      4  C   UNL     1      -2.177   5.820  -9.065  1.00  0.00     0.032 C 
BRANCH   4   5
ATOM      5  C   UNL     1      -1.944   7.250  -8.528  1.00  0.00     0.034 C 
BRANCH   5   6
ATOM      6  C   UNL     1      -0.672   7.457  -7.689  1.00  0.00    -0.077 C 
ATOM      7  C   UNL     1      -0.514   8.790  -6.991  1.00  0.00     0.039 C 
ATOM      8  C   UNL     1       0.299   6.532  -7.432  1.00  0.00    -0.027 CG0
ATOM      9  G   UNL     1       0.495   5.165  -8.057  1.00  0.00     0.000 G0
ENDBRANCH   5   6
ENDBRANCH   4   5
ENDBRANCH   2   4
BRANCH   1  10
ATOM     10  C   UNL     1      -0.427   5.271 -11.755  1.00  0.00     0.057 C 
BRANCH  10  11
ATOM     11  C   UNL     1       0.439   6.384 -11.215  1.00  0.00    -0.026 C 
ATOM     12  C   UNL     1       1.310   6.275 -10.182  1.00  0.00    -0.024 C 
BRANCH  12  13
ATOM     13  C   UNL     1       1.494   5.062  -9.257  1.00  0.00    -0.014 C 
ATOM     14  C   UNL     1       1.388   3.745 -10.073  1.00  0.00     0.016 C 
ATOM     15  C   UNL     1       2.931   5.113  -8.688  1.00  0.00     0.016 C 
BRANCH  13  16
ATOM     16  C   UNL     1       0.487   5.162  -8.058  1.00  0.00     0.038 CG0
ATOM     17  G   UNL     1       0.312   6.538  -7.446  1.00  0.00     0.000 G0
ENDBRANCH  13  16
ENDBRANCH  12  13
ENDBRANCH  10  11
ENDBRANCH   1  10
TORSDOF 0
ENDMDL
MODEL 3
REMARK VINA RESULT:    15.091      0.992      3.607
REMARK INTER + INTRA:          22.727
REMARK INTER:                  20.784
REMARK INTRA:                   1.943
REMARK UNBOUND:                 1.461
REMARK SMILES CC1=CCCC(C)=CCC(C)(C)C=CC1
REMARK SMILES IDX 2 1 3 2 1 3 4 4 5 5 6 6 7 7 8 8 15 10 14 11 13 12 10 13
REMARK SMILES IDX 11 14 12 15 9 16
REMARK H PARENT
REMARK Flexibility Score: 60.00
ROOT
ATOM      1  C   UNL     1      -1.216   7.752  -7.733  1.00  0.00    -0.074 C 
ATOM      2  C   UNL     1      -2.188   7.114  -8.454  1.00  0.00    -0.027 C 
ATOM      3  C   UNL     1      -1.636   8.968  -6.942  1.00  0.00     0.039 C 
ENDROOT
BRANCH   2   4
ATOM      4  C   UNL     1      -2.132   5.816  -9.256  1.00  0.00     0.032 C 
BRANCH   4   5
ATOM      5  C   UNL     1      -2.451   5.927 -10.763  1.00  0.00     0.034 C 
BRANCH   5   6
ATOM      6  C   UNL     1      -1.292   5.611 -11.723  1.00  0.00    -0.077 C 
ATOM      7  C   UNL     1      -1.654   5.059 -13.084  1.00  0.00     0.039 C 
ATOM      8  C   UNL     1       0.035   5.856 -11.514  1.00  0.00    -0.027 CG0
ATOM      9  G   UNL     1       0.729   6.290 -10.238  1.00  0.00     0.000 G0
ENDBRANCH   5   6
ENDBRANCH   4   5
ENDBRANCH   2   4
BRANCH   1  10
ATOM     10  C   UNL     1       0.265   7.418  -7.742  1.00  0.00     0.057 C 
BRANCH  10  11
ATOM     11  C   UNL     1       0.558   5.999  -7.313  1.00  0.00    -0.026 C 
ATOM     12  C   UNL     1       1.196   5.065  -8.061  1.00  0.00    -0.024 C 
BRANCH  12  13
ATOM     13  C   UNL     1       1.618   5.195  -9.533  1.00  0.00    -0.014 C 
ATOM     14  C   UNL     1       3.144   5.463  -9.631  1.00  0.00     0.016 C 
ATOM     15  C   UNL     1       1.365   3.833 -10.220  1.00  0.00     0.016 C 
BRANCH  13  16
ATOM     16  C   UNL     1       0.725   6.275 -10.238  1.00  0.00     0.038 CG0
ATOM     17  G   UNL     1       0.054   5.849 -11.528  1.00  0.00     0.000 G0
ENDBRANCH  13  16
ENDBRANCH  12  13
ENDBRANCH  10  11
ENDBRANCH   1  10
TORSDOF 0
ENDMDL
