MODEL 1
REMARK VINA RESULT:    -3.248      0.000      0.000
REMARK INTER + INTRA:          -8.562
REMARK INTER:                  -7.426
REMARK INTRA:                  -1.136
REMARK UNBOUND:                -1.136
REMARK SMILES CCCCCCCCCCCCCCCCCCCCCCCC(=O)[O-]
REMARK SMILES IDX 13 1 14 2 15 3 16 4 17 5 18 6 19 7 20 8 21 9 22 10 23 11
REMARK SMILES IDX 24 12 25 13 26 14 12 15 11 16 10 17 9 18 8 19 7 20 6 21 5 22
REMARK SMILES IDX 4 23 3 24 2 25 1 26
REMARK H PARENT
REMARK Flexibility Score: inf
ROOT
ATOM      1  C   UNL     1       3.247  -1.523 -10.841  1.00  0.00     0.000 C 
ENDROOT
BRANCH   1   2
ATOM      2  C   UNL     1       4.562  -1.491 -11.640  1.00  0.00     0.000 C 
BRANCH   2   3
ATOM      3  C   UNL     1       5.772  -1.114 -10.771  1.00  0.00     0.000 C 
BRANCH   3   4
ATOM      4  C   UNL     1       7.062  -0.944 -11.588  1.00  0.00     0.000 C 
BRANCH   4   5
ATOM      5  C   UNL     1       7.641  -2.305 -11.994  1.00  0.00     0.000 C 
BRANCH   5   6
ATOM      6  C   UNL     1       8.256  -3.020 -10.781  1.00  0.00     0.000 C 
BRANCH   6   7
ATOM      7  C   UNL     1       8.877  -4.379 -11.142  1.00  0.00     0.000 C 
BRANCH   7   8
ATOM      8  C   UNL     1       8.005  -5.268 -12.049  1.00  0.00     0.000 C 
BRANCH   8   9
ATOM      9  C   UNL     1       8.480  -6.736 -12.124  1.00  0.00     0.000 C 
BRANCH   9  10
ATOM     10  C   UNL     1       7.855  -7.606 -11.019  1.00  0.00     0.006 C 
BRANCH  10  11
ATOM     11  C   UNL     1       8.266  -9.080 -11.136  1.00  0.00     0.053 C 
BRANCH  11  12
ATOM     12  C   UNL     1       7.408  -9.967 -10.284  1.00  0.00     0.041 C 
ATOM     13  O   UNL     1       7.637 -10.073  -9.050  1.00  0.00    -0.550 OA
ATOM     14  O   UNL     1       6.329 -10.637 -10.846  1.00  0.00    -0.550 OA
ENDBRANCH  11  12
ENDBRANCH  10  11
ENDBRANCH   9  10
ENDBRANCH   8   9
ENDBRANCH   7   8
ENDBRANCH   6   7
ENDBRANCH   5   6
ENDBRANCH   4   5
ENDBRANCH   3   4
ENDBRANCH   2   3
ENDBRANCH   1   2
BRANCH   1  15
ATOM     15  C   UNL     1       2.021  -1.163 -11.699  1.00  0.00     0.000 C 
BRANCH  15  16
ATOM     16  C   UNL     1       1.136  -2.357 -12.119  1.00  0.00     0.000 C 
BRANCH  16  17
ATOM     17  C   UNL     1       0.837  -3.399 -11.019  1.00  0.00     0.000 C 
BRANCH  17  18
ATOM     18  C   UNL     1      -0.614  -3.928 -10.975  1.00  0.00    -0.000 C 
BRANCH  18  19
ATOM     19  C   UNL     1      -0.805  -5.324 -11.593  1.00  0.00    -0.000 C 
BRANCH  19  20
ATOM     20  C   UNL     1      -1.025  -6.427 -10.544  1.00  0.00    -0.000 C 
BRANCH  20  21
ATOM     21  C   UNL     1       0.059  -7.520 -10.574  1.00  0.00    -0.000 C 
BRANCH  21  22
ATOM     22  C   UNL     1      -0.252  -8.730 -11.479  1.00  0.00    -0.000 C 
BRANCH  22  23
ATOM     23  C   UNL     1      -1.755  -8.945 -11.709  1.00  0.00    -0.000 C 
BRANCH  23  24
ATOM     24  C   UNL     1      -2.184 -10.355 -11.274  1.00  0.00    -0.000 C 
BRANCH  24  25
ATOM     25  C   UNL     1      -2.066 -10.567  -9.756  1.00  0.00    -0.003 C 
ATOM     26  C   UNL     1      -1.409 -11.897  -9.390  1.00  0.00     0.004 C 
ENDBRANCH  24  25
ENDBRANCH  23  24
ENDBRANCH  22  23
ENDBRANCH  21  22
ENDBRANCH  20  21
ENDBRANCH  19  20
ENDBRANCH  18  19
ENDBRANCH  17  18
ENDBRANCH  16  17
ENDBRANCH  15  16
ENDBRANCH   1  15
TORSDOF 22
ENDMDL
MODEL 2
REMARK VINA RESULT:    -3.149      3.373      4.860
REMARK INTER + INTRA:          -8.336
REMARK INTER:                  -7.065
REMARK INTRA:                  -1.272
REMARK UNBOUND:                -1.136
REMARK SMILES CCCCCCCCCCCCCCCCCCCCCCCC(=O)[O-]
REMARK SMILES IDX 13 1 14 2 15 3 16 4 17 5 18 6 19 7 20 8 21 9 22 10 23 11
REMARK SMILES IDX 24 12 25 13 26 14 12 15 11 16 10 17 9 18 8 19 7 20 6 21 5 22
REMARK SMILES IDX 4 23 3 24 2 25 1 26
REMARK H PARENT
REMARK Flexibility Score: inf
ROOT
ATOM      1  C   UNL     1       2.019  -3.920 -10.358  1.00  0.00     0.000 C 
ENDROOT
BRANCH   1   2
ATOM      2  C   UNL     1       1.838  -2.446  -9.957  1.00  0.00     0.000 C 
BRANCH   2   3
ATOM      3  C   UNL     1       2.600  -1.483 -10.882  1.00  0.00     0.000 C 
BRANCH   3   4
ATOM      4  C   UNL     1       4.125  -1.590 -10.727  1.00  0.00     0.000 C 
BRANCH   4   5
ATOM      5  C   UNL     1       4.811  -1.707 -12.093  1.00  0.00     0.000 C 
BRANCH   5   6
ATOM      6  C   UNL     1       6.273  -1.244 -12.010  1.00  0.00     0.000 C 
BRANCH   6   7
ATOM      7  C   UNL     1       7.273  -2.408 -12.109  1.00  0.00     0.000 C 
BRANCH   7   8
ATOM      8  C   UNL     1       8.147  -2.619 -10.858  1.00  0.00     0.000 C 
BRANCH   8   9
ATOM      9  C   UNL     1       7.769  -1.703  -9.673  1.00  0.00     0.000 C 
BRANCH   9  10
ATOM     10  C   UNL     1       8.986  -0.945  -9.113  1.00  0.00     0.006 C 
BRANCH  10  11
ATOM     11  C   UNL     1       8.790  -0.528  -7.650  1.00  0.00     0.053 C 
BRANCH  11  12
ATOM     12  C   UNL     1       8.882  -1.701  -6.720  1.00  0.00     0.041 C 
ATOM     13  O   UNL     1       8.750  -1.536  -5.478  1.00  0.00    -0.550 OA
ATOM     14  O   UNL     1       9.065  -2.980  -7.230  1.00  0.00    -0.550 OA
ENDBRANCH  11  12
ENDBRANCH  10  11
ENDBRANCH   9  10
ENDBRANCH   8   9
ENDBRANCH   7   8
ENDBRANCH   6   7
ENDBRANCH   5   6
ENDBRANCH   4   5
ENDBRANCH   3   4
ENDBRANCH   2   3
ENDBRANCH   1   2
BRANCH   1  15
ATOM     15  C   UNL     1       1.216  -4.298 -11.615  1.00  0.00     0.000 C 
BRANCH  15  16
ATOM     16  C   UNL     1       0.941  -5.807 -11.793  1.00  0.00     0.000 C 
BRANCH  16  17
ATOM     17  C   UNL     1       0.066  -6.470 -10.707  1.00  0.00     0.000 C 
BRANCH  17  18
ATOM     18  C   UNL     1      -1.397  -6.758 -11.110  1.00  0.00    -0.000 C 
BRANCH  18  19
ATOM     19  C   UNL     1      -1.572  -7.925 -12.097  1.00  0.00    -0.000 C 
BRANCH  19  20
ATOM     20  C   UNL     1      -1.094  -9.273 -11.533  1.00  0.00    -0.000 C 
BRANCH  20  21
ATOM     21  C   UNL     1      -2.107  -9.923 -10.572  1.00  0.00    -0.000 C 
BRANCH  21  22
ATOM     22  C   UNL     1      -1.491 -10.752  -9.426  1.00  0.00    -0.000 C 
BRANCH  22  23
ATOM     23  C   UNL     1      -1.841 -12.246  -9.502  1.00  0.00    -0.000 C 
BRANCH  23  24
ATOM     24  C   UNL     1      -0.656 -13.063 -10.038  1.00  0.00    -0.000 C 
BRANCH  24  25
ATOM     25  C   UNL     1       0.688 -12.339  -9.866  1.00  0.00    -0.003 C 
ATOM     26  C   UNL     1       1.319 -11.932 -11.198  1.00  0.00     0.004 C 
ENDBRANCH  24  25
ENDBRANCH  23  24
ENDBRANCH  22  23
ENDBRANCH  21  22
ENDBRANCH  20  21
ENDBRANCH  19  20
ENDBRANCH  18  19
ENDBRANCH  17  18
ENDBRANCH  16  17
ENDBRANCH  15  16
ENDBRANCH   1  15
TORSDOF 22
ENDMDL
MODEL 3
REMARK VINA RESULT:    -2.846      1.311      2.501
REMARK INTER + INTRA:          -7.642
REMARK INTER:                  -6.427
REMARK INTRA:                  -1.215
REMARK UNBOUND:                -1.136
REMARK SMILES CCCCCCCCCCCCCCCCCCCCCCCC(=O)[O-]
REMARK SMILES IDX 13 1 14 2 15 3 16 4 17 5 18 6 19 7 20 8 21 9 22 10 23 11
REMARK SMILES IDX 24 12 25 13 26 14 12 15 11 16 10 17 9 18 8 19 7 20 6 21 5 22
REMARK SMILES IDX 4 23 3 24 2 25 1 26
REMARK H PARENT
REMARK Flexibility Score: inf
ROOT
ATOM      1  C   UNL     1       2.246  -2.873 -10.331  1.00  0.00     0.000 C 
ENDROOT
BRANCH   1   2
ATOM      2  C   UNL     1       2.956  -1.526 -10.551  1.00  0.00     0.000 C 
BRANCH   2   3
ATOM      3  C   UNL     1       3.547  -1.393 -11.963  1.00  0.00     0.000 C 
BRANCH   3   4
ATOM      4  C   UNL     1       5.075  -1.556 -11.988  1.00  0.00     0.000 C 
BRANCH   4   5
ATOM      5  C   UNL     1       5.697  -1.118 -10.657  1.00  0.00     0.000 C 
BRANCH   5   6
ATOM      6  C   UNL     1       7.230  -1.191 -10.723  1.00  0.00     0.000 C 
BRANCH   6   7
ATOM      7  C   UNL     1       7.738  -1.996 -11.930  1.00  0.00     0.000 C 
BRANCH   7   8
ATOM      8  C   UNL     1       8.953  -2.898 -11.641  1.00  0.00     0.000 C 
BRANCH   8   9
ATOM      9  C   UNL     1       8.655  -4.048 -10.654  1.00  0.00     0.000 C 
BRANCH   9  10
ATOM     10  C   UNL     1       9.125  -5.412 -11.192  1.00  0.00     0.006 C 
BRANCH  10  11
ATOM     11  C   UNL     1       7.952  -6.316 -11.592  1.00  0.00     0.053 C 
BRANCH  11  12
ATOM     12  C   UNL     1       7.959  -7.608 -10.831  1.00  0.00     0.041 C 
ATOM     13  O   UNL     1       7.266  -8.581 -11.229  1.00  0.00    -0.550 OA
ATOM     14  O   UNL     1       8.767  -7.749  -9.710  1.00  0.00    -0.550 OA
ENDBRANCH  11  12
ENDBRANCH  10  11
ENDBRANCH   9  10
ENDBRANCH   8   9
ENDBRANCH   7   8
ENDBRANCH   6   7
ENDBRANCH   5   6
ENDBRANCH   4   5
ENDBRANCH   3   4
ENDBRANCH   2   3
ENDBRANCH   1   2
BRANCH   1  15
ATOM     15  C   UNL     1       0.907  -2.971 -11.081  1.00  0.00     0.000 C 
BRANCH  15  16
ATOM     16  C   UNL     1       0.032  -4.189 -10.715  1.00  0.00     0.000 C 
BRANCH  16  17
ATOM     17  C   UNL     1      -1.115  -4.520 -11.695  1.00  0.00     0.000 C 
BRANCH  17  18
ATOM     18  C   UNL     1      -1.425  -6.022 -11.881  1.00  0.00    -0.000 C 
BRANCH  18  19
ATOM     19  C   UNL     1      -0.297  -6.968 -11.436  1.00  0.00    -0.000 C 
BRANCH  19  20
ATOM     20  C   UNL     1      -0.727  -8.444 -11.388  1.00  0.00    -0.000 C 
BRANCH  20  21
ATOM     21  C   UNL     1       0.114  -9.290 -10.413  1.00  0.00    -0.000 C 
BRANCH  21  22
ATOM     22  C   UNL     1       0.975 -10.388 -11.069  1.00  0.00    -0.000 C 
BRANCH  22  23
ATOM     23  C   UNL     1       0.238 -11.727 -11.222  1.00  0.00    -0.000 C 
BRANCH  23  24
ATOM     24  C   UNL     1      -0.092 -12.334  -9.851  1.00  0.00    -0.000 C 
BRANCH  24  25
ATOM     25  C   UNL     1      -1.566 -12.143  -9.459  1.00  0.00    -0.003 C 
ATOM     26  C   UNL     1      -2.536 -12.715 -10.493  1.00  0.00     0.004 C 
ENDBRANCH  24  25
ENDBRANCH  23  24
ENDBRANCH  22  23
ENDBRANCH  21  22
ENDBRANCH  20  21
ENDBRANCH  19  20
ENDBRANCH  18  19
ENDBRANCH  17  18
ENDBRANCH  16  17
ENDBRANCH  15  16
ENDBRANCH   1  15
TORSDOF 22
ENDMDL
MODEL 4
REMARK VINA RESULT:    -2.577      3.438      9.725
REMARK INTER + INTRA:          -7.027
REMARK INTER:                  -5.787
REMARK INTRA:                  -1.240
REMARK UNBOUND:                -1.136
REMARK SMILES CCCCCCCCCCCCCCCCCCCCCCCC(=O)[O-]
REMARK SMILES IDX 13 1 14 2 15 3 16 4 17 5 18 6 19 7 20 8 21 9 22 10 23 11
REMARK SMILES IDX 24 12 25 13 26 14 12 15 11 16 10 17 9 18 8 19 7 20 6 21 5 22
REMARK SMILES IDX 4 23 3 24 2 25 1 26
REMARK H PARENT
REMARK Flexibility Score: inf
ROOT
ATOM      1  C   UNL     1       3.080  -6.370 -11.092  1.00  0.00     0.000 C 
ENDROOT
BRANCH   1   2
ATOM      2  C   UNL     1       2.099  -7.421 -10.543  1.00  0.00     0.000 C 
BRANCH   2   3
ATOM      3  C   UNL     1       1.511  -8.314 -11.646  1.00  0.00     0.000 C 
BRANCH   3   4
ATOM      4  C   UNL     1       1.208  -9.740 -11.161  1.00  0.00     0.000 C 
BRANCH   4   5
ATOM      5  C   UNL     1       1.840 -10.784 -12.089  1.00  0.00     0.000 C 
BRANCH   5   6
ATOM      6  C   UNL     1       1.354 -12.197 -11.731  1.00  0.00     0.000 C 
BRANCH   6   7
ATOM      7  C   UNL     1       0.665 -12.261 -10.359  1.00  0.00     0.000 C 
BRANCH   7   8
ATOM      8  C   UNL     1      -0.683 -13.007 -10.345  1.00  0.00     0.000 C 
BRANCH   8   9
ATOM      9  C   UNL     1      -1.345 -13.123 -11.736  1.00  0.00     0.000 C 
BRANCH   9  10
ATOM     10  C   UNL     1      -2.638 -12.294 -11.836  1.00  0.00     0.006 C 
BRANCH  10  11
ATOM     11  C   UNL     1      -2.848 -11.394 -10.612  1.00  0.00     0.053 C 
BRANCH  11  12
ATOM     12  C   UNL     1      -2.771  -9.940 -10.970  1.00  0.00     0.041 C 
ATOM     13  O   UNL     1      -2.012  -9.168 -10.326  1.00  0.00    -0.550 OA
ATOM     14  O   UNL     1      -3.500  -9.449 -12.046  1.00  0.00    -0.550 OA
ENDBRANCH  11  12
ENDBRANCH  10  11
ENDBRANCH   9  10
ENDBRANCH   8   9
ENDBRANCH   7   8
ENDBRANCH   6   7
ENDBRANCH   5   6
ENDBRANCH   4   5
ENDBRANCH   3   4
ENDBRANCH   2   3
ENDBRANCH   1   2
BRANCH   1  15
ATOM     15  C   UNL     1       2.390  -5.318 -11.978  1.00  0.00     0.000 C 
BRANCH  15  16
ATOM     16  C   UNL     1       1.215  -4.565 -11.317  1.00  0.00     0.000 C 
BRANCH  16  17
ATOM     17  C   UNL     1       1.544  -3.174 -10.733  1.00  0.00     0.000 C 
BRANCH  17  18
ATOM     18  C   UNL     1       2.112  -2.145 -11.735  1.00  0.00    -0.000 C 
BRANCH  18  19
ATOM     19  C   UNL     1       3.582  -2.374 -12.124  1.00  0.00    -0.000 C 
BRANCH  19  20
ATOM     20  C   UNL     1       4.567  -1.522 -11.305  1.00  0.00    -0.000 C 
BRANCH  20  21
ATOM     21  C   UNL     1       5.842  -1.148 -12.084  1.00  0.00    -0.000 C 
BRANCH  21  22
ATOM     22  C   UNL     1       7.073  -2.030 -11.793  1.00  0.00    -0.000 C 
BRANCH  22  23
ATOM     23  C   UNL     1       8.378  -1.228 -11.670  1.00  0.00    -0.000 C 
BRANCH  23  24
ATOM     24  C   UNL     1       9.088  -1.531 -10.342  1.00  0.00    -0.000 C 
BRANCH  24  25
ATOM     25  C   UNL     1       8.419  -2.672  -9.561  1.00  0.00    -0.003 C 
ATOM     26  C   UNL     1       9.030  -4.040  -9.864  1.00  0.00     0.004 C 
ENDBRANCH  24  25
ENDBRANCH  23  24
ENDBRANCH  22  23
ENDBRANCH  21  22
ENDBRANCH  20  21
ENDBRANCH  19  20
ENDBRANCH  18  19
ENDBRANCH  17  18
ENDBRANCH  16  17
ENDBRANCH  15  16
ENDBRANCH   1  15
TORSDOF 22
ENDMDL
MODEL 5
REMARK VINA RESULT:    -1.301      1.626      2.090
REMARK INTER + INTRA:          -4.110
REMARK INTER:                  -2.985
REMARK INTRA:                  -1.126
REMARK UNBOUND:                -1.136
REMARK SMILES CCCCCCCCCCCCCCCCCCCCCCCC(=O)[O-]
REMARK SMILES IDX 13 1 14 2 15 3 16 4 17 5 18 6 19 7 20 8 21 9 22 10 23 11
REMARK SMILES IDX 24 12 25 13 26 14 12 15 11 16 10 17 9 18 8 19 7 20 6 21 5 22
REMARK SMILES IDX 4 23 3 24 2 25 1 26
REMARK H PARENT
REMARK Flexibility Score: inf
ROOT
ATOM      1  C   UNL     1       4.484  -0.718 -11.264  1.00  0.00     0.000 C 
ENDROOT
BRANCH   1   2
ATOM      2  C   UNL     1       5.757  -0.655 -12.125  1.00  0.00     0.000 C 
BRANCH   2   3
ATOM      3  C   UNL     1       6.937  -0.001 -11.389  1.00  0.00     0.000 C 
BRANCH   3   4
ATOM      4  C   UNL     1       8.127  -0.957 -11.203  1.00  0.00     0.000 C 
BRANCH   4   5
ATOM      5  C   UNL     1       7.649  -2.362 -10.821  1.00  0.00     0.000 C 
BRANCH   5   6
ATOM      6  C   UNL     1       8.415  -2.883  -9.595  1.00  0.00     0.000 C 
BRANCH   6   7
ATOM      7  C   UNL     1       8.183  -4.381  -9.339  1.00  0.00     0.000 C 
BRANCH   7   8
ATOM      8  C   UNL     1       9.095  -5.325 -10.147  1.00  0.00     0.000 C 
BRANCH   8   9
ATOM      9  C   UNL     1       9.124  -6.773  -9.610  1.00  0.00     0.000 C 
BRANCH   9  10
ATOM     10  C   UNL     1       8.163  -7.698 -10.380  1.00  0.00     0.006 C 
BRANCH  10  11
ATOM     11  C   UNL     1       8.122  -9.113  -9.791  1.00  0.00     0.053 C 
BRANCH  11  12
ATOM     12  C   UNL     1       7.132  -9.985 -10.505  1.00  0.00     0.041 C 
ATOM     13  O   UNL     1       6.483  -9.534 -11.486  1.00  0.00    -0.550 OA
ATOM     14  O   UNL     1       6.962 -11.307 -10.116  1.00  0.00    -0.550 OA
ENDBRANCH  11  12
ENDBRANCH  10  11
ENDBRANCH   9  10
ENDBRANCH   8   9
ENDBRANCH   7   8
ENDBRANCH   6   7
ENDBRANCH   5   6
ENDBRANCH   4   5
ENDBRANCH   3   4
ENDBRANCH   2   3
ENDBRANCH   1   2
BRANCH   1  15
ATOM     15  C   UNL     1       3.250  -1.182 -12.058  1.00  0.00     0.000 C 
BRANCH  15  16
ATOM     16  C   UNL     1       3.018  -2.709 -12.083  1.00  0.00     0.000 C 
BRANCH  16  17
ATOM     17  C   UNL     1       1.596  -3.184 -11.713  1.00  0.00     0.000 C 
BRANCH  17  18
ATOM     18  C   UNL     1       1.450  -4.694 -11.421  1.00  0.00    -0.000 C 
BRANCH  18  19
ATOM     19  C   UNL     1       2.780  -5.463 -11.346  1.00  0.00    -0.000 C 
BRANCH  19  20
ATOM     20  C   UNL     1       2.719  -6.847 -12.014  1.00  0.00    -0.000 C 
BRANCH  20  21
ATOM     21  C   UNL     1       1.385  -7.580 -11.775  1.00  0.00    -0.000 C 
BRANCH  21  22
ATOM     22  C   UNL     1       1.456  -8.777 -10.805  1.00  0.00    -0.000 C 
BRANCH  22  23
ATOM     23  C   UNL     1       0.710 -10.018 -11.318  1.00  0.00    -0.000 C 
BRANCH  23  24
ATOM     24  C   UNL     1      -0.593  -9.623 -12.029  1.00  0.00    -0.000 C 
BRANCH  24  25
ATOM     25  C   UNL     1      -1.642  -9.048 -11.065  1.00  0.00    -0.003 C 
ATOM     26  C   UNL     1      -3.066  -9.491 -11.402  1.00  0.00     0.004 C 
ENDBRANCH  24  25
ENDBRANCH  23  24
ENDBRANCH  22  23
ENDBRANCH  21  22
ENDBRANCH  20  21
ENDBRANCH  19  20
ENDBRANCH  18  19
ENDBRANCH  17  18
ENDBRANCH  16  17
ENDBRANCH  15  16
ENDBRANCH   1  15
TORSDOF 22
ENDMDL
MODEL 6
REMARK VINA RESULT:    -1.205      4.047      4.965
REMARK INTER + INTRA:          -3.891
REMARK INTER:                  -2.861
REMARK INTRA:                  -1.030
REMARK UNBOUND:                -1.136
REMARK SMILES CCCCCCCCCCCCCCCCCCCCCCCC(=O)[O-]
REMARK SMILES IDX 13 1 14 2 15 3 16 4 17 5 18 6 19 7 20 8 21 9 22 10 23 11
REMARK SMILES IDX 24 12 25 13 26 14 12 15 11 16 10 17 9 18 8 19 7 20 6 21 5 22
REMARK SMILES IDX 4 23 3 24 2 25 1 26
REMARK H PARENT
REMARK Flexibility Score: inf
ROOT
ATOM      1  C   UNL     1       4.422  -0.664 -11.266  1.00  0.00     0.000 C 
ENDROOT
BRANCH   1   2
ATOM      2  C   UNL     1       5.705  -1.251 -11.878  1.00  0.00     0.000 C 
BRANCH   2   3
ATOM      3  C   UNL     1       6.789  -0.186 -12.112  1.00  0.00     0.000 C 
BRANCH   3   4
ATOM      4  C   UNL     1       8.017  -0.376 -11.207  1.00  0.00     0.000 C 
BRANCH   4   5
ATOM      5  C   UNL     1       7.636  -1.088  -9.904  1.00  0.00     0.000 C 
BRANCH   5   6
ATOM      6  C   UNL     1       8.289  -0.400  -8.696  1.00  0.00     0.000 C 
BRANCH   6   7
ATOM      7  C   UNL     1       7.929  -1.071  -7.361  1.00  0.00     0.000 C 
BRANCH   7   8
ATOM      8  C   UNL     1       9.123  -1.319  -6.418  1.00  0.00     0.000 C 
BRANCH   8   9
ATOM      9  C   UNL     1       8.718  -1.540  -4.944  1.00  0.00     0.000 C 
BRANCH   9  10
ATOM     10  C   UNL     1       8.638  -3.033  -4.581  1.00  0.00     0.006 C 
BRANCH  10  11
ATOM     11  C   UNL     1       8.366  -3.256  -3.087  1.00  0.00     0.053 C 
BRANCH  11  12
ATOM     12  C   UNL     1       8.898  -4.576  -2.615  1.00  0.00     0.041 C 
ATOM     13  O   UNL     1       9.125  -4.765  -1.391  1.00  0.00    -0.550 OA
ATOM     14  O   UNL     1       9.097  -5.609  -3.521  1.00  0.00    -0.550 OA
ENDBRANCH  11  12
ENDBRANCH  10  11
ENDBRANCH   9  10
ENDBRANCH   8   9
ENDBRANCH   7   8
ENDBRANCH   6   7
ENDBRANCH   5   6
ENDBRANCH   4   5
ENDBRANCH   3   4
ENDBRANCH   2   3
ENDBRANCH   1   2
BRANCH   1  15
ATOM     15  C   UNL     1       3.167  -0.980 -12.098  1.00  0.00     0.000 C 
BRANCH  15  16
ATOM     16  C   UNL     1       2.716  -2.456 -12.078  1.00  0.00     0.000 C 
BRANCH  16  17
ATOM     17  C   UNL     1       2.311  -3.023 -10.699  1.00  0.00     0.000 C 
BRANCH  17  18
ATOM     18  C   UNL     1       2.069  -4.548 -10.647  1.00  0.00    -0.000 C 
BRANCH  18  19
ATOM     19  C   UNL     1       1.552  -5.159 -11.960  1.00  0.00    -0.000 C 
BRANCH  19  20
ATOM     20  C   UNL     1       0.618  -6.362 -11.742  1.00  0.00    -0.000 C 
BRANCH  20  21
ATOM     21  C   UNL     1       1.208  -7.427 -10.798  1.00  0.00    -0.000 C 
BRANCH  21  22
ATOM     22  C   UNL     1       0.184  -8.147  -9.897  1.00  0.00    -0.000 C 
BRANCH  22  23
ATOM     23  C   UNL     1      -1.254  -8.072 -10.432  1.00  0.00    -0.000 C 
BRANCH  23  24
ATOM     24  C   UNL     1      -1.804  -9.473 -10.736  1.00  0.00    -0.000 C 
BRANCH  24  25
ATOM     25  C   UNL     1      -0.941 -10.591 -10.131  1.00  0.00    -0.003 C 
ATOM     26  C   UNL     1      -1.643 -11.949 -10.128  1.00  0.00     0.004 C 
ENDBRANCH  24  25
ENDBRANCH  23  24
ENDBRANCH  22  23
ENDBRANCH  21  22
ENDBRANCH  20  21
ENDBRANCH  19  20
ENDBRANCH  18  19
ENDBRANCH  17  18
ENDBRANCH  16  17
ENDBRANCH  15  16
ENDBRANCH   1  15
TORSDOF 22
ENDMDL
