MODEL 1
REMARK VINA RESULT:    -3.759      0.000      0.000
REMARK INTER + INTRA:          -4.597
REMARK INTER:                  -4.528
REMARK INTRA:                  -0.069
REMARK UNBOUND:                -0.069
REMARK SMILES CC[C@@H](C)[C@H]([NH3+])C(=O)[O-]
REMARK SMILES IDX 3 1 4 2 5 3 6 4 7 8 8 9 9 10 2 11 1 12
REMARK H PARENT 6 5 6 6 6 7
REMARK Flexibility Score: inf
ROOT
ATOM      1  C   UNL     1     -15.659  12.668  -5.619  1.00  0.00     0.050 C 
ATOM      2  C   UNL     1     -16.947  12.592  -4.776  1.00  0.00     0.014 C 
ENDROOT
BRANCH   1   3
ATOM      3  C   UNL     1     -14.435  12.102  -4.829  1.00  0.00     0.230 C 
BRANCH   3   4
ATOM      4  N   UNL     1     -14.807  10.957  -3.981  1.00  0.00    -0.350 N 
ATOM      5  H   UNL     1     -13.987  10.319  -3.857  1.00  0.00     0.345 HD
ATOM      6  H   UNL     1     -15.560  10.397  -4.441  1.00  0.00     0.345 HD
ATOM      7  H   UNL     1     -15.132  11.281  -3.041  1.00  0.00     0.345 HD
ENDBRANCH   3   4
BRANCH   3   8
ATOM      8  C   UNL     1     -13.808  13.170  -3.970  1.00  0.00     0.099 C 
ATOM      9  O   UNL     1     -13.731  13.016  -2.722  1.00  0.00    -0.544 OA
ATOM     10  O   UNL     1     -13.302  14.327  -4.550  1.00  0.00    -0.544 OA
ENDBRANCH   3   8
ENDBRANCH   1   3
BRANCH   1  11
ATOM     11  C   UNL     1     -15.878  11.917  -6.966  1.00  0.00     0.006 C 
ATOM     12  C   UNL     1     -17.103  12.417  -7.734  1.00  0.00     0.004 C 
ENDBRANCH   1  11
TORSDOF 4
ENDMDL
MODEL 2
REMARK VINA RESULT:    -3.736      1.775      2.142
REMARK INTER + INTRA:          -4.570
REMARK INTER:                  -4.452
REMARK INTRA:                  -0.118
REMARK UNBOUND:                -0.069
REMARK SMILES CC[C@@H](C)[C@H]([NH3+])C(=O)[O-]
REMARK SMILES IDX 3 1 4 2 5 3 6 4 7 8 8 9 9 10 2 11 1 12
REMARK H PARENT 6 5 6 6 6 7
REMARK Flexibility Score: inf
ROOT
ATOM      1  C   UNL     1     -14.847  11.983  -4.510  1.00  0.00     0.050 C 
ATOM      2  C   UNL     1     -14.416  10.784  -3.642  1.00  0.00     0.014 C 
ENDROOT
BRANCH   1   3
ATOM      3  C   UNL     1     -13.952  13.233  -4.227  1.00  0.00     0.230 C 
BRANCH   3   4
ATOM      4  N   UNL     1     -13.286  13.150  -2.916  1.00  0.00    -0.350 N 
ATOM      5  H   UNL     1     -13.616  12.303  -2.398  1.00  0.00     0.345 HD
ATOM      6  H   UNL     1     -13.533  13.980  -2.332  1.00  0.00     0.345 HD
ATOM      7  H   UNL     1     -12.247  13.096  -3.031  1.00  0.00     0.345 HD
ENDBRANCH   3   4
BRANCH   3   8
ATOM      8  C   UNL     1     -14.763  14.502  -4.289  1.00  0.00     0.099 C 
ATOM      9  O   UNL     1     -15.303  14.962  -3.248  1.00  0.00    -0.544 OA
ATOM     10  O   UNL     1     -14.912  15.179  -5.495  1.00  0.00    -0.544 OA
ENDBRANCH   3   8
ENDBRANCH   1   3
BRANCH   1  11
ATOM     11  C   UNL     1     -14.812  11.573  -6.012  1.00  0.00     0.006 C 
ATOM     12  C   UNL     1     -16.034  12.065  -6.791  1.00  0.00     0.004 C 
ENDBRANCH   1  11
TORSDOF 4
ENDMDL
MODEL 3
REMARK VINA RESULT:    -3.633     12.283     13.243
REMARK INTER + INTRA:          -4.446
REMARK INTER:                  -4.385
REMARK INTRA:                  -0.061
REMARK UNBOUND:                -0.069
REMARK SMILES CC[C@@H](C)[C@H]([NH3+])C(=O)[O-]
REMARK SMILES IDX 3 1 4 2 5 3 6 4 7 8 8 9 9 10 2 11 1 12
REMARK H PARENT 6 5 6 6 6 7
REMARK Flexibility Score: inf
ROOT
ATOM      1  C   UNL     1     -13.146   3.334   2.918  1.00  0.00     0.050 C 
ATOM      2  C   UNL     1     -14.293   3.140   1.907  1.00  0.00     0.014 C 
ENDROOT
BRANCH   1   3
ATOM      3  C   UNL     1     -13.338   2.417   4.169  1.00  0.00     0.230 C 
BRANCH   3   4
ATOM      4  N   UNL     1     -14.429   1.447   3.980  1.00  0.00    -0.350 N 
ATOM      5  H   UNL     1     -15.106   1.801   3.265  1.00  0.00     0.345 HD
ATOM      6  H   UNL     1     -14.963   1.325   4.871  1.00  0.00     0.345 HD
ATOM      7  H   UNL     1     -14.053   0.522   3.666  1.00  0.00     0.345 HD
ENDBRANCH   3   4
BRANCH   3   8
ATOM      8  C   UNL     1     -13.614   3.237   5.403  1.00  0.00     0.099 C 
ATOM      9  O   UNL     1     -14.488   4.144   5.379  1.00  0.00    -0.544 OA
ATOM     10  O   UNL     1     -12.913   2.992   6.578  1.00  0.00    -0.544 OA
ENDBRANCH   3   8
ENDBRANCH   1   3
BRANCH   1  11
ATOM     11  C   UNL     1     -11.783   3.074   2.211  1.00  0.00     0.006 C 
ATOM     12  C   UNL     1     -11.658   3.805   0.873  1.00  0.00     0.004 C 
ENDBRANCH   1  11
TORSDOF 4
ENDMDL
MODEL 4
REMARK VINA RESULT:    -3.571     11.335     12.175
REMARK INTER + INTRA:          -4.371
REMARK INTER:                  -4.248
REMARK INTRA:                  -0.123
REMARK UNBOUND:                -0.069
REMARK SMILES CC[C@@H](C)[C@H]([NH3+])C(=O)[O-]
REMARK SMILES IDX 3 1 4 2 5 3 6 4 7 8 8 9 9 10 2 11 1 12
REMARK H PARENT 6 5 6 6 6 7
REMARK Flexibility Score: inf
ROOT
ATOM      1  C   UNL     1     -14.034   3.227   1.006  1.00  0.00     0.050 C 
ATOM      2  C   UNL     1     -14.868   4.403   0.461  1.00  0.00     0.014 C 
ENDROOT
BRANCH   1   3
ATOM      3  C   UNL     1     -14.083   3.178   2.568  1.00  0.00     0.230 C 
BRANCH   3   4
ATOM      4  N   UNL     1     -14.769   4.350   3.135  1.00  0.00    -0.350 N 
ATOM      5  H   UNL     1     -15.043   4.163   4.127  1.00  0.00     0.345 HD
ATOM      6  H   UNL     1     -15.650   4.544   2.608  1.00  0.00     0.345 HD
ATOM      7  H   UNL     1     -14.148   5.193   3.107  1.00  0.00     0.345 HD
ENDBRANCH   3   4
BRANCH   3   8
ATOM      8  C   UNL     1     -12.695   3.087   3.148  1.00  0.00     0.099 C 
ATOM      9  O   UNL     1     -11.687   3.259   2.412  1.00  0.00    -0.544 OA
ATOM     10  O   UNL     1     -12.519   2.824   4.502  1.00  0.00    -0.544 OA
ENDBRANCH   3   8
ENDBRANCH   1   3
BRANCH   1  11
ATOM     11  C   UNL     1     -14.535   1.898   0.367  1.00  0.00     0.006 C 
ATOM     12  C   UNL     1     -15.038   0.892   1.405  1.00  0.00     0.004 C 
ENDBRANCH   1  11
TORSDOF 4
ENDMDL
MODEL 5
REMARK VINA RESULT:    -3.499      2.400      3.174
REMARK INTER + INTRA:          -4.284
REMARK INTER:                  -4.157
REMARK INTRA:                  -0.127
REMARK UNBOUND:                -0.069
REMARK SMILES CC[C@@H](C)[C@H]([NH3+])C(=O)[O-]
REMARK SMILES IDX 3 1 4 2 5 3 6 4 7 8 8 9 9 10 2 11 1 12
REMARK H PARENT 6 5 6 6 6 7
REMARK Flexibility Score: inf
ROOT
ATOM      1  C   UNL     1     -14.808  14.312  -4.477  1.00  0.00     0.050 C 
ATOM      2  C   UNL     1     -13.827  15.492  -4.331  1.00  0.00     0.014 C 
ENDROOT
BRANCH   1   3
ATOM      3  C   UNL     1     -14.360  13.096  -3.603  1.00  0.00     0.230 C 
BRANCH   3   4
ATOM      4  N   UNL     1     -13.075  13.345  -2.927  1.00  0.00    -0.350 N 
ATOM      5  H   UNL     1     -12.350  12.675  -3.272  1.00  0.00     0.345 HD
ATOM      6  H   UNL     1     -13.172  13.187  -1.898  1.00  0.00     0.345 HD
ATOM      7  H   UNL     1     -12.747  14.323  -3.104  1.00  0.00     0.345 HD
ENDBRANCH   3   4
BRANCH   3   8
ATOM      8  C   UNL     1     -14.245  11.846  -4.437  1.00  0.00     0.099 C 
ATOM      9  O   UNL     1     -14.143  11.926  -5.690  1.00  0.00    -0.544 OA
ATOM     10  O   UNL     1     -14.240  10.596  -3.828  1.00  0.00    -0.544 OA
ENDBRANCH   3   8
ENDBRANCH   1   3
BRANCH   1  11
ATOM     11  C   UNL     1     -16.246  14.788  -4.115  1.00  0.00     0.006 C 
ATOM     12  C   UNL     1     -17.336  13.949  -4.786  1.00  0.00     0.004 C 
ENDBRANCH   1  11
TORSDOF 4
ENDMDL
MODEL 6
REMARK VINA RESULT:    -3.475      2.476      3.762
REMARK INTER + INTRA:          -4.256
REMARK INTER:                  -4.133
REMARK INTRA:                  -0.123
REMARK UNBOUND:                -0.069
REMARK SMILES CC[C@@H](C)[C@H]([NH3+])C(=O)[O-]
REMARK SMILES IDX 3 1 4 2 5 3 6 4 7 8 8 9 9 10 2 11 1 12
REMARK H PARENT 6 5 6 6 6 7
REMARK Flexibility Score: inf
ROOT
ATOM      1  C   UNL     1     -14.421  12.259  -4.733  1.00  0.00     0.050 C 
ATOM      2  C   UNL     1     -14.429  10.953  -3.915  1.00  0.00     0.014 C 
ENDROOT
BRANCH   1   3
ATOM      3  C   UNL     1     -15.855  12.614  -5.244  1.00  0.00     0.230 C 
BRANCH   3   4
ATOM      4  N   UNL     1     -16.902  11.922  -4.473  1.00  0.00    -0.350 N 
ATOM      5  H   UNL     1     -16.691  11.976  -3.450  1.00  0.00     0.345 HD
ATOM      6  H   UNL     1     -16.925  10.908  -4.725  1.00  0.00     0.345 HD
ATOM      7  H   UNL     1     -17.839  12.351  -4.652  1.00  0.00     0.345 HD
ENDBRANCH   3   4
BRANCH   3   8
ATOM      8  C   UNL     1     -16.008  12.272  -6.703  1.00  0.00     0.099 C 
ATOM      9  O   UNL     1     -14.999  11.965  -7.392  1.00  0.00    -0.544 OA
ATOM     10  O   UNL     1     -17.265  12.283  -7.297  1.00  0.00    -0.544 OA
ENDBRANCH   3   8
ENDBRANCH   1   3
BRANCH   1  11
ATOM     11  C   UNL     1     -13.811  13.405  -3.872  1.00  0.00     0.006 C 
ATOM     12  C   UNL     1     -14.681  14.664  -3.855  1.00  0.00     0.004 C 
ENDBRANCH   1  11
TORSDOF 4
ENDMDL
MODEL 7
REMARK VINA RESULT:    -3.437     10.593     11.363
REMARK INTER + INTRA:          -4.210
REMARK INTER:                  -4.099
REMARK INTRA:                  -0.111
REMARK UNBOUND:                -0.069
REMARK SMILES CC[C@@H](C)[C@H]([NH3+])C(=O)[O-]
REMARK SMILES IDX 3 1 4 2 5 3 6 4 7 8 8 9 9 10 2 11 1 12
REMARK H PARENT 6 5 6 6 6 7
REMARK Flexibility Score: inf
ROOT
ATOM      1  C   UNL     1     -14.511   1.928   0.571  1.00  0.00     0.050 C 
ATOM      2  C   UNL     1     -15.017   1.061   1.740  1.00  0.00     0.014 C 
ENDROOT
BRANCH   1   3
ATOM      3  C   UNL     1     -14.102   3.355   1.063  1.00  0.00     0.230 C 
BRANCH   3   4
ATOM      4  N   UNL     1     -14.528   3.602   2.451  1.00  0.00    -0.350 N 
ATOM      5  H   UNL     1     -14.606   4.631   2.626  1.00  0.00     0.345 HD
ATOM      6  H   UNL     1     -13.815   3.233   3.119  1.00  0.00     0.345 HD
ATOM      7  H   UNL     1     -15.455   3.153   2.640  1.00  0.00     0.345 HD
ENDBRANCH   3   4
BRANCH   3   8
ATOM      8  C   UNL     1     -14.684   4.421   0.170  1.00  0.00     0.099 C 
ATOM      9  O   UNL     1     -15.606   5.168   0.591  1.00  0.00    -0.544 OA
ATOM     10  O   UNL     1     -14.198   4.592  -1.121  1.00  0.00    -0.544 OA
ENDBRANCH   3   8
ENDBRANCH   1   3
BRANCH   1  11
ATOM     11  C   UNL     1     -13.331   1.200  -0.140  1.00  0.00     0.006 C 
ATOM     12  C   UNL     1     -13.445   1.233  -1.666  1.00  0.00     0.004 C 
ENDBRANCH   1  11
TORSDOF 4
ENDMDL
MODEL 8
REMARK VINA RESULT:    -3.353      8.238      9.105
REMARK INTER + INTRA:          -4.108
REMARK INTER:                  -3.964
REMARK INTRA:                  -0.144
REMARK UNBOUND:                -0.069
REMARK SMILES CC[C@@H](C)[C@H]([NH3+])C(=O)[O-]
REMARK SMILES IDX 3 1 4 2 5 3 6 4 7 8 8 9 9 10 2 11 1 12
REMARK H PARENT 6 5 6 6 6 7
REMARK Flexibility Score: inf
ROOT
ATOM      1  C   UNL     1     -13.795   5.282  -4.418  1.00  0.00     0.050 C 
ATOM      2  C   UNL     1     -13.778   5.377  -5.957  1.00  0.00     0.014 C 
ENDROOT
BRANCH   1   3
ATOM      3  C   UNL     1     -13.243   3.903  -3.933  1.00  0.00     0.230 C 
BRANCH   3   4
ATOM      4  N   UNL     1     -12.758   3.078  -5.052  1.00  0.00    -0.350 N 
ATOM      5  H   UNL     1     -12.205   2.267  -4.689  1.00  0.00     0.345 HD
ATOM      6  H   UNL     1     -12.117   3.635  -5.661  1.00  0.00     0.345 HD
ATOM      7  H   UNL     1     -13.559   2.716  -5.621  1.00  0.00     0.345 HD
ENDBRANCH   3   4
BRANCH   3   8
ATOM      8  C   UNL     1     -14.295   3.137  -3.174  1.00  0.00     0.099 C 
ATOM      9  O   UNL     1     -14.431   3.305  -1.933  1.00  0.00    -0.544 OA
ATOM     10  O   UNL     1     -15.130   2.247  -3.840  1.00  0.00    -0.544 OA
ENDBRANCH   3   8
ENDBRANCH   1   3
BRANCH   1  11
ATOM     11  C   UNL     1     -12.992   6.473  -3.818  1.00  0.00     0.006 C 
ATOM     12  C   UNL     1     -11.771   6.022  -3.013  1.00  0.00     0.004 C 
ENDBRANCH   1  11
TORSDOF 4
ENDMDL
MODEL 9
REMARK VINA RESULT:    -3.320      7.676      8.693
REMARK INTER + INTRA:          -4.069
REMARK INTER:                  -3.969
REMARK INTRA:                  -0.100
REMARK UNBOUND:                -0.069
REMARK SMILES CC[C@@H](C)[C@H]([NH3+])C(=O)[O-]
REMARK SMILES IDX 3 1 4 2 5 3 6 4 7 8 8 9 9 10 2 11 1 12
REMARK H PARENT 6 5 6 6 6 7
REMARK Flexibility Score: inf
ROOT
ATOM      1  C   UNL     1     -11.958   4.949  -3.388  1.00  0.00     0.050 C 
ATOM      2  C   UNL     1     -11.175   5.764  -2.340  1.00  0.00     0.014 C 
ENDROOT
BRANCH   1   3
ATOM      3  C   UNL     1     -12.759   5.887  -4.348  1.00  0.00     0.230 C 
BRANCH   3   4
ATOM      4  N   UNL     1     -13.336   7.040  -3.637  1.00  0.00    -0.350 N 
ATOM      5  H   UNL     1     -12.643   7.427  -2.955  1.00  0.00     0.345 HD
ATOM      6  H   UNL     1     -14.172   6.743  -3.085  1.00  0.00     0.345 HD
ATOM      7  H   UNL     1     -13.608   7.793  -4.311  1.00  0.00     0.345 HD
ENDBRANCH   3   4
BRANCH   3   8
ATOM      8  C   UNL     1     -13.863   5.132  -5.043  1.00  0.00     0.099 C 
ATOM      9  O   UNL     1     -14.178   5.419  -6.228  1.00  0.00    -0.544 OA
ATOM     10  O   UNL     1     -14.533   4.108  -4.384  1.00  0.00    -0.544 OA
ENDBRANCH   3   8
ENDBRANCH   1   3
BRANCH   1  11
ATOM     11  C   UNL     1     -10.973   4.026  -4.166  1.00  0.00     0.006 C 
ATOM     12  C   UNL     1      -9.786   4.789  -4.758  1.00  0.00     0.004 C 
ENDBRANCH   1  11
TORSDOF 4
ENDMDL
