MODEL 1
REMARK VINA RESULT:    -5.861      0.000      0.000
REMARK INTER + INTRA:          -6.388
REMARK INTER:                  -6.375
REMARK INTRA:                  -0.013
REMARK UNBOUND:                -0.013
REMARK SMILES COc1ccccc1O
REMARK SMILES IDX 3 1 4 2 5 3 6 4 7 5 8 6 2 7 1 8 9 9
REMARK H PARENT 9 10
REMARK Flexibility Score: inf
ROOT
ATOM      1  C   UNL     1      85.758  69.247 103.785  1.00  0.00     0.160 A 
ATOM      2  C   UNL     1      87.064  68.716 103.763  1.00  0.00     0.050 A 
ATOM      3  C   UNL     1      87.534  67.954 104.836  1.00  0.00     0.004 A 
ATOM      4  C   UNL     1      86.711  67.715 105.938  1.00  0.00     0.004 A 
ATOM      5  C   UNL     1      85.417  68.237 105.971  1.00  0.00     0.050 A 
ATOM      6  C   UNL     1      84.936  69.001 104.901  1.00  0.00     0.157 A 
ENDROOT
BRANCH   1   7
ATOM      7  O   UNL     1      85.251  70.016 102.725  1.00  0.00    -0.493 OA
ATOM      8  C   UNL     1      85.275  71.440 102.676  1.00  0.00     0.278 C 
ENDBRANCH   1   7
BRANCH   6   9
ATOM      9  O   UNL     1      83.638  69.507 104.966  1.00  0.00    -0.504 OA
ATOM     10  H   UNL     1      83.426  70.476 104.759  1.00  0.00     0.293 HD
ENDBRANCH   6   9
TORSDOF 2
ENDMDL
MODEL 2
REMARK VINA RESULT:    -5.741      0.995      2.385
REMARK INTER + INTRA:          -6.258
REMARK INTER:                  -6.226
REMARK INTRA:                  -0.032
REMARK UNBOUND:                -0.013
REMARK SMILES COc1ccccc1O
REMARK SMILES IDX 3 1 4 2 5 3 6 4 7 5 8 6 2 7 1 8 9 9
REMARK H PARENT 9 10
REMARK Flexibility Score: inf
ROOT
ATOM      1  C   UNL     1      85.056  69.345 104.979  1.00  0.00     0.160 A 
ATOM      2  C   UNL     1      85.688  68.560 105.966  1.00  0.00     0.050 A 
ATOM      3  C   UNL     1      86.887  67.900 105.683  1.00  0.00     0.004 A 
ATOM      4  C   UNL     1      87.467  68.014 104.418  1.00  0.00     0.004 A 
ATOM      5  C   UNL     1      86.850  68.788 103.433  1.00  0.00     0.050 A 
ATOM      6  C   UNL     1      85.649  69.454 103.707  1.00  0.00     0.157 A 
ENDROOT
BRANCH   1   7
ATOM      7  O   UNL     1      83.853  70.023 105.228  1.00  0.00    -0.493 OA
ATOM      8  C   UNL     1      83.763  71.356 105.723  1.00  0.00     0.278 C 
ENDBRANCH   1   7
BRANCH   6   9
ATOM      9  O   UNL     1      85.060  70.219 102.700  1.00  0.00    -0.504 OA
ATOM     10  H   UNL     1      84.881  71.209 102.811  1.00  0.00     0.293 HD
ENDBRANCH   6   9
TORSDOF 2
ENDMDL
MODEL 3
REMARK VINA RESULT:    -5.221      1.527      3.850
REMARK INTER + INTRA:          -5.692
REMARK INTER:                  -5.660
REMARK INTRA:                  -0.032
REMARK UNBOUND:                -0.013
REMARK SMILES COc1ccccc1O
REMARK SMILES IDX 3 1 4 2 5 3 6 4 7 5 8 6 2 7 1 8 9 9
REMARK H PARENT 9 10
REMARK Flexibility Score: inf
ROOT
ATOM      1  C   UNL     1      85.350  69.041 104.757  1.00  0.00     0.160 A 
ATOM      2  C   UNL     1      84.445  69.991 105.272  1.00  0.00     0.050 A 
ATOM      3  C   UNL     1      84.143  71.146 104.545  1.00  0.00     0.004 A 
ATOM      4  C   UNL     1      84.738  71.365 103.301  1.00  0.00     0.004 A 
ATOM      5  C   UNL     1      85.637  70.432 102.781  1.00  0.00     0.050 A 
ATOM      6  C   UNL     1      85.945  69.271 103.501  1.00  0.00     0.157 A 
ENDROOT
BRANCH   1   7
ATOM      7  O   UNL     1      85.676  67.869 105.458  1.00  0.00    -0.493 OA
ATOM      8  C   UNL     1      86.757  67.753 106.378  1.00  0.00     0.278 C 
ENDBRANCH   1   7
BRANCH   6   9
ATOM      9  O   UNL     1      86.846  68.359 102.952  1.00  0.00    -0.504 OA
ATOM     10  H   UNL     1      87.622  67.982 103.483  1.00  0.00     0.293 HD
ENDBRANCH   6   9
TORSDOF 2
ENDMDL
MODEL 4
REMARK VINA RESULT:    -5.116      1.010      2.220
REMARK INTER + INTRA:          -5.578
REMARK INTER:                  -5.553
REMARK INTRA:                  -0.025
REMARK UNBOUND:                -0.013
REMARK SMILES COc1ccccc1O
REMARK SMILES IDX 3 1 4 2 5 3 6 4 7 5 8 6 2 7 1 8 9 9
REMARK H PARENT 9 10
REMARK Flexibility Score: inf
ROOT
ATOM      1  C   UNL     1      85.689  69.114 104.212  1.00  0.00     0.160 A 
ATOM      2  C   UNL     1      85.360  69.075 105.582  1.00  0.00     0.050 A 
ATOM      3  C   UNL     1      86.132  68.324 106.473  1.00  0.00     0.004 A 
ATOM      4  C   UNL     1      87.237  67.608 106.010  1.00  0.00     0.004 A 
ATOM      5  C   UNL     1      87.573  67.639 104.655  1.00  0.00     0.050 A 
ATOM      6  C   UNL     1      86.806  68.388 103.754  1.00  0.00     0.157 A 
ENDROOT
BRANCH   1   7
ATOM      7  O   UNL     1      84.937  69.857 103.288  1.00  0.00    -0.493 OA
ATOM      8  C   UNL     1      85.220  71.201 102.911  1.00  0.00     0.278 C 
ENDBRANCH   1   7
BRANCH   6   9
ATOM      9  O   UNL     1      87.169  68.398 102.407  1.00  0.00    -0.504 OA
ATOM     10  H   UNL     1      86.484  68.459 101.664  1.00  0.00     0.293 HD
ENDBRANCH   6   9
TORSDOF 2
ENDMDL
MODEL 5
REMARK VINA RESULT:    -5.027      1.562      2.459
REMARK INTER + INTRA:          -5.481
REMARK INTER:                  -5.450
REMARK INTRA:                  -0.032
REMARK UNBOUND:                -0.013
REMARK SMILES COc1ccccc1O
REMARK SMILES IDX 3 1 4 2 5 3 6 4 7 5 8 6 2 7 1 8 9 9
REMARK H PARENT 9 10
REMARK Flexibility Score: inf
ROOT
ATOM      1  C   UNL     1      85.562  68.951 105.000  1.00  0.00     0.160 A 
ATOM      2  C   UNL     1      85.821  69.075 103.620  1.00  0.00     0.050 A 
ATOM      3  C   UNL     1      86.971  68.507 103.063  1.00  0.00     0.004 A 
ATOM      4  C   UNL     1      87.871  67.812 103.873  1.00  0.00     0.004 A 
ATOM      5  C   UNL     1      87.625  67.683 105.242  1.00  0.00     0.050 A 
ATOM      6  C   UNL     1      86.476  68.248 105.809  1.00  0.00     0.157 A 
ENDROOT
BRANCH   1   7
ATOM      7  O   UNL     1      84.418  69.507 105.594  1.00  0.00    -0.493 OA
ATOM      8  C   UNL     1      83.946  70.829 105.356  1.00  0.00     0.278 C 
ENDBRANCH   1   7
BRANCH   6   9
ATOM      9  O   UNL     1      86.261  68.100 107.179  1.00  0.00    -0.504 OA
ATOM     10  H   UNL     1      85.987  68.877 107.769  1.00  0.00     0.293 HD
ENDBRANCH   6   9
TORSDOF 2
ENDMDL
MODEL 6
REMARK VINA RESULT:    -5.007      1.594      3.153
REMARK INTER + INTRA:          -5.460
REMARK INTER:                  -5.627
REMARK INTRA:                   0.167
REMARK UNBOUND:                -0.013
REMARK SMILES COc1ccccc1O
REMARK SMILES IDX 3 1 4 2 5 3 6 4 7 5 8 6 2 7 1 8 9 9
REMARK H PARENT 9 10
REMARK Flexibility Score: inf
ROOT
ATOM      1  C   UNL     1      86.203  69.061 104.097  1.00  0.00     0.160 A 
ATOM      2  C   UNL     1      86.203  70.101 103.144  1.00  0.00     0.050 A 
ATOM      3  C   UNL     1      85.235  71.108 103.198  1.00  0.00     0.004 A 
ATOM      4  C   UNL     1      84.261  71.090 104.198  1.00  0.00     0.004 A 
ATOM      5  C   UNL     1      84.251  70.065 105.147  1.00  0.00     0.050 A 
ATOM      6  C   UNL     1      85.217  69.052 105.102  1.00  0.00     0.157 A 
ENDROOT
BRANCH   1   7
ATOM      7  O   UNL     1      87.159  68.034 104.075  1.00  0.00    -0.493 OA
ATOM      8  C   UNL     1      88.131  67.813 105.093  1.00  0.00     0.278 C 
ENDBRANCH   1   7
BRANCH   6   9
ATOM      9  O   UNL     1      85.178  68.044 106.065  1.00  0.00    -0.504 OA
ATOM     10  H   UNL     1      84.395  67.407 106.148  1.00  0.00     0.293 HD
ENDBRANCH   6   9
TORSDOF 2
ENDMDL
MODEL 7
REMARK VINA RESULT:    -4.903      8.471      9.526
REMARK INTER + INTRA:          -5.346
REMARK INTER:                  -5.307
REMARK INTRA:                  -0.039
REMARK UNBOUND:                -0.013
REMARK SMILES COc1ccccc1O
REMARK SMILES IDX 3 1 4 2 5 3 6 4 7 5 8 6 2 7 1 8 9 9
REMARK H PARENT 9 10
REMARK Flexibility Score: inf
ROOT
ATOM      1  C   UNL     1      79.137  62.876 105.834  1.00  0.00     0.160 A 
ATOM      2  C   UNL     1      80.456  62.410 105.661  1.00  0.00     0.050 A 
ATOM      3  C   UNL     1      81.111  62.584 104.438  1.00  0.00     0.004 A 
ATOM      4  C   UNL     1      80.462  63.224 103.381  1.00  0.00     0.004 A 
ATOM      5  C   UNL     1      79.156  63.689 103.541  1.00  0.00     0.050 A 
ATOM      6  C   UNL     1      78.490  63.520 104.761  1.00  0.00     0.157 A 
ENDROOT
BRANCH   1   7
ATOM      7  O   UNL     1      78.447  62.719 107.047  1.00  0.00    -0.493 OA
ATOM      8  C   UNL     1      77.668  61.578 107.391  1.00  0.00     0.278 C 
ENDBRANCH   1   7
BRANCH   6   9
ATOM      9  O   UNL     1      77.185  63.997 104.887  1.00  0.00    -0.504 OA
ATOM     10  H   UNL     1      76.465  63.781 104.210  1.00  0.00     0.293 HD
ENDBRANCH   6   9
TORSDOF 2
ENDMDL
MODEL 8
REMARK VINA RESULT:    -4.794      9.261     10.435
REMARK INTER + INTRA:          -5.227
REMARK INTER:                  -5.190
REMARK INTRA:                  -0.038
REMARK UNBOUND:                -0.013
REMARK SMILES COc1ccccc1O
REMARK SMILES IDX 3 1 4 2 5 3 6 4 7 5 8 6 2 7 1 8 9 9
REMARK H PARENT 9 10
REMARK Flexibility Score: inf
ROOT
ATOM      1  C   UNL     1      78.393  63.267 107.202  1.00  0.00     0.160 A 
ATOM      2  C   UNL     1      79.314  63.001 106.169  1.00  0.00     0.050 A 
ATOM      3  C   UNL     1      79.398  61.722 105.610  1.00  0.00     0.004 A 
ATOM      4  C   UNL     1      78.568  60.700 106.073  1.00  0.00     0.004 A 
ATOM      5  C   UNL     1      77.652  60.952 107.097  1.00  0.00     0.050 A 
ATOM      6  C   UNL     1      77.560  62.230 107.663  1.00  0.00     0.157 A 
ENDROOT
BRANCH   1   7
ATOM      7  O   UNL     1      78.280  64.539 107.787  1.00  0.00    -0.493 OA
ATOM      8  C   UNL     1      79.043  64.985 108.904  1.00  0.00     0.278 C 
ENDBRANCH   1   7
BRANCH   6   9
ATOM      9  O   UNL     1      76.634  62.448 108.684  1.00  0.00    -0.504 OA
ATOM     10  H   UNL     1      76.552  63.340 109.155  1.00  0.00     0.293 HD
ENDBRANCH   6   9
TORSDOF 2
ENDMDL
MODEL 9
REMARK VINA RESULT:    -4.743      8.224      8.715
REMARK INTER + INTRA:          -5.172
REMARK INTER:                  -5.141
REMARK INTRA:                  -0.031
REMARK UNBOUND:                -0.013
REMARK SMILES COc1ccccc1O
REMARK SMILES IDX 3 1 4 2 5 3 6 4 7 5 8 6 2 7 1 8 9 9
REMARK H PARENT 9 10
REMARK Flexibility Score: inf
ROOT
ATOM      1  C   UNL     1      79.095  63.676 103.631  1.00  0.00     0.160 A 
ATOM      2  C   UNL     1      80.397  63.218 103.342  1.00  0.00     0.050 A 
ATOM      3  C   UNL     1      81.164  62.601 104.334  1.00  0.00     0.004 A 
ATOM      4  C   UNL     1      80.645  62.434 105.619  1.00  0.00     0.004 A 
ATOM      5  C   UNL     1      79.357  62.884 105.917  1.00  0.00     0.050 A 
ATOM      6  C   UNL     1      78.579  63.503 104.930  1.00  0.00     0.157 A 
ENDROOT
BRANCH   1   7
ATOM      7  O   UNL     1      78.295  64.300 102.661  1.00  0.00    -0.493 OA
ATOM      8  C   UNL     1      78.135  63.834 101.325  1.00  0.00     0.278 C 
ENDBRANCH   1   7
BRANCH   6   9
ATOM      9  O   UNL     1      77.297  63.941 105.262  1.00  0.00    -0.504 OA
ATOM     10  H   UNL     1      77.070  64.296 106.182  1.00  0.00     0.293 HD
ENDBRANCH   6   9
TORSDOF 2
ENDMDL
