MODEL 1
REMARK VINA RESULT:    -6.850      0.000      0.000
REMARK INTER + INTRA:          -8.597
REMARK INTER:                  -8.452
REMARK INTRA:                  -0.145
REMARK UNBOUND:                -0.145
REMARK SMILES Oc1cc(O)c2cc(O)c(-c3cc(O)c(O)c(O)c3)[o+]c2c1
REMARK SMILES IDX 10 1 20 2 21 3 22 4 2 5 3 6 4 7 6 8 7 9 8 10 11 11 12 12
REMARK SMILES IDX 13 13 19 14 15 15 17 16 14 17 16 19 18 21 9 23 1 25 5 27
REMARK H PARENT 14 18 16 20 18 22 9 24 1 26 5 28
REMARK Flexibility Score: inf
ROOT
ATOM      1  C   UNL     1       6.391  43.084  37.647  1.00  0.00     0.402 A 
ATOM      2  O   UNL     1       6.695  42.972  36.356  1.00  0.00    -0.202 OA
ATOM      3  C   UNL     1       7.159  41.853  35.811  1.00  0.00     0.368 A 
ATOM      4  C   UNL     1       7.448  41.832  34.443  1.00  0.00     0.162 A 
ATOM      5  C   UNL     1       7.934  40.670  33.843  1.00  0.00     0.128 A 
ATOM      6  C   UNL     1       8.133  39.519  34.613  1.00  0.00     0.093 A 
ATOM      7  C   UNL     1       7.852  39.513  35.984  1.00  0.00     0.136 A 
ATOM      8  C   UNL     1       7.360  40.694  36.599  1.00  0.00     0.125 A 
ATOM      9  C   UNL     1       7.063  40.786  37.969  1.00  0.00     0.078 A 
ATOM     10  C   UNL     1       6.587  41.986  38.505  1.00  0.00     0.223 A 
ENDROOT
BRANCH   1  11
ATOM     11  C   UNL     1       5.872  44.382  38.134  1.00  0.00     0.091 A 
ATOM     12  C   UNL     1       4.633  44.427  38.790  1.00  0.00     0.068 A 
ATOM     13  C   UNL     1       4.121  45.634  39.281  1.00  0.00     0.162 A 
ATOM     14  C   UNL     1       6.618  45.564  38.004  1.00  0.00     0.068 A 
ATOM     15  C   UNL     1       4.870  46.825  39.126  1.00  0.00     0.200 A 
ATOM     16  C   UNL     1       6.119  46.778  38.491  1.00  0.00     0.162 A 
BRANCH  13  17
ATOM     17  O   UNL     1       2.875  45.603  39.912  1.00  0.00    -0.504 OA
ATOM     18  H   UNL     1       2.425  44.759  40.234  1.00  0.00     0.293 HD
ENDBRANCH  13  17
BRANCH  15  19
ATOM     19  O   UNL     1       4.415  48.064  39.587  1.00  0.00    -0.502 OA
ATOM     20  H   UNL     1       5.012  48.777  39.978  1.00  0.00     0.293 HD
ENDBRANCH  15  19
BRANCH  16  21
ATOM     21  O   UNL     1       6.864  47.948  38.353  1.00  0.00    -0.504 OA
ATOM     22  H   UNL     1       6.498  48.755  37.860  1.00  0.00     0.293 HD
ENDBRANCH  16  21
ENDBRANCH   1  11
BRANCH  10  23
ATOM     23  O   UNL     1       6.339  42.093  39.873  1.00  0.00    -0.500 OA
ATOM     24  H   UNL     1       5.951  41.322  40.405  1.00  0.00     0.294 HD
ENDBRANCH  10  23
BRANCH   5  25
ATOM     25  O   UNL     1       8.215  40.668  32.478  1.00  0.00    -0.507 OA
ATOM     26  H   UNL     1       7.580  41.083  31.806  1.00  0.00     0.293 HD
ENDBRANCH   5  25
BRANCH   7  27
ATOM     27  O   UNL     1       8.074  38.324  36.683  1.00  0.00    -0.507 OA
ATOM     28  H   UNL     1       8.180  37.419  36.250  1.00  0.00     0.293 HD
ENDBRANCH   7  27
TORSDOF 7
ENDMDL
MODEL 2
REMARK VINA RESULT:    -6.759      1.228      7.097
REMARK INTER + INTRA:          -8.485
REMARK INTER:                  -8.119
REMARK INTRA:                  -0.366
REMARK UNBOUND:                -0.145
REMARK SMILES Oc1cc(O)c2cc(O)c(-c3cc(O)c(O)c(O)c3)[o+]c2c1
REMARK SMILES IDX 10 1 20 2 21 3 22 4 2 5 3 6 4 7 6 8 7 9 8 10 11 11 12 12
REMARK SMILES IDX 13 13 19 14 15 15 17 16 14 17 16 19 18 21 9 23 1 25 5 27
REMARK H PARENT 14 18 16 20 18 22 9 24 1 26 5 28
REMARK Flexibility Score: inf
ROOT
ATOM      1  C   UNL     1       6.216  42.964  37.324  1.00  0.00     0.402 A 
ATOM      2  O   UNL     1       6.958  44.061  37.453  1.00  0.00    -0.202 OA
ATOM      3  C   UNL     1       6.561  45.136  38.125  1.00  0.00     0.368 A 
ATOM      4  C   UNL     1       7.413  46.241  38.207  1.00  0.00     0.162 A 
ATOM      5  C   UNL     1       7.023  47.381  38.909  1.00  0.00     0.128 A 
ATOM      6  C   UNL     1       5.773  47.421  39.536  1.00  0.00     0.093 A 
ATOM      7  C   UNL     1       4.902  46.328  39.470  1.00  0.00     0.136 A 
ATOM      8  C   UNL     1       5.293  45.166  38.754  1.00  0.00     0.125 A 
ATOM      9  C   UNL     1       4.479  44.029  38.623  1.00  0.00     0.078 A 
ATOM     10  C   UNL     1       4.932  42.923  37.897  1.00  0.00     0.223 A 
ENDROOT
BRANCH   1  11
ATOM     11  C   UNL     1       6.775  41.827  36.558  1.00  0.00     0.091 A 
ATOM     12  C   UNL     1       6.798  41.885  35.156  1.00  0.00     0.068 A 
ATOM     13  C   UNL     1       7.337  40.837  34.401  1.00  0.00     0.162 A 
ATOM     14  C   UNL     1       7.334  40.714  37.203  1.00  0.00     0.068 A 
ATOM     15  C   UNL     1       7.879  39.708  35.059  1.00  0.00     0.200 A 
ATOM     16  C   UNL     1       7.877  39.658  36.460  1.00  0.00     0.162 A 
BRANCH  13  17
ATOM     17  O   UNL     1       7.314  40.960  33.009  1.00  0.00    -0.504 OA
ATOM     18  H   UNL     1       8.018  40.577  32.395  1.00  0.00     0.293 HD
ENDBRANCH  13  17
BRANCH  15  19
ATOM     19  O   UNL     1       8.426  38.625  34.365  1.00  0.00    -0.502 OA
ATOM     20  H   UNL     1       8.871  38.697  33.462  1.00  0.00     0.293 HD
ENDBRANCH  15  19
BRANCH  16  21
ATOM     21  O   UNL     1       8.425  38.553  37.110  1.00  0.00    -0.504 OA
ATOM     22  H   UNL     1       8.323  37.615  36.739  1.00  0.00     0.293 HD
ENDBRANCH  16  21
ENDBRANCH   1  11
BRANCH  10  23
ATOM     23  O   UNL     1       4.105  41.812  37.725  1.00  0.00    -0.500 OA
ATOM     24  H   UNL     1       3.245  41.703  38.250  1.00  0.00     0.294 HD
ENDBRANCH  10  23
BRANCH   5  25
ATOM     25  O   UNL     1       7.888  48.473  38.979  1.00  0.00    -0.507 OA
ATOM     26  H   UNL     1       8.860  48.363  39.244  1.00  0.00     0.293 HD
ENDBRANCH   5  25
BRANCH   7  27
ATOM     27  O   UNL     1       3.673  46.443  40.125  1.00  0.00    -0.507 OA
ATOM     28  H   UNL     1       2.953  47.106  39.875  1.00  0.00     0.293 HD
ENDBRANCH   7  27
TORSDOF 7
ENDMDL
MODEL 3
REMARK VINA RESULT:    -6.454      5.653      7.224
REMARK INTER + INTRA:          -8.108
REMARK INTER:                  -7.747
REMARK INTRA:                  -0.361
REMARK UNBOUND:                -0.145
REMARK SMILES Oc1cc(O)c2cc(O)c(-c3cc(O)c(O)c(O)c3)[o+]c2c1
REMARK SMILES IDX 10 1 20 2 21 3 22 4 2 5 3 6 4 7 6 8 7 9 8 10 11 11 12 12
REMARK SMILES IDX 13 13 19 14 15 15 17 16 14 17 16 19 18 21 9 23 1 25 5 27
REMARK H PARENT 14 18 16 20 18 22 9 24 1 26 5 28
REMARK Flexibility Score: inf
ROOT
ATOM      1  C   UNL     1       9.254  47.236  34.975  1.00  0.00     0.402 A 
ATOM      2  O   UNL     1       8.606  47.811  33.966  1.00  0.00    -0.202 OA
ATOM      3  C   UNL     1       9.211  48.262  32.872  1.00  0.00     0.368 A 
ATOM      4  C   UNL     1       8.444  48.849  31.863  1.00  0.00     0.162 A 
ATOM      5  C   UNL     1       9.052  49.329  30.703  1.00  0.00     0.128 A 
ATOM      6  C   UNL     1      10.438  49.222  30.548  1.00  0.00     0.093 A 
ATOM      7  C   UNL     1      11.230  48.638  31.543  1.00  0.00     0.136 A 
ATOM      8  C   UNL     1      10.615  48.151  32.726  1.00  0.00     0.125 A 
ATOM      9  C   UNL     1      11.330  47.563  33.783  1.00  0.00     0.078 A 
ATOM     10  C   UNL     1      10.655  47.111  34.921  1.00  0.00     0.223 A 
ENDROOT
BRANCH   1  11
ATOM     11  C   UNL     1       8.466  46.765  36.136  1.00  0.00     0.091 A 
ATOM     12  C   UNL     1       8.331  47.592  37.261  1.00  0.00     0.068 A 
ATOM     13  C   UNL     1       7.575  47.187  38.368  1.00  0.00     0.162 A 
ATOM     14  C   UNL     1       7.801  45.529  36.116  1.00  0.00     0.068 A 
ATOM     15  C   UNL     1       6.927  45.930  38.348  1.00  0.00     0.200 A 
ATOM     16  C   UNL     1       7.041  45.111  37.215  1.00  0.00     0.162 A 
BRANCH  13  17
ATOM     17  O   UNL     1       7.497  48.059  39.456  1.00  0.00    -0.504 OA
ATOM     18  H   UNL     1       7.154  47.797  40.368  1.00  0.00     0.293 HD
ENDBRANCH  13  17
BRANCH  15  19
ATOM     19  O   UNL     1       6.164  45.462  39.421  1.00  0.00    -0.502 OA
ATOM     20  H   UNL     1       6.480  45.453  40.380  1.00  0.00     0.293 HD
ENDBRANCH  15  19
BRANCH  16  21
ATOM     21  O   UNL     1       6.389  43.879  37.189  1.00  0.00    -0.504 OA
ATOM     22  H   UNL     1       6.893  43.016  37.020  1.00  0.00     0.293 HD
ENDBRANCH  16  21
ENDBRANCH   1  11
BRANCH  10  23
ATOM     23  O   UNL     1      11.369  46.572  35.991  1.00  0.00    -0.500 OA
ATOM     24  H   UNL     1      12.079  47.106  36.479  1.00  0.00     0.294 HD
ENDBRANCH  10  23
BRANCH   5  25
ATOM     25  O   UNL     1       8.269  49.911  29.707  1.00  0.00    -0.507 OA
ATOM     26  H   UNL     1       8.017  49.403  28.867  1.00  0.00     0.293 HD
ENDBRANCH   5  25
BRANCH   7  27
ATOM     27  O   UNL     1      12.606  48.565  31.312  1.00  0.00    -0.507 OA
ATOM     28  H   UNL     1      13.104  49.137  30.646  1.00  0.00     0.293 HD
ENDBRANCH   7  27
TORSDOF 7
ENDMDL
MODEL 4
REMARK VINA RESULT:    -6.124      1.645      7.366
REMARK INTER + INTRA:          -7.702
REMARK INTER:                  -7.328
REMARK INTRA:                  -0.373
REMARK UNBOUND:                -0.145
REMARK SMILES Oc1cc(O)c2cc(O)c(-c3cc(O)c(O)c(O)c3)[o+]c2c1
REMARK SMILES IDX 10 1 20 2 21 3 22 4 2 5 3 6 4 7 6 8 7 9 8 10 11 11 12 12
REMARK SMILES IDX 13 13 19 14 15 15 17 16 14 17 16 19 18 21 9 23 1 25 5 27
REMARK H PARENT 14 18 16 20 18 22 9 24 1 26 5 28
REMARK Flexibility Score: inf
ROOT
ATOM      1  C   UNL     1       6.992  43.803  35.965  1.00  0.00     0.402 A 
ATOM      2  O   UNL     1       6.032  44.039  36.855  1.00  0.00    -0.202 OA
ATOM      3  C   UNL     1       5.950  45.162  37.560  1.00  0.00     0.368 A 
ATOM      4  C   UNL     1       4.902  45.319  38.471  1.00  0.00     0.162 A 
ATOM      5  C   UNL     1       4.789  46.489  39.222  1.00  0.00     0.128 A 
ATOM      6  C   UNL     1       5.731  47.512  39.064  1.00  0.00     0.093 A 
ATOM      7  C   UNL     1       6.790  47.380  38.158  1.00  0.00     0.136 A 
ATOM      8  C   UNL     1       6.909  46.190  37.394  1.00  0.00     0.125 A 
ATOM      9  C   UNL     1       7.945  45.964  36.473  1.00  0.00     0.078 A 
ATOM     10  C   UNL     1       8.000  44.763  35.759  1.00  0.00     0.223 A 
ENDROOT
BRANCH   1  11
ATOM     11  C   UNL     1       6.969  42.515  35.234  1.00  0.00     0.091 A 
ATOM     12  C   UNL     1       7.688  41.422  35.740  1.00  0.00     0.068 A 
ATOM     13  C   UNL     1       7.671  40.184  35.087  1.00  0.00     0.162 A 
ATOM     14  C   UNL     1       6.197  42.346  34.075  1.00  0.00     0.068 A 
ATOM     15  C   UNL     1       6.908  40.028  33.905  1.00  0.00     0.200 A 
ATOM     16  C   UNL     1       6.170  41.113  33.411  1.00  0.00     0.162 A 
BRANCH  13  17
ATOM     17  O   UNL     1       8.422  39.146  35.643  1.00  0.00    -0.504 OA
ATOM     18  H   UNL     1       8.179  38.667  36.498  1.00  0.00     0.293 HD
ENDBRANCH  13  17
BRANCH  15  19
ATOM     19  O   UNL     1       6.854  38.823  33.200  1.00  0.00    -0.502 OA
ATOM     20  H   UNL     1       6.413  37.983  33.547  1.00  0.00     0.293 HD
ENDBRANCH  15  19
BRANCH  16  21
ATOM     21  O   UNL     1       5.406  40.956  32.256  1.00  0.00    -0.504 OA
ATOM     22  H   UNL     1       4.914  40.091  32.059  1.00  0.00     0.293 HD
ENDBRANCH  16  21
ENDBRANCH   1  11
BRANCH  10  23
ATOM     23  O   UNL     1       9.055  44.518  34.881  1.00  0.00    -0.500 OA
ATOM     24  H   UNL     1       9.503  43.610  34.827  1.00  0.00     0.294 HD
ENDBRANCH  10  23
BRANCH   5  25
ATOM     25  O   UNL     1       3.736  46.627  40.125  1.00  0.00    -0.507 OA
ATOM     26  H   UNL     1       2.788  46.367  39.877  1.00  0.00     0.293 HD
ENDBRANCH   5  25
BRANCH   7  27
ATOM     27  O   UNL     1       7.686  48.447  38.055  1.00  0.00    -0.507 OA
ATOM     28  H   UNL     1       8.067  48.791  37.186  1.00  0.00     0.293 HD
ENDBRANCH   7  27
TORSDOF 7
ENDMDL
MODEL 5
REMARK VINA RESULT:    -6.041      2.345      7.234
REMARK INTER + INTRA:          -7.599
REMARK INTER:                  -7.247
REMARK INTRA:                  -0.352
REMARK UNBOUND:                -0.145
REMARK SMILES Oc1cc(O)c2cc(O)c(-c3cc(O)c(O)c(O)c3)[o+]c2c1
REMARK SMILES IDX 10 1 20 2 21 3 22 4 2 5 3 6 4 7 6 8 7 9 8 10 11 11 12 12
REMARK SMILES IDX 13 13 19 14 15 15 17 16 14 17 16 19 18 21 9 23 1 25 5 27
REMARK H PARENT 14 18 16 20 18 22 9 24 1 26 5 28
REMARK Flexibility Score: inf
ROOT
ATOM      1  C   UNL     1       6.346  42.198  35.022  1.00  0.00     0.402 A 
ATOM      2  O   UNL     1       7.109  43.280  34.898  1.00  0.00    -0.202 OA
ATOM      3  C   UNL     1       7.200  44.220  35.833  1.00  0.00     0.368 A 
ATOM      4  C   UNL     1       8.031  45.321  35.612  1.00  0.00     0.162 A 
ATOM      5  C   UNL     1       8.148  46.322  36.577  1.00  0.00     0.128 A 
ATOM      6  C   UNL     1       7.429  46.223  37.773  1.00  0.00     0.093 A 
ATOM      7  C   UNL     1       6.589  45.131  38.019  1.00  0.00     0.136 A 
ATOM      8  C   UNL     1       6.466  44.112  37.039  1.00  0.00     0.125 A 
ATOM      9  C   UNL     1       5.638  42.988  37.193  1.00  0.00     0.078 A 
ATOM     10  C   UNL     1       5.564  42.027  36.179  1.00  0.00     0.223 A 
ENDROOT
BRANCH   1  11
ATOM     11  C   UNL     1       6.338  41.216  33.914  1.00  0.00     0.091 A 
ATOM     12  C   UNL     1       5.655  41.521  32.727  1.00  0.00     0.068 A 
ATOM     13  C   UNL     1       5.644  40.625  31.651  1.00  0.00     0.162 A 
ATOM     14  C   UNL     1       7.046  40.008  34.001  1.00  0.00     0.068 A 
ATOM     15  C   UNL     1       6.342  39.399  31.757  1.00  0.00     0.200 A 
ATOM     16  C   UNL     1       7.045  39.102  32.933  1.00  0.00     0.162 A 
BRANCH  13  17
ATOM     17  O   UNL     1       4.932  40.992  30.507  1.00  0.00    -0.504 OA
ATOM     18  H   UNL     1       4.284  40.386  30.025  1.00  0.00     0.293 HD
ENDBRANCH  13  17
BRANCH  15  19
ATOM     19  O   UNL     1       6.366  38.457  30.724  1.00  0.00    -0.502 OA
ATOM     20  H   UNL     1       5.601  37.835  30.507  1.00  0.00     0.293 HD
ENDBRANCH  15  19
BRANCH  16  21
ATOM     21  O   UNL     1       7.746  37.901  33.031  1.00  0.00    -0.504 OA
ATOM     22  H   UNL     1       8.694  37.868  33.388  1.00  0.00     0.293 HD
ENDBRANCH  16  21
ENDBRANCH   1  11
BRANCH  10  23
ATOM     23  O   UNL     1       4.705  40.936  36.310  1.00  0.00    -0.500 OA
ATOM     24  H   UNL     1       3.751  40.965  35.969  1.00  0.00     0.294 HD
ENDBRANCH  10  23
BRANCH   5  25
ATOM     25  O   UNL     1       8.983  47.412  36.339  1.00  0.00    -0.507 OA
ATOM     26  H   UNL     1       8.833  48.032  35.551  1.00  0.00     0.293 HD
ENDBRANCH   5  25
BRANCH   7  27
ATOM     27  O   UNL     1       5.908  45.104  39.239  1.00  0.00    -0.507 OA
ATOM     28  H   UNL     1       6.284  45.445  40.111  1.00  0.00     0.293 HD
ENDBRANCH   7  27
TORSDOF 7
ENDMDL
MODEL 6
REMARK VINA RESULT:    -6.006      2.273      3.650
REMARK INTER + INTRA:          -7.555
REMARK INTER:                  -7.485
REMARK INTRA:                  -0.070
REMARK UNBOUND:                -0.145
REMARK SMILES Oc1cc(O)c2cc(O)c(-c3cc(O)c(O)c(O)c3)[o+]c2c1
REMARK SMILES IDX 10 1 20 2 21 3 22 4 2 5 3 6 4 7 6 8 7 9 8 10 11 11 12 12
REMARK SMILES IDX 13 13 19 14 15 15 17 16 14 17 16 19 18 21 9 23 1 25 5 27
REMARK H PARENT 14 18 16 20 18 22 9 24 1 26 5 28
REMARK Flexibility Score: inf
ROOT
ATOM      1  C   UNL     1       6.788  41.673  35.268  1.00  0.00     0.402 A 
ATOM      2  O   UNL     1       6.288  41.840  34.047  1.00  0.00    -0.202 OA
ATOM      3  C   UNL     1       6.307  40.893  33.115  1.00  0.00     0.368 A 
ATOM      4  C   UNL     1       5.754  41.162  31.860  1.00  0.00     0.162 A 
ATOM      5  C   UNL     1       5.757  40.185  30.864  1.00  0.00     0.128 A 
ATOM      6  C   UNL     1       6.316  38.929  31.122  1.00  0.00     0.093 A 
ATOM      7  C   UNL     1       6.876  38.634  32.371  1.00  0.00     0.136 A 
ATOM      8  C   UNL     1       6.877  39.625  33.386  1.00  0.00     0.125 A 
ATOM      9  C   UNL     1       7.428  39.424  34.662  1.00  0.00     0.078 A 
ATOM     10  C   UNL     1       7.397  40.452  35.610  1.00  0.00     0.223 A 
ENDROOT
BRANCH   1  11
ATOM     11  C   UNL     1       6.698  42.803  36.222  1.00  0.00     0.091 A 
ATOM     12  C   UNL     1       7.034  44.095  35.794  1.00  0.00     0.068 A 
ATOM     13  C   UNL     1       6.940  45.189  36.663  1.00  0.00     0.162 A 
ATOM     14  C   UNL     1       6.229  42.618  37.532  1.00  0.00     0.068 A 
ATOM     15  C   UNL     1       6.488  44.991  37.989  1.00  0.00     0.200 A 
ATOM     16  C   UNL     1       6.130  43.703  38.412  1.00  0.00     0.162 A 
BRANCH  13  17
ATOM     17  O   UNL     1       7.304  46.444  36.169  1.00  0.00    -0.504 OA
ATOM     18  H   UNL     1       7.991  47.045  36.600  1.00  0.00     0.293 HD
ENDBRANCH  13  17
BRANCH  15  19
ATOM     19  O   UNL     1       6.378  46.038  38.909  1.00  0.00    -0.502 OA
ATOM     20  H   UNL     1       5.736  46.042  39.688  1.00  0.00     0.293 HD
ENDBRANCH  15  19
BRANCH  16  21
ATOM     21  O   UNL     1       5.670  43.510  39.713  1.00  0.00    -0.504 OA
ATOM     22  H   UNL     1       5.281  42.623  40.013  1.00  0.00     0.293 HD
ENDBRANCH  16  21
ENDBRANCH   1  11
BRANCH  10  23
ATOM     23  O   UNL     1       7.987  40.269  36.860  1.00  0.00    -0.500 OA
ATOM     24  H   UNL     1       8.845  40.744  37.118  1.00  0.00     0.294 HD
ENDBRANCH  10  23
BRANCH   5  25
ATOM     25  O   UNL     1       5.200  40.472  29.619  1.00  0.00    -0.507 OA
ATOM     26  H   UNL     1       5.209  41.412  29.239  1.00  0.00     0.293 HD
ENDBRANCH   5  25
BRANCH   7  27
ATOM     27  O   UNL     1       7.412  37.356  32.551  1.00  0.00    -0.507 OA
ATOM     28  H   UNL     1       7.272  36.789  33.375  1.00  0.00     0.293 HD
ENDBRANCH   7  27
TORSDOF 7
ENDMDL
MODEL 7
REMARK VINA RESULT:    -5.967      9.600     11.202
REMARK INTER + INTRA:          -7.507
REMARK INTER:                  -7.159
REMARK INTRA:                  -0.348
REMARK UNBOUND:                -0.145
REMARK SMILES Oc1cc(O)c2cc(O)c(-c3cc(O)c(O)c(O)c3)[o+]c2c1
REMARK SMILES IDX 10 1 20 2 21 3 22 4 2 5 3 6 4 7 6 8 7 9 8 10 11 11 12 12
REMARK SMILES IDX 13 13 19 14 15 15 17 16 14 17 16 19 18 21 9 23 1 25 5 27
REMARK H PARENT 14 18 16 20 18 22 9 24 1 26 5 28
REMARK Flexibility Score: inf
ROOT
ATOM      1  C   UNL     1      15.705  46.217  32.227  1.00  0.00     0.402 A 
ATOM      2  O   UNL     1      15.602  44.923  32.520  1.00  0.00    -0.202 OA
ATOM      3  C   UNL     1      16.544  44.032  32.229  1.00  0.00     0.368 A 
ATOM      4  C   UNL     1      16.345  42.694  32.578  1.00  0.00     0.162 A 
ATOM      5  C   UNL     1      17.319  41.737  32.288  1.00  0.00     0.128 A 
ATOM      6  C   UNL     1      18.500  42.119  31.643  1.00  0.00     0.093 A 
ATOM      7  C   UNL     1      18.723  43.453  31.282  1.00  0.00     0.136 A 
ATOM      8  C   UNL     1      17.735  44.428  31.574  1.00  0.00     0.125 A 
ATOM      9  C   UNL     1      17.866  45.786  31.237  1.00  0.00     0.078 A 
ATOM     10  C   UNL     1      16.846  46.689  31.553  1.00  0.00     0.223 A 
ENDROOT
BRANCH   1  11
ATOM     11  C   UNL     1      14.591  47.113  32.613  1.00  0.00     0.091 A 
ATOM     12  C   UNL     1      14.724  47.932  33.744  1.00  0.00     0.068 A 
ATOM     13  C   UNL     1      13.700  48.806  34.126  1.00  0.00     0.162 A 
ATOM     14  C   UNL     1      13.424  47.204  31.839  1.00  0.00     0.068 A 
ATOM     15  C   UNL     1      12.516  48.875  33.353  1.00  0.00     0.200 A 
ATOM     16  C   UNL     1      12.391  48.074  32.209  1.00  0.00     0.162 A 
BRANCH  13  17
ATOM     17  O   UNL     1      13.899  49.581  35.271  1.00  0.00    -0.504 OA
ATOM     18  H   UNL     1      13.153  49.993  35.812  1.00  0.00     0.293 HD
ENDBRANCH  13  17
BRANCH  15  19
ATOM     19  O   UNL     1      11.453  49.720  33.682  1.00  0.00    -0.502 OA
ATOM     20  H   UNL     1      10.613  49.416  34.152  1.00  0.00     0.293 HD
ENDBRANCH  15  19
BRANCH  16  21
ATOM     21  O   UNL     1      11.232  48.153  31.438  1.00  0.00    -0.504 OA
ATOM     22  H   UNL     1      10.847  49.045  31.149  1.00  0.00     0.293 HD
ENDBRANCH  16  21
ENDBRANCH   1  11
BRANCH  10  23
ATOM     23  O   UNL     1      16.954  48.027  31.175  1.00  0.00    -0.500 OA
ATOM     24  H   UNL     1      16.626  48.354  30.273  1.00  0.00     0.294 HD
ENDBRANCH  10  23
BRANCH   5  25
ATOM     25  O   UNL     1      17.102  40.407  32.645  1.00  0.00    -0.507 OA
ATOM     26  H   UNL     1      17.871  39.791  32.883  1.00  0.00     0.293 HD
ENDBRANCH   5  25
BRANCH   7  27
ATOM     27  O   UNL     1      19.929  43.754  30.644  1.00  0.00    -0.507 OA
ATOM     28  H   UNL     1      20.233  43.343  29.774  1.00  0.00     0.293 HD
ENDBRANCH   7  27
TORSDOF 7
ENDMDL
MODEL 8
REMARK VINA RESULT:    -5.747     12.506     16.291
REMARK INTER + INTRA:          -7.236
REMARK INTER:                  -6.859
REMARK INTRA:                  -0.378
REMARK UNBOUND:                -0.145
REMARK SMILES Oc1cc(O)c2cc(O)c(-c3cc(O)c(O)c(O)c3)[o+]c2c1
REMARK SMILES IDX 10 1 20 2 21 3 22 4 2 5 3 6 4 7 6 8 7 9 8 10 11 11 12 12
REMARK SMILES IDX 13 13 19 14 15 15 17 16 14 17 16 19 18 21 9 23 1 25 5 27
REMARK H PARENT 14 18 16 20 18 22 9 24 1 26 5 28
REMARK Flexibility Score: inf
ROOT
ATOM      1  C   UNL     1      19.566  40.363  31.664  1.00  0.00     0.402 A 
ATOM      2  O   UNL     1      20.380  40.824  32.610  1.00  0.00    -0.202 OA
ATOM      3  C   UNL     1      19.954  41.252  33.793  1.00  0.00     0.368 A 
ATOM      4  C   UNL     1      20.886  41.717  34.725  1.00  0.00     0.162 A 
ATOM      5  C   UNL     1      20.467  42.170  35.976  1.00  0.00     0.128 A 
ATOM      6  C   UNL     1      19.106  42.160  36.301  1.00  0.00     0.093 A 
ATOM      7  C   UNL     1      18.152  41.700  35.386  1.00  0.00     0.136 A 
ATOM      8  C   UNL     1      18.574  41.240  34.112  1.00  0.00     0.125 A 
ATOM      9  C   UNL     1      17.688  40.774  33.126  1.00  0.00     0.078 A 
ATOM     10  C   UNL     1      18.178  40.342  31.890  1.00  0.00     0.223 A 
ENDROOT
BRANCH   1  11
ATOM     11  C   UNL     1      20.164  39.904  30.389  1.00  0.00     0.091 A 
ATOM     12  C   UNL     1      20.316  40.813  29.332  1.00  0.00     0.068 A 
ATOM     13  C   UNL     1      20.897  40.418  28.120  1.00  0.00     0.162 A 
ATOM     14  C   UNL     1      20.635  38.591  30.233  1.00  0.00     0.068 A 
ATOM     15  C   UNL     1      21.348  39.086  27.963  1.00  0.00     0.200 A 
ATOM     16  C   UNL     1      21.218  38.183  29.027  1.00  0.00     0.162 A 
BRANCH  13  17
ATOM     17  O   UNL     1      21.003  41.375  27.109  1.00  0.00    -0.504 OA
ATOM     18  H   UNL     1      21.770  42.026  27.024  1.00  0.00     0.293 HD
ENDBRANCH  13  17
BRANCH  15  19
ATOM     19  O   UNL     1      21.929  38.626  26.778  1.00  0.00    -0.502 OA
ATOM     20  H   UNL     1      21.666  37.769  26.314  1.00  0.00     0.293 HD
ENDBRANCH  15  19
BRANCH  16  21
ATOM     21  O   UNL     1      21.678  36.875  28.878  1.00  0.00    -0.504 OA
ATOM     22  H   UNL     1      22.436  36.511  29.444  1.00  0.00     0.293 HD
ENDBRANCH  16  21
ENDBRANCH   1  11
BRANCH  10  23
ATOM     23  O   UNL     1      17.295  39.925  30.894  1.00  0.00    -0.500 OA
ATOM     24  H   UNL     1      16.304  39.813  31.074  1.00  0.00     0.294 HD
ENDBRANCH  10  23
BRANCH   5  25
ATOM     25  O   UNL     1      21.412  42.629  36.892  1.00  0.00    -0.507 OA
ATOM     26  H   UNL     1      21.694  42.069  37.688  1.00  0.00     0.293 HD
ENDBRANCH   5  25
BRANCH   7  27
ATOM     27  O   UNL     1      16.814  41.718  35.787  1.00  0.00    -0.507 OA
ATOM     28  H   UNL     1      16.119  41.051  35.487  1.00  0.00     0.293 HD
ENDBRANCH   7  27
TORSDOF 7
ENDMDL
MODEL 9
REMARK VINA RESULT:    -4.261      4.269      7.326
REMARK INTER + INTRA:          -5.402
REMARK INTER:                  -5.039
REMARK INTRA:                  -0.363
REMARK UNBOUND:                -0.145
REMARK SMILES Oc1cc(O)c2cc(O)c(-c3cc(O)c(O)c(O)c3)[o+]c2c1
REMARK SMILES IDX 10 1 20 2 21 3 22 4 2 5 3 6 4 7 6 8 7 9 8 10 11 11 12 12
REMARK SMILES IDX 13 13 19 14 15 15 17 16 14 17 16 19 18 21 9 23 1 25 5 27
REMARK H PARENT 14 18 16 20 18 22 9 24 1 26 5 28
REMARK Flexibility Score: inf
ROOT
ATOM      1  C   UNL     1       8.113  46.408  35.848  1.00  0.00     0.402 A 
ATOM      2  O   UNL     1       7.508  47.244  36.686  1.00  0.00    -0.202 OA
ATOM      3  C   UNL     1       6.562  46.865  37.539  1.00  0.00     0.368 A 
ATOM      4  C   UNL     1       5.986  47.818  38.384  1.00  0.00     0.162 A 
ATOM      5  C   UNL     1       4.993  47.447  39.291  1.00  0.00     0.128 A 
ATOM      6  C   UNL     1       4.571  46.115  39.357  1.00  0.00     0.093 A 
ATOM      7  C   UNL     1       5.133  45.141  38.523  1.00  0.00     0.136 A 
ATOM      8  C   UNL     1       6.141  45.514  37.597  1.00  0.00     0.125 A 
ATOM      9  C   UNL     1       6.750  44.610  36.712  1.00  0.00     0.078 A 
ATOM     10  C   UNL     1       7.735  45.053  35.823  1.00  0.00     0.223 A 
ENDROOT
BRANCH   1  11
ATOM     11  C   UNL     1       9.160  46.950  34.952  1.00  0.00     0.091 A 
ATOM     12  C   UNL     1       8.786  47.708  33.833  1.00  0.00     0.068 A 
ATOM     13  C   UNL     1       9.750  48.254  32.976  1.00  0.00     0.162 A 
ATOM     14  C   UNL     1      10.524  46.770  35.228  1.00  0.00     0.068 A 
ATOM     15  C   UNL     1      11.123  48.048  33.250  1.00  0.00     0.200 A 
ATOM     16  C   UNL     1      11.500  47.310  34.380  1.00  0.00     0.162 A 
BRANCH  13  17
ATOM     17  O   UNL     1       9.301  48.986  31.875  1.00  0.00    -0.504 OA
ATOM     18  H   UNL     1       9.767  49.006  30.980  1.00  0.00     0.293 HD
ENDBRANCH  13  17
BRANCH  15  19
ATOM     19  O   UNL     1      12.135  48.559  32.432  1.00  0.00    -0.502 OA
ATOM     20  H   UNL     1      12.946  49.053  32.776  1.00  0.00     0.293 HD
ENDBRANCH  15  19
BRANCH  16  21
ATOM     21  O   UNL     1      12.852  47.122  34.659  1.00  0.00    -0.504 OA
ATOM     22  H   UNL     1      13.178  46.327  35.198  1.00  0.00     0.293 HD
ENDBRANCH  16  21
ENDBRANCH   1  11
BRANCH  10  23
ATOM     23  O   UNL     1       8.305  44.165  34.910  1.00  0.00    -0.500 OA
ATOM     24  H   UNL     1       8.382  44.391  33.925  1.00  0.00     0.294 HD
ENDBRANCH  10  23
BRANCH   5  25
ATOM     25  O   UNL     1       4.430  48.412  40.125  1.00  0.00    -0.507 OA
ATOM     26  H   UNL     1       3.610  48.939  39.848  1.00  0.00     0.293 HD
ENDBRANCH   5  25
BRANCH   7  27
ATOM     27  O   UNL     1       4.660  43.832  38.651  1.00  0.00    -0.507 OA
ATOM     28  H   UNL     1       5.156  43.013  38.333  1.00  0.00     0.293 HD
ENDBRANCH   7  27
TORSDOF 7
ENDMDL
