MODEL 1
REMARK VINA RESULT:    -5.587      0.000      0.000
REMARK INTER + INTRA:          -6.415
REMARK INTER:                  -6.730
REMARK INTRA:                   0.315
REMARK UNBOUND:                 0.315
REMARK SMILES O=c1c(O)c(-c2ccc(O)c(O)c2)oc2cc(O)cc(O)c12
REMARK SMILES IDX 5 1 3 2 2 3 1 4 22 5 20 6 19 7 17 8 16 9 15 10 14 11 6 12
REMARK SMILES IDX 7 13 8 14 9 15 13 16 11 17 10 18 12 20 4 22 21 24 18 26
REMARK H PARENT 10 19 12 21 4 23 21 25 18 27
REMARK Flexibility Score: inf
ROOT
ATOM      1  C   UNL     1       3.762  48.486 283.353  1.00  0.00     0.180 A 
ATOM      2  C   UNL     1       3.803  49.146 284.592  1.00  0.00     0.208 A 
ATOM      3  C   UNL     1       3.591  48.404 285.766  1.00  0.00     0.238 A 
ATOM      4  O   UNL     1       3.683  48.989 286.876  1.00  0.00    -0.285 OA
ATOM      5  C   UNL     1       3.327  47.015 285.683  1.00  0.00     0.111 A 
ATOM      6  C   UNL     1       3.060  46.173 286.805  1.00  0.00     0.134 A 
ATOM      7  C   UNL     1       2.940  44.791 286.617  1.00  0.00     0.093 A 
ATOM      8  C   UNL     1       3.014  44.228 285.344  1.00  0.00     0.123 A 
ATOM      9  C   UNL     1       3.217  45.049 284.234  1.00  0.00     0.094 A 
ATOM     10  C   UNL     1       3.375  46.428 284.393  1.00  0.00     0.146 A 
ATOM     11  O   UNL     1       3.577  47.172 283.313  1.00  0.00    -0.452 OA
ENDROOT
BRANCH   1  12
ATOM     12  C   UNL     1       3.949  49.204 282.072  1.00  0.00     0.025 A 
ATOM     13  C   UNL     1       3.341  48.758 280.888  1.00  0.00     0.016 A 
ATOM     14  C   UNL     1       3.551  49.438 279.687  1.00  0.00     0.051 A 
ATOM     15  C   UNL     1       4.381  50.564 279.639  1.00  0.00     0.157 A 
ATOM     16  C   UNL     1       4.800  50.321 282.022  1.00  0.00     0.062 A 
ATOM     17  C   UNL     1       5.017  51.008 280.821  1.00  0.00     0.158 A 
BRANCH  15  18
ATOM     18  O   UNL     1       4.546  51.200 278.407  1.00  0.00    -0.504 OA
ATOM     19  H   UNL     1       5.373  51.113 277.833  1.00  0.00     0.293 HD
ENDBRANCH  15  18
BRANCH  17  20
ATOM     20  O   UNL     1       5.866  52.117 280.850  1.00  0.00    -0.504 OA
ATOM     21  H   UNL     1       5.597  53.025 281.200  1.00  0.00     0.293 HD
ENDBRANCH  17  20
ENDBRANCH   1  12
BRANCH   2  22
ATOM     22  O   UNL     1       4.087  50.513 284.653  1.00  0.00    -0.502 OA
ATOM     23  H   UNL     1       4.948  50.905 284.293  1.00  0.00     0.293 HD
ENDBRANCH   2  22
BRANCH   6  24
ATOM     24  O   UNL     1       2.875  46.645 288.108  1.00  0.00    -0.507 OA
ATOM     25  H   UNL     1       1.989  46.678 288.588  1.00  0.00     0.293 HD
ENDBRANCH   6  24
BRANCH   8  26
ATOM     26  O   UNL     1       2.876  42.849 285.193  1.00  0.00    -0.508 OA
ATOM     27  H   UNL     1       2.028  42.369 285.468  1.00  0.00     0.293 HD
ENDBRANCH   8  26
TORSDOF 6
ENDMDL
MODEL 2
REMARK VINA RESULT:    -5.571      1.543      3.220
REMARK INTER + INTRA:          -6.396
REMARK INTER:                  -6.573
REMARK INTRA:                   0.178
REMARK UNBOUND:                 0.315
REMARK SMILES O=c1c(O)c(-c2ccc(O)c(O)c2)oc2cc(O)cc(O)c12
REMARK SMILES IDX 5 1 3 2 2 3 1 4 22 5 20 6 19 7 17 8 16 9 15 10 14 11 6 12
REMARK SMILES IDX 7 13 8 14 9 15 13 16 11 17 10 18 12 20 4 22 21 24 18 26
REMARK H PARENT 10 19 12 21 4 23 21 25 18 27
REMARK Flexibility Score: inf
ROOT
ATOM      1  C   UNL     1       3.791  49.305 281.984  1.00  0.00     0.180 A 
ATOM      2  C   UNL     1       3.877  47.936 281.678  1.00  0.00     0.208 A 
ATOM      3  C   UNL     1       3.797  46.999 282.721  1.00  0.00     0.238 A 
ATOM      4  O   UNL     1       3.819  45.774 282.437  1.00  0.00    -0.285 OA
ATOM      5  C   UNL     1       3.648  47.444 284.058  1.00  0.00     0.111 A 
ATOM      6  C   UNL     1       3.596  46.585 285.197  1.00  0.00     0.134 A 
ATOM      7  C   UNL     1       3.317  47.126 286.458  1.00  0.00     0.093 A 
ATOM      8  C   UNL     1       3.152  48.499 286.631  1.00  0.00     0.123 A 
ATOM      9  C   UNL     1       3.260  49.355 285.534  1.00  0.00     0.094 A 
ATOM     10  C   UNL     1       3.502  48.841 284.258  1.00  0.00     0.146 A 
ATOM     11  O   UNL     1       3.586  49.687 283.239  1.00  0.00    -0.452 OA
ENDROOT
BRANCH   1  12
ATOM     12  C   UNL     1       3.892  50.352 280.942  1.00  0.00     0.025 A 
ATOM     13  C   UNL     1       3.318  50.178 279.673  1.00  0.00     0.016 A 
ATOM     14  C   UNL     1       3.447  51.170 278.699  1.00  0.00     0.051 A 
ATOM     15  C   UNL     1       4.159  52.345 278.964  1.00  0.00     0.157 A 
ATOM     16  C   UNL     1       4.626  51.521 281.204  1.00  0.00     0.062 A 
ATOM     17  C   UNL     1       4.760  52.520 280.232  1.00  0.00     0.158 A 
BRANCH  15  18
ATOM     18  O   UNL     1       4.246  53.298 277.948  1.00  0.00    -0.504 OA
ATOM     19  H   UNL     1       4.660  53.123 277.043  1.00  0.00     0.293 HD
ENDBRANCH  15  18
BRANCH  17  20
ATOM     20  O   UNL     1       5.494  53.660 280.567  1.00  0.00    -0.504 OA
ATOM     21  H   UNL     1       5.629  53.988 281.513  1.00  0.00     0.293 HD
ENDBRANCH  17  20
ENDBRANCH   1  12
BRANCH   2  22
ATOM     22  O   UNL     1       4.001  47.518 280.351  1.00  0.00    -0.502 OA
ATOM     23  H   UNL     1       3.695  48.087 279.571  1.00  0.00     0.293 HD
ENDBRANCH   2  22
BRANCH   6  24
ATOM     24  O   UNL     1       3.838  45.208 285.147  1.00  0.00    -0.507 OA
ATOM     25  H   UNL     1       3.602  44.610 284.371  1.00  0.00     0.293 HD
ENDBRANCH   6  24
BRANCH   8  26
ATOM     26  O   UNL     1       2.890  49.004 287.903  1.00  0.00    -0.508 OA
ATOM     27  H   UNL     1       3.252  48.556 288.736  1.00  0.00     0.293 HD
ENDBRANCH   8  26
TORSDOF 6
ENDMDL
MODEL 3
REMARK VINA RESULT:    -5.450      1.674      2.067
REMARK INTER + INTRA:          -6.250
REMARK INTER:                  -6.265
REMARK INTRA:                   0.015
REMARK UNBOUND:                 0.315
REMARK SMILES O=c1c(O)c(-c2ccc(O)c(O)c2)oc2cc(O)cc(O)c12
REMARK SMILES IDX 5 1 3 2 2 3 1 4 22 5 20 6 19 7 17 8 16 9 15 10 14 11 6 12
REMARK SMILES IDX 7 13 8 14 9 15 13 16 11 17 10 18 12 20 4 22 21 24 18 26
REMARK H PARENT 10 19 12 21 4 23 21 25 18 27
REMARK Flexibility Score: inf
ROOT
ATOM      1  C   UNL     1       3.541  49.569 283.110  1.00  0.00     0.180 A 
ATOM      2  C   UNL     1       3.717  49.642 284.502  1.00  0.00     0.208 A 
ATOM      3  C   UNL     1       3.638  48.463 285.262  1.00  0.00     0.238 A 
ATOM      4  O   UNL     1       3.851  48.526 286.500  1.00  0.00    -0.285 OA
ATOM      5  C   UNL     1       3.370  47.229 284.621  1.00  0.00     0.111 A 
ATOM      6  C   UNL     1       3.229  45.979 285.296  1.00  0.00     0.134 A 
ATOM      7  C   UNL     1       3.092  44.803 284.549  1.00  0.00     0.093 A 
ATOM      8  C   UNL     1       3.026  44.837 283.157  1.00  0.00     0.123 A 
ATOM      9  C   UNL     1       3.104  46.060 282.489  1.00  0.00     0.094 A 
ATOM     10  C   UNL     1       3.276  47.247 283.205  1.00  0.00     0.146 A 
ATOM     11  O   UNL     1       3.356  48.388 282.532  1.00  0.00    -0.452 OA
ENDROOT
BRANCH   1  12
ATOM     12  C   UNL     1       3.585  50.771 282.246  1.00  0.00     0.025 A 
ATOM     13  C   UNL     1       2.876  51.936 282.579  1.00  0.00     0.016 A 
ATOM     14  C   UNL     1       2.913  53.049 281.736  1.00  0.00     0.051 A 
ATOM     15  C   UNL     1       3.645  53.018 280.544  1.00  0.00     0.157 A 
ATOM     16  C   UNL     1       4.302  50.730 281.040  1.00  0.00     0.062 A 
ATOM     17  C   UNL     1       4.345  51.841 280.189  1.00  0.00     0.158 A 
BRANCH  15  18
ATOM     18  O   UNL     1       3.644  54.166 279.749  1.00  0.00    -0.504 OA
ATOM     19  H   UNL     1       2.825  54.531 279.284  1.00  0.00     0.293 HD
ENDBRANCH  15  18
BRANCH  17  20
ATOM     20  O   UNL     1       5.088  51.733 279.011  1.00  0.00    -0.504 OA
ATOM     21  H   UNL     1       5.765  52.417 278.706  1.00  0.00     0.293 HD
ENDBRANCH  17  20
ENDBRANCH   1  12
BRANCH   2  22
ATOM     22  O   UNL     1       4.004  50.866 285.112  1.00  0.00    -0.502 OA
ATOM     23  H   UNL     1       4.669  51.524 284.724  1.00  0.00     0.293 HD
ENDBRANCH   2  22
BRANCH   6  24
ATOM     24  O   UNL     1       3.188  45.845 286.687  1.00  0.00    -0.507 OA
ATOM     25  H   UNL     1       3.758  45.207 287.220  1.00  0.00     0.293 HD
ENDBRANCH   6  24
BRANCH   8  26
ATOM     26  O   UNL     1       2.875  43.648 282.447  1.00  0.00    -0.508 OA
ATOM     27  H   UNL     1       2.721  42.765 282.919  1.00  0.00     0.293 HD
ENDBRANCH   8  26
TORSDOF 6
ENDMDL
MODEL 4
REMARK VINA RESULT:    -5.395      1.561      6.939
REMARK INTER + INTRA:          -6.184
REMARK INTER:                  -6.392
REMARK INTRA:                   0.208
REMARK UNBOUND:                 0.315
REMARK SMILES O=c1c(O)c(-c2ccc(O)c(O)c2)oc2cc(O)cc(O)c12
REMARK SMILES IDX 5 1 3 2 2 3 1 4 22 5 20 6 19 7 17 8 16 9 15 10 14 11 6 12
REMARK SMILES IDX 7 13 8 14 9 15 13 16 11 17 10 18 12 20 4 22 21 24 18 26
REMARK H PARENT 10 19 12 21 4 23 21 25 18 27
REMARK Flexibility Score: inf
ROOT
ATOM      1  C   UNL     1       3.706  48.761 282.742  1.00  0.00     0.180 A 
ATOM      2  C   UNL     1       3.444  50.119 282.991  1.00  0.00     0.208 A 
ATOM      3  C   UNL     1       3.542  51.036 281.933  1.00  0.00     0.238 A 
ATOM      4  O   UNL     1       3.254  52.242 282.149  1.00  0.00    -0.285 OA
ATOM      5  C   UNL     1       3.916  50.586 280.643  1.00  0.00     0.111 A 
ATOM      6  C   UNL     1       4.085  51.434 279.507  1.00  0.00     0.134 A 
ATOM      7  C   UNL     1       4.329  50.865 278.251  1.00  0.00     0.093 A 
ATOM      8  C   UNL     1       4.475  49.487 278.102  1.00  0.00     0.123 A 
ATOM      9  C   UNL     1       4.371  48.653 279.216  1.00  0.00     0.094 A 
ATOM     10  C   UNL     1       4.092  49.189 280.476  1.00  0.00     0.146 A 
ATOM     11  O   UNL     1       3.990  48.361 281.508  1.00  0.00    -0.452 OA
ENDROOT
BRANCH   1  12
ATOM     12  C   UNL     1       3.648  47.738 283.811  1.00  0.00     0.025 A 
ATOM     13  C   UNL     1       3.998  48.045 285.136  1.00  0.00     0.016 A 
ATOM     14  C   UNL     1       3.958  47.058 286.123  1.00  0.00     0.051 A 
ATOM     15  C   UNL     1       3.582  45.748 285.808  1.00  0.00     0.157 A 
ATOM     16  C   UNL     1       3.292  46.419 283.489  1.00  0.00     0.062 A 
ATOM     17  C   UNL     1       3.250  45.423 284.472  1.00  0.00     0.158 A 
BRANCH  15  18
ATOM     18  O   UNL     1       3.559  44.810 286.843  1.00  0.00    -0.504 OA
ATOM     19  H   UNL     1       2.882  44.064 286.913  1.00  0.00     0.293 HD
ENDBRANCH  15  18
BRANCH  17  20
ATOM     20  O   UNL     1       2.875  44.135 284.080  1.00  0.00    -0.504 OA
ATOM     21  H   UNL     1       2.712  43.375 284.724  1.00  0.00     0.293 HD
ENDBRANCH  17  20
ENDBRANCH   1  12
BRANCH   2  22
ATOM     22  O   UNL     1       3.055  50.538 284.266  1.00  0.00    -0.502 OA
ATOM     23  H   UNL     1       2.084  50.631 284.535  1.00  0.00     0.293 HD
ENDBRANCH   2  22
BRANCH   6  24
ATOM     24  O   UNL     1       4.050  52.831 279.563  1.00  0.00    -0.507 OA
ATOM     25  H   UNL     1       4.600  53.444 278.983  1.00  0.00     0.293 HD
ENDBRANCH   6  24
BRANCH   8  26
ATOM     26  O   UNL     1       4.734  48.956 276.839  1.00  0.00    -0.508 OA
ATOM     27  H   UNL     1       5.668  48.951 276.447  1.00  0.00     0.293 HD
ENDBRANCH   8  26
TORSDOF 6
ENDMDL
MODEL 5
REMARK VINA RESULT:    -5.223      1.933      7.318
REMARK INTER + INTRA:          -5.976
REMARK INTER:                  -6.206
REMARK INTRA:                   0.230
REMARK UNBOUND:                 0.315
REMARK SMILES O=c1c(O)c(-c2ccc(O)c(O)c2)oc2cc(O)cc(O)c12
REMARK SMILES IDX 5 1 3 2 2 3 1 4 22 5 20 6 19 7 17 8 16 9 15 10 14 11 6 12
REMARK SMILES IDX 7 13 8 14 9 15 13 16 11 17 10 18 12 20 4 22 21 24 18 26
REMARK H PARENT 10 19 12 21 4 23 21 25 18 27
REMARK Flexibility Score: inf
ROOT
ATOM      1  C   UNL     1       3.598  48.541 281.964  1.00  0.00     0.180 A 
ATOM      2  C   UNL     1       4.010  48.403 280.628  1.00  0.00     0.208 A 
ATOM      3  C   UNL     1       4.072  49.544 279.812  1.00  0.00     0.238 A 
ATOM      4  O   UNL     1       4.493  49.423 278.633  1.00  0.00    -0.285 OA
ATOM      5  C   UNL     1       3.707  50.807 280.339  1.00  0.00     0.111 A 
ATOM      6  C   UNL     1       3.694  52.023 279.592  1.00  0.00     0.134 A 
ATOM      7  C   UNL     1       3.441  53.234 280.249  1.00  0.00     0.093 A 
ATOM      8  C   UNL     1       3.137  53.265 281.609  1.00  0.00     0.123 A 
ATOM      9  C   UNL     1       3.089  52.075 282.337  1.00  0.00     0.094 A 
ATOM     10  C   UNL     1       3.371  50.855 281.717  1.00  0.00     0.146 A 
ATOM     11  O   UNL     1       3.326  49.748 282.446  1.00  0.00    -0.452 OA
ENDROOT
BRANCH   1  12
ATOM     12  C   UNL     1       3.484  47.382 282.877  1.00  0.00     0.025 A 
ATOM     13  C   UNL     1       3.141  46.107 282.400  1.00  0.00     0.016 A 
ATOM     14  C   UNL     1       3.016  45.033 283.284  1.00  0.00     0.051 A 
ATOM     15  C   UNL     1       3.216  45.210 284.657  1.00  0.00     0.157 A 
ATOM     16  C   UNL     1       3.664  47.567 284.257  1.00  0.00     0.062 A 
ATOM     17  C   UNL     1       3.540  46.496 285.151  1.00  0.00     0.158 A 
BRANCH  15  18
ATOM     18  O   UNL     1       3.079  44.095 285.485  1.00  0.00    -0.504 OA
ATOM     19  H   UNL     1       3.681  43.284 285.445  1.00  0.00     0.293 HD
ENDBRANCH  15  18
BRANCH  17  20
ATOM     20  O   UNL     1       3.744  46.752 286.509  1.00  0.00    -0.504 OA
ATOM     21  H   UNL     1       4.393  47.441 286.861  1.00  0.00     0.293 HD
ENDBRANCH  17  20
ENDBRANCH   1  12
BRANCH   2  22
ATOM     22  O   UNL     1       4.387  47.151 280.134  1.00  0.00    -0.502 OA
ATOM     23  H   UNL     1       4.037  46.284 280.524  1.00  0.00     0.293 HD
ENDBRANCH   2  22
BRANCH   6  24
ATOM     24  O   UNL     1       3.893  52.092 278.210  1.00  0.00    -0.507 OA
ATOM     25  H   UNL     1       3.927  52.946 277.675  1.00  0.00     0.293 HD
ENDBRANCH   6  24
BRANCH   8  26
ATOM     26  O   UNL     1       2.875  54.487 282.227  1.00  0.00    -0.508 OA
ATOM     27  H   UNL     1       2.367  55.223 281.751  1.00  0.00     0.293 HD
ENDBRANCH   8  26
TORSDOF 6
ENDMDL
MODEL 6
REMARK VINA RESULT:    -5.083      2.345      3.340
REMARK INTER + INTRA:          -5.807
REMARK INTER:                  -5.795
REMARK INTRA:                  -0.012
REMARK UNBOUND:                 0.315
REMARK SMILES O=c1c(O)c(-c2ccc(O)c(O)c2)oc2cc(O)cc(O)c12
REMARK SMILES IDX 5 1 3 2 2 3 1 4 22 5 20 6 19 7 17 8 16 9 15 10 14 11 6 12
REMARK SMILES IDX 7 13 8 14 9 15 13 16 11 17 10 18 12 20 4 22 21 24 18 26
REMARK H PARENT 10 19 12 21 4 23 21 25 18 27
REMARK Flexibility Score: inf
ROOT
ATOM      1  C   UNL     1       3.563  51.000 281.522  1.00  0.00     0.180 A 
ATOM      2  C   UNL     1       3.295  51.287 282.871  1.00  0.00     0.208 A 
ATOM      3  C   UNL     1       3.221  50.229 283.792  1.00  0.00     0.238 A 
ATOM      4  O   UNL     1       3.036  50.497 285.007  1.00  0.00    -0.285 OA
ATOM      5  C   UNL     1       3.401  48.896 283.348  1.00  0.00     0.111 A 
ATOM      6  C   UNL     1       3.309  47.744 284.186  1.00  0.00     0.134 A 
ATOM      7  C   UNL     1       3.633  46.485 283.667  1.00  0.00     0.093 A 
ATOM      8  C   UNL     1       3.983  46.328 282.326  1.00  0.00     0.123 A 
ATOM      9  C   UNL     1       4.019  47.439 281.483  1.00  0.00     0.094 A 
ATOM     10  C   UNL     1       3.735  48.713 281.981  1.00  0.00     0.146 A 
ATOM     11  O   UNL     1       3.792  49.746 281.150  1.00  0.00    -0.452 OA
ENDROOT
BRANCH   1  12
ATOM     12  C   UNL     1       3.631  52.059 280.490  1.00  0.00     0.025 A 
ATOM     13  C   UNL     1       2.875  51.978 279.309  1.00  0.00     0.016 A 
ATOM     14  C   UNL     1       2.974  52.977 278.339  1.00  0.00     0.051 A 
ATOM     15  C   UNL     1       3.834  54.066 278.519  1.00  0.00     0.157 A 
ATOM     16  C   UNL     1       4.511  53.139 280.662  1.00  0.00     0.062 A 
ATOM     17  C   UNL     1       4.616  54.145 279.694  1.00  0.00     0.158 A 
BRANCH  15  18
ATOM     18  O   UNL     1       3.882  55.032 277.512  1.00  0.00    -0.504 OA
ATOM     19  H   UNL     1       3.122  55.662 277.297  1.00  0.00     0.293 HD
ENDBRANCH  15  18
BRANCH  17  20
ATOM     20  O   UNL     1       5.503  55.196 279.939  1.00  0.00    -0.504 OA
ATOM     21  H   UNL     1       6.508  55.099 279.931  1.00  0.00     0.293 HD
ENDBRANCH  17  20
ENDBRANCH   1  12
BRANCH   2  22
ATOM     22  O   UNL     1       3.143  52.611 283.292  1.00  0.00    -0.502 OA
ATOM     23  H   UNL     1       3.932  53.202 283.524  1.00  0.00     0.293 HD
ENDBRANCH   2  22
BRANCH   6  24
ATOM     24  O   UNL     1       2.879  47.780 285.516  1.00  0.00    -0.507 OA
ATOM     25  H   UNL     1       3.364  47.351 286.289  1.00  0.00     0.293 HD
ENDBRANCH   6  24
BRANCH   8  26
ATOM     26  O   UNL     1       4.285  45.057 281.840  1.00  0.00    -0.508 OA
ATOM     27  H   UNL     1       4.772  44.374 282.408  1.00  0.00     0.293 HD
ENDBRANCH   8  26
TORSDOF 6
ENDMDL
MODEL 7
REMARK VINA RESULT:    -4.544      2.102      7.558
REMARK INTER + INTRA:          -5.159
REMARK INTER:                  -5.691
REMARK INTRA:                   0.532
REMARK UNBOUND:                 0.315
REMARK SMILES O=c1c(O)c(-c2ccc(O)c(O)c2)oc2cc(O)cc(O)c12
REMARK SMILES IDX 5 1 3 2 2 3 1 4 22 5 20 6 19 7 17 8 16 9 15 10 14 11 6 12
REMARK SMILES IDX 7 13 8 14 9 15 13 16 11 17 10 18 12 20 4 22 21 24 18 26
REMARK H PARENT 10 19 12 21 4 23 21 25 18 27
REMARK Flexibility Score: inf
ROOT
ATOM      1  C   UNL     1       3.641  49.852 282.820  1.00  0.00     0.180 A 
ATOM      2  C   UNL     1       3.782  48.774 281.930  1.00  0.00     0.208 A 
ATOM      3  C   UNL     1       3.963  49.039 280.563  1.00  0.00     0.238 A 
ATOM      4  O   UNL     1       4.143  48.072 279.778  1.00  0.00    -0.285 OA
ATOM      5  C   UNL     1       3.984  50.378 280.102  1.00  0.00     0.111 A 
ATOM      6  C   UNL     1       4.122  50.762 278.734  1.00  0.00     0.134 A 
ATOM      7  C   UNL     1       4.261  52.116 278.407  1.00  0.00     0.093 A 
ATOM      8  C   UNL     1       4.203  53.103 279.390  1.00  0.00     0.123 A 
ATOM      9  C   UNL     1       4.010  52.743 280.724  1.00  0.00     0.094 A 
ATOM     10  C   UNL     1       3.903  51.398 281.086  1.00  0.00     0.146 A 
ATOM     11  O   UNL     1       3.732  51.096 282.366  1.00  0.00    -0.452 OA
ENDROOT
BRANCH   1  12
ATOM     12  C   UNL     1       3.422  49.652 284.271  1.00  0.00     0.025 A 
ATOM     13  C   UNL     1       3.447  50.731 285.169  1.00  0.00     0.016 A 
ATOM     14  C   UNL     1       3.261  50.514 286.536  1.00  0.00     0.051 A 
ATOM     15  C   UNL     1       3.062  49.223 287.035  1.00  0.00     0.157 A 
ATOM     16  C   UNL     1       3.244  48.352 284.772  1.00  0.00     0.062 A 
ATOM     17  C   UNL     1       3.058  48.126 286.141  1.00  0.00     0.158 A 
BRANCH  15  18
ATOM     18  O   UNL     1       2.879  49.076 288.412  1.00  0.00    -0.504 OA
ATOM     19  H   UNL     1       3.136  49.777 289.093  1.00  0.00     0.293 HD
ENDBRANCH  15  18
BRANCH  17  20
ATOM     20  O   UNL     1       2.875  46.808 286.566  1.00  0.00    -0.504 OA
ATOM     21  H   UNL     1       3.510  46.320 287.180  1.00  0.00     0.293 HD
ENDBRANCH  17  20
ENDBRANCH   1  12
BRANCH   2  22
ATOM     22  O   UNL     1       3.780  47.461 282.409  1.00  0.00    -0.502 OA
ATOM     23  H   UNL     1       2.965  46.863 282.351  1.00  0.00     0.293 HD
ENDBRANCH   2  22
BRANCH   6  24
ATOM     24  O   UNL     1       4.098  49.861 277.665  1.00  0.00    -0.507 OA
ATOM     25  H   UNL     1       3.287  49.655 277.103  1.00  0.00     0.293 HD
ENDBRANCH   6  24
BRANCH   8  26
ATOM     26  O   UNL     1       4.330  54.443 279.027  1.00  0.00    -0.508 OA
ATOM     27  H   UNL     1       4.206  55.188 279.702  1.00  0.00     0.293 HD
ENDBRANCH   8  26
TORSDOF 6
ENDMDL
MODEL 8
REMARK VINA RESULT:    -4.205      2.341      8.129
REMARK INTER + INTRA:          -4.750
REMARK INTER:                  -5.028
REMARK INTRA:                   0.278
REMARK UNBOUND:                 0.315
REMARK SMILES O=c1c(O)c(-c2ccc(O)c(O)c2)oc2cc(O)cc(O)c12
REMARK SMILES IDX 5 1 3 2 2 3 1 4 22 5 20 6 19 7 17 8 16 9 15 10 14 11 6 12
REMARK SMILES IDX 7 13 8 14 9 15 13 16 11 17 10 18 12 20 4 22 21 24 18 26
REMARK H PARENT 10 19 12 21 4 23 21 25 18 27
REMARK Flexibility Score: inf
ROOT
ATOM      1  C   UNL     1       3.732  50.297 280.899  1.00  0.00     0.180 A 
ATOM      2  C   UNL     1       3.269  50.006 279.604  1.00  0.00     0.208 A 
ATOM      3  C   UNL     1       3.241  51.031 278.645  1.00  0.00     0.238 A 
ATOM      4  O   UNL     1       2.878  50.753 277.473  1.00  0.00    -0.285 OA
ATOM      5  C   UNL     1       3.662  52.337 278.997  1.00  0.00     0.111 A 
ATOM      6  C   UNL     1       3.638  53.461 278.117  1.00  0.00     0.134 A 
ATOM      7  C   UNL     1       4.199  54.675 278.532  1.00  0.00     0.093 A 
ATOM      8  C   UNL     1       4.722  54.824 279.815  1.00  0.00     0.123 A 
ATOM      9  C   UNL     1       4.697  53.749 280.704  1.00  0.00     0.094 A 
ATOM     10  C   UNL     1       4.176  52.515 280.307  1.00  0.00     0.146 A 
ATOM     11  O   UNL     1       4.181  51.515 281.179  1.00  0.00    -0.452 OA
ENDROOT
BRANCH   1  12
ATOM     12  C   UNL     1       3.767  49.276 281.970  1.00  0.00     0.025 A 
ATOM     13  C   UNL     1       3.953  47.915 281.677  1.00  0.00     0.016 A 
ATOM     14  C   UNL     1       3.959  46.967 282.703  1.00  0.00     0.051 A 
ATOM     15  C   UNL     1       3.768  47.353 284.034  1.00  0.00     0.157 A 
ATOM     16  C   UNL     1       3.553  49.662 283.303  1.00  0.00     0.062 A 
ATOM     17  C   UNL     1       3.557  48.719 284.337  1.00  0.00     0.158 A 
BRANCH  15  18
ATOM     18  O   UNL     1       3.790  46.356 285.011  1.00  0.00    -0.504 OA
ATOM     19  H   UNL     1       3.348  45.453 284.906  1.00  0.00     0.293 HD
ENDBRANCH  15  18
BRANCH  17  20
ATOM     20  O   UNL     1       3.350  49.178 285.640  1.00  0.00    -0.504 OA
ATOM     21  H   UNL     1       4.056  49.638 286.195  1.00  0.00     0.293 HD
ENDBRANCH  17  20
ENDBRANCH   1  12
BRANCH   2  22
ATOM     22  O   UNL     1       2.880  48.706 279.271  1.00  0.00    -0.502 OA
ATOM     23  H   UNL     1       3.077  47.910 279.866  1.00  0.00     0.293 HD
ENDBRANCH   2  22
BRANCH   6  24
ATOM     24  O   UNL     1       3.055  53.444 276.846  1.00  0.00    -0.507 OA
ATOM     25  H   UNL     1       2.142  53.073 276.637  1.00  0.00     0.293 HD
ENDBRANCH   6  24
BRANCH   8  26
ATOM     26  O   UNL     1       5.258  56.052 280.200  1.00  0.00    -0.508 OA
ATOM     27  H   UNL     1       4.799  56.925 279.971  1.00  0.00     0.293 HD
ENDBRANCH   8  26
TORSDOF 6
ENDMDL
MODEL 9
REMARK VINA RESULT:    -2.761      2.037      6.876
REMARK INTER + INTRA:          -3.011
REMARK INTER:                  -3.026
REMARK INTRA:                   0.015
REMARK UNBOUND:                 0.315
REMARK SMILES O=c1c(O)c(-c2ccc(O)c(O)c2)oc2cc(O)cc(O)c12
REMARK SMILES IDX 5 1 3 2 2 3 1 4 22 5 20 6 19 7 17 8 16 9 15 10 14 11 6 12
REMARK SMILES IDX 7 13 8 14 9 15 13 16 11 17 10 18 12 20 4 22 21 24 18 26
REMARK H PARENT 10 19 12 21 4 23 21 25 18 27
REMARK Flexibility Score: inf
ROOT
ATOM      1  C   UNL     1       3.681  49.768 282.642  1.00  0.00     0.180 A 
ATOM      2  C   UNL     1       3.338  51.118 282.464  1.00  0.00     0.208 A 
ATOM      3  C   UNL     1       3.431  51.681 281.180  1.00  0.00     0.238 A 
ATOM      4  O   UNL     1       3.070  52.875 281.016  1.00  0.00    -0.285 OA
ATOM      5  C   UNL     1       3.881  50.889 280.095  1.00  0.00     0.111 A 
ATOM      6  C   UNL     1       4.051  51.366 278.761  1.00  0.00     0.134 A 
ATOM      7  C   UNL     1       4.378  50.463 277.741  1.00  0.00     0.093 A 
ATOM      8  C   UNL     1       4.603  49.116 278.018  1.00  0.00     0.123 A 
ATOM      9  C   UNL     1       4.496  48.650 279.329  1.00  0.00     0.094 A 
ATOM     10  C   UNL     1       4.138  49.520 280.362  1.00  0.00     0.146 A 
ATOM     11  O   UNL     1       4.037  49.035 281.593  1.00  0.00    -0.452 OA
ENDROOT
BRANCH   1  12
ATOM     12  C   UNL     1       3.633  49.111 283.969  1.00  0.00     0.025 A 
ATOM     13  C   UNL     1       2.926  47.915 284.166  1.00  0.00     0.016 A 
ATOM     14  C   UNL     1       2.875  47.327 285.432  1.00  0.00     0.051 A 
ATOM     15  C   UNL     1       3.513  47.924 286.524  1.00  0.00     0.157 A 
ATOM     16  C   UNL     1       4.256  49.724 285.068  1.00  0.00     0.062 A 
ATOM     17  C   UNL     1       4.209  49.142 286.340  1.00  0.00     0.158 A 
BRANCH  15  18
ATOM     18  O   UNL     1       3.427  47.282 287.761  1.00  0.00    -0.504 OA
ATOM     19  H   UNL     1       3.858  46.392 287.967  1.00  0.00     0.293 HD
ENDBRANCH  15  18
BRANCH  17  20
ATOM     20  O   UNL     1       4.862  49.802 287.384  1.00  0.00    -0.504 OA
ATOM     21  H   UNL     1       5.355  49.331 288.128  1.00  0.00     0.293 HD
ENDBRANCH  17  20
ENDBRANCH   1  12
BRANCH   2  22
ATOM     22  O   UNL     1       2.875  51.875 283.543  1.00  0.00    -0.502 OA
ATOM     23  H   UNL     1       2.932  51.549 284.500  1.00  0.00     0.293 HD
ENDBRANCH   2  22
BRANCH   6  24
ATOM     24  O   UNL     1       3.940  52.711 278.392  1.00  0.00    -0.507 OA
ATOM     25  H   UNL     1       4.028  53.058 277.450  1.00  0.00     0.293 HD
ENDBRANCH   6  24
BRANCH   8  26
ATOM     26  O   UNL     1       4.941  48.248 276.981  1.00  0.00    -0.508 OA
ATOM     27  H   UNL     1       4.245  47.667 276.529  1.00  0.00     0.293 HD
ENDBRANCH   8  26
TORSDOF 6
ENDMDL
