MODEL 1
REMARK VINA RESULT:    -4.516      0.000      0.000
REMARK INTER + INTRA:          -5.490
REMARK INTER:                  -5.176
REMARK INTRA:                  -0.315
REMARK UNBOUND:                -0.315
REMARK SMILES O=C1C[C@H](c2ccc(O)cc2)Oc2cc(O)cc(O)c21
REMARK SMILES IDX 3 1 4 2 12 3 13 4 14 5 15 6 17 7 18 8 20 9 2 10 1 11 5 12
REMARK SMILES IDX 6 13 11 14 7 15 10 16 8 17 9 18 19 20 16 22
REMARK H PARENT 9 19 19 21 16 23
REMARK Flexibility Score: inf
ROOT
ATOM      1  C   UNL     1     -17.044  55.952  37.882  1.00  0.00     0.131 C 
ATOM      2  C   UNL     1     -16.592  55.933  36.415  1.00  0.00     0.211 C 
ATOM      3  O   UNL     1     -16.803  54.641  35.840  1.00  0.00    -0.484 OA
ATOM      4  C   UNL     1     -16.569  53.452  36.546  1.00  0.00     0.138 A 
ATOM      5  C   UNL     1     -16.528  52.245  35.843  1.00  0.00     0.093 A 
ATOM      6  C   UNL     1     -16.282  51.046  36.518  1.00  0.00     0.123 A 
ATOM      7  C   UNL     1     -16.105  51.052  37.902  1.00  0.00     0.093 A 
ATOM      8  C   UNL     1     -16.182  52.245  38.631  1.00  0.00     0.133 A 
ATOM      9  C   UNL     1     -16.384  53.471  37.945  1.00  0.00     0.102 A 
ATOM     10  C   UNL     1     -16.413  54.800  38.606  1.00  0.00     0.174 C 
ATOM     11  O   UNL     1     -15.875  54.995  39.728  1.00  0.00    -0.294 OA
ENDROOT
BRANCH   2  12
ATOM     12  C   UNL     1     -17.328  56.981  35.616  1.00  0.00    -0.007 A 
ATOM     13  C   UNL     1     -17.498  56.834  34.228  1.00  0.00     0.011 A 
ATOM     14  C   UNL     1     -17.902  58.089  36.263  1.00  0.00     0.011 A 
ATOM     15  C   UNL     1     -18.207  57.792  33.498  1.00  0.00     0.046 A 
ATOM     16  C   UNL     1     -18.611  59.046  35.529  1.00  0.00     0.046 A 
ATOM     17  C   UNL     1     -18.764  58.901  34.147  1.00  0.00     0.115 A 
BRANCH  17  18
ATOM     18  O   UNL     1     -19.472  59.862  33.430  1.00  0.00    -0.508 OA
ATOM     19  H   UNL     1     -20.373  60.203  33.746  1.00  0.00     0.293 HD
ENDBRANCH  17  18
ENDBRANCH   2  12
BRANCH   8  20
ATOM     20  O   UNL     1     -16.088  52.154  40.022  1.00  0.00    -0.507 OA
ATOM     21  H   UNL     1     -15.860  52.933  40.625  1.00  0.00     0.293 HD
ENDBRANCH   8  20
BRANCH   6  22
ATOM     22  O   UNL     1     -16.218  49.841  35.822  1.00  0.00    -0.508 OA
ATOM     23  H   UNL     1     -16.408  48.955  36.276  1.00  0.00     0.293 HD
ENDBRANCH   6  22
TORSDOF 4
ENDMDL
MODEL 2
REMARK VINA RESULT:    -4.504     18.805     20.190
REMARK INTER + INTRA:          -5.477
REMARK INTER:                  -5.170
REMARK INTRA:                  -0.308
REMARK UNBOUND:                -0.315
REMARK SMILES O=C1C[C@H](c2ccc(O)cc2)Oc2cc(O)cc(O)c21
REMARK SMILES IDX 3 1 4 2 12 3 13 4 14 5 15 6 17 7 18 8 20 9 2 10 1 11 5 12
REMARK SMILES IDX 6 13 11 14 7 15 10 16 8 17 9 18 19 20 16 22
REMARK H PARENT 9 19 19 21 16 23
REMARK Flexibility Score: inf
ROOT
ATOM      1  C   UNL     1     -34.445  45.070  39.594  1.00  0.00     0.131 C 
ATOM      2  C   UNL     1     -34.462  45.344  38.084  1.00  0.00     0.211 C 
ATOM      3  O   UNL     1     -34.146  46.713  37.817  1.00  0.00    -0.484 OA
ATOM      4  C   UNL     1     -34.617  47.767  38.614  1.00  0.00     0.138 A 
ATOM      5  C   UNL     1     -34.502  49.076  38.140  1.00  0.00     0.093 A 
ATOM      6  C   UNL     1     -34.976  50.146  38.906  1.00  0.00     0.123 A 
ATOM      7  C   UNL     1     -35.538  49.906  40.161  1.00  0.00     0.093 A 
ATOM      8  C   UNL     1     -35.625  48.605  40.672  1.00  0.00     0.133 A 
ATOM      9  C   UNL     1     -35.190  47.511  39.878  1.00  0.00     0.102 A 
ATOM     10  C   UNL     1     -35.299  46.089  40.288  1.00  0.00     0.174 C 
ATOM     11  O   UNL     1     -36.125  45.712  41.161  1.00  0.00    -0.294 OA
ENDROOT
BRANCH   2  12
ATOM     12  C   UNL     1     -33.490  44.440  37.366  1.00  0.00    -0.007 A 
ATOM     13  C   UNL     1     -33.122  44.699  36.034  1.00  0.00     0.011 A 
ATOM     14  C   UNL     1     -32.897  43.360  38.043  1.00  0.00     0.011 A 
ATOM     15  C   UNL     1     -32.198  43.875  35.384  1.00  0.00     0.046 A 
ATOM     16  C   UNL     1     -31.972  42.538  37.390  1.00  0.00     0.046 A 
ATOM     17  C   UNL     1     -31.622  42.792  36.060  1.00  0.00     0.115 A 
BRANCH  17  18
ATOM     18  O   UNL     1     -30.700  41.966  35.422  1.00  0.00    -0.508 OA
ATOM     19  H   UNL     1     -29.785  41.787  35.819  1.00  0.00     0.293 HD
ENDBRANCH  17  18
ENDBRANCH   2  12
BRANCH   8  20
ATOM     20  O   UNL     1     -36.114  48.458  41.973  1.00  0.00    -0.507 OA
ATOM     21  H   UNL     1     -37.077  48.612  42.234  1.00  0.00     0.293 HD
ENDBRANCH   8  20
BRANCH   6  22
ATOM     22  O   UNL     1     -34.886  51.452  38.431  1.00  0.00    -0.508 OA
ATOM     23  H   UNL     1     -35.373  51.747  37.593  1.00  0.00     0.293 HD
ENDBRANCH   6  22
TORSDOF 4
ENDMDL
MODEL 3
REMARK VINA RESULT:    -4.487      3.130      5.423
REMARK INTER + INTRA:          -5.457
REMARK INTER:                  -5.166
REMARK INTRA:                  -0.292
REMARK UNBOUND:                -0.315
REMARK SMILES O=C1C[C@H](c2ccc(O)cc2)Oc2cc(O)cc(O)c21
REMARK SMILES IDX 3 1 4 2 12 3 13 4 14 5 15 6 17 7 18 8 20 9 2 10 1 11 5 12
REMARK SMILES IDX 6 13 11 14 7 15 10 16 8 17 9 18 19 20 16 22
REMARK H PARENT 9 19 19 21 16 23
REMARK Flexibility Score: inf
ROOT
ATOM      1  C   UNL     1     -19.917  60.020  35.471  1.00  0.00     0.131 C 
ATOM      2  C   UNL     1     -19.536  59.764  34.007  1.00  0.00     0.211 C 
ATOM      3  O   UNL     1     -19.089  58.417  33.831  1.00  0.00    -0.484 OA
ATOM      4  C   UNL     1     -18.287  57.758  34.775  1.00  0.00     0.138 A 
ATOM      5  C   UNL     1     -17.665  56.560  34.414  1.00  0.00     0.093 A 
ATOM      6  C   UNL     1     -16.849  55.888  35.329  1.00  0.00     0.123 A 
ATOM      7  C   UNL     1     -16.678  56.402  36.616  1.00  0.00     0.093 A 
ATOM      8  C   UNL     1     -17.325  57.580  37.010  1.00  0.00     0.133 A 
ATOM      9  C   UNL     1     -18.116  58.291  36.071  1.00  0.00     0.102 A 
ATOM     10  C   UNL     1     -18.789  59.583  36.357  1.00  0.00     0.174 C 
ATOM     11  O   UNL     1     -18.402  60.341  37.285  1.00  0.00    -0.294 OA
ENDROOT
BRANCH   2  12
ATOM     12  C   UNL     1     -20.706  60.043  33.094  1.00  0.00    -0.007 A 
ATOM     13  C   UNL     1     -21.885  59.283  33.189  1.00  0.00     0.011 A 
ATOM     14  C   UNL     1     -20.648  61.105  32.176  1.00  0.00     0.011 A 
ATOM     15  C   UNL     1     -22.976  59.565  32.362  1.00  0.00     0.046 A 
ATOM     16  C   UNL     1     -21.741  61.386  31.350  1.00  0.00     0.046 A 
ATOM     17  C   UNL     1     -22.906  60.617  31.439  1.00  0.00     0.115 A 
BRANCH  17  18
ATOM     18  O   UNL     1     -23.987  60.907  30.610  1.00  0.00    -0.508 OA
ATOM     19  H   UNL     1     -23.919  61.602  29.875  1.00  0.00     0.293 HD
ENDBRANCH  17  18
ENDBRANCH   2  12
BRANCH   8  20
ATOM     20  O   UNL     1     -17.178  57.977  38.341  1.00  0.00    -0.507 OA
ATOM     21  H   UNL     1     -17.248  57.348  39.129  1.00  0.00     0.293 HD
ENDBRANCH   8  20
BRANCH   6  22
ATOM     22  O   UNL     1     -16.207  54.704  34.971  1.00  0.00    -0.508 OA
ATOM     23  H   UNL     1     -15.616  54.203  35.624  1.00  0.00     0.293 HD
ENDBRANCH   6  22
TORSDOF 4
ENDMDL
MODEL 4
REMARK VINA RESULT:    -4.225     15.500     17.213
REMARK INTER + INTRA:          -5.157
REMARK INTER:                  -4.852
REMARK INTRA:                  -0.305
REMARK UNBOUND:                -0.315
REMARK SMILES O=C1C[C@H](c2ccc(O)cc2)Oc2cc(O)cc(O)c21
REMARK SMILES IDX 3 1 4 2 12 3 13 4 14 5 15 6 17 7 18 8 20 9 2 10 1 11 5 12
REMARK SMILES IDX 6 13 11 14 7 15 10 16 8 17 9 18 19 20 16 22
REMARK H PARENT 9 19 19 21 16 23
REMARK Flexibility Score: inf
ROOT
ATOM      1  C   UNL     1     -30.814  43.920  35.731  1.00  0.00     0.131 C 
ATOM      2  C   UNL     1     -30.735  44.934  36.881  1.00  0.00     0.211 C 
ATOM      3  O   UNL     1     -30.138  46.155  36.436  1.00  0.00    -0.484 OA
ATOM      4  C   UNL     1     -29.055  46.186  35.545  1.00  0.00     0.138 A 
ATOM      5  C   UNL     1     -28.354  47.383  35.375  1.00  0.00     0.093 A 
ATOM      6  C   UNL     1     -27.262  47.440  34.505  1.00  0.00     0.123 A 
ATOM      7  C   UNL     1     -26.888  46.306  33.783  1.00  0.00     0.093 A 
ATOM      8  C   UNL     1     -27.603  45.107  33.908  1.00  0.00     0.133 A 
ATOM      9  C   UNL     1     -28.682  45.030  34.826  1.00  0.00     0.102 A 
ATOM     10  C   UNL     1     -29.463  43.796  35.091  1.00  0.00     0.174 C 
ATOM     11  O   UNL     1     -28.999  42.652  34.845  1.00  0.00    -0.294 OA
ENDROOT
BRANCH   2  12
ATOM     12  C   UNL     1     -32.107  45.206  37.449  1.00  0.00    -0.007 A 
ATOM     13  C   UNL     1     -33.174  44.328  37.190  1.00  0.00     0.011 A 
ATOM     14  C   UNL     1     -32.318  46.312  38.289  1.00  0.00     0.011 A 
ATOM     15  C   UNL     1     -34.436  44.568  37.743  1.00  0.00     0.046 A 
ATOM     16  C   UNL     1     -33.581  46.549  38.841  1.00  0.00     0.046 A 
ATOM     17  C   UNL     1     -34.642  45.680  38.569  1.00  0.00     0.115 A 
BRANCH  17  18
ATOM     18  O   UNL     1     -35.894  45.930  39.125  1.00  0.00    -0.508 OA
ATOM     19  H   UNL     1     -36.213  46.874  39.313  1.00  0.00     0.293 HD
ENDBRANCH  17  18
ENDBRANCH   2  12
BRANCH   8  20
ATOM     20  O   UNL     1     -27.225  44.046  33.082  1.00  0.00    -0.507 OA
ATOM     21  H   UNL     1     -26.282  43.689  33.018  1.00  0.00     0.293 HD
ENDBRANCH   8  20
BRANCH   6  22
ATOM     22  O   UNL     1     -26.544  48.623  34.346  1.00  0.00    -0.508 OA
ATOM     23  H   UNL     1     -25.959  48.784  33.533  1.00  0.00     0.293 HD
ENDBRANCH   6  22
TORSDOF 4
ENDMDL
MODEL 5
REMARK VINA RESULT:    -4.034      2.317      6.981
REMARK INTER + INTRA:          -4.939
REMARK INTER:                  -4.654
REMARK INTRA:                  -0.284
REMARK UNBOUND:                -0.315
REMARK SMILES O=C1C[C@H](c2ccc(O)cc2)Oc2cc(O)cc(O)c21
REMARK SMILES IDX 3 1 4 2 12 3 13 4 14 5 15 6 17 7 18 8 20 9 2 10 1 11 5 12
REMARK SMILES IDX 6 13 11 14 7 15 10 16 8 17 9 18 19 20 16 22
REMARK H PARENT 9 19 19 21 16 23
REMARK Flexibility Score: inf
ROOT
ATOM      1  C   UNL     1     -17.862  56.876  37.430  1.00  0.00     0.131 C 
ATOM      2  C   UNL     1     -18.729  56.121  36.412  1.00  0.00     0.211 C 
ATOM      3  O   UNL     1     -18.837  56.863  35.194  1.00  0.00    -0.484 OA
ATOM      4  C   UNL     1     -18.976  58.258  35.169  1.00  0.00     0.138 A 
ATOM      5  C   UNL     1     -19.352  58.878  33.975  1.00  0.00     0.093 A 
ATOM      6  C   UNL     1     -19.512  60.266  33.923  1.00  0.00     0.123 A 
ATOM      7  C   UNL     1     -19.268  61.036  35.061  1.00  0.00     0.093 A 
ATOM      8  C   UNL     1     -18.851  60.439  36.257  1.00  0.00     0.133 A 
ATOM      9  C   UNL     1     -18.733  59.026  36.328  1.00  0.00     0.102 A 
ATOM     10  C   UNL     1     -18.368  58.282  37.559  1.00  0.00     0.174 C 
ATOM     11  O   UNL     1     -18.524  58.779  38.706  1.00  0.00    -0.294 OA
ENDROOT
BRANCH   2  12
ATOM     12  C   UNL     1     -18.156  54.752  36.135  1.00  0.00    -0.007 A 
ATOM     13  C   UNL     1     -16.771  54.576  35.974  1.00  0.00     0.011 A 
ATOM     14  C   UNL     1     -18.999  53.629  36.091  1.00  0.00     0.011 A 
ATOM     15  C   UNL     1     -16.243  53.301  35.747  1.00  0.00     0.046 A 
ATOM     16  C   UNL     1     -18.468  52.355  35.865  1.00  0.00     0.046 A 
ATOM     17  C   UNL     1     -17.091  52.187  35.691  1.00  0.00     0.115 A 
BRANCH  17  18
ATOM     18  O   UNL     1     -16.576  50.913  35.466  1.00  0.00    -0.508 OA
ATOM     19  H   UNL     1     -15.578  50.749  35.400  1.00  0.00     0.293 HD
ENDBRANCH  17  18
ENDBRANCH   2  12
BRANCH   8  20
ATOM     20  O   UNL     1     -18.537  61.286  37.322  1.00  0.00    -0.507 OA
ATOM     21  H   UNL     1     -17.836  62.013  37.277  1.00  0.00     0.293 HD
ENDBRANCH   8  20
BRANCH   6  22
ATOM     22  O   UNL     1     -19.908  60.890  32.742  1.00  0.00    -0.508 OA
ATOM     23  H   UNL     1     -20.884  61.076  32.542  1.00  0.00     0.293 HD
ENDBRANCH   6  22
TORSDOF 4
ENDMDL
MODEL 6
REMARK VINA RESULT:    -4.006      3.625      6.531
REMARK INTER + INTRA:          -4.906
REMARK INTER:                  -4.595
REMARK INTRA:                  -0.311
REMARK UNBOUND:                -0.315
REMARK SMILES O=C1C[C@H](c2ccc(O)cc2)Oc2cc(O)cc(O)c21
REMARK SMILES IDX 3 1 4 2 12 3 13 4 14 5 15 6 17 7 18 8 20 9 2 10 1 11 5 12
REMARK SMILES IDX 6 13 11 14 7 15 10 16 8 17 9 18 19 20 16 22
REMARK H PARENT 9 19 19 21 16 23
REMARK Flexibility Score: inf
ROOT
ATOM      1  C   UNL     1     -18.518  60.281  37.259  1.00  0.00     0.131 C 
ATOM      2  C   UNL     1     -18.409  59.256  38.397  1.00  0.00     0.211 C 
ATOM      3  O   UNL     1     -17.546  58.179  38.023  1.00  0.00    -0.484 OA
ATOM      4  C   UNL     1     -17.535  57.632  36.731  1.00  0.00     0.138 A 
ATOM      5  C   UNL     1     -16.879  56.418  36.517  1.00  0.00     0.093 A 
ATOM      6  C   UNL     1     -16.863  55.841  35.243  1.00  0.00     0.123 A 
ATOM      7  C   UNL     1     -17.482  56.496  34.178  1.00  0.00     0.093 A 
ATOM      8  C   UNL     1     -18.111  57.734  34.363  1.00  0.00     0.133 A 
ATOM      9  C   UNL     1     -18.171  58.300  35.663  1.00  0.00     0.102 A 
ATOM     10  C   UNL     1     -18.869  59.569  35.987  1.00  0.00     0.174 C 
ATOM     11  O   UNL     1     -19.782  60.030  35.253  1.00  0.00    -0.294 OA
ENDROOT
BRANCH   2  12
ATOM     12  C   UNL     1     -17.902  59.911  39.659  1.00  0.00    -0.007 A 
ATOM     13  C   UNL     1     -18.145  61.274  39.905  1.00  0.00     0.011 A 
ATOM     14  C   UNL     1     -17.231  59.149  40.630  1.00  0.00     0.011 A 
ATOM     15  C   UNL     1     -17.700  61.868  41.089  1.00  0.00     0.046 A 
ATOM     16  C   UNL     1     -16.787  59.746  41.815  1.00  0.00     0.046 A 
ATOM     17  C   UNL     1     -17.018  61.105  42.047  1.00  0.00     0.115 A 
BRANCH  17  18
ATOM     18  O   UNL     1     -16.570  61.686  43.230  1.00  0.00    -0.508 OA
ATOM     19  H   UNL     1     -16.520  61.158  44.094  1.00  0.00     0.293 HD
ENDBRANCH  17  18
ENDBRANCH   2  12
BRANCH   8  20
ATOM     20  O   UNL     1     -18.623  58.369  33.228  1.00  0.00    -0.507 OA
ATOM     21  H   UNL     1     -19.349  59.071  33.254  1.00  0.00     0.293 HD
ENDBRANCH   8  20
BRANCH   6  22
ATOM     22  O   UNL     1     -16.230  54.620  35.026  1.00  0.00    -0.508 OA
ATOM     23  H   UNL     1     -16.747  53.748  35.023  1.00  0.00     0.293 HD
ENDBRANCH   6  22
TORSDOF 4
ENDMDL
MODEL 7
REMARK VINA RESULT:    -3.953      1.769      7.416
REMARK INTER + INTRA:          -4.845
REMARK INTER:                  -4.525
REMARK INTRA:                  -0.320
REMARK UNBOUND:                -0.315
REMARK SMILES O=C1C[C@H](c2ccc(O)cc2)Oc2cc(O)cc(O)c21
REMARK SMILES IDX 3 1 4 2 12 3 13 4 14 5 15 6 17 7 18 8 20 9 2 10 1 11 5 12
REMARK SMILES IDX 6 13 11 14 7 15 10 16 8 17 9 18 19 20 16 22
REMARK H PARENT 9 19 19 21 16 23
REMARK Flexibility Score: inf
ROOT
ATOM      1  C   UNL     1     -17.568  56.152  34.955  1.00  0.00     0.131 C 
ATOM      2  C   UNL     1     -16.718  56.356  36.216  1.00  0.00     0.211 C 
ATOM      3  O   UNL     1     -17.341  57.294  37.098  1.00  0.00    -0.484 OA
ATOM      4  C   UNL     1     -17.998  58.444  36.636  1.00  0.00     0.138 A 
ATOM      5  C   UNL     1     -18.334  59.444  37.551  1.00  0.00     0.093 A 
ATOM      6  C   UNL     1     -18.976  60.608  37.118  1.00  0.00     0.123 A 
ATOM      7  C   UNL     1     -19.307  60.757  35.770  1.00  0.00     0.093 A 
ATOM      8  C   UNL     1     -19.015  59.749  34.843  1.00  0.00     0.133 A 
ATOM      9  C   UNL     1     -18.321  58.587  35.269  1.00  0.00     0.102 A 
ATOM     10  C   UNL     1     -17.899  57.490  34.363  1.00  0.00     0.174 C 
ATOM     11  O   UNL     1     -17.759  57.669  33.125  1.00  0.00    -0.294 OA
ENDROOT
BRANCH   2  12
ATOM     12  C   UNL     1     -16.498  55.044  36.930  1.00  0.00    -0.007 A 
ATOM     13  C   UNL     1     -16.491  54.986  38.335  1.00  0.00     0.011 A 
ATOM     14  C   UNL     1     -16.353  53.855  36.195  1.00  0.00     0.011 A 
ATOM     15  C   UNL     1     -16.317  53.764  38.990  1.00  0.00     0.046 A 
ATOM     16  C   UNL     1     -16.180  52.633  36.854  1.00  0.00     0.046 A 
ATOM     17  C   UNL     1     -16.160  52.584  38.251  1.00  0.00     0.115 A 
BRANCH  17  18
ATOM     18  O   UNL     1     -15.986  51.361  38.893  1.00  0.00    -0.508 OA
ATOM     19  H   UNL     1     -15.066  51.027  39.158  1.00  0.00     0.293 HD
ENDBRANCH  17  18
ENDBRANCH   2  12
BRANCH   8  20
ATOM     20  O   UNL     1     -19.463  59.934  33.532  1.00  0.00    -0.507 OA
ATOM     21  H   UNL     1     -20.059  60.696  33.242  1.00  0.00     0.293 HD
ENDBRANCH   8  20
BRANCH   6  22
ATOM     22  O   UNL     1     -19.296  61.620  38.020  1.00  0.00    -0.508 OA
ATOM     23  H   UNL     1     -20.235  61.728  38.386  1.00  0.00     0.293 HD
ENDBRANCH   6  22
TORSDOF 4
ENDMDL
MODEL 8
REMARK VINA RESULT:    -3.943      9.385      9.701
REMARK INTER + INTRA:          -4.834
REMARK INTER:                  -4.520
REMARK INTRA:                  -0.313
REMARK UNBOUND:                -0.315
REMARK SMILES O=C1C[C@H](c2ccc(O)cc2)Oc2cc(O)cc(O)c21
REMARK SMILES IDX 3 1 4 2 12 3 13 4 14 5 15 6 17 7 18 8 20 9 2 10 1 11 5 12
REMARK SMILES IDX 6 13 11 14 7 15 10 16 8 17 9 18 19 20 16 22
REMARK H PARENT 9 19 19 21 16 23
REMARK Flexibility Score: inf
ROOT
ATOM      1  C   UNL     1     -22.723  48.626  31.658  1.00  0.00     0.131 C 
ATOM      2  C   UNL     1     -22.125  49.923  31.097  1.00  0.00     0.211 C 
ATOM      3  O   UNL     1     -20.961  49.644  30.316  1.00  0.00    -0.484 OA
ATOM      4  C   UNL     1     -20.020  48.670  30.682  1.00  0.00     0.138 A 
ATOM      5  C   UNL     1     -18.784  48.646  30.032  1.00  0.00     0.093 A 
ATOM      6  C   UNL     1     -17.821  47.695  30.386  1.00  0.00     0.123 A 
ATOM      7  C   UNL     1     -18.108  46.751  31.373  1.00  0.00     0.093 A 
ATOM      8  C   UNL     1     -19.356  46.732  32.008  1.00  0.00     0.133 A 
ATOM      9  C   UNL     1     -20.319  47.725  31.687  1.00  0.00     0.102 A 
ATOM     10  C   UNL     1     -21.644  47.844  32.345  1.00  0.00     0.174 C 
ATOM     11  O   UNL     1     -21.865  47.354  33.484  1.00  0.00    -0.294 OA
ENDROOT
BRANCH   2  12
ATOM     12  C   UNL     1     -23.143  50.663  30.262  1.00  0.00    -0.007 A 
ATOM     13  C   UNL     1     -22.988  50.761  28.868  1.00  0.00     0.011 A 
ATOM     14  C   UNL     1     -24.287  51.213  30.865  1.00  0.00     0.011 A 
ATOM     15  C   UNL     1     -23.949  51.420  28.096  1.00  0.00     0.046 A 
ATOM     16  C   UNL     1     -25.246  51.872  30.090  1.00  0.00     0.046 A 
ATOM     17  C   UNL     1     -25.080  51.979  28.705  1.00  0.00     0.115 A 
BRANCH  17  18
ATOM     18  O   UNL     1     -26.044  52.638  27.946  1.00  0.00    -0.508 OA
ATOM     19  H   UNL     1     -26.408  53.543  28.222  1.00  0.00     0.293 HD
ENDBRANCH  17  18
ENDBRANCH   2  12
BRANCH   8  20
ATOM     20  O   UNL     1     -19.599  45.698  32.916  1.00  0.00    -0.507 OA
ATOM     21  H   UNL     1     -20.105  45.815  33.782  1.00  0.00     0.293 HD
ENDBRANCH   8  20
BRANCH   6  22
ATOM     22  O   UNL     1     -16.578  47.678  29.758  1.00  0.00    -0.508 OA
ATOM     23  H   UNL     1     -16.388  47.064  28.974  1.00  0.00     0.293 HD
ENDBRANCH   6  22
TORSDOF 4
ENDMDL
MODEL 9
REMARK VINA RESULT:    -3.907     18.291     19.871
REMARK INTER + INTRA:          -4.792
REMARK INTER:                  -4.481
REMARK INTRA:                  -0.311
REMARK UNBOUND:                -0.315
REMARK SMILES O=C1C[C@H](c2ccc(O)cc2)Oc2cc(O)cc(O)c21
REMARK SMILES IDX 3 1 4 2 12 3 13 4 14 5 15 6 17 7 18 8 20 9 2 10 1 11 5 12
REMARK SMILES IDX 6 13 11 14 7 15 10 16 8 17 9 18 19 20 16 22
REMARK H PARENT 9 19 19 21 16 23
REMARK Flexibility Score: inf
ROOT
ATOM      1  C   UNL     1     -33.158  43.844  39.025  1.00  0.00     0.131 C 
ATOM      2  C   UNL     1     -33.226  44.202  37.534  1.00  0.00     0.211 C 
ATOM      3  O   UNL     1     -33.371  45.614  37.362  1.00  0.00    -0.484 OA
ATOM      4  C   UNL     1     -34.183  46.397  38.195  1.00  0.00     0.138 A 
ATOM      5  C   UNL     1     -34.495  47.702  37.803  1.00  0.00     0.093 A 
ATOM      6  C   UNL     1     -35.313  48.501  38.606  1.00  0.00     0.123 A 
ATOM      7  C   UNL     1     -35.797  48.003  39.817  1.00  0.00     0.093 A 
ATOM      8  C   UNL     1     -35.464  46.713  40.248  1.00  0.00     0.133 A 
ATOM      9  C   UNL     1     -34.673  45.880  39.414  1.00  0.00     0.102 A 
ATOM     10  C   UNL     1     -34.317  44.476  39.736  1.00  0.00     0.174 C 
ATOM     11  O   UNL     1     -34.995  43.789  40.545  1.00  0.00    -0.294 OA
ENDROOT
BRANCH   2  12
ATOM     12  C   UNL     1     -31.991  43.718  36.812  1.00  0.00    -0.007 A 
ATOM     13  C   UNL     1     -31.710  42.343  36.720  1.00  0.00     0.011 A 
ATOM     14  C   UNL     1     -31.139  44.635  36.175  1.00  0.00     0.011 A 
ATOM     15  C   UNL     1     -30.582  41.899  36.024  1.00  0.00     0.046 A 
ATOM     16  C   UNL     1     -30.011  44.188  35.479  1.00  0.00     0.046 A 
ATOM     17  C   UNL     1     -29.729  42.820  35.403  1.00  0.00     0.115 A 
BRANCH  17  18
ATOM     18  O   UNL     1     -28.602  42.389  34.707  1.00  0.00    -0.508 OA
ATOM     19  H   UNL     1     -28.646  42.150  33.723  1.00  0.00     0.293 HD
ENDBRANCH  17  18
ENDBRANCH   2  12
BRANCH   8  20
ATOM     20  O   UNL     1     -35.910  46.324  41.513  1.00  0.00    -0.507 OA
ATOM     21  H   UNL     1     -35.896  46.924  42.326  1.00  0.00     0.293 HD
ENDBRANCH   8  20
BRANCH   6  22
ATOM     22  O   UNL     1     -35.647  49.795  38.212  1.00  0.00    -0.508 OA
ATOM     23  H   UNL     1     -35.482  50.121  37.267  1.00  0.00     0.293 HD
ENDBRANCH   6  22
TORSDOF 4
ENDMDL
