MODEL 1
REMARK VINA RESULT:    -3.499      0.000      0.000
REMARK INTER + INTRA:          -4.131
REMARK INTER:                  -4.112
REMARK INTRA:                  -0.018
REMARK UNBOUND:                -0.018
REMARK SMILES CCCCC(=O)[O-]
REMARK SMILES IDX 4 1 5 2 6 3 7 4 3 5 2 6 1 7
REMARK H PARENT
REMARK Flexibility Score: inf
ROOT
ATOM      1  C   UNL     1     115.046 -82.720  21.471  1.00  0.00     0.053 C 
ENDROOT
BRANCH   1   2
ATOM      2  C   UNL     1     113.884 -83.544  21.016  1.00  0.00     0.041 C 
ATOM      3  O   UNL     1     113.917 -84.125  19.900  1.00  0.00    -0.550 OA
ATOM      4  O   UNL     1     112.743 -83.632  21.804  1.00  0.00    -0.550 OA
ENDBRANCH   1   2
BRANCH   1   5
ATOM      5  C   UNL     1     116.364 -83.441  21.176  1.00  0.00     0.006 C 
BRANCH   5   6
ATOM      6  C   UNL     1     117.457 -83.013  22.162  1.00  0.00    -0.003 C 
ATOM      7  C   UNL     1     118.712 -82.550  21.427  1.00  0.00     0.004 C 
ENDBRANCH   5   6
ENDBRANCH   1   5
TORSDOF 3
ENDMDL
MODEL 2
REMARK VINA RESULT:    -3.490      1.368      1.864
REMARK INTER + INTRA:          -4.120
REMARK INTER:                  -4.035
REMARK INTRA:                  -0.084
REMARK UNBOUND:                -0.018
REMARK SMILES CCCCC(=O)[O-]
REMARK SMILES IDX 4 1 5 2 6 3 7 4 3 5 2 6 1 7
REMARK H PARENT
REMARK Flexibility Score: inf
ROOT
ATOM      1  C   UNL     1     113.886 -83.900  20.368  1.00  0.00     0.053 C 
ENDROOT
BRANCH   1   2
ATOM      2  C   UNL     1     112.930 -83.200  21.281  1.00  0.00     0.041 C 
ATOM      3  O   UNL     1     112.471 -83.791  22.292  1.00  0.00    -0.550 OA
ATOM      4  O   UNL     1     112.507 -81.910  20.986  1.00  0.00    -0.550 OA
ENDBRANCH   1   2
BRANCH   1   5
ATOM      5  C   UNL     1     115.174 -83.085  20.212  1.00  0.00     0.006 C 
BRANCH   5   6
ATOM      6  C   UNL     1     115.877 -82.904  21.561  1.00  0.00    -0.003 C 
ATOM      7  C   UNL     1     117.359 -83.254  21.463  1.00  0.00     0.004 C 
ENDBRANCH   5   6
ENDBRANCH   1   5
TORSDOF 3
ENDMDL
MODEL 3
REMARK VINA RESULT:    -3.467      7.267      8.252
REMARK INTER + INTRA:          -4.093
REMARK INTER:                  -4.036
REMARK INTRA:                  -0.057
REMARK UNBOUND:                -0.018
REMARK SMILES CCCCC(=O)[O-]
REMARK SMILES IDX 4 1 5 2 6 3 7 4 3 5 2 6 1 7
REMARK H PARENT
REMARK Flexibility Score: inf
ROOT
ATOM      1  C   UNL     1     107.699 -82.138  24.255  1.00  0.00     0.053 C 
ENDROOT
BRANCH   1   2
ATOM      2  C   UNL     1     106.934 -82.888  25.299  1.00  0.00     0.041 C 
ATOM      3  O   UNL     1     106.209 -83.864  24.975  1.00  0.00    -0.550 OA
ATOM      4  O   UNL     1     106.983 -82.477  26.625  1.00  0.00    -0.550 OA
ENDBRANCH   1   2
BRANCH   1   5
ATOM      5  C   UNL     1     108.638 -83.081  23.496  1.00  0.00     0.006 C 
BRANCH   5   6
ATOM      6  C   UNL     1     110.047 -82.488  23.393  1.00  0.00    -0.003 C 
ATOM      7  C   UNL     1     110.162 -81.197  24.198  1.00  0.00     0.004 C 
ENDBRANCH   5   6
ENDBRANCH   1   5
TORSDOF 3
ENDMDL
MODEL 4
REMARK VINA RESULT:    -3.414      6.259      8.226
REMARK INTER + INTRA:          -4.031
REMARK INTER:                  -3.927
REMARK INTRA:                  -0.103
REMARK UNBOUND:                -0.018
REMARK SMILES CCCCC(=O)[O-]
REMARK SMILES IDX 4 1 5 2 6 3 7 4 3 5 2 6 1 7
REMARK H PARENT
REMARK Flexibility Score: inf
ROOT
ATOM      1  C   UNL     1     108.585 -83.260  23.385  1.00  0.00     0.053 C 
ENDROOT
BRANCH   1   2
ATOM      2  C   UNL     1     109.869 -82.494  23.383  1.00  0.00     0.041 C 
ATOM      3  O   UNL     1     110.882 -82.956  22.795  1.00  0.00    -0.550 OA
ATOM      4  O   UNL     1     109.963 -81.292  24.072  1.00  0.00    -0.550 OA
ENDBRANCH   1   2
BRANCH   1   5
ATOM      5  C   UNL     1     107.437 -82.382  23.891  1.00  0.00     0.006 C 
BRANCH   5   6
ATOM      6  C   UNL     1     106.833 -82.955  25.177  1.00  0.00    -0.003 C 
ATOM      7  C   UNL     1     107.185 -82.090  26.385  1.00  0.00     0.004 C 
ENDBRANCH   5   6
ENDBRANCH   1   5
TORSDOF 3
ENDMDL
MODEL 5
REMARK VINA RESULT:    -3.409      3.307      4.363
REMARK INTER + INTRA:          -4.025
REMARK INTER:                  -3.992
REMARK INTRA:                  -0.034
REMARK UNBOUND:                -0.018
REMARK SMILES CCCCC(=O)[O-]
REMARK SMILES IDX 4 1 5 2 6 3 7 4 3 5 2 6 1 7
REMARK H PARENT
REMARK Flexibility Score: inf
ROOT
ATOM      1  C   UNL     1     117.153 -83.410  21.373  1.00  0.00     0.053 C 
ENDROOT
BRANCH   1   2
ATOM      2  C   UNL     1     118.442 -82.768  21.778  1.00  0.00     0.041 C 
ATOM      3  O   UNL     1     118.888 -81.782  21.137  1.00  0.00    -0.550 OA
ATOM      4  O   UNL     1     119.176 -83.290  22.836  1.00  0.00    -0.550 OA
ENDBRANCH   1   2
BRANCH   1   5
ATOM      5  C   UNL     1     115.963 -82.556  21.822  1.00  0.00     0.006 C 
BRANCH   5   6
ATOM      6  C   UNL     1     114.920 -82.439  20.707  1.00  0.00    -0.003 C 
ATOM      7  C   UNL     1     114.346 -83.806  20.342  1.00  0.00     0.004 C 
ENDBRANCH   5   6
ENDBRANCH   1   5
TORSDOF 3
ENDMDL
MODEL 6
REMARK VINA RESULT:    -3.399      6.727      8.063
REMARK INTER + INTRA:          -4.014
REMARK INTER:                  -3.976
REMARK INTRA:                  -0.037
REMARK UNBOUND:                -0.018
REMARK SMILES CCCCC(=O)[O-]
REMARK SMILES IDX 4 1 5 2 6 3 7 4 3 5 2 6 1 7
REMARK H PARENT
REMARK Flexibility Score: inf
ROOT
ATOM      1  C   UNL     1     108.061 -83.480  23.453  1.00  0.00     0.053 C 
ENDROOT
BRANCH   1   2
ATOM      2  C   UNL     1     106.617 -83.866  23.525  1.00  0.00     0.041 C 
ATOM      3  O   UNL     1     106.058 -84.023  24.641  1.00  0.00    -0.550 OA
ATOM      4  O   UNL     1     105.902 -84.100  22.357  1.00  0.00    -0.550 OA
ENDBRANCH   1   2
BRANCH   1   5
ATOM      5  C   UNL     1     108.374 -82.377  24.468  1.00  0.00     0.006 C 
BRANCH   5   6
ATOM      6  C   UNL     1     109.767 -81.787  24.227  1.00  0.00    -0.003 C 
ATOM      7  C   UNL     1     110.498 -82.536  23.115  1.00  0.00     0.004 C 
ENDBRANCH   5   6
ENDBRANCH   1   5
TORSDOF 3
ENDMDL
MODEL 7
REMARK VINA RESULT:    -3.344      7.677      8.763
REMARK INTER + INTRA:          -3.949
REMARK INTER:                  -3.860
REMARK INTRA:                  -0.089
REMARK UNBOUND:                -0.018
REMARK SMILES CCCCC(=O)[O-]
REMARK SMILES IDX 4 1 5 2 6 3 7 4 3 5 2 6 1 7
REMARK H PARENT
REMARK Flexibility Score: inf
ROOT
ATOM      1  C   UNL     1     106.584 -83.265  24.924  1.00  0.00     0.053 C 
ENDROOT
BRANCH   1   2
ATOM      2  C   UNL     1     107.093 -83.711  23.590  1.00  0.00     0.041 C 
ATOM      3  O   UNL     1     106.292 -84.125  22.713  1.00  0.00    -0.550 OA
ATOM      4  O   UNL     1     108.458 -83.716  23.334  1.00  0.00    -0.550 OA
ENDBRANCH   1   2
BRANCH   1   5
ATOM      5  C   UNL     1     107.102 -81.863  25.256  1.00  0.00     0.006 C 
BRANCH   5   6
ATOM      6  C   UNL     1     108.173 -81.918  26.351  1.00  0.00    -0.003 C 
ATOM      7  C   UNL     1     109.544 -81.532  25.802  1.00  0.00     0.004 C 
ENDBRANCH   5   6
ENDBRANCH   1   5
TORSDOF 3
ENDMDL
MODEL 8
REMARK VINA RESULT:    -3.304      4.750      5.731
REMARK INTER + INTRA:          -3.902
REMARK INTER:                  -3.865
REMARK INTRA:                  -0.037
REMARK UNBOUND:                -0.018
REMARK SMILES CCCCC(=O)[O-]
REMARK SMILES IDX 4 1 5 2 6 3 7 4 3 5 2 6 1 7
REMARK H PARENT
REMARK Flexibility Score: inf
ROOT
ATOM      1  C   UNL     1     119.295 -83.381  23.848  1.00  0.00     0.053 C 
ENDROOT
BRANCH   1   2
ATOM      2  C   UNL     1     119.632 -82.631  25.097  1.00  0.00     0.041 C 
ATOM      3  O   UNL     1     119.840 -81.390  25.054  1.00  0.00    -0.550 OA
ATOM      4  O   UNL     1     119.764 -83.310  26.301  1.00  0.00    -0.550 OA
ENDBRANCH   1   2
BRANCH   1   5
ATOM      5  C   UNL     1     119.239 -82.431  22.648  1.00  0.00     0.006 C 
BRANCH   5   6
ATOM      6  C   UNL     1     118.452 -83.053  21.491  1.00  0.00    -0.003 C 
ATOM      7  C   UNL     1     116.973 -83.196  21.843  1.00  0.00     0.004 C 
ENDBRANCH   5   6
ENDBRANCH   1   5
TORSDOF 3
ENDMDL
