MODEL 1
REMARK VINA RESULT:    -4.878      0.000      0.000
REMARK INTER + INTRA:          -5.992
REMARK INTER:                  -5.876
REMARK INTRA:                  -0.116
REMARK UNBOUND:                -0.116
REMARK SMILES COC(=O)c1cc(O)c(O)c(O)c1
REMARK SMILES IDX 5 1 13 2 11 3 9 4 7 5 6 6 3 7 4 8 2 9 1 10 12 11 8 13 10 15
REMARK H PARENT 12 12 8 14 10 16
REMARK Flexibility Score: inf
ROOT
ATOM      1  C   UNL     1    -108.069 -15.296  52.337  1.00  0.00     0.067 A 
ATOM      2  C   UNL     1    -107.028 -14.436  51.948  1.00  0.00     0.066 A 
ATOM      3  C   UNL     1    -106.699 -13.315  52.722  1.00  0.00     0.162 A 
ATOM      4  C   UNL     1    -107.415 -13.044  53.900  1.00  0.00     0.200 A 
ATOM      5  C   UNL     1    -108.457 -13.899  54.295  1.00  0.00     0.162 A 
ATOM      6  C   UNL     1    -108.778 -15.015  53.517  1.00  0.00     0.066 A 
ENDROOT
BRANCH   1   7
ATOM      7  C   UNL     1    -108.418 -16.480  51.520  1.00  0.00     0.338 C 
ATOM      8  O   UNL     1    -109.433 -17.173  51.811  1.00  0.00    -0.246 OA
BRANCH   7   9
ATOM      9  O   UNL     1    -107.623 -16.830  50.423  1.00  0.00    -0.465 OA
ATOM     10  C   UNL     1    -106.839 -18.017  50.390  1.00  0.00     0.282 C 
ENDBRANCH   7   9
ENDBRANCH   1   7
BRANCH   3  11
ATOM     11  O   UNL     1    -105.664 -12.471  52.324  1.00  0.00    -0.504 OA
ATOM     12  H   UNL     1    -105.159 -12.619  51.458  1.00  0.00     0.293 HD
ENDBRANCH   3  11
BRANCH   5  13
ATOM     13  O   UNL     1    -109.185 -13.656  55.461  1.00  0.00    -0.504 OA
ATOM     14  H   UNL     1    -108.791 -13.155  56.248  1.00  0.00     0.293 HD
ENDBRANCH   5  13
BRANCH   4  15
ATOM     15  O   UNL     1    -107.101 -11.932  54.684  1.00  0.00    -0.502 OA
ATOM     16  H   UNL     1    -106.832 -12.016  55.657  1.00  0.00     0.293 HD
ENDBRANCH   4  15
TORSDOF 5
ENDMDL
MODEL 2
REMARK VINA RESULT:    -4.844      0.080      2.335
REMARK INTER + INTRA:          -5.952
REMARK INTER:                  -5.836
REMARK INTRA:                  -0.115
REMARK UNBOUND:                -0.116
REMARK SMILES COC(=O)c1cc(O)c(O)c(O)c1
REMARK SMILES IDX 5 1 13 2 11 3 9 4 7 5 6 6 3 7 4 8 2 9 1 10 12 11 8 13 10 15
REMARK H PARENT 12 12 8 14 10 16
REMARK Flexibility Score: inf
ROOT
ATOM      1  C   UNL     1    -108.060 -15.331  52.325  1.00  0.00     0.067 A 
ATOM      2  C   UNL     1    -108.795 -15.078  53.496  1.00  0.00     0.066 A 
ATOM      3  C   UNL     1    -108.511 -13.960  54.291  1.00  0.00     0.162 A 
ATOM      4  C   UNL     1    -107.481 -13.080  53.920  1.00  0.00     0.200 A 
ATOM      5  C   UNL     1    -106.742 -13.326  52.751  1.00  0.00     0.162 A 
ATOM      6  C   UNL     1    -107.032 -14.443  51.962  1.00  0.00     0.066 A 
ENDROOT
BRANCH   1   7
ATOM      7  C   UNL     1    -108.358 -16.511  51.483  1.00  0.00     0.338 C 
ATOM      8  O   UNL     1    -109.358 -17.237  51.742  1.00  0.00    -0.246 OA
BRANCH   7   9
ATOM      9  O   UNL     1    -107.530 -16.821  50.399  1.00  0.00    -0.465 OA
ATOM     10  C   UNL     1    -106.746 -18.008  50.345  1.00  0.00     0.282 C 
ENDBRANCH   7   9
ENDBRANCH   1   7
BRANCH   3  11
ATOM     11  O   UNL     1    -109.248 -13.722  55.450  1.00  0.00    -0.504 OA
ATOM     12  H   UNL     1    -109.057 -12.928  56.050  1.00  0.00     0.293 HD
ENDBRANCH   3  11
BRANCH   5  13
ATOM     13  O   UNL     1    -105.714 -12.469  52.356  1.00  0.00    -0.504 OA
ATOM     14  H   UNL     1    -104.771 -12.799  52.190  1.00  0.00     0.293 HD
ENDBRANCH   5  13
BRANCH   4  15
ATOM     15  O   UNL     1    -107.184 -11.962  54.701  1.00  0.00    -0.502 OA
ATOM     16  H   UNL     1    -107.579 -11.828  55.625  1.00  0.00     0.293 HD
ENDBRANCH   4  15
TORSDOF 5
ENDMDL
MODEL 3
REMARK VINA RESULT:    -4.401      0.897      2.801
REMARK INTER + INTRA:          -5.417
REMARK INTER:                  -5.300
REMARK INTRA:                  -0.118
REMARK UNBOUND:                -0.116
REMARK SMILES COC(=O)c1cc(O)c(O)c(O)c1
REMARK SMILES IDX 5 1 13 2 11 3 9 4 7 5 6 6 3 7 4 8 2 9 1 10 12 11 8 13 10 15
REMARK H PARENT 12 12 8 14 10 16
REMARK Flexibility Score: inf
ROOT
ATOM      1  C   UNL     1    -108.337 -15.506  52.361  1.00  0.00     0.067 A 
ATOM      2  C   UNL     1    -108.944 -15.144  53.575  1.00  0.00     0.066 A 
ATOM      3  C   UNL     1    -108.486 -14.036  54.302  1.00  0.00     0.162 A 
ATOM      4  C   UNL     1    -107.408 -13.277  53.816  1.00  0.00     0.200 A 
ATOM      5  C   UNL     1    -106.796 -13.633  52.602  1.00  0.00     0.162 A 
ATOM      6  C   UNL     1    -107.260 -14.739  51.883  1.00  0.00     0.066 A 
ENDROOT
BRANCH   1   7
ATOM      7  C   UNL     1    -108.819 -16.675  51.592  1.00  0.00     0.338 C 
ATOM      8  O   UNL     1    -107.996 -17.419  50.989  1.00  0.00    -0.246 OA
BRANCH   7   9
ATOM      9  O   UNL     1    -110.188 -16.956  51.535  1.00  0.00    -0.465 OA
ATOM     10  C   UNL     1    -111.023 -16.499  50.478  1.00  0.00     0.282 C 
ENDBRANCH   7   9
ENDBRANCH   1   7
BRANCH   3  11
ATOM     11  O   UNL     1    -109.098 -13.689  55.504  1.00  0.00    -0.504 OA
ATOM     12  H   UNL     1    -109.396 -12.739  55.696  1.00  0.00     0.293 HD
ENDBRANCH   3  11
BRANCH   5  13
ATOM     13  O   UNL     1    -105.725 -12.898  52.094  1.00  0.00    -0.504 OA
ATOM     14  H   UNL     1    -105.614 -12.720  51.103  1.00  0.00     0.293 HD
ENDBRANCH   5  13
BRANCH   4  15
ATOM     15  O   UNL     1    -106.939 -12.171  54.526  1.00  0.00    -0.502 OA
ATOM     16  H   UNL     1    -107.494 -11.332  54.647  1.00  0.00     0.293 HD
ENDBRANCH   4  15
TORSDOF 5
ENDMDL
MODEL 4
REMARK VINA RESULT:    -4.260      1.730      3.333
REMARK INTER + INTRA:          -5.247
REMARK INTER:                  -5.136
REMARK INTRA:                  -0.112
REMARK UNBOUND:                -0.116
REMARK SMILES COC(=O)c1cc(O)c(O)c(O)c1
REMARK SMILES IDX 5 1 13 2 11 3 9 4 7 5 6 6 3 7 4 8 2 9 1 10 12 11 8 13 10 15
REMARK H PARENT 12 12 8 14 10 16
REMARK Flexibility Score: inf
ROOT
ATOM      1  C   UNL     1    -109.076 -14.673  53.811  1.00  0.00     0.067 A 
ATOM      2  C   UNL     1    -108.379 -15.148  52.686  1.00  0.00     0.066 A 
ATOM      3  C   UNL     1    -107.197 -14.526  52.262  1.00  0.00     0.162 A 
ATOM      4  C   UNL     1    -106.701 -13.415  52.963  1.00  0.00     0.200 A 
ATOM      5  C   UNL     1    -107.391 -12.934  54.088  1.00  0.00     0.162 A 
ATOM      6  C   UNL     1    -108.569 -13.562  54.506  1.00  0.00     0.066 A 
ENDROOT
BRANCH   1   7
ATOM      7  C   UNL     1    -110.324 -15.329  54.261  1.00  0.00     0.338 C 
ATOM      8  O   UNL     1    -111.214 -15.640  53.421  1.00  0.00    -0.246 OA
BRANCH   7   9
ATOM      9  O   UNL     1    -110.516 -15.606  55.619  1.00  0.00    -0.465 OA
ATOM     10  C   UNL     1    -110.279 -16.891  56.182  1.00  0.00     0.282 C 
ENDBRANCH   7   9
ENDBRANCH   1   7
BRANCH   3  11
ATOM     11  O   UNL     1    -106.517 -15.008  51.145  1.00  0.00    -0.504 OA
ATOM     12  H   UNL     1    -105.508 -15.100  51.134  1.00  0.00     0.293 HD
ENDBRANCH   3  11
BRANCH   5  13
ATOM     13  O   UNL     1    -106.921 -11.834  54.805  1.00  0.00    -0.504 OA
ATOM     14  H   UNL     1    -107.420 -11.456  55.601  1.00  0.00     0.293 HD
ENDBRANCH   5  13
BRANCH   4  15
ATOM     15  O   UNL     1    -105.525 -12.783  52.554  1.00  0.00    -0.502 OA
ATOM     16  H   UNL     1    -104.857 -12.404  53.215  1.00  0.00     0.293 HD
ENDBRANCH   4  15
TORSDOF 5
ENDMDL
MODEL 5
REMARK VINA RESULT:    -4.077     11.720     13.992
REMARK INTER + INTRA:          -5.028
REMARK INTER:                  -4.893
REMARK INTRA:                  -0.135
REMARK UNBOUND:                -0.116
REMARK SMILES COC(=O)c1cc(O)c(O)c(O)c1
REMARK SMILES IDX 5 1 13 2 11 3 9 4 7 5 6 6 3 7 4 8 2 9 1 10 12 11 8 13 10 15
REMARK H PARENT 12 12 8 14 10 16
REMARK Flexibility Score: inf
ROOT
ATOM      1  C   UNL     1    -102.912  -3.394  48.214  1.00  0.00     0.067 A 
ATOM      2  C   UNL     1    -101.630  -2.855  48.416  1.00  0.00     0.066 A 
ATOM      3  C   UNL     1    -100.759  -2.658  47.335  1.00  0.00     0.162 A 
ATOM      4  C   UNL     1    -101.167  -3.003  46.036  1.00  0.00     0.200 A 
ATOM      5  C   UNL     1    -102.447  -3.542  45.827  1.00  0.00     0.162 A 
ATOM      6  C   UNL     1    -103.310  -3.734  46.910  1.00  0.00     0.066 A 
ENDROOT
BRANCH   1   7
ATOM      7  C   UNL     1    -103.834  -3.603  49.354  1.00  0.00     0.338 C 
ATOM      8  O   UNL     1    -104.086  -2.653  50.146  1.00  0.00    -0.246 OA
BRANCH   7   9
ATOM      9  O   UNL     1    -104.427  -4.855  49.551  1.00  0.00    -0.465 OA
ATOM     10  C   UNL     1    -103.678  -6.011  49.908  1.00  0.00     0.282 C 
ENDBRANCH   7   9
ENDBRANCH   1   7
BRANCH   3  11
ATOM     11  O   UNL     1     -99.491  -2.123  47.550  1.00  0.00    -0.504 OA
ATOM     12  H   UNL     1     -98.855  -2.518  48.233  1.00  0.00     0.293 HD
ENDBRANCH   3  11
BRANCH   5  13
ATOM     13  O   UNL     1    -102.881  -3.892  44.547  1.00  0.00    -0.504 OA
ATOM     14  H   UNL     1    -102.523  -3.441  43.714  1.00  0.00     0.293 HD
ENDBRANCH   5  13
BRANCH   4  15
ATOM     15  O   UNL     1    -100.312  -2.814  44.948  1.00  0.00    -0.502 OA
ATOM     16  H   UNL     1     -99.575  -3.470  44.720  1.00  0.00     0.293 HD
ENDBRANCH   4  15
TORSDOF 5
ENDMDL
MODEL 6
REMARK VINA RESULT:    -4.067     11.732     14.046
REMARK INTER + INTRA:          -5.015
REMARK INTER:                  -4.880
REMARK INTRA:                  -0.135
REMARK UNBOUND:                -0.116
REMARK SMILES COC(=O)c1cc(O)c(O)c(O)c1
REMARK SMILES IDX 5 1 13 2 11 3 9 4 7 5 6 6 3 7 4 8 2 9 1 10 12 11 8 13 10 15
REMARK H PARENT 12 12 8 14 10 16
REMARK Flexibility Score: inf
ROOT
ATOM      1  C   UNL     1    -102.898  -3.407  48.153  1.00  0.00     0.067 A 
ATOM      2  C   UNL     1    -103.294  -3.785  46.859  1.00  0.00     0.066 A 
ATOM      3  C   UNL     1    -102.429  -3.615  45.769  1.00  0.00     0.162 A 
ATOM      4  C   UNL     1    -101.154  -3.060  45.966  1.00  0.00     0.200 A 
ATOM      5  C   UNL     1    -100.752  -2.680  47.258  1.00  0.00     0.162 A 
ATOM      6  C   UNL     1    -101.620  -2.854  48.340  1.00  0.00     0.066 A 
ENDROOT
BRANCH   1   7
ATOM      7  C   UNL     1    -103.810  -3.586  49.306  1.00  0.00     0.338 C 
ATOM      8  O   UNL     1    -104.055  -2.615  50.075  1.00  0.00    -0.246 OA
BRANCH   7   9
ATOM      9  O   UNL     1    -104.400  -4.832  49.542  1.00  0.00    -0.465 OA
ATOM     10  C   UNL     1    -103.653  -5.968  49.961  1.00  0.00     0.282 C 
ENDBRANCH   7   9
ENDBRANCH   1   7
BRANCH   3  11
ATOM     11  O   UNL     1    -102.835  -3.994  44.490  1.00  0.00    -0.504 OA
ATOM     12  H   UNL     1    -103.655  -4.571  44.341  1.00  0.00     0.293 HD
ENDBRANCH   3  11
BRANCH   5  13
ATOM     13  O   UNL     1     -99.490  -2.128  47.485  1.00  0.00    -0.504 OA
ATOM     14  H   UNL     1     -99.108  -2.023  48.417  1.00  0.00     0.293 HD
ENDBRANCH   5  13
BRANCH   4  15
ATOM     15  O   UNL     1    -100.280  -2.884  44.892  1.00  0.00    -0.502 OA
ATOM     16  H   UNL     1    -100.029  -3.643  44.270  1.00  0.00     0.293 HD
ENDBRANCH   4  15
TORSDOF 5
ENDMDL
MODEL 7
REMARK VINA RESULT:    -4.038     13.429     14.988
REMARK INTER + INTRA:          -4.981
REMARK INTER:                  -4.871
REMARK INTRA:                  -0.109
REMARK UNBOUND:                -0.116
REMARK SMILES COC(=O)c1cc(O)c(O)c(O)c1
REMARK SMILES IDX 5 1 13 2 11 3 9 4 7 5 6 6 3 7 4 8 2 9 1 10 12 11 8 13 10 15
REMARK H PARENT 12 12 8 14 10 16
REMARK Flexibility Score: inf
ROOT
ATOM      1  C   UNL     1    -100.992  -2.833  45.847  1.00  0.00     0.067 A 
ATOM      2  C   UNL     1    -100.322  -2.188  46.901  1.00  0.00     0.066 A 
ATOM      3  C   UNL     1    -100.904  -2.103  48.173  1.00  0.00     0.162 A 
ATOM      4  C   UNL     1    -102.170  -2.666  48.402  1.00  0.00     0.200 A 
ATOM      5  C   UNL     1    -102.846  -3.312  47.354  1.00  0.00     0.162 A 
ATOM      6  C   UNL     1    -102.259  -3.393  46.088  1.00  0.00     0.066 A 
ENDROOT
BRANCH   1   7
ATOM      7  C   UNL     1    -100.379  -2.923  44.503  1.00  0.00     0.338 C 
ATOM      8  O   UNL     1    -100.249  -1.886  43.795  1.00  0.00    -0.246 OA
BRANCH   7   9
ATOM      9  O   UNL     1     -99.943  -4.161  44.017  1.00  0.00    -0.465 OA
ATOM     10  C   UNL     1    -100.631  -4.869  42.992  1.00  0.00     0.282 C 
ENDBRANCH   7   9
ENDBRANCH   1   7
BRANCH   3  11
ATOM     11  O   UNL     1    -100.228  -1.461  49.208  1.00  0.00    -0.504 OA
ATOM     12  H   UNL     1    -100.722  -1.025  49.978  1.00  0.00     0.293 HD
ENDBRANCH   3  11
BRANCH   5  13
ATOM     13  O   UNL     1    -104.105  -3.881  47.551  1.00  0.00    -0.504 OA
ATOM     14  H   UNL     1    -104.226  -4.865  47.757  1.00  0.00     0.293 HD
ENDBRANCH   5  13
BRANCH   4  15
ATOM     15  O   UNL     1    -102.765  -2.590  49.663  1.00  0.00    -0.502 OA
ATOM     16  H   UNL     1    -103.502  -1.928  49.874  1.00  0.00     0.293 HD
ENDBRANCH   4  15
TORSDOF 5
ENDMDL
MODEL 8
REMARK VINA RESULT:    -4.034     13.467     15.099
REMARK INTER + INTRA:          -4.975
REMARK INTER:                  -4.866
REMARK INTRA:                  -0.109
REMARK UNBOUND:                -0.116
REMARK SMILES COC(=O)c1cc(O)c(O)c(O)c1
REMARK SMILES IDX 5 1 13 2 11 3 9 4 7 5 6 6 3 7 4 8 2 9 1 10 12 11 8 13 10 15
REMARK H PARENT 12 12 8 14 10 16
REMARK Flexibility Score: inf
ROOT
ATOM      1  C   UNL     1    -100.937  -2.824  45.874  1.00  0.00     0.067 A 
ATOM      2  C   UNL     1    -102.215  -3.371  46.077  1.00  0.00     0.066 A 
ATOM      3  C   UNL     1    -102.836  -3.290  47.332  1.00  0.00     0.162 A 
ATOM      4  C   UNL     1    -102.177  -2.658  48.399  1.00  0.00     0.200 A 
ATOM      5  C   UNL     1    -100.899  -2.110  48.203  1.00  0.00     0.162 A 
ATOM      6  C   UNL     1    -100.287  -2.193  46.948  1.00  0.00     0.066 A 
ENDROOT
BRANCH   1   7
ATOM      7  C   UNL     1    -100.279  -2.908  44.550  1.00  0.00     0.338 C 
ATOM      8  O   UNL     1    -100.076  -1.860  43.876  1.00  0.00    -0.246 OA
BRANCH   7   9
ATOM      9  O   UNL     1     -99.883  -4.152  44.046  1.00  0.00    -0.465 OA
ATOM     10  C   UNL     1    -100.579  -4.812  42.996  1.00  0.00     0.282 C 
ENDBRANCH   7   9
ENDBRANCH   1   7
BRANCH   3  11
ATOM     11  O   UNL     1    -104.104  -3.837  47.519  1.00  0.00    -0.504 OA
ATOM     12  H   UNL     1    -104.243  -4.690  48.048  1.00  0.00     0.293 HD
ENDBRANCH   3  11
BRANCH   5  13
ATOM     13  O   UNL     1    -100.220  -1.475  49.244  1.00  0.00    -0.504 OA
ATOM     14  H   UNL     1     -99.273  -1.133  49.141  1.00  0.00     0.293 HD
ENDBRANCH   5  13
BRANCH   4  15
ATOM     15  O   UNL     1    -102.780  -2.569  49.655  1.00  0.00    -0.502 OA
ATOM     16  H   UNL     1    -102.251  -2.652  50.515  1.00  0.00     0.293 HD
ENDBRANCH   4  15
TORSDOF 5
ENDMDL
MODEL 9
REMARK VINA RESULT:    -3.879     12.631     14.041
REMARK INTER + INTRA:          -4.789
REMARK INTER:                  -4.673
REMARK INTRA:                  -0.116
REMARK UNBOUND:                -0.116
REMARK SMILES COC(=O)c1cc(O)c(O)c(O)c1
REMARK SMILES IDX 5 1 13 2 11 3 9 4 7 5 6 6 3 7 4 8 2 9 1 10 12 11 8 13 10 15
REMARK H PARENT 12 12 8 14 10 16
REMARK Flexibility Score: inf
ROOT
ATOM      1  C   UNL     1    -102.671  -2.932  47.667  1.00  0.00     0.067 A 
ATOM      2  C   UNL     1    -102.847  -2.755  49.050  1.00  0.00     0.066 A 
ATOM      3  C   UNL     1    -104.123  -2.837  49.624  1.00  0.00     0.162 A 
ATOM      4  C   UNL     1    -105.240  -3.097  48.813  1.00  0.00     0.200 A 
ATOM      5  C   UNL     1    -105.071  -3.274  47.430  1.00  0.00     0.162 A 
ATOM      6  C   UNL     1    -103.795  -3.192  46.865  1.00  0.00     0.066 A 
ENDROOT
BRANCH   1   7
ATOM      7  C   UNL     1    -101.324  -2.845  47.058  1.00  0.00     0.338 C 
ATOM      8  O   UNL     1    -101.173  -3.056  45.822  1.00  0.00    -0.246 OA
BRANCH   7   9
ATOM      9  O   UNL     1    -100.218  -2.529  47.854  1.00  0.00    -0.465 OA
ATOM     10  C   UNL     1     -99.471  -1.329  47.689  1.00  0.00     0.282 C 
ENDBRANCH   7   9
ENDBRANCH   1   7
BRANCH   3  11
ATOM     11  O   UNL     1    -104.282  -2.659  50.997  1.00  0.00    -0.504 OA
ATOM     12  H   UNL     1    -103.733  -1.982  51.514  1.00  0.00     0.293 HD
ENDBRANCH   3  11
BRANCH   5  13
ATOM     13  O   UNL     1    -106.162  -3.535  46.600  1.00  0.00    -0.504 OA
ATOM     14  H   UNL     1    -107.057  -3.080  46.727  1.00  0.00     0.293 HD
ENDBRANCH   5  13
BRANCH   4  15
ATOM     15  O   UNL     1    -106.518  -3.181  49.369  1.00  0.00    -0.502 OA
ATOM     16  H   UNL     1    -107.340  -3.368  48.806  1.00  0.00     0.293 HD
ENDBRANCH   4  15
TORSDOF 5
ENDMDL
