MODEL 1
REMARK VINA RESULT:    -5.336      0.000      0.000
REMARK INTER + INTRA:          -6.750
REMARK INTER:                  -6.428
REMARK INTRA:                  -0.322
REMARK UNBOUND:                -0.322
REMARK SMILES O=c1c(O)c(-c2ccc(O)c(O)c2)oc2cc(O)cc(O)c12
REMARK SMILES IDX 5 1 3 2 2 3 1 4 22 5 20 6 19 7 17 8 16 9 15 10 14 11 6 12
REMARK SMILES IDX 7 13 8 14 9 15 13 16 11 17 10 18 12 20 4 22 21 24 18 26
REMARK H PARENT 10 19 12 21 4 23 21 25 18 27
REMARK Flexibility Score: inf
ROOT
ATOM      1  C   UNL     1     125.176  16.171 150.786  1.00  0.00     0.180 A 
ATOM      2  C   UNL     1     126.506  15.905 151.154  1.00  0.00     0.208 A 
ATOM      3  C   UNL     1     127.428  16.964 151.187  1.00  0.00     0.238 A 
ATOM      4  O   UNL     1     128.604  16.730 151.570  1.00  0.00    -0.285 OA
ATOM      5  C   UNL     1     127.012  18.271 150.837  1.00  0.00     0.111 A 
ATOM      6  C   UNL     1     127.870  19.411 150.796  1.00  0.00     0.134 A 
ATOM      7  C   UNL     1     127.323  20.679 150.563  1.00  0.00     0.093 A 
ATOM      8  C   UNL     1     125.960  20.839 150.304  1.00  0.00     0.123 A 
ATOM      9  C   UNL     1     125.125  19.725 150.282  1.00  0.00     0.094 A 
ATOM     10  C   UNL     1     125.634  18.452 150.547  1.00  0.00     0.146 A 
ATOM     11  O   UNL     1     124.801  17.418 150.526  1.00  0.00    -0.452 OA
ENDROOT
BRANCH   1  12
ATOM     12  C   UNL     1     124.153  15.103 150.703  1.00  0.00     0.025 A 
ATOM     13  C   UNL     1     123.868  14.454 149.490  1.00  0.00     0.016 A 
ATOM     14  C   UNL     1     122.882  13.465 149.432  1.00  0.00     0.051 A 
ATOM     15  C   UNL     1     122.158  13.121 150.581  1.00  0.00     0.157 A 
ATOM     16  C   UNL     1     123.410  14.768 151.848  1.00  0.00     0.062 A 
ATOM     17  C   UNL     1     122.421  13.779 151.793  1.00  0.00     0.158 A 
BRANCH  15  18
ATOM     18  O   UNL     1     121.175  12.134 150.519  1.00  0.00    -0.504 OA
ATOM     19  H   UNL     1     120.560  12.046 149.719  1.00  0.00     0.293 HD
ENDBRANCH  15  18
BRANCH  17  20
ATOM     20  O   UNL     1     121.714  13.464 152.953  1.00  0.00    -0.504 OA
ATOM     21  H   UNL     1     120.716  13.294 152.945  1.00  0.00     0.293 HD
ENDBRANCH  17  20
ENDBRANCH   1  12
BRANCH   2  22
ATOM     22  O   UNL     1     126.890  14.611 151.517  1.00  0.00    -0.502 OA
ATOM     23  H   UNL     1     127.240  13.939 150.846  1.00  0.00     0.293 HD
ENDBRANCH   2  22
BRANCH   6  24
ATOM     24  O   UNL     1     129.258  19.349 150.950  1.00  0.00    -0.507 OA
ATOM     25  H   UNL     1     129.910  20.012 150.560  1.00  0.00     0.293 HD
ENDBRANCH   6  24
BRANCH   8  26
ATOM     26  O   UNL     1     125.427  22.102 150.057  1.00  0.00    -0.508 OA
ATOM     27  H   UNL     1     124.720  22.507 150.662  1.00  0.00     0.293 HD
ENDBRANCH   8  26
TORSDOF 6
ENDMDL
MODEL 2
REMARK VINA RESULT:    -4.518     11.250     14.076
REMARK INTER + INTRA:          -5.764
REMARK INTER:                  -5.451
REMARK INTRA:                  -0.313
REMARK UNBOUND:                -0.322
REMARK SMILES O=c1c(O)c(-c2ccc(O)c(O)c2)oc2cc(O)cc(O)c12
REMARK SMILES IDX 5 1 3 2 2 3 1 4 22 5 20 6 19 7 17 8 16 9 15 10 14 11 6 12
REMARK SMILES IDX 7 13 8 14 9 15 13 16 11 17 10 18 12 20 4 22 21 24 18 26
REMARK H PARENT 10 19 12 21 4 23 21 25 18 27
REMARK Flexibility Score: inf
ROOT
ATOM      1  C   UNL     1     116.041  16.386 141.411  1.00  0.00     0.180 A 
ATOM      2  C   UNL     1     115.055  15.393 141.547  1.00  0.00     0.208 A 
ATOM      3  C   UNL     1     114.796  14.862 142.820  1.00  0.00     0.238 A 
ATOM      4  O   UNL     1     113.875  14.012 142.945  1.00  0.00    -0.285 OA
ATOM      5  C   UNL     1     115.536  15.316 143.938  1.00  0.00     0.111 A 
ATOM      6  C   UNL     1     115.386  14.819 145.267  1.00  0.00     0.134 A 
ATOM      7  C   UNL     1     116.079  15.434 146.318  1.00  0.00     0.093 A 
ATOM      8  C   UNL     1     116.965  16.486 146.077  1.00  0.00     0.123 A 
ATOM      9  C   UNL     1     117.164  16.939 144.775  1.00  0.00     0.094 A 
ATOM     10  C   UNL     1     116.461  16.370 143.711  1.00  0.00     0.146 A 
ATOM     11  O   UNL     1     116.672  16.839 142.487  1.00  0.00    -0.452 OA
ENDROOT
BRANCH   1  12
ATOM     12  C   UNL     1     116.387  16.977 140.097  1.00  0.00     0.025 A 
ATOM     13  C   UNL     1     117.245  16.316 139.201  1.00  0.00     0.016 A 
ATOM     14  C   UNL     1     117.577  16.904 137.977  1.00  0.00     0.051 A 
ATOM     15  C   UNL     1     117.068  18.165 137.638  1.00  0.00     0.157 A 
ATOM     16  C   UNL     1     115.896  18.249 139.761  1.00  0.00     0.062 A 
ATOM     17  C   UNL     1     116.227  18.841 138.536  1.00  0.00     0.158 A 
BRANCH  15  18
ATOM     18  O   UNL     1     117.400  18.748 136.416  1.00  0.00    -0.504 OA
ATOM     19  H   UNL     1     116.853  19.506 136.023  1.00  0.00     0.293 HD
ENDBRANCH  15  18
BRANCH  17  20
ATOM     20  O   UNL     1     115.709  20.100 138.231  1.00  0.00    -0.504 OA
ATOM     21  H   UNL     1     115.859  20.539 137.331  1.00  0.00     0.293 HD
ENDBRANCH  17  20
ENDBRANCH   1  12
BRANCH   2  22
ATOM     22  O   UNL     1     114.320  14.974 140.434  1.00  0.00    -0.502 OA
ATOM     23  H   UNL     1     113.422  14.513 140.517  1.00  0.00     0.293 HD
ENDBRANCH   2  22
BRANCH   6  24
ATOM     24  O   UNL     1     114.597  13.715 145.602  1.00  0.00    -0.507 OA
ATOM     25  H   UNL     1     114.636  13.226 146.484  1.00  0.00     0.293 HD
ENDBRANCH   6  24
BRANCH   8  26
ATOM     26  O   UNL     1     117.662  17.082 147.126  1.00  0.00    -0.508 OA
ATOM     27  H   UNL     1     117.352  16.991 148.087  1.00  0.00     0.293 HD
ENDBRANCH   8  26
TORSDOF 6
ENDMDL
MODEL 3
REMARK VINA RESULT:    -4.453      1.418      2.921
REMARK INTER + INTRA:          -5.686
REMARK INTER:                  -5.674
REMARK INTRA:                  -0.012
REMARK UNBOUND:                -0.322
REMARK SMILES O=c1c(O)c(-c2ccc(O)c(O)c2)oc2cc(O)cc(O)c12
REMARK SMILES IDX 5 1 3 2 2 3 1 4 22 5 20 6 19 7 17 8 16 9 15 10 14 11 6 12
REMARK SMILES IDX 7 13 8 14 9 15 13 16 11 17 10 18 12 20 4 22 21 24 18 26
REMARK H PARENT 10 19 12 21 4 23 21 25 18 27
REMARK Flexibility Score: inf
ROOT
ATOM      1  C   UNL     1     125.251  16.077 150.789  1.00  0.00     0.180 A 
ATOM      2  C   UNL     1     125.295  17.166 149.901  1.00  0.00     0.208 A 
ATOM      3  C   UNL     1     126.301  18.133 150.059  1.00  0.00     0.238 A 
ATOM      4  O   UNL     1     126.368  19.076 149.228  1.00  0.00    -0.285 OA
ATOM      5  C   UNL     1     127.240  18.008 151.111  1.00  0.00     0.111 A 
ATOM      6  C   UNL     1     128.276  18.948 151.389  1.00  0.00     0.134 A 
ATOM      7  C   UNL     1     129.227  18.657 152.375  1.00  0.00     0.093 A 
ATOM      8  C   UNL     1     129.141  17.489 153.136  1.00  0.00     0.123 A 
ATOM      9  C   UNL     1     128.099  16.593 152.912  1.00  0.00     0.094 A 
ATOM     10  C   UNL     1     127.155  16.838 151.912  1.00  0.00     0.146 A 
ATOM     11  O   UNL     1     126.184  15.953 151.725  1.00  0.00    -0.452 OA
ENDROOT
BRANCH   1  12
ATOM     12  C   UNL     1     124.205  15.032 150.701  1.00  0.00     0.025 A 
ATOM     13  C   UNL     1     123.944  14.356 149.497  1.00  0.00     0.016 A 
ATOM     14  C   UNL     1     122.935  13.391 149.432  1.00  0.00     0.051 A 
ATOM     15  C   UNL     1     122.165  13.097 150.565  1.00  0.00     0.157 A 
ATOM     16  C   UNL     1     123.416  14.748 151.829  1.00  0.00     0.062 A 
ATOM     17  C   UNL     1     122.405  13.782 151.767  1.00  0.00     0.158 A 
BRANCH  15  18
ATOM     18  O   UNL     1     121.161  12.132 150.498  1.00  0.00    -0.504 OA
ATOM     19  H   UNL     1     120.187  12.369 150.647  1.00  0.00     0.293 HD
ENDBRANCH  15  18
BRANCH  17  20
ATOM     20  O   UNL     1     121.651  13.517 152.910  1.00  0.00    -0.504 OA
ATOM     21  H   UNL     1     121.028  14.204 153.316  1.00  0.00     0.293 HD
ENDBRANCH  17  20
ENDBRANCH   1  12
BRANCH   2  22
ATOM     22  O   UNL     1     124.372  17.259 148.855  1.00  0.00    -0.502 OA
ATOM     23  H   UNL     1     124.399  16.646 148.049  1.00  0.00     0.293 HD
ENDBRANCH   2  22
BRANCH   6  24
ATOM     24  O   UNL     1     128.398  20.186 150.751  1.00  0.00    -0.507 OA
ATOM     25  H   UNL     1     129.113  20.418 150.078  1.00  0.00     0.293 HD
ENDBRANCH   6  24
BRANCH   8  26
ATOM     26  O   UNL     1     130.083  17.214 154.125  1.00  0.00    -0.508 OA
ATOM     27  H   UNL     1     130.772  16.478 154.010  1.00  0.00     0.293 HD
ENDBRANCH   8  26
TORSDOF 6
ENDMDL
MODEL 4
REMARK VINA RESULT:    -4.429     11.802     13.963
REMARK INTER + INTRA:          -5.657
REMARK INTER:                  -5.357
REMARK INTRA:                  -0.300
REMARK UNBOUND:                -0.322
REMARK SMILES O=c1c(O)c(-c2ccc(O)c(O)c2)oc2cc(O)cc(O)c12
REMARK SMILES IDX 5 1 3 2 2 3 1 4 22 5 20 6 19 7 17 8 16 9 15 10 14 11 6 12
REMARK SMILES IDX 7 13 8 14 9 15 13 16 11 17 10 18 12 20 4 22 21 24 18 26
REMARK H PARENT 10 19 12 21 4 23 21 25 18 27
REMARK Flexibility Score: inf
ROOT
ATOM      1  C   UNL     1     115.909  16.873 141.759  1.00  0.00     0.180 A 
ATOM      2  C   UNL     1     115.539  18.223 141.628  1.00  0.00     0.208 A 
ATOM      3  C   UNL     1     115.662  18.843 140.374  1.00  0.00     0.238 A 
ATOM      4  O   UNL     1     115.279  20.036 140.250  1.00  0.00    -0.285 OA
ATOM      5  C   UNL     1     116.168  18.112 139.272  1.00  0.00     0.111 A 
ATOM      6  C   UNL     1     116.372  18.651 137.967  1.00  0.00     0.134 A 
ATOM      7  C   UNL     1     116.755  17.802 136.921  1.00  0.00     0.093 A 
ATOM      8  C   UNL     1     117.002  16.446 137.148  1.00  0.00     0.123 A 
ATOM      9  C   UNL     1     116.862  15.923 138.431  1.00  0.00     0.094 A 
ATOM     10  C   UNL     1     116.448  16.737 139.488  1.00  0.00     0.146 A 
ATOM     11  O   UNL     1     116.317  16.196 140.693  1.00  0.00    -0.452 OA
ENDROOT
BRANCH   1  12
ATOM     12  C   UNL     1     115.831  16.158 143.054  1.00  0.00     0.025 A 
ATOM     13  C   UNL     1     114.727  15.351 143.380  1.00  0.00     0.016 A 
ATOM     14  C   UNL     1     114.664  14.706 144.618  1.00  0.00     0.051 A 
ATOM     15  C   UNL     1     115.696  14.868 145.552  1.00  0.00     0.157 A 
ATOM     16  C   UNL     1     116.852  16.333 144.002  1.00  0.00     0.062 A 
ATOM     17  C   UNL     1     116.793  15.688 145.243  1.00  0.00     0.158 A 
BRANCH  15  18
ATOM     18  O   UNL     1     115.631  14.222 146.786  1.00  0.00    -0.504 OA
ATOM     19  H   UNL     1     116.388  13.635 147.119  1.00  0.00     0.293 HD
ENDBRANCH  15  18
BRANCH  17  20
ATOM     20  O   UNL     1     117.832  15.875 146.154  1.00  0.00    -0.504 OA
ATOM     21  H   UNL     1     118.410  16.707 146.149  1.00  0.00     0.293 HD
ENDBRANCH  17  20
ENDBRANCH   1  12
BRANCH   2  22
ATOM     22  O   UNL     1     115.021  18.920 142.723  1.00  0.00    -0.502 OA
ATOM     23  H   UNL     1     115.611  19.303 143.452  1.00  0.00     0.293 HD
ENDBRANCH   2  22
BRANCH   6  24
ATOM     24  O   UNL     1     116.243  20.007 137.654  1.00  0.00    -0.507 OA
ATOM     25  H   UNL     1     116.770  20.751 138.087  1.00  0.00     0.293 HD
ENDBRANCH   6  24
BRANCH   8  26
ATOM     26  O   UNL     1     117.396  15.611 136.105  1.00  0.00    -0.508 OA
ATOM     27  H   UNL     1     117.617  14.634 136.263  1.00  0.00     0.293 HD
ENDBRANCH   8  26
TORSDOF 6
ENDMDL
MODEL 5
REMARK VINA RESULT:    -4.373     15.301     17.432
REMARK INTER + INTRA:          -5.591
REMARK INTER:                  -5.258
REMARK INTRA:                  -0.332
REMARK UNBOUND:                -0.322
REMARK SMILES O=c1c(O)c(-c2ccc(O)c(O)c2)oc2cc(O)cc(O)c12
REMARK SMILES IDX 5 1 3 2 2 3 1 4 22 5 20 6 19 7 17 8 16 9 15 10 14 11 6 12
REMARK SMILES IDX 7 13 8 14 9 15 13 16 11 17 10 18 12 20 4 22 21 24 18 26
REMARK H PARENT 10 19 12 21 4 23 21 25 18 27
REMARK Flexibility Score: inf
ROOT
ATOM      1  C   UNL     1     122.158   4.031 140.549  1.00  0.00     0.180 A 
ATOM      2  C   UNL     1     121.226   4.238 139.517  1.00  0.00     0.208 A 
ATOM      3  C   UNL     1     119.882   4.471 139.850  1.00  0.00     0.238 A 
ATOM      4  O   UNL     1     119.063   4.710 138.924  1.00  0.00    -0.285 OA
ATOM      5  C   UNL     1     119.483   4.477 141.208  1.00  0.00     0.111 A 
ATOM      6  C   UNL     1     118.142   4.662 141.658  1.00  0.00     0.134 A 
ATOM      7  C   UNL     1     117.884   4.780 143.030  1.00  0.00     0.093 A 
ATOM      8  C   UNL     1     118.910   4.654 143.969  1.00  0.00     0.123 A 
ATOM      9  C   UNL     1     120.213   4.414 143.542  1.00  0.00     0.094 A 
ATOM     10  C   UNL     1     120.508   4.327 142.179  1.00  0.00     0.146 A 
ATOM     11  O   UNL     1     121.765   4.108 141.815  1.00  0.00    -0.452 OA
ENDROOT
BRANCH   1  12
ATOM     12  C   UNL     1     123.587   3.754 140.275  1.00  0.00     0.025 A 
ATOM     13  C   UNL     1     124.049   2.448 140.043  1.00  0.00     0.016 A 
ATOM     14  C   UNL     1     125.406   2.209 139.811  1.00  0.00     0.051 A 
ATOM     15  C   UNL     1     126.322   3.269 139.822  1.00  0.00     0.157 A 
ATOM     16  C   UNL     1     124.513   4.811 140.306  1.00  0.00     0.062 A 
ATOM     17  C   UNL     1     125.873   4.575 140.074  1.00  0.00     0.158 A 
BRANCH  15  18
ATOM     18  O   UNL     1     127.676   3.027 139.589  1.00  0.00    -0.504 OA
ATOM     19  H   UNL     1     128.039   2.904 138.651  1.00  0.00     0.293 HD
ENDBRANCH  15  18
BRANCH  17  20
ATOM     20  O   UNL     1     126.760   5.651 140.098  1.00  0.00    -0.504 OA
ATOM     21  H   UNL     1     127.482   5.769 139.398  1.00  0.00     0.293 HD
ENDBRANCH  17  20
ENDBRANCH   1  12
BRANCH   2  22
ATOM     22  O   UNL     1     121.645   4.250 138.183  1.00  0.00    -0.502 OA
ATOM     23  H   UNL     1     122.191   5.008 137.791  1.00  0.00     0.293 HD
ENDBRANCH   2  22
BRANCH   6  24
ATOM     24  O   UNL     1     117.033   4.709 140.809  1.00  0.00    -0.507 OA
ATOM     25  H   UNL     1     116.113   5.023 141.080  1.00  0.00     0.293 HD
ENDBRANCH   6  24
BRANCH   8  26
ATOM     26  O   UNL     1     118.642   4.758 145.333  1.00  0.00    -0.508 OA
ATOM     27  H   UNL     1     118.254   5.605 145.734  1.00  0.00     0.293 HD
ENDBRANCH   8  26
TORSDOF 6
ENDMDL
MODEL 6
REMARK VINA RESULT:    -4.369      1.337      2.867
REMARK INTER + INTRA:          -5.585
REMARK INTER:                  -5.462
REMARK INTRA:                  -0.123
REMARK UNBOUND:                -0.322
REMARK SMILES O=c1c(O)c(-c2ccc(O)c(O)c2)oc2cc(O)cc(O)c12
REMARK SMILES IDX 5 1 3 2 2 3 1 4 22 5 20 6 19 7 17 8 16 9 15 10 14 11 6 12
REMARK SMILES IDX 7 13 8 14 9 15 13 16 11 17 10 18 12 20 4 22 21 24 18 26
REMARK H PARENT 10 19 12 21 4 23 21 25 18 27
REMARK Flexibility Score: inf
ROOT
ATOM      1  C   UNL     1     124.016  16.918 150.924  1.00  0.00     0.180 A 
ATOM      2  C   UNL     1     123.316  18.092 151.254  1.00  0.00     0.208 A 
ATOM      3  C   UNL     1     124.017  19.306 151.326  1.00  0.00     0.238 A 
ATOM      4  O   UNL     1     123.375  20.361 151.569  1.00  0.00    -0.285 OA
ATOM      5  C   UNL     1     125.412  19.329 151.083  1.00  0.00     0.111 A 
ATOM      6  C   UNL     1     126.230  20.495 151.167  1.00  0.00     0.134 A 
ATOM      7  C   UNL     1     127.574  20.427 150.779  1.00  0.00     0.093 A 
ATOM      8  C   UNL     1     128.144  19.219 150.370  1.00  0.00     0.123 A 
ATOM      9  C   UNL     1     127.368  18.062 150.341  1.00  0.00     0.094 A 
ATOM     10  C   UNL     1     126.016  18.107 150.689  1.00  0.00     0.146 A 
ATOM     11  O   UNL     1     125.311  16.984 150.637  1.00  0.00    -0.452 OA
ENDROOT
BRANCH   1  12
ATOM     12  C   UNL     1     123.350  15.597 150.854  1.00  0.00     0.025 A 
ATOM     13  C   UNL     1     123.273  14.879 149.648  1.00  0.00     0.016 A 
ATOM     14  C   UNL     1     122.617  13.646 149.601  1.00  0.00     0.051 A 
ATOM     15  C   UNL     1     122.019  13.119 150.753  1.00  0.00     0.157 A 
ATOM     16  C   UNL     1     122.730  15.075 152.001  1.00  0.00     0.062 A 
ATOM     17  C   UNL     1     122.073  13.840 151.957  1.00  0.00     0.158 A 
BRANCH  15  18
ATOM     18  O   UNL     1     121.367  11.888 150.703  1.00  0.00    -0.504 OA
ATOM     19  H   UNL     1     121.601  11.137 151.342  1.00  0.00     0.293 HD
ENDBRANCH  15  18
BRANCH  17  20
ATOM     20  O   UNL     1     121.481  13.346 153.120  1.00  0.00    -0.504 OA
ATOM     21  H   UNL     1     120.675  13.789 153.544  1.00  0.00     0.293 HD
ENDBRANCH  17  20
ENDBRANCH   1  12
BRANCH   2  22
ATOM     22  O   UNL     1     121.935  18.050 151.469  1.00  0.00    -0.502 OA
ATOM     23  H   UNL     1     121.520  17.548 152.245  1.00  0.00     0.293 HD
ENDBRANCH   2  22
BRANCH   6  24
ATOM     24  O   UNL     1     125.783  21.729 151.649  1.00  0.00    -0.507 OA
ATOM     25  H   UNL     1     126.292  22.313 152.296  1.00  0.00     0.293 HD
ENDBRANCH   6  24
BRANCH   8  26
ATOM     26  O   UNL     1     129.485  19.156 150.000  1.00  0.00    -0.508 OA
ATOM     27  H   UNL     1     130.048  18.332 150.183  1.00  0.00     0.293 HD
ENDBRANCH   8  26
TORSDOF 6
ENDMDL
MODEL 7
REMARK VINA RESULT:    -4.270     11.774     13.773
REMARK INTER + INTRA:          -5.466
REMARK INTER:                  -5.157
REMARK INTRA:                  -0.309
REMARK UNBOUND:                -0.322
REMARK SMILES O=c1c(O)c(-c2ccc(O)c(O)c2)oc2cc(O)cc(O)c12
REMARK SMILES IDX 5 1 3 2 2 3 1 4 22 5 20 6 19 7 17 8 16 9 15 10 14 11 6 12
REMARK SMILES IDX 7 13 8 14 9 15 13 16 11 17 10 18 12 20 4 22 21 24 18 26
REMARK H PARENT 10 19 12 21 4 23 21 25 18 27
REMARK Flexibility Score: inf
ROOT
ATOM      1  C   UNL     1     115.971  16.421 141.672  1.00  0.00     0.180 A 
ATOM      2  C   UNL     1     116.440  15.626 140.611  1.00  0.00     0.208 A 
ATOM      3  C   UNL     1     116.489  16.174 139.320  1.00  0.00     0.238 A 
ATOM      4  O   UNL     1     116.961  15.476 138.384  1.00  0.00    -0.285 OA
ATOM      5  C   UNL     1     116.053  17.503 139.101  1.00  0.00     0.111 A 
ATOM      6  C   UNL     1     116.021  18.147 137.828  1.00  0.00     0.134 A 
ATOM      7  C   UNL     1     115.694  19.506 137.749  1.00  0.00     0.093 A 
ATOM      8  C   UNL     1     115.335  20.228 138.890  1.00  0.00     0.123 A 
ATOM      9  C   UNL     1     115.307  19.593 140.129  1.00  0.00     0.094 A 
ATOM     10  C   UNL     1     115.662  18.247 140.245  1.00  0.00     0.146 A 
ATOM     11  O   UNL     1     115.631  17.684 141.447  1.00  0.00    -0.452 OA
ENDROOT
BRANCH   1  12
ATOM     12  C   UNL     1     115.867  15.904 143.056  1.00  0.00     0.025 A 
ATOM     13  C   UNL     1     114.792  15.093 143.456  1.00  0.00     0.016 A 
ATOM     14  C   UNL     1     114.702  14.638 144.775  1.00  0.00     0.051 A 
ATOM     15  C   UNL     1     115.677  14.997 145.714  1.00  0.00     0.157 A 
ATOM     16  C   UNL     1     116.831  16.279 144.007  1.00  0.00     0.062 A 
ATOM     17  C   UNL     1     116.744  15.825 145.328  1.00  0.00     0.158 A 
BRANCH  15  18
ATOM     18  O   UNL     1     115.586  14.540 147.028  1.00  0.00    -0.504 OA
ATOM     19  H   UNL     1     115.003  13.749 147.276  1.00  0.00     0.293 HD
ENDBRANCH  15  18
BRANCH  17  20
ATOM     20  O   UNL     1     117.727  16.206 146.241  1.00  0.00    -0.504 OA
ATOM     21  H   UNL     1     118.099  15.564 146.931  1.00  0.00     0.293 HD
ENDBRANCH  17  20
ENDBRANCH   1  12
BRANCH   2  22
ATOM     22  O   UNL     1     116.887  14.323 140.853  1.00  0.00    -0.502 OA
ATOM     23  H   UNL     1     117.651  14.118 141.485  1.00  0.00     0.293 HD
ENDBRANCH   2  22
BRANCH   6  24
ATOM     24  O   UNL     1     116.271  17.494 136.618  1.00  0.00    -0.507 OA
ATOM     25  H   UNL     1     115.713  17.595 135.783  1.00  0.00     0.293 HD
ENDBRANCH   6  24
BRANCH   8  26
ATOM     26  O   UNL     1     114.997  21.577 138.801  1.00  0.00    -0.508 OA
ATOM     27  H   UNL     1     115.269  22.240 139.518  1.00  0.00     0.293 HD
ENDBRANCH   8  26
TORSDOF 6
ENDMDL
MODEL 8
REMARK VINA RESULT:    -4.258     14.555     16.694
REMARK INTER + INTRA:          -5.452
REMARK INTER:                  -5.171
REMARK INTRA:                  -0.281
REMARK UNBOUND:                -0.322
REMARK SMILES O=c1c(O)c(-c2ccc(O)c(O)c2)oc2cc(O)cc(O)c12
REMARK SMILES IDX 5 1 3 2 2 3 1 4 22 5 20 6 19 7 17 8 16 9 15 10 14 11 6 12
REMARK SMILES IDX 7 13 8 14 9 15 13 16 11 17 10 18 12 20 4 22 21 24 18 26
REMARK H PARENT 10 19 12 21 4 23 21 25 18 27
REMARK Flexibility Score: inf
ROOT
ATOM      1  C   UNL     1     127.390   8.218 137.503  1.00  0.00     0.180 A 
ATOM      2  C   UNL     1     128.242   7.472 136.671  1.00  0.00     0.208 A 
ATOM      3  C   UNL     1     129.111   6.534 137.251  1.00  0.00     0.238 A 
ATOM      4  O   UNL     1     129.833   5.830 136.497  1.00  0.00    -0.285 OA
ATOM      5  C   UNL     1     129.128   6.365 138.657  1.00  0.00     0.111 A 
ATOM      6  C   UNL     1     129.995   5.472 139.356  1.00  0.00     0.134 A 
ATOM      7  C   UNL     1     129.834   5.292 140.735  1.00  0.00     0.093 A 
ATOM      8  C   UNL     1     128.881   6.020 141.450  1.00  0.00     0.123 A 
ATOM      9  C   UNL     1     128.069   6.937 140.786  1.00  0.00     0.094 A 
ATOM     10  C   UNL     1     128.182   7.113 139.405  1.00  0.00     0.146 A 
ATOM     11  O   UNL     1     127.382   7.990 138.811  1.00  0.00    -0.452 OA
ENDROOT
BRANCH   1  12
ATOM     12  C   UNL     1     126.465   9.243 136.966  1.00  0.00     0.025 A 
ATOM     13  C   UNL     1     126.749  10.615 137.076  1.00  0.00     0.016 A 
ATOM     14  C   UNL     1     125.849  11.564 136.584  1.00  0.00     0.051 A 
ATOM     15  C   UNL     1     124.648  11.157 135.987  1.00  0.00     0.157 A 
ATOM     16  C   UNL     1     125.250   8.841 136.386  1.00  0.00     0.062 A 
ATOM     17  C   UNL     1     124.347   9.789 135.891  1.00  0.00     0.158 A 
BRANCH  15  18
ATOM     18  O   UNL     1     123.754  12.107 135.496  1.00  0.00    -0.504 OA
ATOM     19  H   UNL     1     124.019  13.079 135.385  1.00  0.00     0.293 HD
ENDBRANCH  15  18
BRANCH  17  20
ATOM     20  O   UNL     1     123.158   9.352 135.309  1.00  0.00    -0.504 OA
ATOM     21  H   UNL     1     122.434   8.889 135.845  1.00  0.00     0.293 HD
ENDBRANCH  17  20
ENDBRANCH   1  12
BRANCH   2  22
ATOM     22  O   UNL     1     128.194   7.638 135.283  1.00  0.00    -0.502 OA
ATOM     23  H   UNL     1     127.856   8.489 134.849  1.00  0.00     0.293 HD
ENDBRANCH   2  22
BRANCH   6  24
ATOM     24  O   UNL     1     131.039   4.767 138.752  1.00  0.00    -0.507 OA
ATOM     25  H   UNL     1     132.015   5.018 138.814  1.00  0.00     0.293 HD
ENDBRANCH   6  24
BRANCH   8  26
ATOM     26  O   UNL     1     128.737   5.845 142.825  1.00  0.00    -0.508 OA
ATOM     27  H   UNL     1     128.908   6.604 143.477  1.00  0.00     0.293 HD
ENDBRANCH   8  26
TORSDOF 6
ENDMDL
