MODEL 1
REMARK VINA RESULT:    -4.853      0.000      0.000
REMARK INTER + INTRA:         -10.426
REMARK INTER:                  -8.541
REMARK INTRA:                  -1.885
REMARK UNBOUND:                -1.885
REMARK SMILES CCCCCCC=CCCCCCCCC(=O)[O-]
REMARK SMILES IDX 10 1 11 2 12 3 13 4 14 5 15 6 16 7 17 8 18 9 9 10 8 11 7 12
REMARK SMILES IDX 6 13 5 14 4 15 3 16 2 17 1 18
REMARK H PARENT
REMARK Flexibility Score: inf
ROOT
ATOM      1  C   UNL     1     -25.655 -31.448 -10.816  1.00  0.00     0.004 C 
ENDROOT
BRANCH   1   2
ATOM      2  C   UNL     1     -24.894 -30.759 -11.956  1.00  0.00     0.000 C 
BRANCH   2   3
ATOM      3  C   UNL     1     -23.732 -31.609 -12.500  1.00  0.00     0.000 C 
BRANCH   3   4
ATOM      4  C   UNL     1     -22.701 -32.061 -11.444  1.00  0.00     0.000 C 
BRANCH   4   5
ATOM      5  C   UNL     1     -21.634 -33.053 -11.950  1.00  0.00     0.006 C 
BRANCH   5   6
ATOM      6  C   UNL     1     -22.050 -33.844 -13.199  1.00  0.00     0.053 C 
BRANCH   6   7
ATOM      7  C   UNL     1     -20.896 -34.078 -14.125  1.00  0.00     0.041 C 
ATOM      8  O   UNL     1     -20.729 -33.335 -15.128  1.00  0.00    -0.550 OA
ATOM      9  O   UNL     1     -20.025 -35.136 -13.901  1.00  0.00    -0.550 OA
ENDBRANCH   6   7
ENDBRANCH   5   6
ENDBRANCH   4   5
ENDBRANCH   3   4
ENDBRANCH   2   3
ENDBRANCH   1   2
BRANCH   1  10
ATOM     10  C   UNL     1     -27.092 -30.920 -10.718  1.00  0.00     0.027 C 
BRANCH  10  11
ATOM     11  C   UNL     1     -27.612 -30.480 -12.063  1.00  0.00    -0.031 C 
ATOM     12  C   UNL     1     -28.244 -31.274 -12.949  1.00  0.00    -0.031 C 
BRANCH  12  13
ATOM     13  C   UNL     1     -28.566 -32.737 -12.739  1.00  0.00     0.027 C 
BRANCH  13  14
ATOM     14  C   UNL     1     -27.926 -33.620 -13.820  1.00  0.00     0.004 C 
BRANCH  14  15
ATOM     15  C   UNL     1     -27.415 -34.956 -13.262  1.00  0.00     0.000 C 
BRANCH  15  16
ATOM     16  C   UNL     1     -26.897 -34.788 -11.828  1.00  0.00    -0.000 C 
BRANCH  16  17
ATOM     17  C   UNL     1     -25.382 -35.015 -11.760  1.00  0.00    -0.003 C 
ATOM     18  C   UNL     1     -24.920 -35.981 -12.847  1.00  0.00     0.004 C 
ENDBRANCH  16  17
ENDBRANCH  15  16
ENDBRANCH  14  15
ENDBRANCH  13  14
ENDBRANCH  12  13
ENDBRANCH  10  11
ENDBRANCH   1  10
TORSDOF 13
ENDMDL
MODEL 2
REMARK VINA RESULT:    -4.811      1.948      4.791
REMARK INTER + INTRA:         -10.353
REMARK INTER:                  -8.321
REMARK INTRA:                  -2.032
REMARK UNBOUND:                -1.885
REMARK SMILES CCCCCCC=CCCCCCCCC(=O)[O-]
REMARK SMILES IDX 10 1 11 2 12 3 13 4 14 5 15 6 16 7 17 8 18 9 9 10 8 11 7 12
REMARK SMILES IDX 6 13 5 14 4 15 3 16 2 17 1 18
REMARK H PARENT
REMARK Flexibility Score: inf
ROOT
ATOM      1  C   UNL     1     -27.891 -30.579 -11.558  1.00  0.00     0.004 C 
ENDROOT
BRANCH   1   2
ATOM      2  C   UNL     1     -27.783 -30.960 -13.040  1.00  0.00     0.000 C 
BRANCH   2   3
ATOM      3  C   UNL     1     -28.262 -32.395 -13.325  1.00  0.00     0.000 C 
BRANCH   3   4
ATOM      4  C   UNL     1     -28.546 -33.251 -12.073  1.00  0.00     0.000 C 
BRANCH   4   5
ATOM      5  C   UNL     1     -27.735 -34.559 -11.975  1.00  0.00     0.006 C 
BRANCH   5   6
ATOM      6  C   UNL     1     -26.628 -34.696 -13.032  1.00  0.00     0.053 C 
BRANCH   6   7
ATOM      7  C   UNL     1     -25.509 -35.573 -12.561  1.00  0.00     0.041 C 
ATOM      8  O   UNL     1     -24.924 -36.342 -13.368  1.00  0.00    -0.550 OA
ATOM      9  O   UNL     1     -25.134 -35.568 -11.223  1.00  0.00    -0.550 OA
ENDBRANCH   6   7
ENDBRANCH   5   6
ENDBRANCH   4   5
ENDBRANCH   3   4
ENDBRANCH   2   3
ENDBRANCH   1   2
BRANCH   1  10
ATOM     10  C   UNL     1     -26.520 -30.198 -10.986  1.00  0.00     0.027 C 
BRANCH  10  11
ATOM     11  C   UNL     1     -25.844 -31.381 -10.341  1.00  0.00    -0.031 C 
ATOM     12  C   UNL     1     -24.878 -32.129 -10.909  1.00  0.00    -0.031 C 
BRANCH  12  13
ATOM     13  C   UNL     1     -24.286 -31.897 -12.281  1.00  0.00     0.027 C 
BRANCH  13  14
ATOM     14  C   UNL     1     -22.800 -31.512 -12.201  1.00  0.00     0.004 C 
BRANCH  14  15
ATOM     15  C   UNL     1     -21.889 -32.729 -11.980  1.00  0.00     0.000 C 
BRANCH  15  16
ATOM     16  C   UNL     1     -22.238 -33.859 -12.956  1.00  0.00    -0.000 C 
BRANCH  16  17
ATOM     17  C   UNL     1     -20.981 -34.386 -13.660  1.00  0.00    -0.003 C 
ATOM     18  C   UNL     1     -20.669 -33.572 -14.912  1.00  0.00     0.004 C 
ENDBRANCH  16  17
ENDBRANCH  15  16
ENDBRANCH  14  15
ENDBRANCH  13  14
ENDBRANCH  12  13
ENDBRANCH  10  11
ENDBRANCH   1  10
TORSDOF 13
ENDMDL
MODEL 3
REMARK VINA RESULT:    -4.806      1.030      3.348
REMARK INTER + INTRA:         -10.344
REMARK INTER:                  -8.599
REMARK INTRA:                  -1.745
REMARK UNBOUND:                -1.885
REMARK SMILES CCCCCCC=CCCCCCCCC(=O)[O-]
REMARK SMILES IDX 10 1 11 2 12 3 13 4 14 5 15 6 16 7 17 8 18 9 9 10 8 11 7 12
REMARK SMILES IDX 6 13 5 14 4 15 3 16 2 17 1 18
REMARK H PARENT
REMARK Flexibility Score: inf
ROOT
ATOM      1  C   UNL     1     -26.453 -34.738 -11.386  1.00  0.00     0.004 C 
ENDROOT
BRANCH   1   2
ATOM      2  C   UNL     1     -25.726 -34.853 -12.733  1.00  0.00     0.000 C 
BRANCH   2   3
ATOM      3  C   UNL     1     -24.690 -35.991 -12.758  1.00  0.00     0.000 C 
BRANCH   3   4
ATOM      4  C   UNL     1     -23.238 -35.561 -12.463  1.00  0.00     0.000 C 
BRANCH   4   5
ATOM      5  C   UNL     1     -22.913 -34.087 -12.777  1.00  0.00     0.006 C 
BRANCH   5   6
ATOM      6  C   UNL     1     -21.417 -33.742 -12.714  1.00  0.00     0.053 C 
BRANCH   6   7
ATOM      7  C   UNL     1     -20.662 -34.308 -13.877  1.00  0.00     0.041 C 
ATOM      8  O   UNL     1     -20.695 -33.729 -14.996  1.00  0.00    -0.550 OA
ATOM      9  O   UNL     1     -19.951 -35.493 -13.737  1.00  0.00    -0.550 OA
ENDBRANCH   6   7
ENDBRANCH   5   6
ENDBRANCH   4   5
ENDBRANCH   3   4
ENDBRANCH   2   3
ENDBRANCH   1   2
BRANCH   1  10
ATOM     10  C   UNL     1     -27.920 -34.341 -11.586  1.00  0.00     0.027 C 
BRANCH  10  11
ATOM     11  C   UNL     1     -28.167 -33.820 -12.980  1.00  0.00    -0.031 C 
ATOM     12  C   UNL     1     -28.254 -32.519 -13.319  1.00  0.00    -0.031 C 
BRANCH  12  13
ATOM     13  C   UNL     1     -28.095 -31.355 -12.367  1.00  0.00     0.027 C 
BRANCH  13  14
ATOM     14  C   UNL     1     -27.267 -30.221 -12.990  1.00  0.00     0.004 C 
BRANCH  14  15
ATOM     15  C   UNL     1     -25.943 -29.984 -12.249  1.00  0.00     0.000 C 
BRANCH  15  16
ATOM     16  C   UNL     1     -25.130 -31.280 -12.150  1.00  0.00    -0.000 C 
BRANCH  16  17
ATOM     17  C   UNL     1     -24.756 -31.585 -10.694  1.00  0.00    -0.003 C 
ATOM     18  C   UNL     1     -23.475 -30.862 -10.292  1.00  0.00     0.004 C 
ENDBRANCH  16  17
ENDBRANCH  15  16
ENDBRANCH  14  15
ENDBRANCH  13  14
ENDBRANCH  12  13
ENDBRANCH  10  11
ENDBRANCH   1  10
TORSDOF 13
ENDMDL
MODEL 4
REMARK VINA RESULT:    -4.798      1.296      3.502
REMARK INTER + INTRA:         -10.329
REMARK INTER:                  -8.650
REMARK INTRA:                  -1.679
REMARK UNBOUND:                -1.885
REMARK SMILES CCCCCCC=CCCCCCCCC(=O)[O-]
REMARK SMILES IDX 10 1 11 2 12 3 13 4 14 5 15 6 16 7 17 8 18 9 9 10 8 11 7 12
REMARK SMILES IDX 6 13 5 14 4 15 3 16 2 17 1 18
REMARK H PARENT
REMARK Flexibility Score: inf
ROOT
ATOM      1  C   UNL     1     -24.513 -33.554 -12.213  1.00  0.00     0.004 C 
ENDROOT
BRANCH   1   2
ATOM      2  C   UNL     1     -23.022 -33.691 -12.548  1.00  0.00     0.000 C 
BRANCH   2   3
ATOM      3  C   UNL     1     -22.549 -35.155 -12.591  1.00  0.00     0.000 C 
BRANCH   3   4
ATOM      4  C   UNL     1     -21.052 -35.369 -12.287  1.00  0.00     0.000 C 
BRANCH   4   5
ATOM      5  C   UNL     1     -20.146 -35.525 -13.525  1.00  0.00     0.006 C 
BRANCH   5   6
ATOM      6  C   UNL     1     -19.218 -34.329 -13.784  1.00  0.00     0.053 C 
BRANCH   6   7
ATOM      7  C   UNL     1     -19.962 -33.150 -14.331  1.00  0.00     0.041 C 
ATOM      8  O   UNL     1     -20.613 -33.254 -15.404  1.00  0.00    -0.550 OA
ATOM      9  O   UNL     1     -19.909 -31.926 -13.676  1.00  0.00    -0.550 OA
ENDBRANCH   6   7
ENDBRANCH   5   6
ENDBRANCH   4   5
ENDBRANCH   3   4
ENDBRANCH   2   3
ENDBRANCH   1   2
BRANCH   1  10
ATOM     10  C   UNL     1     -25.124 -34.917 -11.864  1.00  0.00     0.027 C 
BRANCH  10  11
ATOM     11  C   UNL     1     -26.422 -34.762 -11.111  1.00  0.00    -0.031 C 
ATOM     12  C   UNL     1     -27.637 -34.626 -11.678  1.00  0.00    -0.031 C 
BRANCH  12  13
ATOM     13  C   UNL     1     -27.914 -34.631 -13.165  1.00  0.00     0.027 C 
BRANCH  13  14
ATOM     14  C   UNL     1     -27.884 -33.212 -13.753  1.00  0.00     0.004 C 
BRANCH  14  15
ATOM     15  C   UNL     1     -28.355 -32.150 -12.748  1.00  0.00     0.000 C 
BRANCH  15  16
ATOM     16  C   UNL     1     -27.699 -30.794 -13.035  1.00  0.00    -0.000 C 
BRANCH  16  17
ATOM     17  C   UNL     1     -26.520 -30.542 -12.089  1.00  0.00    -0.003 C 
ATOM     18  C   UNL     1     -26.826 -31.043 -10.681  1.00  0.00     0.004 C 
ENDBRANCH  16  17
ENDBRANCH  15  16
ENDBRANCH  14  15
ENDBRANCH  13  14
ENDBRANCH  12  13
ENDBRANCH  10  11
ENDBRANCH   1  10
TORSDOF 13
ENDMDL
MODEL 5
REMARK VINA RESULT:    -4.798      1.705      3.781
REMARK INTER + INTRA:         -10.329
REMARK INTER:                  -8.663
REMARK INTRA:                  -1.667
REMARK UNBOUND:                -1.885
REMARK SMILES CCCCCCC=CCCCCCCCC(=O)[O-]
REMARK SMILES IDX 10 1 11 2 12 3 13 4 14 5 15 6 16 7 17 8 18 9 9 10 8 11 7 12
REMARK SMILES IDX 6 13 5 14 4 15 3 16 2 17 1 18
REMARK H PARENT
REMARK Flexibility Score: inf
ROOT
ATOM      1  C   UNL     1     -25.045 -35.532 -12.663  1.00  0.00     0.004 C 
ENDROOT
BRANCH   1   2
ATOM      2  C   UNL     1     -23.511 -35.510 -12.635  1.00  0.00     0.000 C 
BRANCH   2   3
ATOM      3  C   UNL     1     -22.933 -34.084 -12.665  1.00  0.00     0.000 C 
BRANCH   3   4
ATOM      4  C   UNL     1     -21.495 -33.972 -13.214  1.00  0.00     0.000 C 
BRANCH   4   5
ATOM      5  C   UNL     1     -20.798 -35.316 -13.508  1.00  0.00     0.006 C 
BRANCH   5   6
ATOM      6  C   UNL     1     -19.452 -35.499 -12.792  1.00  0.00     0.053 C 
BRANCH   6   7
ATOM      7  C   UNL     1     -19.543 -35.171 -11.334  1.00  0.00     0.041 C 
ATOM      8  O   UNL     1     -20.205 -35.912 -10.559  1.00  0.00    -0.550 OA
ATOM      9  O   UNL     1     -18.928 -34.030 -10.835  1.00  0.00    -0.550 OA
ENDBRANCH   6   7
ENDBRANCH   5   6
ENDBRANCH   4   5
ENDBRANCH   3   4
ENDBRANCH   2   3
ENDBRANCH   1   2
BRANCH   1  10
ATOM     10  C   UNL     1     -25.628 -34.521 -11.667  1.00  0.00     0.027 C 
BRANCH  10  11
ATOM     11  C   UNL     1     -27.104 -34.746 -11.453  1.00  0.00    -0.031 C 
ATOM     12  C   UNL     1     -28.090 -34.167 -12.166  1.00  0.00    -0.031 C 
BRANCH  12  13
ATOM     13  C   UNL     1     -27.888 -33.211 -13.320  1.00  0.00     0.027 C 
BRANCH  13  14
ATOM     14  C   UNL     1     -28.491 -31.829 -13.025  1.00  0.00     0.004 C 
BRANCH  14  15
ATOM     15  C   UNL     1     -27.430 -30.806 -12.593  1.00  0.00     0.000 C 
BRANCH  15  16
ATOM     16  C   UNL     1     -27.403 -30.655 -11.068  1.00  0.00    -0.000 C 
BRANCH  16  17
ATOM     17  C   UNL     1     -26.025 -31.023 -10.503  1.00  0.00    -0.003 C 
ATOM     18  C   UNL     1     -24.965 -31.033 -11.600  1.00  0.00     0.004 C 
ENDBRANCH  16  17
ENDBRANCH  15  16
ENDBRANCH  14  15
ENDBRANCH  13  14
ENDBRANCH  12  13
ENDBRANCH  10  11
ENDBRANCH   1  10
TORSDOF 13
ENDMDL
MODEL 6
REMARK VINA RESULT:    -4.696      2.127      5.350
REMARK INTER + INTRA:         -10.150
REMARK INTER:                  -8.435
REMARK INTRA:                  -1.715
REMARK UNBOUND:                -1.885
REMARK SMILES CCCCCCC=CCCCCCCCC(=O)[O-]
REMARK SMILES IDX 10 1 11 2 12 3 13 4 14 5 15 6 16 7 17 8 18 9 9 10 8 11 7 12
REMARK SMILES IDX 6 13 5 14 4 15 3 16 2 17 1 18
REMARK H PARENT
REMARK Flexibility Score: inf
ROOT
ATOM      1  C   UNL     1     -26.924 -31.323 -10.969  1.00  0.00     0.004 C 
ENDROOT
BRANCH   1   2
ATOM      2  C   UNL     1     -27.396 -30.566 -12.217  1.00  0.00     0.000 C 
BRANCH   2   3
ATOM      3  C   UNL     1     -28.482 -31.325 -13.001  1.00  0.00     0.000 C 
BRANCH   3   4
ATOM      4  C   UNL     1     -28.484 -32.855 -12.805  1.00  0.00     0.000 C 
BRANCH   4   5
ATOM      5  C   UNL     1     -27.621 -33.647 -13.808  1.00  0.00     0.006 C 
BRANCH   5   6
ATOM      6  C   UNL     1     -27.345 -35.100 -13.394  1.00  0.00     0.053 C 
BRANCH   6   7
ATOM      7  C   UNL     1     -26.080 -35.227 -12.602  1.00  0.00     0.041 C 
ATOM      8  O   UNL     1     -25.040 -35.691 -13.139  1.00  0.00    -0.550 OA
ATOM      9  O   UNL     1     -26.058 -34.866 -11.261  1.00  0.00    -0.550 OA
ENDBRANCH   6   7
ENDBRANCH   5   6
ENDBRANCH   4   5
ENDBRANCH   3   4
ENDBRANCH   2   3
ENDBRANCH   1   2
BRANCH   1  10
ATOM     10  C   UNL     1     -25.394 -31.423 -10.933  1.00  0.00     0.027 C 
BRANCH  10  11
ATOM     11  C   UNL     1     -24.827 -31.693 -12.303  1.00  0.00    -0.031 C 
ATOM     12  C   UNL     1     -23.545 -32.019 -12.563  1.00  0.00    -0.031 C 
BRANCH  12  13
ATOM     13  C   UNL     1     -22.460 -32.196 -11.524  1.00  0.00     0.027 C 
BRANCH  13  14
ATOM     14  C   UNL     1     -21.431 -33.253 -11.953  1.00  0.00     0.004 C 
BRANCH  14  15
ATOM     15  C   UNL     1     -21.891 -34.059 -13.177  1.00  0.00     0.000 C 
BRANCH  15  16
ATOM     16  C   UNL     1     -20.763 -34.181 -14.208  1.00  0.00    -0.000 C 
BRANCH  16  17
ATOM     17  C   UNL     1     -20.052 -32.837 -14.408  1.00  0.00    -0.003 C 
ATOM     18  C   UNL     1     -20.560 -32.126 -15.659  1.00  0.00     0.004 C 
ENDBRANCH  16  17
ENDBRANCH  15  16
ENDBRANCH  14  15
ENDBRANCH  13  14
ENDBRANCH  12  13
ENDBRANCH  10  11
ENDBRANCH   1  10
TORSDOF 13
ENDMDL
MODEL 7
REMARK VINA RESULT:    -4.666      2.774      6.134
REMARK INTER + INTRA:         -10.097
REMARK INTER:                  -8.718
REMARK INTRA:                  -1.379
REMARK UNBOUND:                -1.885
REMARK SMILES CCCCCCC=CCCCCCCCC(=O)[O-]
REMARK SMILES IDX 10 1 11 2 12 3 13 4 14 5 15 6 16 7 17 8 18 9 9 10 8 11 7 12
REMARK SMILES IDX 6 13 5 14 4 15 3 16 2 17 1 18
REMARK H PARENT
REMARK Flexibility Score: inf
ROOT
ATOM      1  C   UNL     1     -26.469 -34.748 -11.206  1.00  0.00     0.004 C 
ENDROOT
BRANCH   1   2
ATOM      2  C   UNL     1     -27.851 -34.396 -11.772  1.00  0.00     0.000 C 
BRANCH   2   3
ATOM      3  C   UNL     1     -27.787 -33.859 -13.213  1.00  0.00     0.000 C 
BRANCH   3   4
ATOM      4  C   UNL     1     -28.220 -32.387 -13.383  1.00  0.00     0.000 C 
BRANCH   4   5
ATOM      5  C   UNL     1     -28.105 -31.518 -12.114  1.00  0.00     0.006 C 
BRANCH   5   6
ATOM      6  C   UNL     1     -27.011 -30.442 -12.183  1.00  0.00     0.053 C 
BRANCH   6   7
ATOM      7  C   UNL     1     -25.704 -30.935 -11.645  1.00  0.00     0.041 C 
ATOM      8  O   UNL     1     -24.687 -30.971 -12.387  1.00  0.00    -0.550 OA
ATOM      9  O   UNL     1     -25.615 -31.390 -10.335  1.00  0.00    -0.550 OA
ENDBRANCH   6   7
ENDBRANCH   5   6
ENDBRANCH   4   5
ENDBRANCH   3   4
ENDBRANCH   2   3
ENDBRANCH   1   2
BRANCH   1  10
ATOM     10  C   UNL     1     -25.367 -34.479 -12.238  1.00  0.00     0.027 C 
BRANCH  10  11
ATOM     11  C   UNL     1     -24.373 -35.612 -12.290  1.00  0.00    -0.031 C 
ATOM     12  C   UNL     1     -23.065 -35.485 -12.592  1.00  0.00    -0.031 C 
BRANCH  12  13
ATOM     13  C   UNL     1     -22.363 -34.183 -12.904  1.00  0.00     0.027 C 
BRANCH  13  14
ATOM     14  C   UNL     1     -20.858 -34.264 -12.605  1.00  0.00     0.004 C 
BRANCH  14  15
ATOM     15  C   UNL     1     -20.213 -35.536 -13.176  1.00  0.00     0.000 C 
BRANCH  15  16
ATOM     16  C   UNL     1     -19.399 -36.266 -12.101  1.00  0.00    -0.000 C 
BRANCH  16  17
ATOM     17  C   UNL     1     -19.299 -35.427 -10.821  1.00  0.00    -0.003 C 
ATOM     18  C   UNL     1     -19.584 -36.273  -9.585  1.00  0.00     0.004 C 
ENDBRANCH  16  17
ENDBRANCH  15  16
ENDBRANCH  14  15
ENDBRANCH  13  14
ENDBRANCH  12  13
ENDBRANCH  10  11
ENDBRANCH   1  10
TORSDOF 13
ENDMDL
MODEL 8
REMARK VINA RESULT:    -4.618      2.875      6.022
REMARK INTER + INTRA:         -10.013
REMARK INTER:                  -7.984
REMARK INTRA:                  -2.030
REMARK UNBOUND:                -1.885
REMARK SMILES CCCCCCC=CCCCCCCCC(=O)[O-]
REMARK SMILES IDX 10 1 11 2 12 3 13 4 14 5 15 6 16 7 17 8 18 9 9 10 8 11 7 12
REMARK SMILES IDX 6 13 5 14 4 15 3 16 2 17 1 18
REMARK H PARENT
REMARK Flexibility Score: inf
ROOT
ATOM      1  C   UNL     1     -25.645 -34.820 -11.490  1.00  0.00     0.004 C 
ENDROOT
BRANCH   1   2
ATOM      2  C   UNL     1     -25.743 -35.011 -13.009  1.00  0.00     0.000 C 
BRANCH   2   3
ATOM      3  C   UNL     1     -27.191 -35.194 -13.497  1.00  0.00     0.000 C 
BRANCH   3   4
ATOM      4  C   UNL     1     -27.900 -33.898 -13.943  1.00  0.00     0.000 C 
BRANCH   4   5
ATOM      5  C   UNL     1     -28.442 -33.019 -12.798  1.00  0.00     0.006 C 
BRANCH   5   6
ATOM      6  C   UNL     1     -28.662 -31.547 -13.181  1.00  0.00     0.053 C 
BRANCH   6   7
ATOM      7  C   UNL     1     -27.763 -30.628 -12.414  1.00  0.00     0.041 C 
ATOM      8  O   UNL     1     -26.940 -29.893 -13.022  1.00  0.00    -0.550 OA
ATOM      9  O   UNL     1     -27.808 -30.606 -11.025  1.00  0.00    -0.550 OA
ENDBRANCH   6   7
ENDBRANCH   5   6
ENDBRANCH   4   5
ENDBRANCH   3   4
ENDBRANCH   2   3
ENDBRANCH   1   2
BRANCH   1  10
ATOM     10  C   UNL     1     -25.301 -33.367 -11.139  1.00  0.00     0.027 C 
BRANCH  10  11
ATOM     11  C   UNL     1     -24.755 -32.626 -12.334  1.00  0.00    -0.031 C 
ATOM     12  C   UNL     1     -23.712 -31.773 -12.309  1.00  0.00    -0.031 C 
BRANCH  12  13
ATOM     13  C   UNL     1     -22.891 -31.431 -11.086  1.00  0.00     0.027 C 
BRANCH  13  14
ATOM     14  C   UNL     1     -21.492 -32.061 -11.148  1.00  0.00     0.004 C 
BRANCH  14  15
ATOM     15  C   UNL     1     -20.898 -32.035 -12.564  1.00  0.00     0.000 C 
BRANCH  15  16
ATOM     16  C   UNL     1     -20.370 -33.418 -12.962  1.00  0.00    -0.000 C 
BRANCH  16  17
ATOM     17  C   UNL     1     -21.488 -34.283 -13.558  1.00  0.00    -0.003 C 
ATOM     18  C   UNL     1     -21.979 -35.318 -12.551  1.00  0.00     0.004 C 
ENDBRANCH  16  17
ENDBRANCH  15  16
ENDBRANCH  14  15
ENDBRANCH  13  14
ENDBRANCH  12  13
ENDBRANCH  10  11
ENDBRANCH   1  10
TORSDOF 13
ENDMDL
MODEL 9
REMARK VINA RESULT:    -4.576      1.200      2.560
REMARK INTER + INTRA:          -9.938
REMARK INTER:                  -8.163
REMARK INTRA:                  -1.775
REMARK UNBOUND:                -1.885
REMARK SMILES CCCCCCC=CCCCCCCCC(=O)[O-]
REMARK SMILES IDX 10 1 11 2 12 3 13 4 14 5 15 6 16 7 17 8 18 9 9 10 8 11 7 12
REMARK SMILES IDX 6 13 5 14 4 15 3 16 2 17 1 18
REMARK H PARENT
REMARK Flexibility Score: inf
ROOT
ATOM      1  C   UNL     1     -24.368 -32.159 -12.310  1.00  0.00     0.004 C 
ENDROOT
BRANCH   1   2
ATOM      2  C   UNL     1     -23.179 -33.053 -11.936  1.00  0.00     0.000 C 
BRANCH   2   3
ATOM      3  C   UNL     1     -23.046 -34.285 -12.849  1.00  0.00     0.000 C 
BRANCH   3   4
ATOM      4  C   UNL     1     -21.862 -35.218 -12.521  1.00  0.00     0.000 C 
BRANCH   4   5
ATOM      5  C   UNL     1     -20.567 -34.937 -13.311  1.00  0.00     0.006 C 
BRANCH   5   6
ATOM      6  C   UNL     1     -20.754 -34.008 -14.520  1.00  0.00     0.053 C 
BRANCH   6   7
ATOM      7  C   UNL     1     -19.952 -32.750 -14.390  1.00  0.00     0.041 C 
ATOM      8  O   UNL     1     -18.978 -32.700 -13.593  1.00  0.00    -0.550 OA
ATOM      9  O   UNL     1     -20.301 -31.622 -15.121  1.00  0.00    -0.550 OA
ENDBRANCH   6   7
ENDBRANCH   5   6
ENDBRANCH   4   5
ENDBRANCH   3   4
ENDBRANCH   2   3
ENDBRANCH   1   2
BRANCH   1  10
ATOM     10  C   UNL     1     -24.586 -31.065 -11.258  1.00  0.00     0.027 C 
BRANCH  10  11
ATOM     11  C   UNL     1     -25.868 -31.283 -10.494  1.00  0.00    -0.031 C 
ATOM     12  C   UNL     1     -27.105 -31.028 -10.964  1.00  0.00    -0.031 C 
BRANCH  12  13
ATOM     13  C   UNL     1     -27.425 -30.506 -12.347  1.00  0.00     0.027 C 
BRANCH  13  14
ATOM     14  C   UNL     1     -28.530 -31.331 -13.024  1.00  0.00     0.004 C 
BRANCH  14  15
ATOM     15  C   UNL     1     -28.435 -32.827 -12.692  1.00  0.00     0.000 C 
BRANCH  15  16
ATOM     16  C   UNL     1     -27.531 -33.554 -13.694  1.00  0.00    -0.000 C 
BRANCH  16  17
ATOM     17  C   UNL     1     -26.874 -34.783 -13.053  1.00  0.00    -0.003 C 
ATOM     18  C   UNL     1     -26.913 -34.696 -11.530  1.00  0.00     0.004 C 
ENDBRANCH  16  17
ENDBRANCH  15  16
ENDBRANCH  14  15
ENDBRANCH  13  14
ENDBRANCH  12  13
ENDBRANCH  10  11
ENDBRANCH   1  10
TORSDOF 13
ENDMDL
