MODEL 1
REMARK VINA RESULT:    -4.046      0.000      0.000
REMARK INTER + INTRA:          -5.263
REMARK INTER:                  -5.702
REMARK INTRA:                   0.439
REMARK UNBOUND:                 0.439
REMARK SMILES CC1=CCC(=C(C)C)C(=O)CC(C)=CCC1
REMARK SMILES IDX 12 1 14 2 13 3 15 4 16 5 2 6 1 7 3 8 11 10 9 11 10 12 5 13
REMARK SMILES IDX 6 14 7 15 8 16 4 17
REMARK H PARENT
REMARK Flexibility Score: 60.00
ROOT
ATOM      1  C   UNL     1      16.536  18.655  20.242  1.00  0.00    -0.070 C 
ATOM      2  C   UNL     1      17.840  18.672  19.888  1.00  0.00    -0.027 C 
ATOM      3  C   UNL     1      15.906  19.955  20.675  1.00  0.00     0.039 C 
ENDROOT
BRANCH   2   4
ATOM      4  C   UNL     1      18.671  17.463  19.520  1.00  0.00     0.032 C 
BRANCH   4   5
ATOM      5  C   UNL     1      19.016  17.346  18.020  1.00  0.00     0.034 C 
BRANCH   5   6
ATOM      6  C   UNL     1      18.098  16.399  17.268  1.00  0.00    -0.077 C 
ATOM      7  C   UNL     1      18.594  14.998  17.011  1.00  0.00     0.039 C 
ATOM      8  C   UNL     1      16.894  16.750  16.755  1.00  0.00    -0.023 CG0
ATOM      9  G   UNL     1      16.190  18.085  16.903  1.00  0.00     0.000 G0
ENDBRANCH   5   6
ENDBRANCH   4   5
ENDBRANCH   2   4
BRANCH   1  10
ATOM     10  C   UNL     1      15.710  17.387  20.313  1.00  0.00     0.111 C 
BRANCH  10  11
ATOM     11  C   UNL     1      15.084  17.056  18.984  1.00  0.00     0.163 C 
ATOM     12  O   UNL     1      14.659  15.884  18.804  1.00  0.00    -0.294 OA
BRANCH  11  13
ATOM     13  C   UNL     1      15.008  18.043  17.866  1.00  0.00    -0.002 C 
ATOM     14  C   UNL     1      13.888  18.806  17.682  1.00  0.00    -0.069 C 
ATOM     15  C   UNL     1      12.757  18.794  18.687  1.00  0.00     0.039 C 
ATOM     16  C   UNL     1      13.717  19.697  16.471  1.00  0.00     0.039 C 
BRANCH  13  17
ATOM     17  C   UNL     1      16.180  18.090  16.899  1.00  0.00     0.066 CG0
ATOM     18  G   UNL     1      16.869  16.746  16.763  1.00  0.00     0.000 G0
ENDBRANCH  13  17
ENDBRANCH  11  13
ENDBRANCH  10  11
ENDBRANCH   1  10
TORSDOF 0
ENDMDL
MODEL 2
REMARK VINA RESULT:    -3.748      1.572      2.814
REMARK INTER + INTRA:          -4.842
REMARK INTER:                  -5.179
REMARK INTRA:                   0.337
REMARK UNBOUND:                 0.439
REMARK SMILES CC1=CCC(=C(C)C)C(=O)CC(C)=CCC1
REMARK SMILES IDX 12 1 14 2 13 3 15 4 16 5 2 6 1 7 3 8 11 10 9 11 10 12 5 13
REMARK SMILES IDX 6 14 7 15 8 16 4 17
REMARK H PARENT
REMARK Flexibility Score: 60.00
ROOT
ATOM      1  C   UNL     1      15.453  15.599  19.671  1.00  0.00    -0.070 C 
ATOM      2  C   UNL     1      16.401  14.671  19.415  1.00  0.00    -0.027 C 
ATOM      3  C   UNL     1      15.235  16.008  21.106  1.00  0.00     0.039 C 
ENDROOT
BRANCH   2   4
ATOM      4  C   UNL     1      16.701  14.063  18.063  1.00  0.00     0.032 C 
BRANCH   4   5
ATOM      5  C   UNL     1      16.959  15.085  16.936  1.00  0.00     0.034 C 
BRANCH   5   6
ATOM      6  C   UNL     1      18.143  15.994  17.214  1.00  0.00    -0.077 C 
ATOM      7  C   UNL     1      19.490  15.347  17.421  1.00  0.00     0.039 C 
ATOM      8  C   UNL     1      18.057  17.339  17.356  1.00  0.00    -0.023 CG0
ATOM      9  G   UNL     1      16.823  18.201  17.174  1.00  0.00     0.000 G0
ENDBRANCH   5   6
ENDBRANCH   4   5
ENDBRANCH   2   4
BRANCH   1  10
ATOM     10  C   UNL     1      14.543  16.174  18.605  1.00  0.00     0.111 C 
BRANCH  10  11
ATOM     11  C   UNL     1      14.681  17.670  18.504  1.00  0.00     0.163 C 
ATOM     12  O   UNL     1      13.630  18.357  18.397  1.00  0.00    -0.294 OA
BRANCH  11  13
ATOM     13  C   UNL     1      16.009  18.352  18.464  1.00  0.00    -0.002 C 
ATOM     14  C   UNL     1      16.426  19.132  19.507  1.00  0.00    -0.069 C 
ATOM     15  C   UNL     1      15.636  19.206  20.796  1.00  0.00     0.039 C 
ATOM     16  C   UNL     1      17.689  19.960  19.432  1.00  0.00     0.039 C 
BRANCH  13  17
ATOM     17  C   UNL     1      16.822  18.217  17.187  1.00  0.00     0.066 CG0
ATOM     18  G   UNL     1      18.043  17.339  17.371  1.00  0.00     0.000 G0
ENDBRANCH  13  17
ENDBRANCH  11  13
ENDBRANCH  10  11
ENDBRANCH   1  10
TORSDOF 0
ENDMDL
MODEL 3
REMARK VINA RESULT:    -3.683      2.122      4.545
REMARK INTER + INTRA:          -4.751
REMARK INTER:                  -4.992
REMARK INTRA:                   0.241
REMARK UNBOUND:                 0.439
REMARK SMILES CC1=CCC(=C(C)C)C(=O)CC(C)=CCC1
REMARK SMILES IDX 12 1 14 2 13 3 15 4 16 5 2 6 1 7 3 8 11 10 9 11 10 12 5 13
REMARK SMILES IDX 6 14 7 15 8 16 4 17
REMARK H PARENT
REMARK Flexibility Score: 60.00
ROOT
ATOM      1  C   UNL     1      17.153  18.462  17.923  1.00  0.00    -0.070 C 
ATOM      2  C   UNL     1      16.378  19.377  18.544  1.00  0.00    -0.027 C 
ATOM      3  C   UNL     1      18.567  18.283  18.417  1.00  0.00     0.039 C 
ENDROOT
BRANCH   2   4
ATOM      4  C   UNL     1      14.974  19.769  18.136  1.00  0.00     0.032 C 
BRANCH   4   5
ATOM      5  C   UNL     1      13.969  18.600  18.070  1.00  0.00     0.034 C 
BRANCH   5   6
ATOM      6  C   UNL     1      13.885  17.811  19.364  1.00  0.00    -0.077 C 
ATOM      7  C   UNL     1      13.419  18.539  20.600  1.00  0.00     0.039 C 
ATOM      8  C   UNL     1      14.265  16.517  19.496  1.00  0.00    -0.023 CG0
ATOM      9  G   UNL     1      14.744  15.587  18.398  1.00  0.00     0.000 G0
ENDBRANCH   5   6
ENDBRANCH   4   5
ENDBRANCH   2   4
BRANCH   1  10
ATOM     10  C   UNL     1      16.704  17.679  16.707  1.00  0.00     0.111 C 
BRANCH  10  11
ATOM     11  C   UNL     1      16.759  16.194  16.949  1.00  0.00     0.163 C 
ATOM     12  O   UNL     1      17.221  15.460  16.034  1.00  0.00    -0.294 OA
BRANCH  11  13
ATOM     13  C   UNL     1      16.234  15.566  18.197  1.00  0.00    -0.002 C 
ATOM     14  C   UNL     1      17.077  14.940  19.074  1.00  0.00    -0.069 C 
ATOM     15  C   UNL     1      18.579  14.998  18.894  1.00  0.00     0.039 C 
ATOM     16  C   UNL     1      16.560  14.160  20.263  1.00  0.00     0.039 C 
BRANCH  13  17
ATOM     17  C   UNL     1      14.727  15.570  18.398  1.00  0.00     0.066 CG0
ATOM     18  G   UNL     1      14.294  16.528  19.490  1.00  0.00     0.000 G0
ENDBRANCH  13  17
ENDBRANCH  11  13
ENDBRANCH  10  11
ENDBRANCH   1  10
TORSDOF 0
ENDMDL
MODEL 4
REMARK VINA RESULT:    -3.461      2.066      4.260
REMARK INTER + INTRA:          -4.437
REMARK INTER:                  -4.660
REMARK INTRA:                   0.223
REMARK UNBOUND:                 0.439
REMARK SMILES CC1=CCC(=C(C)C)C(=O)CC(C)=CCC1
REMARK SMILES IDX 12 1 14 2 13 3 15 4 16 5 2 6 1 7 3 8 11 10 9 11 10 12 5 13
REMARK SMILES IDX 6 14 7 15 8 16 4 17
REMARK H PARENT
REMARK Flexibility Score: 60.00
ROOT
ATOM      1  C   UNL     1      15.657  14.909  20.401  1.00  0.00    -0.070 C 
ATOM      2  C   UNL     1      14.886  15.754  21.119  1.00  0.00    -0.027 C 
ATOM      3  C   UNL     1      16.264  13.728  21.117  1.00  0.00     0.039 C 
ENDROOT
BRANCH   2   4
ATOM      4  C   UNL     1      14.272  17.039  20.608  1.00  0.00     0.032 C 
BRANCH   4   5
ATOM      5  C   UNL     1      15.142  18.298  20.809  1.00  0.00     0.034 C 
BRANCH   5   6
ATOM      6  C   UNL     1      15.131  19.229  19.609  1.00  0.00    -0.077 C 
ATOM      7  C   UNL     1      13.910  20.088  19.401  1.00  0.00     0.039 C 
ATOM      8  C   UNL     1      16.114  19.287  18.679  1.00  0.00    -0.023 CG0
ATOM      9  G   UNL     1      17.431  18.536  18.691  1.00  0.00     0.000 G0
ENDBRANCH   5   6
ENDBRANCH   4   5
ENDBRANCH   2   4
BRANCH   1  10
ATOM     10  C   UNL     1      16.013  15.139  18.947  1.00  0.00     0.111 C 
BRANCH  10  11
ATOM     11  C   UNL     1      17.261  15.969  18.804  1.00  0.00     0.163 C 
ATOM     12  O   UNL     1      18.275  15.638  19.476  1.00  0.00    -0.294 OA
BRANCH  11  13
ATOM     13  C   UNL     1      17.316  17.192  17.949  1.00  0.00    -0.002 C 
ATOM     14  C   UNL     1      17.347  17.092  16.586  1.00  0.00    -0.069 C 
ATOM     15  C   UNL     1      17.167  15.758  15.893  1.00  0.00     0.039 C 
ATOM     16  C   UNL     1      17.561  18.298  15.699  1.00  0.00     0.039 C 
BRANCH  13  17
ATOM     17  C   UNL     1      17.432  18.532  18.658  1.00  0.00     0.066 CG0
ATOM     18  G   UNL     1      16.115  19.283  18.689  1.00  0.00     0.000 G0
ENDBRANCH  13  17
ENDBRANCH  11  13
ENDBRANCH  10  11
ENDBRANCH   1  10
TORSDOF 0
ENDMDL
MODEL 5
REMARK VINA RESULT:    -3.449      1.214      4.028
REMARK INTER + INTRA:          -4.421
REMARK INTER:                  -5.114
REMARK INTRA:                   0.693
REMARK UNBOUND:                 0.439
REMARK SMILES CC1=CCC(=C(C)C)C(=O)CC(C)=CCC1
REMARK SMILES IDX 12 1 14 2 13 3 15 4 16 5 2 6 1 7 3 8 11 10 9 11 10 12 5 13
REMARK SMILES IDX 6 14 7 15 8 16 4 17
REMARK H PARENT
REMARK Flexibility Score: 60.00
ROOT
ATOM      1  C   UNL     1      16.216  18.367  20.607  1.00  0.00    -0.070 C 
ATOM      2  C   UNL     1      15.402  19.444  20.669  1.00  0.00    -0.027 C 
ATOM      3  C   UNL     1      17.703  18.609  20.534  1.00  0.00     0.039 C 
ENDROOT
BRANCH   2   4
ATOM      4  C   UNL     1      13.890  19.411  20.650  1.00  0.00     0.032 C 
BRANCH   4   5
ATOM      5  C   UNL     1      13.241  20.125  19.445  1.00  0.00     0.034 C 
BRANCH   5   6
ATOM      6  C   UNL     1      12.815  19.170  18.344  1.00  0.00    -0.077 C 
ATOM      7  C   UNL     1      11.338  18.917  18.169  1.00  0.00     0.039 C 
ATOM      8  C   UNL     1      13.674  18.480  17.557  1.00  0.00    -0.023 CG0
ATOM      9  G   UNL     1      15.187  18.586  17.540  1.00  0.00     0.000 G0
ENDBRANCH   5   6
ENDBRANCH   4   5
ENDBRANCH   2   4
BRANCH   1  10
ATOM     10  C   UNL     1      15.705  16.944  20.516  1.00  0.00     0.111 C 
BRANCH  10  11
ATOM     11  C   UNL     1      15.353  16.568  19.101  1.00  0.00     0.163 C 
ATOM     12  O   UNL     1      14.616  15.562  18.920  1.00  0.00    -0.294 OA
BRANCH  11  13
ATOM     13  C   UNL     1      15.892  17.304  17.919  1.00  0.00    -0.002 C 
ATOM     14  C   UNL     1      17.021  16.871  17.281  1.00  0.00    -0.069 C 
ATOM     15  C   UNL     1      17.672  15.554  17.646  1.00  0.00     0.039 C 
ATOM     16  C   UNL     1      17.681  17.678  16.185  1.00  0.00     0.039 C 
BRANCH  13  17
ATOM     17  C   UNL     1      15.191  18.593  17.523  1.00  0.00     0.066 CG0
ATOM     18  G   UNL     1      13.680  18.464  17.564  1.00  0.00     0.000 G0
ENDBRANCH  13  17
ENDBRANCH  11  13
ENDBRANCH  10  11
ENDBRANCH   1  10
TORSDOF 0
ENDMDL
MODEL 6
REMARK VINA RESULT:    -3.344      2.113      4.895
REMARK INTER + INTRA:          -4.272
REMARK INTER:                  -5.093
REMARK INTRA:                   0.821
REMARK UNBOUND:                 0.439
REMARK SMILES CC1=CCC(=C(C)C)C(=O)CC(C)=CCC1
REMARK SMILES IDX 12 1 14 2 13 3 15 4 16 5 2 6 1 7 3 8 11 10 9 11 10 12 5 13
REMARK SMILES IDX 6 14 7 15 8 16 4 17
REMARK H PARENT
REMARK Flexibility Score: 60.00
ROOT
ATOM      1  C   UNL     1      16.173  18.672  17.212  1.00  0.00    -0.070 C 
ATOM      2  C   UNL     1      14.918  18.996  16.832  1.00  0.00    -0.027 C 
ATOM      3  C   UNL     1      16.960  17.740  16.325  1.00  0.00     0.039 C 
ENDROOT
BRANCH   2   4
ATOM      4  C   UNL     1      13.941  19.832  17.630  1.00  0.00     0.032 C 
BRANCH   4   5
ATOM      5  C   UNL     1      12.840  19.029  18.353  1.00  0.00     0.034 C 
BRANCH   5   6
ATOM      6  C   UNL     1      13.153  18.769  19.816  1.00  0.00    -0.077 C 
ATOM      7  C   UNL     1      12.640  19.760  20.830  1.00  0.00     0.039 C 
ATOM      8  C   UNL     1      13.920  17.744  20.262  1.00  0.00    -0.023 CG0
ATOM      9  G   UNL     1      14.522  16.625  19.436  1.00  0.00     0.000 G0
ENDBRANCH   5   6
ENDBRANCH   4   5
ENDBRANCH   2   4
BRANCH   1  10
ATOM     10  C   UNL     1      16.788  19.121  18.521  1.00  0.00     0.111 C 
BRANCH  10  11
ATOM     11  C   UNL     1      16.652  18.070  19.591  1.00  0.00     0.163 C 
ATOM     12  O   UNL     1      17.121  18.321  20.733  1.00  0.00    -0.294 OA
BRANCH  11  13
ATOM     13  C   UNL     1      16.041  16.734  19.327  1.00  0.00    -0.002 C 
ATOM     14  C   UNL     1      16.812  15.681  18.918  1.00  0.00    -0.069 C 
ATOM     15  C   UNL     1      18.321  15.786  18.871  1.00  0.00     0.039 C 
ATOM     16  C   UNL     1      16.205  14.362  18.492  1.00  0.00     0.039 C 
BRANCH  13  17
ATOM     17  C   UNL     1      14.529  16.625  19.439  1.00  0.00     0.066 CG0
ATOM     18  G   UNL     1      13.929  17.751  20.259  1.00  0.00     0.000 G0
ENDBRANCH  13  17
ENDBRANCH  11  13
ENDBRANCH  10  11
ENDBRANCH   1  10
TORSDOF 0
ENDMDL
MODEL 7
REMARK VINA RESULT:    -3.320      2.351      3.684
REMARK INTER + INTRA:          -4.238
REMARK INTER:                  -5.356
REMARK INTRA:                   1.118
REMARK UNBOUND:                 0.439
REMARK SMILES CC1=CCC(=C(C)C)C(=O)CC(C)=CCC1
REMARK SMILES IDX 12 1 14 2 13 3 15 4 16 5 2 6 1 7 3 8 11 10 9 11 10 12 5 13
REMARK SMILES IDX 6 14 7 15 8 16 4 17
REMARK H PARENT
REMARK Flexibility Score: 60.00
ROOT
ATOM      1  C   UNL     1      17.155  17.170  17.502  1.00  0.00    -0.070 C 
ATOM      2  C   UNL     1      16.780  15.974  16.999  1.00  0.00    -0.027 C 
ATOM      3  C   UNL     1      17.623  18.227  16.533  1.00  0.00     0.039 C 
ENDROOT
BRANCH   2   4
ATOM      4  C   UNL     1      16.375  14.762  17.810  1.00  0.00     0.032 C 
BRANCH   4   5
ATOM      5  C   UNL     1      15.137  14.967  18.708  1.00  0.00     0.034 C 
BRANCH   5   6
ATOM      6  C   UNL     1      15.484  15.130  20.177  1.00  0.00    -0.077 C 
ATOM      7  C   UNL     1      16.369  14.083  20.808  1.00  0.00     0.039 C 
ATOM      8  C   UNL     1      14.997  16.112  20.973  1.00  0.00    -0.023 CG0
ATOM      9  G   UNL     1      14.114  17.273  20.557  1.00  0.00     0.000 G0
ENDBRANCH   5   6
ENDBRANCH   4   5
ENDBRANCH   2   4
BRANCH   1  10
ATOM     10  C   UNL     1      17.216  17.467  18.986  1.00  0.00     0.111 C 
BRANCH  10  11
ATOM     11  C   UNL     1      16.127  18.416  19.409  1.00  0.00     0.163 C 
ATOM     12  O   UNL     1      16.464  19.544  19.860  1.00  0.00    -0.294 OA
BRANCH  11  13
ATOM     13  C   UNL     1      14.681  18.046  19.369  1.00  0.00    -0.002 C 
ATOM     14  C   UNL     1      13.882  18.455  18.338  1.00  0.00    -0.069 C 
ATOM     15  C   UNL     1      14.461  19.158  17.129  1.00  0.00     0.039 C 
ATOM     16  C   UNL     1      12.386  18.233  18.347  1.00  0.00     0.039 C 
BRANCH  13  17
ATOM     17  C   UNL     1      14.125  17.284  20.561  1.00  0.00     0.066 CG0
ATOM     18  G   UNL     1      15.003  16.113  20.957  1.00  0.00     0.000 G0
ENDBRANCH  13  17
ENDBRANCH  11  13
ENDBRANCH  10  11
ENDBRANCH   1  10
TORSDOF 0
ENDMDL
MODEL 8
REMARK VINA RESULT:    -3.285      1.599      4.420
REMARK INTER + INTRA:          -4.190
REMARK INTER:                  -5.313
REMARK INTRA:                   1.123
REMARK UNBOUND:                 0.439
REMARK SMILES CC1=CCC(=C(C)C)C(=O)CC(C)=CCC1
REMARK SMILES IDX 12 1 14 2 13 3 15 4 16 5 2 6 1 7 3 8 11 10 9 11 10 12 5 13
REMARK SMILES IDX 6 14 7 15 8 16 4 17
REMARK H PARENT
REMARK Flexibility Score: 60.00
ROOT
ATOM      1  C   UNL     1      14.670  16.031  19.957  1.00  0.00    -0.070 C 
ATOM      2  C   UNL     1      13.786  17.017  20.224  1.00  0.00    -0.027 C 
ATOM      3  C   UNL     1      15.238  15.259  21.122  1.00  0.00     0.039 C 
ENDROOT
BRANCH   2   4
ATOM      4  C   UNL     1      13.183  17.962  19.208  1.00  0.00     0.032 C 
BRANCH   4   5
ATOM      5  C   UNL     1      13.955  19.283  19.012  1.00  0.00     0.034 C 
BRANCH   5   6
ATOM      6  C   UNL     1      14.800  19.300  17.751  1.00  0.00    -0.077 C 
ATOM      7  C   UNL     1      14.171  19.842  16.492  1.00  0.00     0.039 C 
ATOM      8  C   UNL     1      16.056  18.797  17.666  1.00  0.00    -0.023 CG0
ATOM      9  G   UNL     1      16.890  18.224  18.795  1.00  0.00     0.000 G0
ENDBRANCH   5   6
ENDBRANCH   4   5
ENDBRANCH   2   4
BRANCH   1  10
ATOM     10  C   UNL     1      15.181  15.727  18.564  1.00  0.00     0.111 C 
BRANCH  10  11
ATOM     11  C   UNL     1      16.685  15.662  18.525  1.00  0.00     0.163 C 
ATOM     12  O   UNL     1      17.234  14.533  18.633  1.00  0.00    -0.294 OA
BRANCH  11  13
ATOM     13  C   UNL     1      17.537  16.884  18.425  1.00  0.00    -0.002 C 
ATOM     14  C   UNL     1      18.861  16.789  18.098  1.00  0.00    -0.069 C 
ATOM     15  C   UNL     1      19.471  15.470  17.675  1.00  0.00     0.039 C 
ATOM     16  C   UNL     1      19.785  17.986  18.143  1.00  0.00     0.039 C 
BRANCH  13  17
ATOM     17  C   UNL     1      16.894  18.212  18.792  1.00  0.00     0.066 CG0
ATOM     18  G   UNL     1      16.073  18.789  17.656  1.00  0.00     0.000 G0
ENDBRANCH  13  17
ENDBRANCH  11  13
ENDBRANCH  10  11
ENDBRANCH   1  10
TORSDOF 0
ENDMDL
MODEL 9
REMARK VINA RESULT:    -3.264      2.262      5.000
REMARK INTER + INTRA:          -4.160
REMARK INTER:                  -4.847
REMARK INTRA:                   0.687
REMARK UNBOUND:                 0.439
REMARK SMILES CC1=CCC(=C(C)C)C(=O)CC(C)=CCC1
REMARK SMILES IDX 12 1 14 2 13 3 15 4 16 5 2 6 1 7 3 8 11 10 9 11 10 12 5 13
REMARK SMILES IDX 6 14 7 15 8 16 4 17
REMARK H PARENT
REMARK Flexibility Score: 60.00
ROOT
ATOM      1  C   UNL     1      15.910  15.601  17.975  1.00  0.00    -0.070 C 
ATOM      2  C   UNL     1      14.741  15.410  18.625  1.00  0.00    -0.027 C 
ATOM      3  C   UNL     1      16.875  14.443  17.904  1.00  0.00     0.039 C 
ENDROOT
BRANCH   2   4
ATOM      4  C   UNL     1      13.693  16.469  18.886  1.00  0.00     0.032 C 
BRANCH   4   5
ATOM      5  C   UNL     1      13.730  17.082  20.302  1.00  0.00     0.034 C 
BRANCH   5   6
ATOM      6  C   UNL     1      14.213  18.522  20.317  1.00  0.00    -0.077 C 
ATOM      7  C   UNL     1      13.171  19.611  20.297  1.00  0.00     0.039 C 
ATOM      8  C   UNL     1      15.517  18.890  20.278  1.00  0.00    -0.023 CG0
ATOM      9  G   UNL     1      16.727  17.977  20.311  1.00  0.00     0.000 G0
ENDBRANCH   5   6
ENDBRANCH   4   5
ENDBRANCH   2   4
BRANCH   1  10
ATOM     10  C   UNL     1      16.333  16.936  17.399  1.00  0.00     0.111 C 
BRANCH  10  11
ATOM     11  C   UNL     1      17.645  17.401  17.975  1.00  0.00     0.163 C 
ATOM     12  O   UNL     1      18.708  16.991  17.437  1.00  0.00    -0.294 OA
BRANCH  11  13
ATOM     13  C   UNL     1      17.724  18.270  19.186  1.00  0.00    -0.002 C 
ATOM     14  C   UNL     1      18.696  19.226  19.298  1.00  0.00    -0.069 C 
ATOM     15  C   UNL     1      19.621  19.543  18.143  1.00  0.00     0.039 C 
ATOM     16  C   UNL     1      18.901  20.013  20.574  1.00  0.00     0.039 C 
BRANCH  13  17
ATOM     17  C   UNL     1      16.748  17.982  20.314  1.00  0.00     0.066 CG0
ATOM     18  G   UNL     1      15.533  18.889  20.271  1.00  0.00     0.000 G0
ENDBRANCH  13  17
ENDBRANCH  11  13
ENDBRANCH  10  11
ENDBRANCH   1  10
TORSDOF 0
ENDMDL
