MODEL 1
REMARK VINA RESULT:    -5.698      0.000      0.000
REMARK INTER + INTRA:          -9.947
REMARK INTER:                  -8.363
REMARK INTRA:                  -1.584
REMARK UNBOUND:                -1.584
REMARK SMILES O=c1c(O[C@H]2O[C@@H](CO)[C@H](O)[C@@H](O)[C@@H]2O)c(-c2ccc(O)c(O)c2)oc2cc(O)cc(O)c12
REMARK SMILES IDX 4 1 3 2 16 3 25 4 2 5 26 6 1 7 33 8 27 9 31 10 28 11 30 12
REMARK SMILES IDX 17 13 18 14 19 15 20 16 24 17 22 18 21 19 23 21 32 23 29 25
REMARK SMILES IDX 5 27 14 28 6 29 12 30 7 31 10 32 15 33 13 35 8 37 9 38 11 40
REMARK H PARENT 21 20 23 22 32 24 29 26 15 34 13 36 9 39 11 41
REMARK Flexibility Score: inf
ROOT
ATOM      1  O   UNL     1       8.294   3.720  26.265  1.00  0.00    -0.454 OA
ENDROOT
BRANCH   1   2
ATOM      2  C   UNL     1       7.501   4.873  26.435  1.00  0.00     0.214 A 
ATOM      3  C   UNL     1       8.039   6.111  26.030  1.00  0.00     0.180 A 
ATOM      4  O   UNL     1       7.361   7.236  26.231  1.00  0.00    -0.452 OA
ATOM      5  C   UNL     1       6.215   4.864  27.024  1.00  0.00     0.239 A 
ATOM      6  C   UNL     1       6.156   7.271  26.784  1.00  0.00     0.146 A 
ATOM      7  O   UNL     1       5.697   3.782  27.407  1.00  0.00    -0.285 OA
ATOM      8  C   UNL     1       5.520   6.080  27.200  1.00  0.00     0.111 A 
ATOM      9  C   UNL     1       5.521   8.506  26.948  1.00  0.00     0.094 A 
ATOM     10  C   UNL     1       4.230   6.156  27.781  1.00  0.00     0.134 A 
ATOM     11  C   UNL     1       4.249   8.575  27.525  1.00  0.00     0.123 A 
ATOM     12  C   UNL     1       3.610   7.405  27.938  1.00  0.00     0.093 A 
BRANCH   3  13
ATOM     13  C   UNL     1       9.368   6.208  25.384  1.00  0.00     0.025 A 
ATOM     14  C   UNL     1      10.546   6.266  26.149  1.00  0.00     0.016 A 
ATOM     15  C   UNL     1      11.792   6.350  25.522  1.00  0.00     0.051 A 
ATOM     16  C   UNL     1      11.880   6.360  24.124  1.00  0.00     0.157 A 
ATOM     17  C   UNL     1       9.462   6.192  23.984  1.00  0.00     0.062 A 
ATOM     18  C   UNL     1      10.708   6.276  23.352  1.00  0.00     0.158 A 
BRANCH  16  19
ATOM     19  O   UNL     1      13.123   6.450  23.500  1.00  0.00    -0.504 OA
ATOM     20  H   UNL     1      13.312   5.983  22.622  1.00  0.00     0.293 HD
ENDBRANCH  16  19
BRANCH  18  21
ATOM     21  O   UNL     1      10.762   6.276  21.958  1.00  0.00    -0.504 OA
ATOM     22  H   UNL     1      10.748   7.133  21.419  1.00  0.00     0.293 HD
ENDBRANCH  18  21
ENDBRANCH   3  13
BRANCH  10  23
ATOM     23  O   UNL     1       3.562   5.006  28.205  1.00  0.00    -0.507 OA
ATOM     24  H   UNL     1       3.960   4.383  28.898  1.00  0.00     0.293 HD
ENDBRANCH  10  23
BRANCH  11  25
ATOM     25  O   UNL     1       3.611   9.803  27.693  1.00  0.00    -0.508 OA
ATOM     26  H   UNL     1       2.672   9.963  27.347  1.00  0.00     0.293 HD
ENDBRANCH  11  25
ENDBRANCH   1   2
BRANCH   1  27
ATOM     27  C   UNL     1       8.443   2.940  25.079  1.00  0.00     0.339 C 
ATOM     28  C   UNL     1       7.196   3.177  24.177  1.00  0.00     0.214 C 
ATOM     29  O   UNL     1       8.595   1.575  25.450  1.00  0.00    -0.332 OA
ATOM     30  C   UNL     1       6.268   1.944  24.188  1.00  0.00     0.180 C 
ATOM     31  C   UNL     1       8.518   0.736  24.314  1.00  0.00     0.179 C 
ATOM     32  C   UNL     1       7.052   0.667  23.803  1.00  0.00     0.177 C 
BRANCH  28  33
ATOM     33  O   UNL     1       7.616   3.444  22.862  1.00  0.00    -0.384 OA
ATOM     34  H   UNL     1       6.889   3.960  22.425  1.00  0.00     0.211 HD
ENDBRANCH  28  33
BRANCH  30  35
ATOM     35  O   UNL     1       5.714   1.779  25.469  1.00  0.00    -0.387 OA
ATOM     36  H   UNL     1       6.446   1.932  26.122  1.00  0.00     0.211 HD
ENDBRANCH  30  35
BRANCH  31  37
ATOM     37  C   UNL     1       9.039  -0.657  24.688  1.00  0.00     0.191 C 
BRANCH  37  38
ATOM     38  O   UNL     1       8.832  -1.557  23.632  1.00  0.00    -0.394 OA
ATOM     39  H   UNL     1       8.104  -1.181  23.073  1.00  0.00     0.210 HD
ENDBRANCH  37  38
ENDBRANCH  31  37
BRANCH  32  40
ATOM     40  O   UNL     1       7.043   0.524  22.405  1.00  0.00    -0.387 OA
ATOM     41  H   UNL     1       6.419  -0.219  22.195  1.00  0.00     0.211 HD
ENDBRANCH  32  40
ENDBRANCH   1  27
TORSDOF 12
ENDMDL
MODEL 2
REMARK VINA RESULT:    -5.672     13.394     15.998
REMARK INTER + INTRA:          -9.908
REMARK INTER:                  -8.304
REMARK INTRA:                  -1.603
REMARK UNBOUND:                -1.584
REMARK SMILES O=c1c(O[C@H]2O[C@@H](CO)[C@H](O)[C@@H](O)[C@@H]2O)c(-c2ccc(O)c(O)c2)oc2cc(O)cc(O)c12
REMARK SMILES IDX 4 1 3 2 16 3 25 4 2 5 26 6 1 7 33 8 27 9 31 10 28 11 30 12
REMARK SMILES IDX 17 13 18 14 19 15 20 16 24 17 22 18 21 19 23 21 32 23 29 25
REMARK SMILES IDX 5 27 14 28 6 29 12 30 7 31 10 32 15 33 13 35 8 37 9 38 11 40
REMARK H PARENT 21 20 23 22 32 24 29 26 15 34 13 36 9 39 11 41
REMARK Flexibility Score: inf
ROOT
ATOM      1  O   UNL     1      16.630   3.771  35.872  1.00  0.00    -0.454 OA
ENDROOT
BRANCH   1   2
ATOM      2  C   UNL     1      17.449   4.901  35.671  1.00  0.00     0.214 A 
ATOM      3  C   UNL     1      16.945   6.160  36.056  1.00  0.00     0.180 A 
ATOM      4  O   UNL     1      17.649   7.264  35.826  1.00  0.00    -0.452 OA
ATOM      5  C   UNL     1      18.730   4.850  35.072  1.00  0.00     0.239 A 
ATOM      6  C   UNL     1      18.849   7.259  35.262  1.00  0.00     0.146 A 
ATOM      7  O   UNL     1      19.218   3.747  34.707  1.00  0.00    -0.285 OA
ATOM      8  C   UNL     1      19.452   6.044  34.866  1.00  0.00     0.111 A 
ATOM      9  C   UNL     1      19.512   8.474  35.068  1.00  0.00     0.094 A 
ATOM     10  C   UNL     1      20.739   6.077  34.272  1.00  0.00     0.134 A 
ATOM     11  C   UNL     1      20.780   8.501  34.479  1.00  0.00     0.123 A 
ATOM     12  C   UNL     1      21.387   7.307  34.085  1.00  0.00     0.093 A 
BRANCH   3  13
ATOM     13  C   UNL     1      15.624   6.302  36.710  1.00  0.00     0.025 A 
ATOM     14  C   UNL     1      14.444   6.403  35.954  1.00  0.00     0.016 A 
ATOM     15  C   UNL     1      13.206   6.530  36.589  1.00  0.00     0.051 A 
ATOM     16  C   UNL     1      13.128   6.539  37.988  1.00  0.00     0.157 A 
ATOM     17  C   UNL     1      15.539   6.287  38.111  1.00  0.00     0.062 A 
ATOM     18  C   UNL     1      14.301   6.413  38.752  1.00  0.00     0.158 A 
BRANCH  16  19
ATOM     19  O   UNL     1      11.893   6.672  38.619  1.00  0.00    -0.504 OA
ATOM     20  H   UNL     1      11.188   5.946  38.564  1.00  0.00     0.293 HD
ENDBRANCH  16  19
BRANCH  18  21
ATOM     21  O   UNL     1      14.256   6.411  40.146  1.00  0.00    -0.504 OA
ATOM     22  H   UNL     1      13.823   5.660  40.669  1.00  0.00     0.293 HD
ENDBRANCH  18  21
ENDBRANCH   3  13
BRANCH  10  23
ATOM     23  O   UNL     1      21.375   4.903  33.866  1.00  0.00    -0.507 OA
ATOM     24  H   UNL     1      21.168   4.465  32.976  1.00  0.00     0.293 HD
ENDBRANCH  10  23
BRANCH  11  25
ATOM     25  O   UNL     1      21.446   9.709  34.281  1.00  0.00    -0.508 OA
ATOM     26  H   UNL     1      22.404   9.841  34.583  1.00  0.00     0.293 HD
ENDBRANCH  11  25
ENDBRANCH   1   2
BRANCH   1  27
ATOM     27  C   UNL     1      16.468   3.023  37.076  1.00  0.00     0.339 C 
ATOM     28  C   UNL     1      17.779   3.143  37.908  1.00  0.00     0.214 C 
ATOM     29  O   UNL     1      16.161   1.677  36.736  1.00  0.00    -0.332 OA
ATOM     30  C   UNL     1      18.577   1.823  37.869  1.00  0.00     0.180 C 
ATOM     31  C   UNL     1      16.214   0.848  37.881  1.00  0.00     0.179 C 
ATOM     32  C   UNL     1      17.691   0.637  38.315  1.00  0.00     0.177 C 
BRANCH  28  33
ATOM     33  O   UNL     1      17.459   3.467  39.239  1.00  0.00    -0.384 OA
ATOM     34  H   UNL     1      16.689   2.896  39.498  1.00  0.00     0.211 HD
ENDBRANCH  28  33
BRANCH  30  35
ATOM     35  O   UNL     1      19.042   1.589  36.563  1.00  0.00    -0.387 OA
ATOM     36  H   UNL     1      18.271   1.252  36.038  1.00  0.00     0.211 HD
ENDBRANCH  30  35
BRANCH  31  37
ATOM     37  C   UNL     1      15.537  -0.491  37.557  1.00  0.00     0.191 C 
BRANCH  37  38
ATOM     38  O   UNL     1      15.720  -1.399  38.610  1.00  0.00    -0.394 OA
ATOM     39  H   UNL     1      15.355  -0.970  39.427  1.00  0.00     0.210 HD
ENDBRANCH  37  38
ENDBRANCH  31  37
BRANCH  32  40
ATOM     40  O   UNL     1      17.761   0.508  39.713  1.00  0.00    -0.387 OA
ATOM     41  H   UNL     1      18.651   0.124  39.924  1.00  0.00     0.211 HD
ENDBRANCH  32  40
ENDBRANCH   1  27
TORSDOF 12
ENDMDL
MODEL 3
REMARK VINA RESULT:    -5.628      9.308     11.392
REMARK INTER + INTRA:          -9.844
REMARK INTER:                  -8.559
REMARK INTRA:                  -1.285
REMARK UNBOUND:                -1.584
REMARK SMILES O=c1c(O[C@H]2O[C@@H](CO)[C@H](O)[C@@H](O)[C@@H]2O)c(-c2ccc(O)c(O)c2)oc2cc(O)cc(O)c12
REMARK SMILES IDX 4 1 3 2 16 3 25 4 2 5 26 6 1 7 33 8 27 9 31 10 28 11 30 12
REMARK SMILES IDX 17 13 18 14 19 15 20 16 24 17 22 18 21 19 23 21 32 23 29 25
REMARK SMILES IDX 5 27 14 28 6 29 12 30 7 31 10 32 15 33 13 35 8 37 9 38 11 40
REMARK H PARENT 21 20 23 22 32 24 29 26 15 34 13 36 9 39 11 41
REMARK Flexibility Score: inf
ROOT
ATOM      1  O   UNL     1      12.962  -3.507  25.086  1.00  0.00    -0.454 OA
ENDROOT
BRANCH   1   2
ATOM      2  C   UNL     1      13.235  -3.535  26.469  1.00  0.00     0.214 A 
ATOM      3  C   UNL     1      14.339  -4.292  26.911  1.00  0.00     0.180 A 
ATOM      4  O   UNL     1      14.599  -4.406  28.209  1.00  0.00    -0.452 OA
ATOM      5  C   UNL     1      12.443  -2.880  27.441  1.00  0.00     0.239 A 
ATOM      6  C   UNL     1      13.878  -3.814  29.151  1.00  0.00     0.146 A 
ATOM      7  O   UNL     1      11.443  -2.197  27.093  1.00  0.00    -0.285 OA
ATOM      8  C   UNL     1      12.767  -3.011  28.809  1.00  0.00     0.111 A 
ATOM      9  C   UNL     1      14.236  -3.991  30.491  1.00  0.00     0.094 A 
ATOM     10  C   UNL     1      12.024  -2.388  29.843  1.00  0.00     0.134 A 
ATOM     11  C   UNL     1      13.498  -3.376  31.506  1.00  0.00     0.123 A 
ATOM     12  C   UNL     1      12.399  -2.579  31.181  1.00  0.00     0.093 A 
BRANCH   3  13
ATOM     13  C   UNL     1      15.233  -4.990  25.959  1.00  0.00     0.025 A 
ATOM     14  C   UNL     1      15.117  -6.372  25.732  1.00  0.00     0.016 A 
ATOM     15  C   UNL     1      15.966  -7.013  24.825  1.00  0.00     0.051 A 
ATOM     16  C   UNL     1      16.930  -6.280  24.120  1.00  0.00     0.157 A 
ATOM     17  C   UNL     1      16.183  -4.255  25.233  1.00  0.00     0.062 A 
ATOM     18  C   UNL     1      17.035  -4.892  24.323  1.00  0.00     0.158 A 
BRANCH  16  19
ATOM     19  O   UNL     1      17.779  -6.922  23.221  1.00  0.00    -0.504 OA
ATOM     20  H   UNL     1      17.732  -7.922  23.068  1.00  0.00     0.293 HD
ENDBRANCH  16  19
BRANCH  18  21
ATOM     21  O   UNL     1      17.978  -4.133  23.632  1.00  0.00    -0.504 OA
ATOM     22  H   UNL     1      18.515  -3.401  24.083  1.00  0.00     0.293 HD
ENDBRANCH  18  21
ENDBRANCH   3  13
BRANCH  10  23
ATOM     23  O   UNL     1      10.920  -1.585  29.553  1.00  0.00    -0.507 OA
ATOM     24  H   UNL     1      10.846  -0.635  29.899  1.00  0.00     0.293 HD
ENDBRANCH  10  23
BRANCH  11  25
ATOM     25  O   UNL     1      13.848  -3.551  32.844  1.00  0.00    -0.508 OA
ATOM     26  H   UNL     1      14.818  -3.607  33.135  1.00  0.00     0.293 HD
ENDBRANCH  11  25
ENDBRANCH   1   2
BRANCH   1  27
ATOM     27  C   UNL     1      12.201  -4.453  24.336  1.00  0.00     0.339 C 
ATOM     28  C   UNL     1      12.943  -4.725  22.994  1.00  0.00     0.214 C 
ATOM     29  O   UNL     1      10.894  -3.929  24.139  1.00  0.00    -0.332 OA
ATOM     30  C   UNL     1      12.207  -4.054  21.815  1.00  0.00     0.180 C 
ATOM     31  C   UNL     1      10.173  -4.718  23.212  1.00  0.00     0.179 C 
ATOM     32  C   UNL     1      10.724  -4.490  21.777  1.00  0.00     0.177 C 
BRANCH  28  33
ATOM     33  O   UNL     1      13.023  -6.112  22.778  1.00  0.00    -0.384 OA
ATOM     34  H   UNL     1      12.834  -6.266  21.815  1.00  0.00     0.211 HD
ENDBRANCH  28  33
BRANCH  30  35
ATOM     35  O   UNL     1      12.277  -2.656  21.946  1.00  0.00    -0.387 OA
ATOM     36  H   UNL     1      12.900  -2.467  22.694  1.00  0.00     0.211 HD
ENDBRANCH  30  35
BRANCH  31  37
ATOM     37  C   UNL     1       8.685  -4.351  23.298  1.00  0.00     0.191 C 
BRANCH  37  38
ATOM     38  O   UNL     1       7.982  -5.323  24.025  1.00  0.00    -0.394 OA
ATOM     39  H   UNL     1       7.046  -5.307  23.695  1.00  0.00     0.210 HD
ENDBRANCH  37  38
ENDBRANCH  31  37
BRANCH  32  40
ATOM     40  O   UNL     1      10.609  -5.675  21.031  1.00  0.00    -0.387 OA
ATOM     41  H   UNL     1      11.456  -5.781  20.525  1.00  0.00     0.211 HD
ENDBRANCH  32  40
ENDBRANCH   1  27
TORSDOF 12
ENDMDL
MODEL 4
REMARK VINA RESULT:    -5.563     13.478     16.172
REMARK INTER + INTRA:          -9.749
REMARK INTER:                  -8.347
REMARK INTRA:                  -1.402
REMARK UNBOUND:                -1.584
REMARK SMILES O=c1c(O[C@H]2O[C@@H](CO)[C@H](O)[C@@H](O)[C@@H]2O)c(-c2ccc(O)c(O)c2)oc2cc(O)cc(O)c12
REMARK SMILES IDX 4 1 3 2 16 3 25 4 2 5 26 6 1 7 33 8 27 9 31 10 28 11 30 12
REMARK SMILES IDX 17 13 18 14 19 15 20 16 24 17 22 18 21 19 23 21 32 23 29 25
REMARK SMILES IDX 5 27 14 28 6 29 12 30 7 31 10 32 15 33 13 35 8 37 9 38 11 40
REMARK H PARENT 21 20 23 22 32 24 29 26 15 34 13 36 9 39 11 41
REMARK Flexibility Score: inf
ROOT
ATOM      1  O   UNL     1      16.829   4.433  35.611  1.00  0.00    -0.454 OA
ENDROOT
BRANCH   1   2
ATOM      2  C   UNL     1      17.949   3.990  36.345  1.00  0.00     0.214 A 
ATOM      3  C   UNL     1      19.213   4.513  36.002  1.00  0.00     0.180 A 
ATOM      4  O   UNL     1      20.308   4.079  36.617  1.00  0.00    -0.452 OA
ATOM      5  C   UNL     1      17.884   3.024  37.376  1.00  0.00     0.239 A 
ATOM      6  C   UNL     1      20.290   3.171  37.583  1.00  0.00     0.146 A 
ATOM      7  O   UNL     1      16.777   2.525  37.711  1.00  0.00    -0.285 OA
ATOM      8  C   UNL     1      19.069   2.606  38.017  1.00  0.00     0.111 A 
ATOM      9  C   UNL     1      21.497   2.783  38.172  1.00  0.00     0.094 A 
ATOM     10  C   UNL     1      19.089   1.643  39.056  1.00  0.00     0.134 A 
ATOM     11  C   UNL     1      21.510   1.831  39.195  1.00  0.00     0.123 A 
ATOM     12  C   UNL     1      20.311   1.266  39.633  1.00  0.00     0.093 A 
BRANCH   3  13
ATOM     13  C   UNL     1      19.369   5.545  34.952  1.00  0.00     0.025 A 
ATOM     14  C   UNL     1      19.525   5.190  33.601  1.00  0.00     0.016 A 
ATOM     15  C   UNL     1      19.664   6.177  32.622  1.00  0.00     0.051 A 
ATOM     16  C   UNL     1      19.631   7.532  32.976  1.00  0.00     0.157 A 
ATOM     17  C   UNL     1      19.311   6.903  35.299  1.00  0.00     0.062 A 
ATOM     18  C   UNL     1      19.450   7.896  34.322  1.00  0.00     0.158 A 
BRANCH  16  19
ATOM     19  O   UNL     1      19.776   8.515  31.999  1.00  0.00    -0.504 OA
ATOM     20  H   UNL     1      20.670   8.958  31.820  1.00  0.00     0.293 HD
ENDBRANCH  16  19
BRANCH  18  21
ATOM     21  O   UNL     1      19.405   9.236  34.706  1.00  0.00    -0.504 OA
ATOM     22  H   UNL     1      18.639   9.614  35.251  1.00  0.00     0.293 HD
ENDBRANCH  18  21
ENDBRANCH   3  13
BRANCH  10  23
ATOM     23  O   UNL     1      17.908   1.059  39.518  1.00  0.00    -0.507 OA
ATOM     24  H   UNL     1      17.256   1.566  40.106  1.00  0.00     0.293 HD
ENDBRANCH  10  23
BRANCH  11  25
ATOM     25  O   UNL     1      22.710   1.437  39.785  1.00  0.00    -0.508 OA
ATOM     26  H   UNL     1      23.503   1.144  39.225  1.00  0.00     0.293 HD
ENDBRANCH  11  25
ENDBRANCH   1   2
BRANCH   1  27
ATOM     27  C   UNL     1      16.060   5.614  35.836  1.00  0.00     0.339 C 
ATOM     28  C   UNL     1      16.229   6.033  37.326  1.00  0.00     0.214 C 
ATOM     29  O   UNL     1      14.706   5.344  35.497  1.00  0.00    -0.332 OA
ATOM     30  C   UNL     1      14.948   5.731  38.130  1.00  0.00     0.180 C 
ATOM     31  C   UNL     1      13.865   6.403  35.914  1.00  0.00     0.179 C 
ATOM     32  C   UNL     1      13.717   6.386  37.460  1.00  0.00     0.177 C 
BRANCH  28  33
ATOM     33  O   UNL     1      16.522   7.407  37.393  1.00  0.00    -0.384 OA
ATOM     34  H   UNL     1      17.492   7.487  37.591  1.00  0.00     0.211 HD
ENDBRANCH  28  33
BRANCH  30  35
ATOM     35  O   UNL     1      14.751   4.342  38.205  1.00  0.00    -0.387 OA
ATOM     36  H   UNL     1      13.785   4.178  38.045  1.00  0.00     0.211 HD
ENDBRANCH  30  35
BRANCH  31  37
ATOM     37  C   UNL     1      12.502   6.256  35.226  1.00  0.00     0.191 C 
BRANCH  37  38
ATOM     38  O   UNL     1      12.277   7.328  34.350  1.00  0.00    -0.394 OA
ATOM     39  H   UNL     1      12.897   8.055  34.621  1.00  0.00     0.210 HD
ENDBRANCH  37  38
ENDBRANCH  31  37
BRANCH  32  40
ATOM     40  O   UNL     1      13.575   7.700  37.938  1.00  0.00    -0.387 OA
ATOM     41  H   UNL     1      12.670   8.008  37.670  1.00  0.00     0.211 HD
ENDBRANCH  32  40
ENDBRANCH   1  27
TORSDOF 12
ENDMDL
MODEL 5
REMARK VINA RESULT:    -5.555      1.949      6.597
REMARK INTER + INTRA:          -9.737
REMARK INTER:                  -8.323
REMARK INTRA:                  -1.414
REMARK UNBOUND:                -1.584
REMARK SMILES O=c1c(O[C@H]2O[C@@H](CO)[C@H](O)[C@@H](O)[C@@H]2O)c(-c2ccc(O)c(O)c2)oc2cc(O)cc(O)c12
REMARK SMILES IDX 4 1 3 2 16 3 25 4 2 5 26 6 1 7 33 8 27 9 31 10 28 11 30 12
REMARK SMILES IDX 17 13 18 14 19 15 20 16 24 17 22 18 21 19 23 21 32 23 29 25
REMARK SMILES IDX 5 27 14 28 6 29 12 30 7 31 10 32 15 33 13 35 8 37 9 38 11 40
REMARK H PARENT 21 20 23 22 32 24 29 26 15 34 13 36 9 39 11 41
REMARK Flexibility Score: inf
ROOT
ATOM      1  O   UNL     1       8.554   4.475  26.428  1.00  0.00    -0.454 OA
ENDROOT
BRANCH   1   2
ATOM      2  C   UNL     1       7.466   3.895  25.745  1.00  0.00     0.214 A 
ATOM      3  C   UNL     1       6.174   4.393  26.013  1.00  0.00     0.180 A 
ATOM      4  O   UNL     1       5.109   3.836  25.447  1.00  0.00    -0.452 OA
ATOM      5  C   UNL     1       7.590   2.817  24.837  1.00  0.00     0.239 A 
ATOM      6  C   UNL     1       5.183   2.822  24.596  1.00  0.00     0.146 A 
ATOM      7  O   UNL     1       8.723   2.335  24.572  1.00  0.00    -0.285 OA
ATOM      8  C   UNL     1       6.434   2.268  24.242  1.00  0.00     0.111 A 
ATOM      9  C   UNL     1       4.002   2.308  24.049  1.00  0.00     0.094 A 
ATOM     10  C   UNL     1       6.473   1.189  23.324  1.00  0.00     0.134 A 
ATOM     11  C   UNL     1       4.048   1.242  23.147  1.00  0.00     0.123 A 
ATOM     12  C   UNL     1       5.278   0.688  22.788  1.00  0.00     0.093 A 
BRANCH   3  13
ATOM     13  C   UNL     1       5.956   5.533  26.932  1.00  0.00     0.025 A 
ATOM     14  C   UNL     1       5.836   6.847  26.446  1.00  0.00     0.016 A 
ATOM     15  C   UNL     1       5.624   7.909  27.328  1.00  0.00     0.051 A 
ATOM     16  C   UNL     1       5.512   7.674  28.704  1.00  0.00     0.157 A 
ATOM     17  C   UNL     1       5.818   5.298  28.309  1.00  0.00     0.062 A 
ATOM     18  C   UNL     1       5.605   6.360  29.196  1.00  0.00     0.158 A 
BRANCH  16  19
ATOM     19  O   UNL     1       5.306   8.736  29.583  1.00  0.00    -0.504 OA
ATOM     20  H   UNL     1       4.454   9.283  29.564  1.00  0.00     0.293 HD
ENDBRANCH  16  19
BRANCH  18  21
ATOM     21  O   UNL     1       5.490   6.090  30.559  1.00  0.00    -0.504 OA
ATOM     22  H   UNL     1       4.747   5.513  30.933  1.00  0.00     0.293 HD
ENDBRANCH  18  21
ENDBRANCH   3  13
BRANCH  10  23
ATOM     23  O   UNL     1       7.686   0.612  22.944  1.00  0.00    -0.507 OA
ATOM     24  H   UNL     1       7.857  -0.383  23.041  1.00  0.00     0.293 HD
ENDBRANCH  10  23
BRANCH  11  25
ATOM     25  O   UNL     1       2.875   0.723  22.600  1.00  0.00    -0.508 OA
ATOM     26  H   UNL     1       2.541  -0.202  22.845  1.00  0.00     0.293 HD
ENDBRANCH  11  25
ENDBRANCH   1   2
BRANCH   1  27
ATOM     27  C   UNL     1       9.249   5.674  26.087  1.00  0.00     0.339 C 
ATOM     28  C   UNL     1       9.022   5.959  24.573  1.00  0.00     0.214 C 
ATOM     29  O   UNL     1      10.624   5.507  26.410  1.00  0.00    -0.332 OA
ATOM     30  C   UNL     1      10.301   5.662  23.762  1.00  0.00     0.180 C 
ATOM     31  C   UNL     1      11.393   6.573  25.886  1.00  0.00     0.179 C 
ATOM     32  C   UNL     1      11.507   6.436  24.342  1.00  0.00     0.177 C 
BRANCH  28  33
ATOM     33  O   UNL     1       8.651   7.304  24.402  1.00  0.00    -0.384 OA
ATOM     34  H   UNL     1       9.488   7.822  24.279  1.00  0.00     0.211 HD
ENDBRANCH  28  33
BRANCH  30  35
ATOM     35  O   UNL     1      10.575   4.284  23.795  1.00  0.00    -0.387 OA
ATOM     36  H   UNL     1      11.544   4.187  23.984  1.00  0.00     0.211 HD
ENDBRANCH  30  35
BRANCH  31  37
ATOM     37  C   UNL     1      12.778   6.559  26.546  1.00  0.00     0.191 C 
BRANCH  37  38
ATOM     38  O   UNL     1      12.688   6.974  27.883  1.00  0.00    -0.394 OA
ATOM     39  H   UNL     1      12.752   7.965  27.880  1.00  0.00     0.210 HD
ENDBRANCH  37  38
ENDBRANCH  31  37
BRANCH  32  40
ATOM     40  O   UNL     1      11.563   7.712  23.755  1.00  0.00    -0.387 OA
ATOM     41  H   UNL     1      10.679   8.137  23.903  1.00  0.00     0.211 HD
ENDBRANCH  32  40
ENDBRANCH   1  27
TORSDOF 12
ENDMDL
MODEL 6
REMARK VINA RESULT:    -5.383      3.455      9.064
REMARK INTER + INTRA:          -9.484
REMARK INTER:                  -8.023
REMARK INTRA:                  -1.461
REMARK UNBOUND:                -1.584
REMARK SMILES O=c1c(O[C@H]2O[C@@H](CO)[C@H](O)[C@@H](O)[C@@H]2O)c(-c2ccc(O)c(O)c2)oc2cc(O)cc(O)c12
REMARK SMILES IDX 4 1 3 2 16 3 25 4 2 5 26 6 1 7 33 8 27 9 31 10 28 11 30 12
REMARK SMILES IDX 17 13 18 14 19 15 20 16 24 17 22 18 21 19 23 21 32 23 29 25
REMARK SMILES IDX 5 27 14 28 6 29 12 30 7 31 10 32 15 33 13 35 8 37 9 38 11 40
REMARK H PARENT 21 20 23 22 32 24 29 26 15 34 13 36 9 39 11 41
REMARK Flexibility Score: inf
ROOT
ATOM      1  O   UNL     1      12.540   5.796  23.492  1.00  0.00    -0.454 OA
ENDROOT
BRANCH   1   2
ATOM      2  C   UNL     1      13.199   5.455  24.690  1.00  0.00     0.214 A 
ATOM      3  C   UNL     1      12.408   5.134  25.812  1.00  0.00     0.180 A 
ATOM      4  O   UNL     1      12.979   4.872  26.983  1.00  0.00    -0.452 OA
ATOM      5  C   UNL     1      14.606   5.455  24.842  1.00  0.00     0.239 A 
ATOM      6  C   UNL     1      14.292   4.867  27.168  1.00  0.00     0.146 A 
ATOM      7  O   UNL     1      15.352   5.741  23.869  1.00  0.00    -0.285 OA
ATOM      8  C   UNL     1      15.171   5.150  26.099  1.00  0.00     0.111 A 
ATOM      9  C   UNL     1      14.796   4.573  28.439  1.00  0.00     0.094 A 
ATOM     10  C   UNL     1      16.569   5.129  26.334  1.00  0.00     0.134 A 
ATOM     11  C   UNL     1      16.176   4.557  28.665  1.00  0.00     0.123 A 
ATOM     12  C   UNL     1      17.055   4.833  27.616  1.00  0.00     0.093 A 
BRANCH   3  13
ATOM     13  C   UNL     1      10.930   5.089  25.734  1.00  0.00     0.025 A 
ATOM     14  C   UNL     1      10.247   3.872  25.573  1.00  0.00     0.016 A 
ATOM     15  C   UNL     1       8.852   3.848  25.508  1.00  0.00     0.051 A 
ATOM     16  C   UNL     1       8.119   5.036  25.621  1.00  0.00     0.157 A 
ATOM     17  C   UNL     1      10.192   6.275  25.872  1.00  0.00     0.062 A 
ATOM     18  C   UNL     1       8.794   6.255  25.809  1.00  0.00     0.158 A 
BRANCH  16  19
ATOM     19  O   UNL     1       6.727   5.011  25.550  1.00  0.00    -0.504 OA
ATOM     20  H   UNL     1       6.233   5.291  24.711  1.00  0.00     0.293 HD
ENDBRANCH  16  19
BRANCH  18  21
ATOM     21  O   UNL     1       8.093   7.455  25.932  1.00  0.00    -0.504 OA
ATOM     22  H   UNL     1       8.508   8.279  26.351  1.00  0.00     0.293 HD
ENDBRANCH  18  21
ENDBRANCH   3  13
BRANCH  10  23
ATOM     23  O   UNL     1      17.475   5.400  25.308  1.00  0.00    -0.507 OA
ATOM     24  H   UNL     1      18.293   5.980  25.458  1.00  0.00     0.293 HD
ENDBRANCH  10  23
BRANCH  11  25
ATOM     25  O   UNL     1      16.685   4.267  29.930  1.00  0.00    -0.508 OA
ATOM     26  H   UNL     1      17.526   4.715  30.277  1.00  0.00     0.293 HD
ENDBRANCH  11  25
ENDBRANCH   1   2
BRANCH   1  27
ATOM     27  C   UNL     1      12.196   7.104  23.036  1.00  0.00     0.339 C 
ATOM     28  C   UNL     1      12.431   7.165  21.498  1.00  0.00     0.214 C 
ATOM     29  O   UNL     1      12.983   8.053  23.745  1.00  0.00    -0.332 OA
ATOM     30  C   UNL     1      13.686   7.999  21.167  1.00  0.00     0.180 C 
ATOM     31  C   UNL     1      12.847   9.341  23.174  1.00  0.00     0.179 C 
ATOM     32  C   UNL     1      13.596   9.401  21.814  1.00  0.00     0.177 C 
BRANCH  28  33
ATOM     33  O   UNL     1      11.304   7.731  20.875  1.00  0.00    -0.384 OA
ATOM     34  H   UNL     1      10.660   6.993  20.716  1.00  0.00     0.211 HD
ENDBRANCH  28  33
BRANCH  30  35
ATOM     35  O   UNL     1      14.832   7.341  21.644  1.00  0.00    -0.387 OA
ATOM     36  H   UNL     1      14.649   7.088  22.586  1.00  0.00     0.211 HD
ENDBRANCH  30  35
BRANCH  31  37
ATOM     37  C   UNL     1      13.402  10.381  24.156  1.00  0.00     0.191 C 
BRANCH  37  38
ATOM     38  O   UNL     1      14.709  10.742  23.800  1.00  0.00    -0.394 OA
ATOM     39  H   UNL     1      14.721  10.839  22.812  1.00  0.00     0.210 HD
ENDBRANCH  37  38
ENDBRANCH  31  37
BRANCH  32  40
ATOM     40  O   UNL     1      12.922  10.271  20.939  1.00  0.00    -0.387 OA
ATOM     41  H   UNL     1      12.927  11.168  21.363  1.00  0.00     0.211 HD
ENDBRANCH  32  40
ENDBRANCH   1  27
TORSDOF 12
ENDMDL
MODEL 7
REMARK VINA RESULT:    -5.377     12.354     15.118
REMARK INTER + INTRA:          -9.476
REMARK INTER:                  -8.056
REMARK INTRA:                  -1.420
REMARK UNBOUND:                -1.584
REMARK SMILES O=c1c(O[C@H]2O[C@@H](CO)[C@H](O)[C@@H](O)[C@@H]2O)c(-c2ccc(O)c(O)c2)oc2cc(O)cc(O)c12
REMARK SMILES IDX 4 1 3 2 16 3 25 4 2 5 26 6 1 7 33 8 27 9 31 10 28 11 30 12
REMARK SMILES IDX 17 13 18 14 19 15 20 16 24 17 22 18 21 19 23 21 32 23 29 25
REMARK SMILES IDX 5 27 14 28 6 29 12 30 7 31 10 32 15 33 13 35 8 37 9 38 11 40
REMARK H PARENT 21 20 23 22 32 24 29 26 15 34 13 36 9 39 11 41
REMARK Flexibility Score: inf
ROOT
ATOM      1  O   UNL     1      13.468   6.946  37.721  1.00  0.00    -0.454 OA
ENDROOT
BRANCH   1   2
ATOM      2  C   UNL     1      14.065   5.725  37.349  1.00  0.00     0.214 A 
ATOM      3  C   UNL     1      13.450   4.972  36.328  1.00  0.00     0.180 A 
ATOM      4  O   UNL     1      13.933   3.782  35.986  1.00  0.00    -0.452 OA
ATOM      5  C   UNL     1      15.221   5.192  37.966  1.00  0.00     0.239 A 
ATOM      6  C   UNL     1      15.010   3.246  36.543  1.00  0.00     0.146 A 
ATOM      7  O   UNL     1      15.801   5.827  38.886  1.00  0.00    -0.285 OA
ATOM      8  C   UNL     1      15.714   3.934  37.558  1.00  0.00     0.111 A 
ATOM      9  C   UNL     1      15.443   1.989  36.110  1.00  0.00     0.094 A 
ATOM     10  C   UNL     1      16.864   3.332  38.126  1.00  0.00     0.134 A 
ATOM     11  C   UNL     1      16.578   1.400  36.676  1.00  0.00     0.123 A 
ATOM     12  C   UNL     1      17.283   2.070  37.678  1.00  0.00     0.093 A 
BRANCH   3  13
ATOM     13  C   UNL     1      12.250   5.465  35.614  1.00  0.00     0.025 A 
ATOM     14  C   UNL     1      10.986   4.890  35.831  1.00  0.00     0.016 A 
ATOM     15  C   UNL     1       9.864   5.372  35.153  1.00  0.00     0.051 A 
ATOM     16  C   UNL     1       9.985   6.448  34.263  1.00  0.00     0.157 A 
ATOM     17  C   UNL     1      12.363   6.558  34.741  1.00  0.00     0.062 A 
ATOM     18  C   UNL     1      11.241   7.046  34.060  1.00  0.00     0.158 A 
BRANCH  16  19
ATOM     19  O   UNL     1       8.865   6.924  33.583  1.00  0.00    -0.504 OA
ATOM     20  H   UNL     1       8.913   7.746  32.993  1.00  0.00     0.293 HD
ENDBRANCH  16  19
BRANCH  18  21
ATOM     21  O   UNL     1      11.394   8.123  33.187  1.00  0.00    -0.504 OA
ATOM     22  H   UNL     1      11.515   9.072  33.519  1.00  0.00     0.293 HD
ENDBRANCH  18  21
ENDBRANCH   3  13
BRANCH  10  23
ATOM     23  O   UNL     1      17.592   3.975  39.128  1.00  0.00    -0.507 OA
ATOM     24  H   UNL     1      17.185   4.711  39.694  1.00  0.00     0.293 HD
ENDBRANCH  10  23
BRANCH  11  25
ATOM     25  O   UNL     1      17.014   0.146  36.251  1.00  0.00    -0.508 OA
ATOM     26  H   UNL     1      17.113  -0.074  35.266  1.00  0.00     0.293 HD
ENDBRANCH  11  25
ENDBRANCH   1   2
BRANCH   1  27
ATOM     27  C   UNL     1      12.802   7.245  38.947  1.00  0.00     0.339 C 
ATOM     28  C   UNL     1      11.435   6.500  38.957  1.00  0.00     0.214 C 
ATOM     29  O   UNL     1      12.654   8.655  39.051  1.00  0.00    -0.332 OA
ATOM     30  C   UNL     1      10.270   7.489  38.743  1.00  0.00     0.180 C 
ATOM     31  C   UNL     1      11.804   8.990  40.131  1.00  0.00     0.179 C 
ATOM     32  C   UNL     1      10.332   8.637  39.778  1.00  0.00     0.177 C 
BRANCH  28  33
ATOM     33  O   UNL     1      11.275   5.833  40.184  1.00  0.00    -0.384 OA
ATOM     34  H   UNL     1      11.188   4.865  39.979  1.00  0.00     0.211 HD
ENDBRANCH  28  33
BRANCH  30  35
ATOM     35  O   UNL     1      10.336   8.028  37.447  1.00  0.00    -0.387 OA
ATOM     36  H   UNL     1       9.742   8.823  37.435  1.00  0.00     0.211 HD
ENDBRANCH  30  35
BRANCH  31  37
ATOM     37  C   UNL     1      11.954  10.487  40.437  1.00  0.00     0.191 C 
BRANCH  37  38
ATOM     38  O   UNL     1      10.714  11.043  40.783  1.00  0.00    -0.394 OA
ATOM     39  H   UNL     1      10.032  10.337  40.637  1.00  0.00     0.210 HD
ENDBRANCH  37  38
ENDBRANCH  31  37
BRANCH  32  40
ATOM     40  O   UNL     1       9.645   8.249  40.941  1.00  0.00    -0.387 OA
ATOM     41  H   UNL     1       8.708   8.559  40.839  1.00  0.00     0.211 HD
ENDBRANCH  32  40
ENDBRANCH   1  27
TORSDOF 12
ENDMDL
MODEL 8
REMARK VINA RESULT:    -5.339     11.703     13.567
REMARK INTER + INTRA:          -9.420
REMARK INTER:                  -8.308
REMARK INTRA:                  -1.112
REMARK UNBOUND:                -1.584
REMARK SMILES O=c1c(O[C@H]2O[C@@H](CO)[C@H](O)[C@@H](O)[C@@H]2O)c(-c2ccc(O)c(O)c2)oc2cc(O)cc(O)c12
REMARK SMILES IDX 4 1 3 2 16 3 25 4 2 5 26 6 1 7 33 8 27 9 31 10 28 11 30 12
REMARK SMILES IDX 17 13 18 14 19 15 20 16 24 17 22 18 21 19 23 21 32 23 29 25
REMARK SMILES IDX 5 27 14 28 6 29 12 30 7 31 10 32 15 33 13 35 8 37 9 38 11 40
REMARK H PARENT 21 20 23 22 32 24 29 26 15 34 13 36 9 39 11 41
REMARK Flexibility Score: inf
ROOT
ATOM      1  O   UNL     1      13.797   5.935  36.264  1.00  0.00    -0.454 OA
ENDROOT
BRANCH   1   2
ATOM      2  C   UNL     1      12.487   5.873  35.749  1.00  0.00     0.214 A 
ATOM      3  C   UNL     1      11.496   6.664  36.366  1.00  0.00     0.180 A 
ATOM      4  O   UNL     1      10.232   6.591  35.963  1.00  0.00    -0.452 OA
ATOM      5  C   UNL     1      12.100   5.036  34.676  1.00  0.00     0.239 A 
ATOM      6  C   UNL     1       9.828   5.816  34.966  1.00  0.00     0.146 A 
ATOM      7  O   UNL     1      12.950   4.308  34.099  1.00  0.00    -0.285 OA
ATOM      8  C   UNL     1      10.750   5.005  34.266  1.00  0.00     0.111 A 
ATOM      9  C   UNL     1       8.475   5.814  34.613  1.00  0.00     0.094 A 
ATOM     10  C   UNL     1      10.283   4.194  33.202  1.00  0.00     0.134 A 
ATOM     11  C   UNL     1       8.020   5.010  33.564  1.00  0.00     0.123 A 
ATOM     12  C   UNL     1       8.922   4.206  32.864  1.00  0.00     0.093 A 
BRANCH   3  13
ATOM     13  C   UNL     1      11.818   7.585  37.480  1.00  0.00     0.025 A 
ATOM     14  C   UNL     1      11.931   8.970  37.270  1.00  0.00     0.016 A 
ATOM     15  C   UNL     1      12.229   9.824  38.334  1.00  0.00     0.051 A 
ATOM     16  C   UNL     1      12.401   9.310  39.626  1.00  0.00     0.157 A 
ATOM     17  C   UNL     1      11.965   7.076  38.780  1.00  0.00     0.062 A 
ATOM     18  C   UNL     1      12.264   7.928  39.849  1.00  0.00     0.158 A 
BRANCH  16  19
ATOM     19  O   UNL     1      12.704  10.163  40.686  1.00  0.00    -0.504 OA
ATOM     20  H   UNL     1      12.808   9.818  41.632  1.00  0.00     0.293 HD
ENDBRANCH  16  19
BRANCH  18  21
ATOM     21  O   UNL     1      12.421   7.386  41.124  1.00  0.00    -0.504 OA
ATOM     22  H   UNL     1      12.934   6.527  41.284  1.00  0.00     0.293 HD
ENDBRANCH  18  21
ENDBRANCH   3  13
BRANCH  10  23
ATOM     23  O   UNL     1      11.157   3.379  32.481  1.00  0.00    -0.507 OA
ATOM     24  H   UNL     1      11.031   3.206  31.490  1.00  0.00     0.293 HD
ENDBRANCH  10  23
BRANCH  11  25
ATOM     25  O   UNL     1       6.673   5.001  33.208  1.00  0.00    -0.508 OA
ATOM     26  H   UNL     1       5.949   5.262  33.869  1.00  0.00     0.293 HD
ENDBRANCH  11  25
ENDBRANCH   1   2
BRANCH   1  27
ATOM     27  C   UNL     1      14.339   5.173  37.343  1.00  0.00     0.339 C 
ATOM     28  C   UNL     1      15.589   5.922  37.892  1.00  0.00     0.214 C 
ATOM     29  O   UNL     1      14.651   3.870  36.866  1.00  0.00    -0.332 OA
ATOM     30  C   UNL     1      16.888   5.198  37.480  1.00  0.00     0.180 C 
ATOM     31  C   UNL     1      15.398   3.151  37.829  1.00  0.00     0.179 C 
ATOM     32  C   UNL     1      16.844   3.713  37.908  1.00  0.00     0.177 C 
BRANCH  28  33
ATOM     33  O   UNL     1      15.509   5.996  39.294  1.00  0.00    -0.384 OA
ATOM     34  H   UNL     1      16.243   5.433  39.656  1.00  0.00     0.211 HD
ENDBRANCH  28  33
BRANCH  30  35
ATOM     35  O   UNL     1      17.051   5.275  36.086  1.00  0.00    -0.387 OA
ATOM     36  H   UNL     1      16.863   6.213  35.825  1.00  0.00     0.211 HD
ENDBRANCH  30  35
BRANCH  31  37
ATOM     37  C   UNL     1      15.402   1.665  37.446  1.00  0.00     0.191 C 
BRANCH  37  38
ATOM     38  O   UNL     1      15.610   0.868  38.581  1.00  0.00    -0.394 OA
ATOM     39  H   UNL     1      15.466   1.450  39.371  1.00  0.00     0.210 HD
ENDBRANCH  37  38
ENDBRANCH  31  37
BRANCH  32  40
ATOM     40  O   UNL     1      17.328   3.596  39.222  1.00  0.00    -0.387 OA
ATOM     41  H   UNL     1      18.248   3.232  39.161  1.00  0.00     0.211 HD
ENDBRANCH  32  40
ENDBRANCH   1  27
TORSDOF 12
ENDMDL
MODEL 9
REMARK VINA RESULT:    -5.182      3.628      8.359
REMARK INTER + INTRA:          -9.189
REMARK INTER:                  -7.792
REMARK INTRA:                  -1.397
REMARK UNBOUND:                -1.584
REMARK SMILES O=c1c(O[C@H]2O[C@@H](CO)[C@H](O)[C@@H](O)[C@@H]2O)c(-c2ccc(O)c(O)c2)oc2cc(O)cc(O)c12
REMARK SMILES IDX 4 1 3 2 16 3 25 4 2 5 26 6 1 7 33 8 27 9 31 10 28 11 30 12
REMARK SMILES IDX 17 13 18 14 19 15 20 16 24 17 22 18 21 19 23 21 32 23 29 25
REMARK SMILES IDX 5 27 14 28 6 29 12 30 7 31 10 32 15 33 13 35 8 37 9 38 11 40
REMARK H PARENT 21 20 23 22 32 24 29 26 15 34 13 36 9 39 11 41
REMARK Flexibility Score: inf
ROOT
ATOM      1  O   UNL     1      12.758   5.291  24.794  1.00  0.00    -0.454 OA
ENDROOT
BRANCH   1   2
ATOM      2  C   UNL     1      12.962   4.734  26.072  1.00  0.00     0.214 A 
ATOM      3  C   UNL     1      11.842   4.217  26.755  1.00  0.00     0.180 A 
ATOM      4  O   UNL     1      11.969   3.742  27.990  1.00  0.00    -0.452 OA
ATOM      5  C   UNL     1      14.216   4.700  26.726  1.00  0.00     0.239 A 
ATOM      6  C   UNL     1      13.124   3.697  28.638  1.00  0.00     0.146 A 
ATOM      7  O   UNL     1      15.243   5.156  26.157  1.00  0.00    -0.285 OA
ATOM      8  C   UNL     1      14.310   4.167  28.030  1.00  0.00     0.111 A 
ATOM      9  C   UNL     1      13.154   3.174  29.935  1.00  0.00     0.094 A 
ATOM     10  C   UNL     1      15.527   4.097  28.752  1.00  0.00     0.134 A 
ATOM     11  C   UNL     1      14.358   3.110  30.643  1.00  0.00     0.123 A 
ATOM     12  C   UNL     1      15.536   3.570  30.051  1.00  0.00     0.093 A 
BRANCH   3  13
ATOM     13  C   UNL     1      10.497   4.193  26.136  1.00  0.00     0.025 A 
ATOM     14  C   UNL     1       9.514   5.131  26.495  1.00  0.00     0.016 A 
ATOM     15  C   UNL     1       8.252   5.097  25.895  1.00  0.00     0.051 A 
ATOM     16  C   UNL     1       7.961   4.138  24.916  1.00  0.00     0.157 A 
ATOM     17  C   UNL     1      10.210   3.249  25.137  1.00  0.00     0.062 A 
ATOM     18  C   UNL     1       8.948   3.212  24.533  1.00  0.00     0.158 A 
BRANCH  16  19
ATOM     19  O   UNL     1       6.700   4.102  24.324  1.00  0.00    -0.504 OA
ATOM     20  H   UNL     1       5.864   3.918  24.865  1.00  0.00     0.293 HD
ENDBRANCH  16  19
BRANCH  18  21
ATOM     21  O   UNL     1       8.692   2.250  23.557  1.00  0.00    -0.504 OA
ATOM     22  H   UNL     1       7.751   2.031  23.250  1.00  0.00     0.293 HD
ENDBRANCH  18  21
ENDBRANCH   3  13
BRANCH  10  23
ATOM     23  O   UNL     1      16.723   4.548  28.191  1.00  0.00    -0.507 OA
ATOM     24  H   UNL     1      17.214   5.355  28.559  1.00  0.00     0.293 HD
ENDBRANCH  10  23
BRANCH  11  25
ATOM     25  O   UNL     1      14.395   2.592  31.936  1.00  0.00    -0.508 OA
ATOM     26  H   UNL     1      14.969   3.012  32.658  1.00  0.00     0.293 HD
ENDBRANCH  11  25
ENDBRANCH   1   2
BRANCH   1  27
ATOM     27  C   UNL     1      12.212   6.573  24.486  1.00  0.00     0.339 C 
ATOM     28  C   UNL     1      11.291   6.428  23.239  1.00  0.00     0.214 C 
ATOM     29  O   UNL     1      13.285   7.482  24.268  1.00  0.00    -0.332 OA
ATOM     30  C   UNL     1      11.957   7.044  21.991  1.00  0.00     0.180 C 
ATOM     31  C   UNL     1      12.805   8.704  23.740  1.00  0.00     0.179 C 
ATOM     32  C   UNL     1      12.373   8.509  22.260  1.00  0.00     0.177 C 
BRANCH  28  33
ATOM     33  O   UNL     1      10.064   7.067  23.489  1.00  0.00    -0.384 OA
ATOM     34  H   UNL     1       9.920   7.716  22.751  1.00  0.00     0.211 HD
ENDBRANCH  28  33
BRANCH  30  35
ATOM     35  O   UNL     1      13.094   6.296  21.642  1.00  0.00    -0.387 OA
ATOM     36  H   UNL     1      13.362   5.785  22.449  1.00  0.00     0.211 HD
ENDBRANCH  30  35
BRANCH  31  37
ATOM     37  C   UNL     1      13.908   9.764  23.858  1.00  0.00     0.191 C 
BRANCH  37  38
ATOM     38  O   UNL     1      14.181  10.329  22.604  1.00  0.00    -0.394 OA
ATOM     39  H   UNL     1      15.156  10.226  22.448  1.00  0.00     0.210 HD
ENDBRANCH  37  38
ENDBRANCH  31  37
BRANCH  32  40
ATOM     40  O   UNL     1      11.291   9.357  21.966  1.00  0.00    -0.387 OA
ATOM     41  H   UNL     1      10.659   9.294  22.728  1.00  0.00     0.211 HD
ENDBRANCH  32  40
ENDBRANCH   1  27
TORSDOF 12
ENDMDL
