MODEL 1
REMARK VINA RESULT:     5.592      0.000      0.000
REMARK INTER + INTRA:           7.326
REMARK INTER:                   7.553
REMARK INTRA:                  -0.227
REMARK UNBOUND:                -0.227
REMARK SMILES CCCCCCCC(=O)[O-]
REMARK SMILES IDX 5 1 6 2 7 3 8 4 9 5 10 6 4 7 3 8 2 9 1 10
REMARK H PARENT
REMARK Flexibility Score: inf
ROOT
ATOM      1  C   UNL     1      -9.403 -17.555  28.328  1.00  0.00     0.000 C 
ENDROOT
BRANCH   1   2
ATOM      2  C   UNL     1      -8.539 -17.684  27.063  1.00  0.00     0.006 C 
BRANCH   2   3
ATOM      3  C   UNL     1      -7.183 -16.999  27.254  1.00  0.00     0.053 C 
BRANCH   3   4
ATOM      4  C   UNL     1      -6.074 -17.898  26.805  1.00  0.00     0.041 C 
ATOM      5  O   UNL     1      -4.947 -17.842  27.364  1.00  0.00    -0.550 OA
ATOM      6  O   UNL     1      -6.271 -18.764  25.736  1.00  0.00    -0.550 OA
ENDBRANCH   3   4
ENDBRANCH   2   3
ENDBRANCH   1   2
BRANCH   1   7
ATOM      7  C   UNL     1      -8.563 -17.473  29.613  1.00  0.00     0.000 C 
BRANCH   7   8
ATOM      8  C   UNL     1      -9.409 -17.636  30.884  1.00  0.00    -0.000 C 
BRANCH   8   9
ATOM      9  C   UNL     1      -8.517 -17.757  32.125  1.00  0.00    -0.003 C 
ATOM     10  C   UNL     1      -7.424 -16.693  32.125  1.00  0.00     0.004 C 
ENDBRANCH   8   9
ENDBRANCH   7   8
ENDBRANCH   1   7
TORSDOF 6
ENDMDL
MODEL 2
REMARK VINA RESULT:     6.712      1.492      2.051
REMARK INTER + INTRA:           8.839
REMARK INTER:                   8.839
REMARK INTRA:                   0.000
REMARK UNBOUND:                -0.227
REMARK SMILES CCCCCCCC(=O)[O-]
REMARK SMILES IDX 5 1 6 2 7 3 8 4 9 5 10 6 4 7 3 8 2 9 1 10
REMARK H PARENT
REMARK Flexibility Score: inf
ROOT
ATOM      1  C   UNL     1      -8.863 -17.492  29.591  1.00  0.00     0.000 C 
ENDROOT
BRANCH   1   2
ATOM      2  C   UNL     1      -9.694 -18.013  28.408  1.00  0.00     0.006 C 
BRANCH   2   3
ATOM      3  C   UNL     1      -8.799 -18.324  27.205  1.00  0.00     0.053 C 
BRANCH   3   4
ATOM      4  C   UNL     1      -7.772 -17.253  27.024  1.00  0.00     0.041 C 
ATOM      5  O   UNL     1      -6.545 -17.538  27.059  1.00  0.00    -0.550 OA
ATOM      6  O   UNL     1      -8.167 -15.930  26.866  1.00  0.00    -0.550 OA
ENDBRANCH   3   4
ENDBRANCH   2   3
ENDBRANCH   1   2
BRANCH   1   7
ATOM      7  C   UNL     1      -9.647 -17.494  30.913  1.00  0.00     0.000 C 
BRANCH   7   8
ATOM      8  C   UNL     1      -8.766 -17.156  32.125  1.00  0.00    -0.000 C 
BRANCH   8   9
ATOM      9  C   UNL     1      -7.413 -17.870  32.034  1.00  0.00    -0.003 C 
ATOM     10  C   UNL     1      -7.580 -19.384  32.125  1.00  0.00     0.004 C 
ENDBRANCH   8   9
ENDBRANCH   7   8
ENDBRANCH   1   7
TORSDOF 6
ENDMDL
MODEL 3
REMARK VINA RESULT:     6.831      3.584      6.613
REMARK INTER + INTRA:           9.000
REMARK INTER:                   9.092
REMARK INTRA:                  -0.092
REMARK UNBOUND:                -0.227
REMARK SMILES CCCCCCCC(=O)[O-]
REMARK SMILES IDX 5 1 6 2 7 3 8 4 9 5 10 6 4 7 3 8 2 9 1 10
REMARK H PARENT
REMARK Flexibility Score: inf
ROOT
ATOM      1  C   UNL     1      -5.910 -18.511  25.621  1.00  0.00     0.000 C 
ENDROOT
BRANCH   1   2
ATOM      2  C   UNL     1      -7.287 -17.881  25.882  1.00  0.00     0.006 C 
BRANCH   2   3
ATOM      3  C   UNL     1      -7.351 -17.264  27.282  1.00  0.00     0.053 C 
BRANCH   3   4
ATOM      4  C   UNL     1      -8.769 -17.163  27.746  1.00  0.00     0.041 C 
ATOM      5  O   UNL     1      -9.256 -18.051  28.494  1.00  0.00    -0.550 OA
ATOM      6  O   UNL     1      -9.569 -16.111  27.314  1.00  0.00    -0.550 OA
ENDBRANCH   3   4
ENDBRANCH   2   3
ENDBRANCH   1   2
BRANCH   1   7
ATOM      7  C   UNL     1      -5.591 -18.637  24.123  1.00  0.00     0.000 C 
BRANCH   7   8
ATOM      8  C   UNL     1      -4.227 -19.294  23.861  1.00  0.00    -0.000 C 
BRANCH   8   9
ATOM      9  C   UNL     1      -4.326 -20.332  22.738  1.00  0.00    -0.003 C 
ATOM     10  C   UNL     1      -2.945 -20.836  22.328  1.00  0.00     0.004 C 
ENDBRANCH   8   9
ENDBRANCH   7   8
ENDBRANCH   1   7
TORSDOF 6
ENDMDL
MODEL 4
REMARK VINA RESULT:     6.914      2.243      3.780
REMARK INTER + INTRA:           9.112
REMARK INTER:                   9.200
REMARK INTRA:                  -0.089
REMARK UNBOUND:                -0.227
REMARK SMILES CCCCCCCC(=O)[O-]
REMARK SMILES IDX 5 1 6 2 7 3 8 4 9 5 10 6 4 7 3 8 2 9 1 10
REMARK H PARENT
REMARK Flexibility Score: inf
ROOT
ATOM      1  C   UNL     1      -9.022 -17.558  28.080  1.00  0.00     0.000 C 
ENDROOT
BRANCH   1   2
ATOM      2  C   UNL     1      -7.637 -17.114  27.581  1.00  0.00     0.006 C 
BRANCH   2   3
ATOM      3  C   UNL     1      -7.311 -17.754  26.228  1.00  0.00     0.053 C 
BRANCH   3   4
ATOM      4  C   UNL     1      -5.894 -18.230  26.202  1.00  0.00     0.041 C 
ATOM      5  O   UNL     1      -5.492 -18.973  25.268  1.00  0.00    -0.550 OA
ATOM      6  O   UNL     1      -5.027 -17.891  27.234  1.00  0.00    -0.550 OA
ENDBRANCH   3   4
ENDBRANCH   2   3
ENDBRANCH   1   2
BRANCH   1   7
ATOM      7  C   UNL     1     -10.102 -16.487  27.858  1.00  0.00     0.000 C 
BRANCH   7   8
ATOM      8  C   UNL     1      -9.637 -15.360  26.924  1.00  0.00    -0.000 C 
BRANCH   8   9
ATOM      9  C   UNL     1     -10.836 -14.619  26.320  1.00  0.00    -0.003 C 
ATOM     10  C   UNL     1     -10.928 -13.192  26.852  1.00  0.00     0.004 C 
ENDBRANCH   8   9
ENDBRANCH   7   8
ENDBRANCH   1   7
TORSDOF 6
ENDMDL
