MODEL 1
REMARK VINA RESULT:    -0.478      0.000      0.000
REMARK INTER + INTRA:          -0.884
REMARK INTER:                  -0.575
REMARK INTRA:                  -0.308
REMARK UNBOUND:                -0.308
REMARK SMILES Oc1cc(O)c2cc(O)c(-c3ccc(O)c(O)c3)[o+]c2c1.[Cl-]
REMARK SMILES IDX 10 1 19 2 20 3 21 4 2 5 3 6 4 7 6 8 7 9 8 10 11 11 12 12
REMARK SMILES IDX 13 13 14 14 18 15 16 16 15 17 17 19 9 21 1 23 5 25
REMARK H PARENT 15 18 17 20 9 22 1 24 5 26
REMARK Flexibility Score: inf
ROOT
ATOM      1  C   UNL     1      13.179  -9.965 -28.001  1.00  0.00     0.402 A 
ATOM      2  O   UNL     1      12.196 -10.572 -28.662  1.00  0.00    -0.202 OA
ATOM      3  C   UNL     1      11.777 -11.800 -28.380  1.00  0.00     0.368 A 
ATOM      4  C   UNL     1      10.735 -12.353 -29.130  1.00  0.00     0.162 A 
ATOM      5  C   UNL     1      10.273 -13.642 -28.852  1.00  0.00     0.128 A 
ATOM      6  C   UNL     1      10.854 -14.382 -27.820  1.00  0.00     0.093 A 
ATOM      7  C   UNL     1      11.899 -13.852 -27.054  1.00  0.00     0.136 A 
ATOM      8  C   UNL     1      12.373 -12.545 -27.333  1.00  0.00     0.125 A 
ATOM      9  C   UNL     1      13.425 -11.937 -26.627  1.00  0.00     0.078 A 
ATOM     10  C   UNL     1      13.843 -10.646 -26.963  1.00  0.00     0.223 A 
ENDROOT
BRANCH   1  11
ATOM     11  C   UNL     1      13.549  -8.590 -28.403  1.00  0.00     0.087 A 
ATOM     12  C   UNL     1      12.787  -7.506 -27.939  1.00  0.00     0.022 A 
ATOM     13  C   UNL     1      13.130  -6.198 -28.289  1.00  0.00     0.051 A 
ATOM     14  C   UNL     1      14.249  -5.952 -29.095  1.00  0.00     0.157 A 
ATOM     15  C   UNL     1      14.683  -8.337 -29.196  1.00  0.00     0.068 A 
ATOM     16  C   UNL     1      15.032  -7.028 -29.546  1.00  0.00     0.158 A 
BRANCH  14  17
ATOM     17  O   UNL     1      14.588  -4.646 -29.445  1.00  0.00    -0.504 OA
ATOM     18  H   UNL     1      14.289  -4.236 -30.323  1.00  0.00     0.293 HD
ENDBRANCH  14  17
BRANCH  16  19
ATOM     19  O   UNL     1      16.160  -6.816 -30.337  1.00  0.00    -0.504 OA
ATOM     20  H   UNL     1      16.616  -7.568 -30.839  1.00  0.00     0.293 HD
ENDBRANCH  16  19
ENDBRANCH   1  11
BRANCH  10  21
ATOM     21  O   UNL     1      14.919 -10.063 -26.295  1.00  0.00    -0.500 OA
ATOM     22  H   UNL     1      15.848 -10.465 -26.328  1.00  0.00     0.294 HD
ENDBRANCH  10  21
BRANCH   5  23
ATOM     23  O   UNL     1       9.234 -14.198 -29.595  1.00  0.00    -0.507 OA
ATOM     24  H   UNL     1       8.456 -14.671 -29.149  1.00  0.00     0.293 HD
ENDBRANCH   5  23
BRANCH   7  25
ATOM     25  O   UNL     1      12.423 -14.656 -26.037  1.00  0.00    -0.507 OA
ATOM     26  H   UNL     1      13.371 -14.594 -25.693  1.00  0.00     0.293 HD
ENDBRANCH   7  25
TORSDOF 6
ENDMDL
MODEL 2
REMARK VINA RESULT:     0.215      1.791      2.785
REMARK INTER + INTRA:          -0.050
REMARK INTER:                   0.109
REMARK INTRA:                  -0.159
REMARK UNBOUND:                -0.308
REMARK SMILES Oc1cc(O)c2cc(O)c(-c3ccc(O)c(O)c3)[o+]c2c1.[Cl-]
REMARK SMILES IDX 10 1 19 2 20 3 21 4 2 5 3 6 4 7 6 8 7 9 8 10 11 11 12 12
REMARK SMILES IDX 13 13 14 14 18 15 16 16 15 17 17 19 9 21 1 23 5 25
REMARK H PARENT 15 18 17 20 9 22 1 24 5 26
REMARK Flexibility Score: inf
ROOT
ATOM      1  C   UNL     1      12.456  -9.935 -27.869  1.00  0.00     0.402 A 
ATOM      2  O   UNL     1      12.204 -10.080 -26.570  1.00  0.00    -0.202 OA
ATOM      3  C   UNL     1      11.686 -11.185 -26.046  1.00  0.00     0.368 A 
ATOM      4  C   UNL     1      11.459 -11.244 -24.669  1.00  0.00     0.162 A 
ATOM      5  C   UNL     1      10.918 -12.396 -24.092  1.00  0.00     0.128 A 
ATOM      6  C   UNL     1      10.601 -13.493 -24.895  1.00  0.00     0.093 A 
ATOM      7  C   UNL     1      10.817 -13.460 -26.278  1.00  0.00     0.136 A 
ATOM      8  C   UNL     1      11.365 -12.293 -26.869  1.00  0.00     0.125 A 
ATOM      9  C   UNL     1      11.604 -12.164 -28.247  1.00  0.00     0.078 A 
ATOM     10  C   UNL     1      12.141 -10.979 -28.759  1.00  0.00     0.223 A 
ENDROOT
BRANCH   1  11
ATOM     11  C   UNL     1      13.045  -8.658 -28.330  1.00  0.00     0.087 A 
ATOM     12  C   UNL     1      12.398  -7.449 -28.026  1.00  0.00     0.022 A 
ATOM     13  C   UNL     1      12.946  -6.231 -28.432  1.00  0.00     0.051 A 
ATOM     14  C   UNL     1      14.157  -6.201 -29.137  1.00  0.00     0.157 A 
ATOM     15  C   UNL     1      14.270  -8.621 -29.019  1.00  0.00     0.068 A 
ATOM     16  C   UNL     1      14.824  -7.403 -29.427  1.00  0.00     0.158 A 
BRANCH  14  17
ATOM     17  O   UNL     1      14.701  -4.983 -29.544  1.00  0.00    -0.504 OA
ATOM     18  H   UNL     1      14.658  -4.158 -28.955  1.00  0.00     0.293 HD
ENDBRANCH  14  17
BRANCH  16  19
ATOM     19  O   UNL     1      16.037  -7.405 -30.113  1.00  0.00    -0.504 OA
ATOM     20  H   UNL     1      16.894  -7.062 -29.694  1.00  0.00     0.293 HD
ENDBRANCH  16  19
ENDBRANCH   1  11
BRANCH  10  21
ATOM     21  O   UNL     1      12.332 -10.833 -30.132  1.00  0.00    -0.500 OA
ATOM     22  H   UNL     1      13.197 -11.107 -30.582  1.00  0.00     0.294 HD
ENDBRANCH  10  21
BRANCH   5  23
ATOM     23  O   UNL     1      10.691 -12.461 -22.719  1.00  0.00    -0.507 OA
ATOM     24  H   UNL     1      10.039 -13.128 -22.320  1.00  0.00     0.293 HD
ENDBRANCH   5  23
BRANCH   7  25
ATOM     25  O   UNL     1      10.477 -14.602 -27.010  1.00  0.00    -0.507 OA
ATOM     26  H   UNL     1      11.053 -15.008 -27.733  1.00  0.00     0.293 HD
ENDBRANCH   7  25
TORSDOF 6
ENDMDL
MODEL 3
REMARK VINA RESULT:     0.795      1.796      2.692
REMARK INTER + INTRA:           0.649
REMARK INTER:                   0.280
REMARK INTRA:                   0.369
REMARK UNBOUND:                -0.308
REMARK SMILES Oc1cc(O)c2cc(O)c(-c3ccc(O)c(O)c3)[o+]c2c1.[Cl-]
REMARK SMILES IDX 10 1 19 2 20 3 21 4 2 5 3 6 4 7 6 8 7 9 8 10 11 11 12 12
REMARK SMILES IDX 13 13 14 14 18 15 16 16 15 17 17 19 9 21 1 23 5 25
REMARK H PARENT 15 18 17 20 9 22 1 24 5 26
REMARK Flexibility Score: inf
ROOT
ATOM      1  C   UNL     1      13.233  -9.793 -27.608  1.00  0.00     0.402 A 
ATOM      2  O   UNL     1      14.156 -10.751 -27.577  1.00  0.00    -0.202 OA
ATOM      3  C   UNL     1      13.937 -11.960 -27.075  1.00  0.00     0.368 A 
ATOM      4  C   UNL     1      14.970 -12.901 -27.089  1.00  0.00     0.162 A 
ATOM      5  C   UNL     1      14.765 -14.182 -26.570  1.00  0.00     0.128 A 
ATOM      6  C   UNL     1      13.522 -14.524 -26.033  1.00  0.00     0.093 A 
ATOM      7  C   UNL     1      12.470 -13.600 -26.005  1.00  0.00     0.136 A 
ATOM      8  C   UNL     1      12.674 -12.298 -26.530  1.00  0.00     0.125 A 
ATOM      9  C   UNL     1      11.683 -11.303 -26.533  1.00  0.00     0.078 A 
ATOM     10  C   UNL     1      11.958 -10.039 -27.063  1.00  0.00     0.223 A 
ENDROOT
BRANCH   1  11
ATOM     11  C   UNL     1      13.596  -8.488 -28.204  1.00  0.00     0.087 A 
ATOM     12  C   UNL     1      12.885  -7.336 -27.831  1.00  0.00     0.022 A 
ATOM     13  C   UNL     1      13.223  -6.091 -28.365  1.00  0.00     0.051 A 
ATOM     14  C   UNL     1      14.287  -5.975 -29.269  1.00  0.00     0.157 A 
ATOM     15  C   UNL     1      14.676  -8.364 -29.097  1.00  0.00     0.068 A 
ATOM     16  C   UNL     1      15.019  -7.117 -29.632  1.00  0.00     0.158 A 
BRANCH  14  17
ATOM     17  O   UNL     1      14.621  -4.731 -29.802  1.00  0.00    -0.504 OA
ATOM     18  H   UNL     1      14.466  -3.872 -29.285  1.00  0.00     0.293 HD
ENDBRANCH  14  17
BRANCH  16  19
ATOM     19  O   UNL     1      16.093  -7.032 -30.517  1.00  0.00    -0.504 OA
ATOM     20  H   UNL     1      15.981  -6.709 -31.471  1.00  0.00     0.293 HD
ENDBRANCH  16  19
ENDBRANCH   1  11
BRANCH  10  21
ATOM     21  O   UNL     1      10.990  -9.036 -27.021  1.00  0.00    -0.500 OA
ATOM     22  H   UNL     1      10.404  -8.827 -27.820  1.00  0.00     0.294 HD
ENDBRANCH  10  21
BRANCH   5  23
ATOM     23  O   UNL     1      15.790 -15.125 -26.582  1.00  0.00    -0.507 OA
ATOM     24  H   UNL     1      16.380 -15.278 -25.771  1.00  0.00     0.293 HD
ENDBRANCH   5  23
BRANCH   7  25
ATOM     25  O   UNL     1      11.256 -14.023 -25.455  1.00  0.00    -0.507 OA
ATOM     26  H   UNL     1      10.416 -13.463 -25.431  1.00  0.00     0.293 HD
ENDBRANCH   7  25
TORSDOF 6
ENDMDL
MODEL 4
REMARK VINA RESULT:     1.032      2.336      3.275
REMARK INTER + INTRA:           0.935
REMARK INTER:                   0.968
REMARK INTRA:                  -0.032
REMARK UNBOUND:                -0.308
REMARK SMILES Oc1cc(O)c2cc(O)c(-c3ccc(O)c(O)c3)[o+]c2c1.[Cl-]
REMARK SMILES IDX 10 1 19 2 20 3 21 4 2 5 3 6 4 7 6 8 7 9 8 10 11 11 12 12
REMARK SMILES IDX 13 13 14 14 18 15 16 16 15 17 17 19 9 21 1 23 5 25
REMARK H PARENT 15 18 17 20 9 22 1 24 5 26
REMARK Flexibility Score: inf
ROOT
ATOM      1  C   UNL     1      12.558  -9.805 -27.314  1.00  0.00     0.402 A 
ATOM      2  O   UNL     1      13.594 -10.612 -27.529  1.00  0.00    -0.202 OA
ATOM      3  C   UNL     1      13.685 -11.836 -27.021  1.00  0.00     0.368 A 
ATOM      4  C   UNL     1      14.813 -12.609 -27.307  1.00  0.00     0.162 A 
ATOM      5  C   UNL     1      14.933 -13.901 -26.787  1.00  0.00     0.128 A 
ATOM      6  C   UNL     1      13.921 -14.421 -25.977  1.00  0.00     0.093 A 
ATOM      7  C   UNL     1      12.781 -13.667 -25.675  1.00  0.00     0.136 A 
ATOM      8  C   UNL     1      12.656 -12.354 -26.199  1.00  0.00     0.125 A 
ATOM      9  C   UNL     1      11.556 -11.521 -25.938  1.00  0.00     0.078 A 
ATOM     10  C   UNL     1      11.504 -10.235 -26.485  1.00  0.00     0.223 A 
ENDROOT
BRANCH   1  11
ATOM     11  C   UNL     1      12.568  -8.467 -27.945  1.00  0.00     0.087 A 
ATOM     12  C   UNL     1      13.740  -7.695 -27.910  1.00  0.00     0.022 A 
ATOM     13  C   UNL     1      13.780  -6.438 -28.517  1.00  0.00     0.051 A 
ATOM     14  C   UNL     1      12.651  -5.939 -29.182  1.00  0.00     0.157 A 
ATOM     15  C   UNL     1      11.445  -7.970 -28.630  1.00  0.00     0.068 A 
ATOM     16  C   UNL     1      11.480  -6.712 -29.242  1.00  0.00     0.158 A 
BRANCH  14  17
ATOM     17  O   UNL     1      12.692  -4.683 -29.785  1.00  0.00    -0.504 OA
ATOM     18  H   UNL     1      12.088  -3.927 -29.481  1.00  0.00     0.293 HD
ENDBRANCH  14  17
BRANCH  16  19
ATOM     19  O   UNL     1      10.346  -6.250 -29.908  1.00  0.00    -0.504 OA
ATOM     20  H   UNL     1       9.597  -6.870 -30.191  1.00  0.00     0.293 HD
ENDBRANCH  16  19
ENDBRANCH   1  11
BRANCH  10  21
ATOM     21  O   UNL     1      10.436  -9.390 -26.187  1.00  0.00    -0.500 OA
ATOM     22  H   UNL     1       9.547  -9.749 -25.858  1.00  0.00     0.294 HD
ENDBRANCH  10  21
BRANCH   5  23
ATOM     23  O   UNL     1      16.054 -14.678 -27.069  1.00  0.00    -0.507 OA
ATOM     24  H   UNL     1      16.289 -14.946 -28.019  1.00  0.00     0.293 HD
ENDBRANCH   5  23
BRANCH   7  25
ATOM     25  O   UNL     1      11.812 -14.262 -24.861  1.00  0.00    -0.507 OA
ATOM     26  H   UNL     1      10.857 -13.944 -24.787  1.00  0.00     0.293 HD
ENDBRANCH   7  25
TORSDOF 6
ENDMDL
