MODEL 1
REMARK VINA RESULT:    -6.792      0.000      0.000
REMARK INTER + INTRA:          -8.245
REMARK INTER:                  -7.983
REMARK INTRA:                  -0.262
REMARK UNBOUND:                -0.262
REMARK SMILES O=c1cc(-c2ccc(O)c(O)c2)oc2cc(O)cc(O)c12
REMARK SMILES IDX 4 1 3 2 2 3 1 4 21 5 19 6 18 7 16 8 15 9 14 10 13 11 5 12
REMARK SMILES IDX 6 13 7 14 8 15 12 16 10 17 9 18 11 20 20 22 17 24
REMARK H PARENT 9 19 11 21 20 23 17 25
REMARK Flexibility Score: inf
ROOT
ATOM      1  C   UNL     1       9.604  11.297 -16.007  1.00  0.00     0.138 A 
ATOM      2  C   UNL     1      10.250  10.107 -16.368  1.00  0.00     0.100 A 
ATOM      3  C   UNL     1       9.936   8.921 -15.702  1.00  0.00     0.197 A 
ATOM      4  O   UNL     1      10.574   7.881 -16.012  1.00  0.00    -0.289 OA
ATOM      5  C   UNL     1       8.943   8.921 -14.694  1.00  0.00     0.107 A 
ATOM      6  C   UNL     1       8.515   7.766 -13.971  1.00  0.00     0.134 A 
ATOM      7  C   UNL     1       7.594   7.909 -12.926  1.00  0.00     0.093 A 
ATOM      8  C   UNL     1       7.041   9.153 -12.616  1.00  0.00     0.123 A 
ATOM      9  C   UNL     1       7.414  10.278 -13.348  1.00  0.00     0.094 A 
ATOM     10  C   UNL     1       8.357  10.175 -14.374  1.00  0.00     0.146 A 
ATOM     11  O   UNL     1       8.697  11.276 -15.035  1.00  0.00    -0.456 OA
ENDROOT
BRANCH   1  12
ATOM     12  C   UNL     1       9.896  12.586 -16.683  1.00  0.00     0.021 A 
ATOM     13  C   UNL     1      10.762  13.540 -16.116  1.00  0.00     0.016 A 
ATOM     14  C   UNL     1      11.011  14.749 -16.770  1.00  0.00     0.051 A 
ATOM     15  C   UNL     1      10.395  15.031 -17.995  1.00  0.00     0.157 A 
ATOM     16  C   UNL     1       9.270  12.883 -17.907  1.00  0.00     0.062 A 
ATOM     17  C   UNL     1       9.518  14.093 -18.564  1.00  0.00     0.158 A 
BRANCH  15  18
ATOM     18  O   UNL     1      10.646  16.237 -18.646  1.00  0.00    -0.504 OA
ATOM     19  H   UNL     1      11.591  16.562 -18.816  1.00  0.00     0.293 HD
ENDBRANCH  15  18
BRANCH  17  20
ATOM     20  O   UNL     1       8.885  14.344 -19.781  1.00  0.00    -0.504 OA
ATOM     21  H   UNL     1       8.116  15.000 -19.862  1.00  0.00     0.293 HD
ENDBRANCH  17  20
ENDBRANCH   1  12
BRANCH   6  22
ATOM     22  O   UNL     1       8.943   6.465 -14.250  1.00  0.00    -0.507 OA
ATOM     23  H   UNL     1       9.265   6.140 -15.149  1.00  0.00     0.293 HD
ENDBRANCH   6  22
BRANCH   8  24
ATOM     24  O   UNL     1       6.113   9.282 -11.584  1.00  0.00    -0.508 OA
ATOM     25  H   UNL     1       5.449  10.047 -11.562  1.00  0.00     0.293 HD
ENDBRANCH   8  24
TORSDOF 5
ENDMDL
MODEL 2
REMARK VINA RESULT:    -6.575      1.490      7.361
REMARK INTER + INTRA:          -7.990
REMARK INTER:                  -7.727
REMARK INTRA:                  -0.263
REMARK UNBOUND:                -0.262
REMARK SMILES O=c1cc(-c2ccc(O)c(O)c2)oc2cc(O)cc(O)c12
REMARK SMILES IDX 4 1 3 2 2 3 1 4 21 5 19 6 18 7 16 8 15 9 14 10 13 11 5 12
REMARK SMILES IDX 6 13 7 14 8 15 12 16 10 17 9 18 11 20 20 22 17 24
REMARK H PARENT 9 19 11 21 20 23 17 25
REMARK Flexibility Score: inf
ROOT
ATOM      1  C   UNL     1       9.833  12.072 -16.800  1.00  0.00     0.138 A 
ATOM      2  C   UNL     1      10.682  13.101 -16.370  1.00  0.00     0.100 A 
ATOM      3  C   UNL     1      10.759  14.286 -17.104  1.00  0.00     0.197 A 
ATOM      4  O   UNL     1      11.572  15.167 -16.723  1.00  0.00    -0.289 OA
ATOM      5  C   UNL     1       9.952  14.454 -18.254  1.00  0.00     0.107 A 
ATOM      6  C   UNL     1       9.920  15.632 -19.062  1.00  0.00     0.134 A 
ATOM      7  C   UNL     1       9.154  15.644 -20.234  1.00  0.00     0.093 A 
ATOM      8  C   UNL     1       8.374  14.544 -20.598  1.00  0.00     0.123 A 
ATOM      9  C   UNL     1       8.359  13.409 -19.791  1.00  0.00     0.094 A 
ATOM     10  C   UNL     1       9.139  13.353 -18.633  1.00  0.00     0.146 A 
ATOM     11  O   UNL     1       9.109  12.244 -17.902  1.00  0.00    -0.456 OA
ENDROOT
BRANCH   1  12
ATOM     12  C   UNL     1       9.709  10.793 -16.057  1.00  0.00     0.021 A 
ATOM     13  C   UNL     1      10.531   9.686 -16.347  1.00  0.00     0.016 A 
ATOM     14  C   UNL     1      10.386   8.491 -15.637  1.00  0.00     0.051 A 
ATOM     15  C   UNL     1       9.415   8.377 -14.635  1.00  0.00     0.157 A 
ATOM     16  C   UNL     1       8.728  10.665 -15.058  1.00  0.00     0.062 A 
ATOM     17  C   UNL     1       8.581   9.469 -14.346  1.00  0.00     0.158 A 
BRANCH  15  18
ATOM     18  O   UNL     1       9.274   7.184 -13.928  1.00  0.00    -0.504 OA
ATOM     19  H   UNL     1       8.401   6.669 -13.924  1.00  0.00     0.293 HD
ENDBRANCH  15  18
BRANCH  17  20
ATOM     20  O   UNL     1       7.603   9.387 -13.356  1.00  0.00    -0.504 OA
ATOM     21  H   UNL     1       6.658   9.723 -13.505  1.00  0.00     0.293 HD
ENDBRANCH  17  20
ENDBRANCH   1  12
BRANCH   6  22
ATOM     22  O   UNL     1      10.598  16.814 -18.749  1.00  0.00    -0.507 OA
ATOM     23  H   UNL     1      10.624  17.639 -19.328  1.00  0.00     0.293 HD
ENDBRANCH   6  22
BRANCH   8  24
ATOM     24  O   UNL     1       7.603  14.572 -21.758  1.00  0.00    -0.508 OA
ATOM     25  H   UNL     1       7.623  13.810 -22.425  1.00  0.00     0.293 HD
ENDBRANCH   8  24
TORSDOF 5
ENDMDL
MODEL 3
REMARK VINA RESULT:    -6.564      2.799      7.923
REMARK INTER + INTRA:          -7.978
REMARK INTER:                  -7.707
REMARK INTRA:                  -0.270
REMARK UNBOUND:                -0.262
REMARK SMILES O=c1cc(-c2ccc(O)c(O)c2)oc2cc(O)cc(O)c12
REMARK SMILES IDX 4 1 3 2 2 3 1 4 21 5 19 6 18 7 16 8 15 9 14 10 13 11 5 12
REMARK SMILES IDX 6 13 7 14 8 15 12 16 10 17 9 18 11 20 20 22 17 24
REMARK H PARENT 9 19 11 21 20 23 17 25
REMARK Flexibility Score: inf
ROOT
ATOM      1  C   UNL     1       9.315  12.295 -18.276  1.00  0.00     0.138 A 
ATOM      2  C   UNL     1       9.932  13.260 -17.468  1.00  0.00     0.100 A 
ATOM      3  C   UNL     1      10.062  14.570 -17.933  1.00  0.00     0.197 A 
ATOM      4  O   UNL     1      10.670  15.398 -17.207  1.00  0.00    -0.289 OA
ATOM      5  C   UNL     1       9.538  14.922 -19.200  1.00  0.00     0.107 A 
ATOM      6  C   UNL     1       9.581  16.234 -19.763  1.00  0.00     0.134 A 
ATOM      7  C   UNL     1       9.117  16.439 -21.068  1.00  0.00     0.093 A 
ATOM      8  C   UNL     1       8.558  15.395 -21.809  1.00  0.00     0.123 A 
ATOM      9  C   UNL     1       8.466  14.123 -21.249  1.00  0.00     0.094 A 
ATOM     10  C   UNL     1       8.951  13.877 -19.963  1.00  0.00     0.146 A 
ATOM     11  O   UNL     1       8.860  12.645 -19.474  1.00  0.00    -0.456 OA
ENDROOT
BRANCH   1  12
ATOM     12  C   UNL     1       9.147  10.889 -17.831  1.00  0.00     0.021 A 
ATOM     13  C   UNL     1       7.893  10.249 -17.854  1.00  0.00     0.016 A 
ATOM     14  C   UNL     1       7.763   8.927 -17.420  1.00  0.00     0.051 A 
ATOM     15  C   UNL     1       8.879   8.224 -16.949  1.00  0.00     0.157 A 
ATOM     16  C   UNL     1      10.260  10.180 -17.344  1.00  0.00     0.062 A 
ATOM     17  C   UNL     1      10.132   8.855 -16.909  1.00  0.00     0.158 A 
BRANCH  15  18
ATOM     18  O   UNL     1       8.746   6.905 -16.519  1.00  0.00    -0.504 OA
ATOM     19  H   UNL     1       7.885   6.566 -16.107  1.00  0.00     0.293 HD
ENDBRANCH  15  18
BRANCH  17  20
ATOM     20  O   UNL     1      11.262   8.185 -16.443  1.00  0.00    -0.504 OA
ATOM     21  H   UNL     1      11.370   7.181 -16.538  1.00  0.00     0.293 HD
ENDBRANCH  17  20
ENDBRANCH   1  12
BRANCH   6  22
ATOM     22  O   UNL     1      10.044  17.363 -19.083  1.00  0.00    -0.507 OA
ATOM     23  H   UNL     1       9.743  18.309 -19.255  1.00  0.00     0.293 HD
ENDBRANCH   6  22
BRANCH   8  24
ATOM     24  O   UNL     1       8.085  15.613 -23.101  1.00  0.00    -0.508 OA
ATOM     25  H   UNL     1       8.649  15.397 -23.914  1.00  0.00     0.293 HD
ENDBRANCH   8  24
TORSDOF 5
ENDMDL
MODEL 4
REMARK VINA RESULT:    -6.394      1.861      7.214
REMARK INTER + INTRA:          -7.777
REMARK INTER:                  -7.462
REMARK INTRA:                  -0.315
REMARK UNBOUND:                -0.262
REMARK SMILES O=c1cc(-c2ccc(O)c(O)c2)oc2cc(O)cc(O)c12
REMARK SMILES IDX 4 1 3 2 2 3 1 4 21 5 19 6 18 7 16 8 15 9 14 10 13 11 5 12
REMARK SMILES IDX 6 13 7 14 8 15 12 16 10 17 9 18 11 20 20 22 17 24
REMARK H PARENT 9 19 11 21 20 23 17 25
REMARK Flexibility Score: inf
ROOT
ATOM      1  C   UNL     1       8.152  10.908 -14.857  1.00  0.00     0.138 A 
ATOM      2  C   UNL     1       8.654  12.118 -14.359  1.00  0.00     0.100 A 
ATOM      3  C   UNL     1       9.166  13.070 -15.243  1.00  0.00     0.197 A 
ATOM      4  O   UNL     1       9.659  14.121 -14.760  1.00  0.00    -0.289 OA
ATOM      5  C   UNL     1       9.141  12.822 -16.636  1.00  0.00     0.107 A 
ATOM      6  C   UNL     1       9.603  13.732 -17.634  1.00  0.00     0.134 A 
ATOM      7  C   UNL     1       9.619  13.335 -18.976  1.00  0.00     0.093 A 
ATOM      8  C   UNL     1       9.136  12.083 -19.364  1.00  0.00     0.123 A 
ATOM      9  C   UNL     1       8.636  11.207 -18.404  1.00  0.00     0.094 A 
ATOM     10  C   UNL     1       8.638  11.560 -17.053  1.00  0.00     0.146 A 
ATOM     11  O   UNL     1       8.170  10.687 -16.168  1.00  0.00    -0.456 OA
ENDROOT
BRANCH   1  12
ATOM     12  C   UNL     1       7.593   9.862 -13.965  1.00  0.00     0.021 A 
ATOM     13  C   UNL     1       7.277  10.128 -12.618  1.00  0.00     0.016 A 
ATOM     14  C   UNL     1       6.761   9.121 -11.799  1.00  0.00     0.051 A 
ATOM     15  C   UNL     1       6.560   7.831 -12.304  1.00  0.00     0.157 A 
ATOM     16  C   UNL     1       7.401   8.560 -14.460  1.00  0.00     0.062 A 
ATOM     17  C   UNL     1       6.884   7.550 -13.641  1.00  0.00     0.158 A 
BRANCH  15  18
ATOM     18  O   UNL     1       6.043   6.829 -11.484  1.00  0.00    -0.504 OA
ATOM     19  H   UNL     1       6.403   5.882 -11.513  1.00  0.00     0.293 HD
ENDBRANCH  15  18
BRANCH  17  20
ATOM     20  O   UNL     1       6.699   6.275 -14.174  1.00  0.00    -0.504 OA
ATOM     21  H   UNL     1       5.798   5.811 -14.160  1.00  0.00     0.293 HD
ENDBRANCH  17  20
ENDBRANCH   1  12
BRANCH   6  22
ATOM     22  O   UNL     1      10.032  15.036 -17.366  1.00  0.00    -0.507 OA
ATOM     23  H   UNL     1      10.927  15.418 -17.629  1.00  0.00     0.293 HD
ENDBRANCH   6  22
BRANCH   8  24
ATOM     24  O   UNL     1       9.142  11.703 -20.705  1.00  0.00    -0.508 OA
ATOM     25  H   UNL     1       9.900  11.157 -21.097  1.00  0.00     0.293 HD
ENDBRANCH   8  24
TORSDOF 5
ENDMDL
MODEL 5
REMARK VINA RESULT:    -6.358      2.020      7.427
REMARK INTER + INTRA:          -7.735
REMARK INTER:                  -7.472
REMARK INTRA:                  -0.262
REMARK UNBOUND:                -0.262
REMARK SMILES O=c1cc(-c2ccc(O)c(O)c2)oc2cc(O)cc(O)c12
REMARK SMILES IDX 4 1 3 2 2 3 1 4 21 5 19 6 18 7 16 8 15 9 14 10 13 11 5 12
REMARK SMILES IDX 6 13 7 14 8 15 12 16 10 17 9 18 11 20 20 22 17 24
REMARK H PARENT 9 19 11 21 20 23 17 25
REMARK Flexibility Score: inf
ROOT
ATOM      1  C   UNL     1       8.853  11.846 -17.898  1.00  0.00     0.138 A 
ATOM      2  C   UNL     1       8.057  11.605 -19.026  1.00  0.00     0.100 A 
ATOM      3  C   UNL     1       7.873  12.616 -19.971  1.00  0.00     0.197 A 
ATOM      4  O   UNL     1       7.108  12.386 -20.942  1.00  0.00    -0.289 OA
ATOM      5  C   UNL     1       8.520  13.863 -19.802  1.00  0.00     0.107 A 
ATOM      6  C   UNL     1       8.434  14.956 -20.717  1.00  0.00     0.134 A 
ATOM      7  C   UNL     1       9.040  16.176 -20.393  1.00  0.00     0.093 A 
ATOM      8  C   UNL     1       9.777  16.326 -19.216  1.00  0.00     0.123 A 
ATOM      9  C   UNL     1       9.909  15.251 -18.341  1.00  0.00     0.094 A 
ATOM     10  C   UNL     1       9.288  14.031 -18.618  1.00  0.00     0.146 A 
ATOM     11  O   UNL     1       9.424  13.037 -17.747  1.00  0.00    -0.456 OA
ENDROOT
BRANCH   1  12
ATOM     12  C   UNL     1       9.086  10.807 -16.864  1.00  0.00     0.021 A 
ATOM     13  C   UNL     1       8.294  10.729 -15.701  1.00  0.00     0.016 A 
ATOM     14  C   UNL     1       8.542   9.746 -14.740  1.00  0.00     0.051 A 
ATOM     15  C   UNL     1       9.587   8.831 -14.916  1.00  0.00     0.157 A 
ATOM     16  C   UNL     1      10.142   9.893 -17.026  1.00  0.00     0.062 A 
ATOM     17  C   UNL     1      10.391   8.907 -16.064  1.00  0.00     0.158 A 
BRANCH  15  18
ATOM     18  O   UNL     1       9.831   7.851 -13.956  1.00  0.00    -0.504 OA
ATOM     19  H   UNL     1      10.667   7.865 -13.384  1.00  0.00     0.293 HD
ENDBRANCH  15  18
BRANCH  17  20
ATOM     20  O   UNL     1      11.442   8.014 -16.269  1.00  0.00    -0.504 OA
ATOM     21  H   UNL     1      12.405   8.260 -16.067  1.00  0.00     0.293 HD
ENDBRANCH  17  20
ENDBRANCH   1  12
BRANCH   6  22
ATOM     22  O   UNL     1       7.792  14.891 -21.957  1.00  0.00    -0.507 OA
ATOM     23  H   UNL     1       7.858  15.587 -22.683  1.00  0.00     0.293 HD
ENDBRANCH   6  22
BRANCH   8  24
ATOM     24  O   UNL     1      10.388  17.540 -18.910  1.00  0.00    -0.508 OA
ATOM     25  H   UNL     1      10.440  18.292 -19.586  1.00  0.00     0.293 HD
ENDBRANCH   8  24
TORSDOF 5
ENDMDL
MODEL 6
REMARK VINA RESULT:    -6.313      1.930      2.967
REMARK INTER + INTRA:          -7.682
REMARK INTER:                  -7.395
REMARK INTRA:                  -0.287
REMARK UNBOUND:                -0.262
REMARK SMILES O=c1cc(-c2ccc(O)c(O)c2)oc2cc(O)cc(O)c12
REMARK SMILES IDX 4 1 3 2 2 3 1 4 21 5 19 6 18 7 16 8 15 9 14 10 13 11 5 12
REMARK SMILES IDX 6 13 7 14 8 15 12 16 10 17 9 18 11 20 20 22 17 24
REMARK H PARENT 9 19 11 21 20 23 17 25
REMARK Flexibility Score: inf
ROOT
ATOM      1  C   UNL     1       9.072  12.494 -18.302  1.00  0.00     0.138 A 
ATOM      2  C   UNL     1       9.593  11.247 -18.675  1.00  0.00     0.100 A 
ATOM      3  C   UNL     1       9.618  10.204 -17.748  1.00  0.00     0.197 A 
ATOM      4  O   UNL     1      10.143   9.115 -18.096  1.00  0.00    -0.289 OA
ATOM      5  C   UNL     1       9.085  10.401 -16.451  1.00  0.00     0.107 A 
ATOM      6  C   UNL     1       9.026   9.400 -15.434  1.00  0.00     0.134 A 
ATOM      7  C   UNL     1       8.566   9.742 -14.157  1.00  0.00     0.093 A 
ATOM      8  C   UNL     1       8.110  11.032 -13.875  1.00  0.00     0.123 A 
ATOM      9  C   UNL     1       8.117  12.002 -14.874  1.00  0.00     0.094 A 
ATOM     10  C   UNL     1       8.601  11.702 -16.149  1.00  0.00     0.146 A 
ATOM     11  O   UNL     1       8.607  12.662 -17.068  1.00  0.00    -0.456 OA
ENDROOT
BRANCH   1  12
ATOM     12  C   UNL     1       9.018  13.637 -19.247  1.00  0.00     0.021 A 
ATOM     13  C   UNL     1       8.473  13.505 -20.539  1.00  0.00     0.016 A 
ATOM     14  C   UNL     1       8.444  14.597 -21.410  1.00  0.00     0.051 A 
ATOM     15  C   UNL     1       8.963  15.835 -21.012  1.00  0.00     0.157 A 
ATOM     16  C   UNL     1       9.549  14.881 -18.860  1.00  0.00     0.062 A 
ATOM     17  C   UNL     1       9.520  15.975 -19.732  1.00  0.00     0.158 A 
BRANCH  15  18
ATOM     18  O   UNL     1       8.930  16.922 -21.884  1.00  0.00    -0.504 OA
ATOM     19  H   UNL     1       8.295  16.951 -22.673  1.00  0.00     0.293 HD
ENDBRANCH  15  18
BRANCH  17  20
ATOM     20  O   UNL     1      10.049  17.193 -19.305  1.00  0.00    -0.504 OA
ATOM     21  H   UNL     1       9.462  18.000 -19.126  1.00  0.00     0.293 HD
ENDBRANCH  17  20
ENDBRANCH   1  12
BRANCH   6  22
ATOM     22  O   UNL     1       9.381   8.063 -15.630  1.00  0.00    -0.507 OA
ATOM     23  H   UNL     1       9.715   7.672 -16.497  1.00  0.00     0.293 HD
ENDBRANCH   6  22
BRANCH   8  24
ATOM     24  O   UNL     1       7.640  11.358 -12.604  1.00  0.00    -0.508 OA
ATOM     25  H   UNL     1       7.883  10.804 -11.792  1.00  0.00     0.293 HD
ENDBRANCH   8  24
TORSDOF 5
ENDMDL
MODEL 7
REMARK VINA RESULT:    -6.177      2.169      4.066
REMARK INTER + INTRA:          -7.522
REMARK INTER:                  -7.260
REMARK INTRA:                  -0.262
REMARK UNBOUND:                -0.262
REMARK SMILES O=c1cc(-c2ccc(O)c(O)c2)oc2cc(O)cc(O)c12
REMARK SMILES IDX 4 1 3 2 2 3 1 4 21 5 19 6 18 7 16 8 15 9 14 10 13 11 5 12
REMARK SMILES IDX 6 13 7 14 8 15 12 16 10 17 9 18 11 20 20 22 17 24
REMARK H PARENT 9 19 11 21 20 23 17 25
REMARK Flexibility Score: inf
ROOT
ATOM      1  C   UNL     1       8.804  12.681 -18.053  1.00  0.00     0.138 A 
ATOM      2  C   UNL     1       7.924  12.669 -16.963  1.00  0.00     0.100 A 
ATOM      3  C   UNL     1       8.003  11.640 -16.022  1.00  0.00     0.197 A 
ATOM      4  O   UNL     1       7.163  11.627 -15.087  1.00  0.00    -0.289 OA
ATOM      5  C   UNL     1       8.996  10.640 -16.156  1.00  0.00     0.107 A 
ATOM      6  C   UNL     1       9.195   9.562 -15.240  1.00  0.00     0.134 A 
ATOM      7  C   UNL     1      10.146   8.577 -15.531  1.00  0.00     0.093 A 
ATOM      8  C   UNL     1      10.945   8.660 -16.673  1.00  0.00     0.123 A 
ATOM      9  C   UNL     1      10.793   9.733 -17.547  1.00  0.00     0.094 A 
ATOM     10  C   UNL     1       9.830  10.715 -17.303  1.00  0.00     0.146 A 
ATOM     11  O   UNL     1       9.706  11.712 -18.172  1.00  0.00    -0.456 OA
ENDROOT
BRANCH   1  12
ATOM     12  C   UNL     1       8.766  13.751 -19.081  1.00  0.00     0.021 A 
ATOM     13  C   UNL     1       8.167  13.548 -20.340  1.00  0.00     0.016 A 
ATOM     14  C   UNL     1       8.155  14.571 -21.292  1.00  0.00     0.051 A 
ATOM     15  C   UNL     1       8.745  15.808 -21.009  1.00  0.00     0.157 A 
ATOM     16  C   UNL     1       9.369  14.993 -18.811  1.00  0.00     0.062 A 
ATOM     17  C   UNL     1       9.357  16.018 -19.764  1.00  0.00     0.158 A 
BRANCH  15  18
ATOM     18  O   UNL     1       8.730  16.826 -21.961  1.00  0.00    -0.504 OA
ATOM     19  H   UNL     1       9.466  16.919 -22.651  1.00  0.00     0.293 HD
ENDBRANCH  15  18
BRANCH  17  20
ATOM     20  O   UNL     1       9.957  17.238 -19.451  1.00  0.00    -0.504 OA
ATOM     21  H   UNL     1      10.814  17.293 -18.912  1.00  0.00     0.293 HD
ENDBRANCH  17  20
ENDBRANCH   1  12
BRANCH   6  22
ATOM     22  O   UNL     1       8.507   9.426 -14.030  1.00  0.00    -0.507 OA
ATOM     23  H   UNL     1       8.500  10.106 -13.287  1.00  0.00     0.293 HD
ENDBRANCH   6  22
BRANCH   8  24
ATOM     24  O   UNL     1      11.899   7.682 -16.946  1.00  0.00    -0.508 OA
ATOM     25  H   UNL     1      11.672   6.856 -17.487  1.00  0.00     0.293 HD
ENDBRANCH   8  24
TORSDOF 5
ENDMDL
MODEL 8
REMARK VINA RESULT:    -6.157      2.525      7.614
REMARK INTER + INTRA:          -7.499
REMARK INTER:                  -7.189
REMARK INTRA:                  -0.310
REMARK UNBOUND:                -0.262
REMARK SMILES O=c1cc(-c2ccc(O)c(O)c2)oc2cc(O)cc(O)c12
REMARK SMILES IDX 4 1 3 2 2 3 1 4 21 5 19 6 18 7 16 8 15 9 14 10 13 11 5 12
REMARK SMILES IDX 6 13 7 14 8 15 12 16 10 17 9 18 11 20 20 22 17 24
REMARK H PARENT 9 19 11 21 20 23 17 25
REMARK Flexibility Score: inf
ROOT
ATOM      1  C   UNL     1       8.387  12.945 -17.731  1.00  0.00     0.138 A 
ATOM      2  C   UNL     1       8.729  12.369 -18.962  1.00  0.00     0.100 A 
ATOM      3  C   UNL     1       8.845  13.177 -20.094  1.00  0.00     0.197 A 
ATOM      4  O   UNL     1       9.099  12.622 -21.195  1.00  0.00    -0.289 OA
ATOM      5  C   UNL     1       8.654  14.575 -19.984  1.00  0.00     0.107 A 
ATOM      6  C   UNL     1       8.780  15.503 -21.062  1.00  0.00     0.134 A 
ATOM      7  C   UNL     1       8.469  16.851 -20.852  1.00  0.00     0.093 A 
ATOM      8  C   UNL     1       8.092  17.317 -19.590  1.00  0.00     0.123 A 
ATOM      9  C   UNL     1       8.014  16.429 -18.520  1.00  0.00     0.094 A 
ATOM     10  C   UNL     1       8.285  15.071 -18.705  1.00  0.00     0.146 A 
ATOM     11  O   UNL     1       8.181  14.256 -17.661  1.00  0.00    -0.456 OA
ENDROOT
BRANCH   1  12
ATOM     12  C   UNL     1       8.253  12.134 -16.495  1.00  0.00     0.021 A 
ATOM     13  C   UNL     1       7.923  10.766 -16.538  1.00  0.00     0.016 A 
ATOM     14  C   UNL     1       7.795  10.030 -15.357  1.00  0.00     0.051 A 
ATOM     15  C   UNL     1       7.983  10.647 -14.115  1.00  0.00     0.157 A 
ATOM     16  C   UNL     1       8.427  12.749 -15.242  1.00  0.00     0.062 A 
ATOM     17  C   UNL     1       8.298  12.014 -14.058  1.00  0.00     0.158 A 
BRANCH  15  18
ATOM     18  O   UNL     1       7.855   9.910 -12.939  1.00  0.00    -0.504 OA
ATOM     19  H   UNL     1       8.030  10.324 -12.031  1.00  0.00     0.293 HD
ENDBRANCH  15  18
BRANCH  17  20
ATOM     20  O   UNL     1       8.489  12.659 -12.837  1.00  0.00    -0.504 OA
ATOM     21  H   UNL     1       8.916  13.577 -12.775  1.00  0.00     0.293 HD
ENDBRANCH  17  20
ENDBRANCH   1  12
BRANCH   6  22
ATOM     22  O   UNL     1       9.225  15.159 -22.342  1.00  0.00    -0.507 OA
ATOM     23  H   UNL     1       8.634  15.047 -23.152  1.00  0.00     0.293 HD
ENDBRANCH   6  22
BRANCH   8  24
ATOM     24  O   UNL     1       7.799  18.664 -19.388  1.00  0.00    -0.508 OA
ATOM     25  H   UNL     1       6.854  19.019 -19.474  1.00  0.00     0.293 HD
ENDBRANCH   8  24
TORSDOF 5
ENDMDL
