MODEL 1
REMARK VINA RESULT:    -4.749      0.000      0.000
REMARK INTER + INTRA:          -7.122
REMARK INTER:                  -6.415
REMARK INTRA:                  -0.707
REMARK UNBOUND:                -0.707
REMARK SMILES C[C@H](O)[C@@H](O)[C@@H](O)[C@@H](O)C=O
REMARK SMILES IDX 4 1 2 2 1 3 3 4 6 6 8 7 10 8 11 9 9 10 7 12 5 14
REMARK H PARENT 3 5 9 11 7 13 5 15
REMARK Flexibility Score: inf
ROOT
ATOM      1  C   UNL     1      12.143 -11.282  37.840  1.00  0.00     0.174 C 
ENDROOT
BRANCH   1   2
ATOM      2  C   UNL     1      12.506 -10.053  38.721  1.00  0.00     0.142 C 
ATOM      3  C   UNL     1      13.316 -10.411  39.976  1.00  0.00     0.041 C 
BRANCH   2   4
ATOM      4  O   UNL     1      11.332  -9.376  39.092  1.00  0.00    -0.391 OA
ATOM      5  H   UNL     1      10.597  -9.743  38.534  1.00  0.00     0.211 HD
ENDBRANCH   2   4
ENDBRANCH   1   2
BRANCH   1   6
ATOM      6  C   UNL     1      10.653 -11.734  37.939  1.00  0.00     0.181 C 
BRANCH   6   7
ATOM      7  C   UNL     1      10.444 -13.175  37.393  1.00  0.00     0.209 C 
BRANCH   7   8
ATOM      8  C   UNL     1       9.011 -13.408  36.984  1.00  0.00     0.258 C 
ATOM      9  O   UNL     1       8.093 -13.128  37.737  1.00  0.00    -0.300 OA
ENDBRANCH   7   8
BRANCH   7  10
ATOM     10  O   UNL     1      10.839 -14.148  38.327  1.00  0.00    -0.383 OA
ATOM     11  H   UNL     1      11.804 -14.009  38.520  1.00  0.00     0.211 HD
ENDBRANCH   7  10
ENDBRANCH   6   7
BRANCH   6  12
ATOM     12  O   UNL     1       9.817 -10.833  37.252  1.00  0.00    -0.387 OA
ATOM     13  H   UNL     1       9.359 -10.273  37.932  1.00  0.00     0.211 HD
ENDBRANCH   6  12
ENDBRANCH   1   6
BRANCH   1  14
ATOM     14  O   UNL     1      13.023 -12.345  38.110  1.00  0.00    -0.388 OA
ATOM     15  H   UNL     1      12.982 -12.977  37.346  1.00  0.00     0.211 HD
ENDBRANCH   1  14
TORSDOF 8
ENDMDL
MODEL 2
REMARK VINA RESULT:    -4.723      3.081      5.062
REMARK INTER + INTRA:          -7.086
REMARK INTER:                  -6.325
REMARK INTRA:                  -0.761
REMARK UNBOUND:                -0.707
REMARK SMILES C[C@H](O)[C@@H](O)[C@@H](O)[C@@H](O)C=O
REMARK SMILES IDX 4 1 2 2 1 3 3 4 6 6 8 7 10 8 11 9 9 10 7 12 5 14
REMARK H PARENT 3 5 9 11 7 13 5 15
REMARK Flexibility Score: inf
ROOT
ATOM      1  C   UNL     1       9.621 -12.385  35.271  1.00  0.00     0.174 C 
ENDROOT
BRANCH   1   2
ATOM      2  C   UNL     1       8.612 -11.995  36.387  1.00  0.00     0.142 C 
ATOM      3  C   UNL     1       7.272 -12.741  36.297  1.00  0.00     0.041 C 
BRANCH   2   4
ATOM      4  O   UNL     1       8.386 -10.609  36.357  1.00  0.00    -0.391 OA
ATOM      5  H   UNL     1       9.216 -10.187  36.011  1.00  0.00     0.211 HD
ENDBRANCH   2   4
ENDBRANCH   1   2
BRANCH   1   6
ATOM      6  C   UNL     1      11.119 -12.143  35.636  1.00  0.00     0.181 C 
BRANCH   6   7
ATOM      7  C   UNL     1      11.717 -10.930  34.870  1.00  0.00     0.209 C 
BRANCH   7   8
ATOM      8  C   UNL     1      13.207 -10.826  35.077  1.00  0.00     0.258 C 
ATOM      9  O   UNL     1      13.985 -11.341  34.290  1.00  0.00    -0.300 OA
ENDBRANCH   7   8
BRANCH   7  10
ATOM     10  O   UNL     1      11.097  -9.724  35.239  1.00  0.00    -0.383 OA
ATOM     11  H   UNL     1      10.254  -9.645  34.719  1.00  0.00     0.211 HD
ENDBRANCH   7  10
ENDBRANCH   6   7
BRANCH   6  12
ATOM     12  O   UNL     1      11.882 -13.298  35.379  1.00  0.00    -0.387 OA
ATOM     13  H   UNL     1      11.860 -13.858  36.198  1.00  0.00     0.211 HD
ENDBRANCH   6  12
ENDBRANCH   1   6
BRANCH   1  14
ATOM     14  O   UNL     1       9.276 -11.747  34.066  1.00  0.00    -0.388 OA
ATOM     15  H   UNL     1       8.723 -12.377  33.534  1.00  0.00     0.211 HD
ENDBRANCH   1  14
TORSDOF 8
ENDMDL
MODEL 3
REMARK VINA RESULT:    -4.718      2.233      3.667
REMARK INTER + INTRA:          -7.079
REMARK INTER:                  -6.430
REMARK INTRA:                  -0.649
REMARK UNBOUND:                -0.707
REMARK SMILES C[C@H](O)[C@@H](O)[C@@H](O)[C@@H](O)C=O
REMARK SMILES IDX 4 1 2 2 1 3 3 4 6 6 8 7 10 8 11 9 9 10 7 12 5 14
REMARK H PARENT 3 5 9 11 7 13 5 15
REMARK Flexibility Score: inf
ROOT
ATOM      1  C   UNL     1      11.614 -11.408  35.220  1.00  0.00     0.174 C 
ENDROOT
BRANCH   1   2
ATOM      2  C   UNL     1      13.089 -11.801  35.514  1.00  0.00     0.142 C 
ATOM      3  C   UNL     1      14.095 -11.222  34.508  1.00  0.00     0.041 C 
BRANCH   2   4
ATOM      4  O   UNL     1      13.206 -13.201  35.549  1.00  0.00    -0.391 OA
ATOM      5  H   UNL     1      12.286 -13.571  35.483  1.00  0.00     0.211 HD
ENDBRANCH   2   4
ENDBRANCH   1   2
BRANCH   1   6
ATOM      6  C   UNL     1      10.993 -10.405  36.241  1.00  0.00     0.181 C 
BRANCH   6   7
ATOM      7  C   UNL     1      11.543 -10.622  37.679  1.00  0.00     0.209 C 
BRANCH   7   8
ATOM      8  C   UNL     1      10.640 -11.520  38.486  1.00  0.00     0.258 C 
ATOM      9  O   UNL     1      10.391 -12.655  38.111  1.00  0.00    -0.300 OA
ENDBRANCH   7   8
BRANCH   7  10
ATOM     10  O   UNL     1      11.732  -9.403  38.354  1.00  0.00    -0.383 OA
ATOM     11  H   UNL     1      11.136  -9.401  39.149  1.00  0.00     0.211 HD
ENDBRANCH   7  10
ENDBRANCH   6   7
BRANCH   6  12
ATOM     12  O   UNL     1       9.589 -10.507  36.242  1.00  0.00    -0.387 OA
ATOM     13  H   UNL     1       9.356 -11.423  35.938  1.00  0.00     0.211 HD
ENDBRANCH   6  12
ENDBRANCH   1   6
BRANCH   1  14
ATOM     14  O   UNL     1      10.824 -12.564  35.088  1.00  0.00    -0.388 OA
ATOM     15  H   UNL     1      10.045 -12.338  34.517  1.00  0.00     0.211 HD
ENDBRANCH   1  14
TORSDOF 8
ENDMDL
MODEL 4
REMARK VINA RESULT:    -4.692      2.611      5.046
REMARK INTER + INTRA:          -7.044
REMARK INTER:                  -6.333
REMARK INTRA:                  -0.711
REMARK UNBOUND:                -0.707
REMARK SMILES C[C@H](O)[C@@H](O)[C@@H](O)[C@@H](O)C=O
REMARK SMILES IDX 4 1 2 2 1 3 3 4 6 6 8 7 10 8 11 9 9 10 7 12 5 14
REMARK H PARENT 3 5 9 11 7 13 5 15
REMARK Flexibility Score: inf
ROOT
ATOM      1  C   UNL     1       8.913 -13.003  35.747  1.00  0.00     0.174 C 
ENDROOT
BRANCH   1   2
ATOM      2  C   UNL     1       7.677 -12.851  34.818  1.00  0.00     0.142 C 
ATOM      3  C   UNL     1       7.820 -13.582  33.474  1.00  0.00     0.041 C 
BRANCH   2   4
ATOM      4  O   UNL     1       7.420 -11.488  34.591  1.00  0.00    -0.391 OA
ATOM      5  H   UNL     1       6.450 -11.346  34.749  1.00  0.00     0.211 HD
ENDBRANCH   2   4
ENDBRANCH   1   2
BRANCH   1   6
ATOM      6  C   UNL     1      10.014 -11.914  35.546  1.00  0.00     0.181 C 
BRANCH   6   7
ATOM      7  C   UNL     1      11.390 -12.365  36.112  1.00  0.00     0.209 C 
BRANCH   7   8
ATOM      8  C   UNL     1      12.263 -11.182  36.448  1.00  0.00     0.258 C 
ATOM      9  O   UNL     1      12.547 -10.354  35.597  1.00  0.00    -0.300 OA
ENDBRANCH   7   8
BRANCH   7  10
ATOM     10  O   UNL     1      12.063 -13.220  35.223  1.00  0.00    -0.383 OA
ATOM     11  H   UNL     1      11.570 -13.210  34.360  1.00  0.00     0.211 HD
ENDBRANCH   7  10
ENDBRANCH   6   7
BRANCH   6  12
ATOM     12  O   UNL     1       9.621 -10.701  36.142  1.00  0.00    -0.387 OA
ATOM     13  H   UNL     1      10.231 -10.533  36.907  1.00  0.00     0.211 HD
ENDBRANCH   6  12
ENDBRANCH   1   6
BRANCH   1  14
ATOM     14  O   UNL     1       9.446 -14.299  35.632  1.00  0.00    -0.388 OA
ATOM     15  H   UNL     1      10.129 -14.287  34.913  1.00  0.00     0.211 HD
ENDBRANCH   1  14
TORSDOF 8
ENDMDL
MODEL 5
REMARK VINA RESULT:    -4.642      1.702      2.451
REMARK INTER + INTRA:          -6.978
REMARK INTER:                  -6.160
REMARK INTRA:                  -0.818
REMARK UNBOUND:                -0.707
REMARK SMILES C[C@H](O)[C@@H](O)[C@@H](O)[C@@H](O)C=O
REMARK SMILES IDX 4 1 2 2 1 3 3 4 6 6 8 7 10 8 11 9 9 10 7 12 5 14
REMARK H PARENT 3 5 9 11 7 13 5 15
REMARK Flexibility Score: inf
ROOT
ATOM      1  C   UNL     1      12.185 -13.463  37.087  1.00  0.00     0.174 C 
ENDROOT
BRANCH   1   2
ATOM      2  C   UNL     1      11.964 -11.951  37.366  1.00  0.00     0.142 C 
ATOM      3  C   UNL     1      13.240 -11.104  37.230  1.00  0.00     0.041 C 
BRANCH   2   4
ATOM      4  O   UNL     1      11.419 -11.782  38.651  1.00  0.00    -0.391 OA
ATOM      5  H   UNL     1      10.835 -12.567  38.822  1.00  0.00     0.211 HD
ENDBRANCH   2   4
ENDBRANCH   1   2
BRANCH   1   6
ATOM      6  C   UNL     1      10.890 -14.331  37.148  1.00  0.00     0.181 C 
BRANCH   6   7
ATOM      7  C   UNL     1       9.695 -13.646  36.426  1.00  0.00     0.209 C 
BRANCH   7   8
ATOM      8  C   UNL     1       8.537 -13.423  37.366  1.00  0.00     0.258 C 
ATOM      9  O   UNL     1       8.581 -12.546  38.214  1.00  0.00    -0.300 OA
ENDBRANCH   7   8
BRANCH   7  10
ATOM     10  O   UNL     1       9.269 -14.385  35.309  1.00  0.00    -0.383 OA
ATOM     11  H   UNL     1       8.961 -15.273  35.633  1.00  0.00     0.211 HD
ENDBRANCH   7  10
ENDBRANCH   6   7
BRANCH   6  12
ATOM     12  O   UNL     1      10.548 -14.614  38.484  1.00  0.00    -0.387 OA
ATOM     13  H   UNL     1      10.255 -13.763  38.904  1.00  0.00     0.211 HD
ENDBRANCH   6  12
ENDBRANCH   1   6
BRANCH   1  14
ATOM     14  O   UNL     1      13.184 -13.970  37.937  1.00  0.00    -0.388 OA
ATOM     15  H   UNL     1      13.460 -14.857  37.590  1.00  0.00     0.211 HD
ENDBRANCH   1  14
TORSDOF 8
ENDMDL
MODEL 6
REMARK VINA RESULT:    -4.630      1.724      2.579
REMARK INTER + INTRA:          -6.961
REMARK INTER:                  -6.180
REMARK INTRA:                  -0.781
REMARK UNBOUND:                -0.707
REMARK SMILES C[C@H](O)[C@@H](O)[C@@H](O)[C@@H](O)C=O
REMARK SMILES IDX 4 1 2 2 1 3 3 4 6 6 8 7 10 8 11 9 9 10 7 12 5 14
REMARK H PARENT 3 5 9 11 7 13 5 15
REMARK Flexibility Score: inf
ROOT
ATOM      1  C   UNL     1      11.220 -11.368  37.880  1.00  0.00     0.174 C 
ENDROOT
BRANCH   1   2
ATOM      2  C   UNL     1      11.538 -10.558  36.592  1.00  0.00     0.142 C 
ATOM      3  C   UNL     1      12.837  -9.743  36.680  1.00  0.00     0.041 C 
BRANCH   2   4
ATOM      4  O   UNL     1      10.463  -9.705  36.292  1.00  0.00    -0.391 OA
ATOM      5  H   UNL     1      10.813  -8.776  36.321  1.00  0.00     0.211 HD
ENDBRANCH   2   4
ENDBRANCH   1   2
BRANCH   1   6
ATOM      6  C   UNL     1      10.238 -12.562  37.671  1.00  0.00     0.181 C 
BRANCH   6   7
ATOM      7  C   UNL     1       8.820 -12.257  38.231  1.00  0.00     0.209 C 
BRANCH   7   8
ATOM      8  C   UNL     1       7.915 -13.459  38.127  1.00  0.00     0.258 C 
ATOM      9  O   UNL     1       7.921 -14.322  38.991  1.00  0.00    -0.300 OA
ENDBRANCH   7   8
BRANCH   7  10
ATOM     10  O   UNL     1       8.231 -11.157  37.586  1.00  0.00    -0.383 OA
ATOM     11  H   UNL     1       8.148 -10.423  38.252  1.00  0.00     0.211 HD
ENDBRANCH   7  10
ENDBRANCH   6   7
BRANCH   6  12
ATOM     12  O   UNL     1      10.750 -13.732  38.265  1.00  0.00    -0.387 OA
ATOM     13  H   UNL     1      10.096 -14.460  38.102  1.00  0.00     0.211 HD
ENDBRANCH   6  12
ENDBRANCH   1   6
BRANCH   1  14
ATOM     14  O   UNL     1      10.769 -10.503  38.894  1.00  0.00    -0.388 OA
ATOM     15  H   UNL     1      10.246 -11.040  39.543  1.00  0.00     0.211 HD
ENDBRANCH   1  14
TORSDOF 8
ENDMDL
MODEL 7
REMARK VINA RESULT:    -4.625      2.272      4.545
REMARK INTER + INTRA:          -6.955
REMARK INTER:                  -6.201
REMARK INTRA:                  -0.754
REMARK UNBOUND:                -0.707
REMARK SMILES C[C@H](O)[C@@H](O)[C@@H](O)[C@@H](O)C=O
REMARK SMILES IDX 4 1 2 2 1 3 3 4 6 6 8 7 10 8 11 9 9 10 7 12 5 14
REMARK H PARENT 3 5 9 11 7 13 5 15
REMARK Flexibility Score: inf
ROOT
ATOM      1  C   UNL     1       8.848 -11.487  36.544  1.00  0.00     0.174 C 
ENDROOT
BRANCH   1   2
ATOM      2  C   UNL     1       7.443 -11.893  36.019  1.00  0.00     0.142 C 
ATOM      3  C   UNL     1       7.129 -13.389  36.185  1.00  0.00     0.041 C 
BRANCH   2   4
ATOM      4  O   UNL     1       7.320 -11.531  34.667  1.00  0.00    -0.391 OA
ATOM      5  H   UNL     1       8.190 -11.136  34.393  1.00  0.00     0.211 HD
ENDBRANCH   2   4
ENDBRANCH   1   2
BRANCH   1   6
ATOM      6  C   UNL     1      10.007 -12.431  36.094  1.00  0.00     0.181 C 
BRANCH   6   7
ATOM      7  C   UNL     1      11.325 -12.144  36.865  1.00  0.00     0.209 C 
BRANCH   7   8
ATOM      8  C   UNL     1      12.537 -12.450  36.022  1.00  0.00     0.258 C 
ATOM      9  O   UNL     1      12.703 -13.563  35.549  1.00  0.00    -0.300 OA
ENDBRANCH   7   8
BRANCH   7  10
ATOM     10  O   UNL     1      11.389 -12.861  38.073  1.00  0.00    -0.383 OA
ATOM     11  H   UNL     1      10.717 -13.592  38.026  1.00  0.00     0.211 HD
ENDBRANCH   7  10
ENDBRANCH   6   7
BRANCH   6  12
ATOM     12  O   UNL     1      10.225 -12.318  34.708  1.00  0.00    -0.387 OA
ATOM     13  H   UNL     1      11.194 -12.461  34.545  1.00  0.00     0.211 HD
ENDBRANCH   6  12
ENDBRANCH   1   6
BRANCH   1  14
ATOM     14  O   UNL     1       8.817 -11.342  37.942  1.00  0.00    -0.388 OA
ATOM     15  H   UNL     1       7.876 -11.178  38.212  1.00  0.00     0.211 HD
ENDBRANCH   1  14
TORSDOF 8
ENDMDL
MODEL 8
REMARK VINA RESULT:    -4.603      2.319      3.403
REMARK INTER + INTRA:          -6.925
REMARK INTER:                  -6.399
REMARK INTRA:                  -0.526
REMARK UNBOUND:                -0.707
REMARK SMILES C[C@H](O)[C@@H](O)[C@@H](O)[C@@H](O)C=O
REMARK SMILES IDX 4 1 2 2 1 3 3 4 6 6 8 7 10 8 11 9 9 10 7 12 5 14
REMARK H PARENT 3 5 9 11 7 13 5 15
REMARK Flexibility Score: inf
ROOT
ATOM      1  C   UNL     1      11.090 -13.197  37.437  1.00  0.00     0.174 C 
ENDROOT
BRANCH   1   2
ATOM      2  C   UNL     1      12.613 -13.165  37.131  1.00  0.00     0.142 C 
ATOM      3  C   UNL     1      12.943 -13.215  35.631  1.00  0.00     0.041 C 
BRANCH   2   4
ATOM      4  O   UNL     1      13.250 -14.230  37.791  1.00  0.00    -0.391 OA
ATOM      5  H   UNL     1      12.994 -15.062  37.313  1.00  0.00     0.211 HD
ENDBRANCH   2   4
ENDBRANCH   1   2
BRANCH   1   6
ATOM      6  C   UNL     1      10.173 -12.945  36.199  1.00  0.00     0.181 C 
BRANCH   6   7
ATOM      7  C   UNL     1       9.028 -11.943  36.516  1.00  0.00     0.209 C 
BRANCH   7   8
ATOM      8  C   UNL     1       7.781 -12.263  35.731  1.00  0.00     0.258 C 
ATOM      9  O   UNL     1       6.962 -13.061  36.159  1.00  0.00    -0.300 OA
ENDBRANCH   7   8
BRANCH   7  10
ATOM     10  O   UNL     1       9.417 -10.614  36.275  1.00  0.00    -0.383 OA
ATOM     11  H   UNL     1       8.630 -10.129  35.911  1.00  0.00     0.211 HD
ENDBRANCH   7  10
ENDBRANCH   6   7
BRANCH   6  12
ATOM     12  O   UNL     1       9.636 -14.157  35.728  1.00  0.00    -0.387 OA
ATOM     13  H   UNL     1       8.766 -14.297  36.186  1.00  0.00     0.211 HD
ENDBRANCH   6  12
ENDBRANCH   1   6
BRANCH   1  14
ATOM     14  O   UNL     1      10.791 -12.311  38.487  1.00  0.00    -0.388 OA
ATOM     15  H   UNL     1      10.170 -11.621  38.138  1.00  0.00     0.211 HD
ENDBRANCH   1  14
TORSDOF 8
ENDMDL
MODEL 9
REMARK VINA RESULT:    -4.575      1.751      4.612
REMARK INTER + INTRA:          -6.887
REMARK INTER:                  -6.212
REMARK INTRA:                  -0.675
REMARK UNBOUND:                -0.707
REMARK SMILES C[C@H](O)[C@@H](O)[C@@H](O)[C@@H](O)C=O
REMARK SMILES IDX 4 1 2 2 1 3 3 4 6 6 8 7 10 8 11 9 9 10 7 12 5 14
REMARK H PARENT 3 5 9 11 7 13 5 15
REMARK Flexibility Score: inf
ROOT
ATOM      1  C   UNL     1       7.994 -12.392  36.887  1.00  0.00     0.174 C 
ENDROOT
BRANCH   1   2
ATOM      2  C   UNL     1       7.294 -12.494  35.503  1.00  0.00     0.142 C 
ATOM      3  C   UNL     1       8.009 -13.431  34.517  1.00  0.00     0.041 C 
BRANCH   2   4
ATOM      4  O   UNL     1       7.176 -11.213  34.938  1.00  0.00    -0.391 OA
ATOM      5  H   UNL     1       7.822 -10.626  35.412  1.00  0.00     0.211 HD
ENDBRANCH   2   4
ENDBRANCH   1   2
BRANCH   1   6
ATOM      6  C   UNL     1       9.480 -11.919  36.830  1.00  0.00     0.181 C 
BRANCH   6   7
ATOM      7  C   UNL     1      10.234 -12.203  38.160  1.00  0.00     0.209 C 
BRANCH   7   8
ATOM      8  C   UNL     1      11.370 -11.234  38.368  1.00  0.00     0.258 C 
ATOM      9  O   UNL     1      11.313 -10.382  39.240  1.00  0.00    -0.300 OA
ENDBRANCH   7   8
BRANCH   7  10
ATOM     10  O   UNL     1      10.714 -13.523  38.215  1.00  0.00    -0.383 OA
ATOM     11  H   UNL     1      11.197 -13.705  37.366  1.00  0.00     0.211 HD
ENDBRANCH   7  10
ENDBRANCH   6   7
BRANCH   6  12
ATOM     12  O   UNL     1       9.550 -10.548  36.520  1.00  0.00    -0.387 OA
ATOM     13  H   UNL     1      10.206 -10.134  37.139  1.00  0.00     0.211 HD
ENDBRANCH   6  12
ENDBRANCH   1   6
BRANCH   1  14
ATOM     14  O   UNL     1       7.867 -13.608  37.582  1.00  0.00    -0.388 OA
ATOM     15  H   UNL     1       7.382 -14.245  36.997  1.00  0.00     0.211 HD
ENDBRANCH   1  14
TORSDOF 8
ENDMDL
