MODEL 1
REMARK VINA RESULT:    -4.559      0.000      0.000
REMARK INTER + INTRA:          -5.016
REMARK INTER:                  -4.958
REMARK INTRA:                  -0.058
REMARK UNBOUND:                -0.058
REMARK SMILES CC1(C)[C@H]2CC=C(CO)[C@@H]1C2
REMARK SMILES IDX 8 1 7 2 1 3 2 4 4 5 3 6 10 7 5 8 11 9 6 10 9 11
REMARK H PARENT 9 12
REMARK Flexibility Score: inf
ROOT
ATOM      1  C   UNL     1     -11.677  -8.750   6.387  1.00  0.00     0.187 C 
ENDROOT
BRANCH   1   2
ATOM      2  C   UNL     1     -12.613  -8.944   5.227  1.00  0.00    -0.045 C 
ATOM      3  C   UNL     1     -16.443  -9.680   5.122  1.00  0.00     0.012 C 
ATOM      4  C   UNL     1     -15.085  -9.032   4.751  1.00  0.00    -0.026 C 
ATOM      5  C   UNL     1     -14.561  -9.516   3.370  1.00  0.00    -0.000 C 
ATOM      6  C   UNL     1     -15.188  -7.503   5.014  1.00  0.00     0.012 C 
ATOM      7  C   UNL     1     -13.880  -9.803   5.350  1.00  0.00     0.023 C 
ATOM      8  C   UNL     1     -13.395  -8.591   2.875  1.00  0.00     0.031 C 
ATOM      9  C   UNL     1     -13.880 -10.695   4.094  1.00  0.00     0.013 C 
ATOM     10  C   UNL     1     -12.374  -8.375   4.010  1.00  0.00    -0.025 C 
ENDBRANCH   1   2
BRANCH   1  11
ATOM     11  O   UNL     1     -12.390  -8.749   7.593  1.00  0.00    -0.392 OA
ATOM     12  H   UNL     1     -12.748  -7.830   7.711  1.00  0.00     0.211 HD
ENDBRANCH   1  11
TORSDOF 2
ENDMDL
MODEL 2
REMARK VINA RESULT:    -4.371      1.175      2.599
REMARK INTER + INTRA:          -4.812
REMARK INTER:                  -4.786
REMARK INTRA:                  -0.026
REMARK UNBOUND:                -0.058
REMARK SMILES CC1(C)[C@H]2CC=C(CO)[C@@H]1C2
REMARK SMILES IDX 8 1 7 2 1 3 2 4 4 5 3 6 10 7 5 8 11 9 6 10 9 11
REMARK H PARENT 9 12
REMARK Flexibility Score: inf
ROOT
ATOM      1  C   UNL     1     -11.955  -8.943   5.669  1.00  0.00     0.187 C 
ENDROOT
BRANCH   1   2
ATOM      2  C   UNL     1     -13.451  -9.020   5.549  1.00  0.00    -0.045 C 
ATOM      3  C   UNL     1     -15.885  -7.555   2.875  1.00  0.00     0.012 C 
ATOM      4  C   UNL     1     -15.265  -8.581   3.857  1.00  0.00    -0.026 C 
ATOM      5  C   UNL     1     -16.159  -8.813   5.107  1.00  0.00    -0.000 C 
ATOM      6  C   UNL     1     -14.796  -9.816   3.037  1.00  0.00     0.012 C 
ATOM      7  C   UNL     1     -14.260  -7.925   4.839  1.00  0.00     0.023 C 
ATOM      8  C   UNL     1     -15.689 -10.092   5.883  1.00  0.00     0.031 C 
ATOM      9  C   UNL     1     -15.441  -7.627   5.783  1.00  0.00     0.013 C 
ATOM     10  C   UNL     1     -14.160 -10.063   6.074  1.00  0.00    -0.025 C 
ENDBRANCH   1   2
BRANCH   1  11
ATOM     11  O   UNL     1     -11.584  -8.746   7.006  1.00  0.00    -0.392 OA
ATOM     12  H   UNL     1     -10.643  -8.428   6.996  1.00  0.00     0.211 HD
ENDBRANCH   1  11
TORSDOF 2
ENDMDL
MODEL 3
REMARK VINA RESULT:    -4.265      1.919      3.289
REMARK INTER + INTRA:          -4.697
REMARK INTER:                  -4.675
REMARK INTRA:                  -0.023
REMARK UNBOUND:                -0.058
REMARK SMILES CC1(C)[C@H]2CC=C(CO)[C@@H]1C2
REMARK SMILES IDX 8 1 7 2 1 3 2 4 4 5 3 6 10 7 5 8 11 9 6 10 9 11
REMARK H PARENT 9 12
REMARK Flexibility Score: inf
ROOT
ATOM      1  C   UNL     1     -15.899 -11.204   4.659  1.00  0.00     0.187 C 
ENDROOT
BRANCH   1   2
ATOM      2  C   UNL     1     -14.741 -10.272   4.885  1.00  0.00    -0.045 C 
ATOM      3  C   UNL     1     -13.532  -7.155   2.875  1.00  0.00     0.012 C 
ATOM      4  C   UNL     1     -13.899  -8.032   4.099  1.00  0.00    -0.026 C 
ATOM      5  C   UNL     1     -12.644  -8.492   4.891  1.00  0.00    -0.000 C 
ATOM      6  C   UNL     1     -15.051  -7.331   4.872  1.00  0.00     0.012 C 
ATOM      7  C   UNL     1     -14.068  -9.528   3.723  1.00  0.00     0.023 C 
ATOM      8  C   UNL     1     -13.060  -9.061   6.291  1.00  0.00     0.031 C 
ATOM      9  C   UNL     1     -12.556  -9.713   3.953  1.00  0.00     0.013 C 
ATOM     10  C   UNL     1     -14.228 -10.055   6.132  1.00  0.00    -0.025 C 
ENDBRANCH   1   2
BRANCH   1  11
ATOM     11  O   UNL     1     -16.522 -11.508   5.877  1.00  0.00    -0.392 OA
ATOM     12  H   UNL     1     -17.034 -12.347   5.732  1.00  0.00     0.211 HD
ENDBRANCH   1  11
TORSDOF 2
ENDMDL
MODEL 4
REMARK VINA RESULT:    -4.263      1.116      2.416
REMARK INTER + INTRA:          -4.695
REMARK INTER:                  -4.672
REMARK INTRA:                  -0.024
REMARK UNBOUND:                -0.058
REMARK SMILES CC1(C)[C@H]2CC=C(CO)[C@@H]1C2
REMARK SMILES IDX 8 1 7 2 1 3 2 4 4 5 3 6 10 7 5 8 11 9 6 10 9 11
REMARK H PARENT 9 12
REMARK Flexibility Score: inf
ROOT
ATOM      1  C   UNL     1     -11.883  -8.731   5.958  1.00  0.00     0.187 C 
ENDROOT
BRANCH   1   2
ATOM      2  C   UNL     1     -13.269  -8.972   5.426  1.00  0.00    -0.045 C 
ATOM      3  C   UNL     1     -14.622 -11.640   2.923  1.00  0.00     0.012 C 
ATOM      4  C   UNL     1     -14.565 -10.736   4.180  1.00  0.00    -0.026 C 
ATOM      5  C   UNL     1     -15.614  -9.592   4.129  1.00  0.00    -0.000 C 
ATOM      6  C   UNL     1     -14.521 -11.652   5.436  1.00  0.00     0.012 C 
ATOM      7  C   UNL     1     -13.503  -9.613   4.051  1.00  0.00     0.023 C 
ATOM      8  C   UNL     1     -15.769  -8.931   5.543  1.00  0.00     0.031 C 
ATOM      9  C   UNL     1     -14.575  -8.734   3.379  1.00  0.00     0.013 C 
ATOM     10  C   UNL     1     -14.380  -8.623   6.138  1.00  0.00    -0.025 C 
ENDBRANCH   1   2
BRANCH   1  11
ATOM     11  O   UNL     1     -11.902  -8.678   7.358  1.00  0.00    -0.392 OA
ATOM     12  H   UNL     1     -11.438  -9.495   7.680  1.00  0.00     0.211 HD
ENDBRANCH   1  11
TORSDOF 2
ENDMDL
MODEL 5
REMARK VINA RESULT:    -4.253      1.898      3.429
REMARK INTER + INTRA:          -4.684
REMARK INTER:                  -4.622
REMARK INTRA:                  -0.061
REMARK UNBOUND:                -0.058
REMARK SMILES CC1(C)[C@H]2CC=C(CO)[C@@H]1C2
REMARK SMILES IDX 8 1 7 2 1 3 2 4 4 5 3 6 10 7 5 8 11 9 6 10 9 11
REMARK H PARENT 9 12
REMARK Flexibility Score: inf
ROOT
ATOM      1  C   UNL     1     -16.339  -7.981   3.891  1.00  0.00     0.187 C 
ENDROOT
BRANCH   1   2
ATOM      2  C   UNL     1     -15.008  -8.678   3.827  1.00  0.00    -0.045 C 
ATOM      3  C   UNL     1     -12.050  -8.790   6.367  1.00  0.00     0.012 C 
ATOM      4  C   UNL     1     -13.093  -9.299   5.340  1.00  0.00    -0.026 C 
ATOM      5  C   UNL     1     -12.445  -9.665   3.976  1.00  0.00    -0.000 C 
ATOM      6  C   UNL     1     -13.993 -10.353   6.044  1.00  0.00     0.012 C 
ATOM      7  C   UNL     1     -13.779  -8.139   4.572  1.00  0.00     0.023 C 
ATOM      8  C   UNL     1     -13.447 -10.496   3.102  1.00  0.00     0.031 C 
ATOM      9  C   UNL     1     -12.633  -8.196   3.545  1.00  0.00     0.013 C 
ATOM     10  C   UNL     1     -14.831  -9.817   3.095  1.00  0.00    -0.025 C 
ENDBRANCH   1   2
BRANCH   1  11
ATOM     11  O   UNL     1     -16.970  -8.249   5.112  1.00  0.00    -0.392 OA
ATOM     12  H   UNL     1     -17.944  -8.125   4.962  1.00  0.00     0.211 HD
ENDBRANCH   1  11
TORSDOF 2
ENDMDL
MODEL 6
REMARK VINA RESULT:    -4.179      1.988      3.581
REMARK INTER + INTRA:          -4.604
REMARK INTER:                  -4.563
REMARK INTRA:                  -0.041
REMARK UNBOUND:                -0.058
REMARK SMILES CC1(C)[C@H]2CC=C(CO)[C@@H]1C2
REMARK SMILES IDX 8 1 7 2 1 3 2 4 4 5 3 6 10 7 5 8 11 9 6 10 9 11
REMARK H PARENT 9 12
REMARK Flexibility Score: inf
ROOT
ATOM      1  C   UNL     1     -14.856 -11.715   3.476  1.00  0.00     0.187 C 
ENDROOT
BRANCH   1   2
ATOM      2  C   UNL     1     -14.788 -10.438   4.267  1.00  0.00    -0.045 C 
ATOM      3  C   UNL     1     -11.869  -8.839   6.303  1.00  0.00     0.012 C 
ATOM      4  C   UNL     1     -13.073  -8.930   5.332  1.00  0.00    -0.026 C 
ATOM      5  C   UNL     1     -14.357  -8.284   5.924  1.00  0.00    -0.000 C 
ATOM      6  C   UNL     1     -12.596  -8.480   3.922  1.00  0.00     0.012 C 
ATOM      7  C   UNL     1     -13.832 -10.277   5.458  1.00  0.00     0.023 C 
ATOM      8  C   UNL     1     -15.431  -8.078   4.801  1.00  0.00     0.031 C 
ATOM      9  C   UNL     1     -14.686  -9.645   6.572  1.00  0.00     0.013 C 
ATOM     10  C   UNL     1     -15.580  -9.366   3.968  1.00  0.00    -0.025 C 
ENDBRANCH   1   2
BRANCH   1  11
ATOM     11  O   UNL     1     -14.998 -12.812   4.337  1.00  0.00    -0.392 OA
ATOM     12  H   UNL     1     -15.088 -13.615   3.760  1.00  0.00     0.211 HD
ENDBRANCH   1  11
TORSDOF 2
ENDMDL
MODEL 7
REMARK VINA RESULT:    -4.078      2.151      3.549
REMARK INTER + INTRA:          -4.493
REMARK INTER:                  -4.451
REMARK INTRA:                  -0.042
REMARK UNBOUND:                -0.058
REMARK SMILES CC1(C)[C@H]2CC=C(CO)[C@@H]1C2
REMARK SMILES IDX 8 1 7 2 1 3 2 4 4 5 3 6 10 7 5 8 11 9 6 10 9 11
REMARK H PARENT 9 12
REMARK Flexibility Score: inf
ROOT
ATOM      1  C   UNL     1     -14.992  -6.281   4.227  1.00  0.00     0.187 C 
ENDROOT
BRANCH   1   2
ATOM      2  C   UNL     1     -14.737  -7.713   4.605  1.00  0.00    -0.045 C 
ATOM      3  C   UNL     1     -12.165 -10.305   3.232  1.00  0.00     0.012 C 
ATOM      4  C   UNL     1     -13.002  -9.508   4.263  1.00  0.00    -0.026 C 
ATOM      5  C   UNL     1     -14.115 -10.375   4.914  1.00  0.00    -0.000 C 
ATOM      6  C   UNL     1     -12.023  -8.734   5.191  1.00  0.00     0.012 C 
ATOM      7  C   UNL     1     -14.163  -8.722   3.599  1.00  0.00     0.023 C 
ATOM      8  C   UNL     1     -14.694  -9.657   6.182  1.00  0.00     0.031 C 
ATOM      9  C   UNL     1     -15.043  -9.978   3.748  1.00  0.00     0.013 C 
ATOM     10  C   UNL     1     -15.013  -8.184   5.856  1.00  0.00    -0.025 C 
ENDBRANCH   1   2
BRANCH   1  11
ATOM     11  O   UNL     1     -15.503  -6.205   2.924  1.00  0.00    -0.392 OA
ATOM     12  H   UNL     1     -15.554  -7.138   2.585  1.00  0.00     0.211 HD
ENDBRANCH   1  11
TORSDOF 2
ENDMDL
MODEL 8
REMARK VINA RESULT:    -3.966      2.224      3.063
REMARK INTER + INTRA:          -4.372
REMARK INTER:                  -4.346
REMARK INTRA:                  -0.026
REMARK UNBOUND:                -0.058
REMARK SMILES CC1(C)[C@H]2CC=C(CO)[C@@H]1C2
REMARK SMILES IDX 8 1 7 2 1 3 2 4 4 5 3 6 10 7 5 8 11 9 6 10 9 11
REMARK H PARENT 9 12
REMARK Flexibility Score: inf
ROOT
ATOM      1  C   UNL     1     -14.999  -6.353   4.118  1.00  0.00     0.187 C 
ENDROOT
BRANCH   1   2
ATOM      2  C   UNL     1     -14.094  -7.551   4.034  1.00  0.00    -0.045 C 
ATOM      3  C   UNL     1     -14.267 -11.022   5.805  1.00  0.00     0.012 C 
ATOM      4  C   UNL     1     -14.074  -9.989   4.667  1.00  0.00    -0.026 C 
ATOM      5  C   UNL     1     -12.584  -9.839   4.255  1.00  0.00    -0.000 C 
ATOM      6  C   UNL     1     -15.127 -10.282   3.561  1.00  0.00     0.012 C 
ATOM      7  C   UNL     1     -13.953  -8.538   5.201  1.00  0.00     0.023 C 
ATOM      8  C   UNL     1     -12.469  -9.074   2.891  1.00  0.00     0.031 C 
ATOM      9  C   UNL     1     -12.436  -8.764   5.351  1.00  0.00     0.013 C 
ATOM     10  C   UNL     1     -13.350  -7.809   2.919  1.00  0.00    -0.025 C 
ENDBRANCH   1   2
BRANCH   1  11
ATOM     11  O   UNL     1     -15.596  -6.106   2.875  1.00  0.00    -0.392 OA
ATOM     12  H   UNL     1     -15.823  -6.992   2.488  1.00  0.00     0.211 HD
ENDBRANCH   1  11
TORSDOF 2
ENDMDL
MODEL 9
REMARK VINA RESULT:    -3.889      1.907      2.987
REMARK INTER + INTRA:          -4.288
REMARK INTER:                  -4.229
REMARK INTRA:                  -0.059
REMARK UNBOUND:                -0.058
REMARK SMILES CC1(C)[C@H]2CC=C(CO)[C@@H]1C2
REMARK SMILES IDX 8 1 7 2 1 3 2 4 4 5 3 6 10 7 5 8 11 9 6 10 9 11
REMARK H PARENT 9 12
REMARK Flexibility Score: inf
ROOT
ATOM      1  C   UNL     1     -12.293  -9.009   3.317  1.00  0.00     0.187 C 
ENDROOT
BRANCH   1   2
ATOM      2  C   UNL     1     -13.289  -9.107   4.439  1.00  0.00    -0.045 C 
ATOM      3  C   UNL     1     -16.636 -11.090   4.726  1.00  0.00     0.012 C 
ATOM      4  C   UNL     1     -15.258 -10.514   5.139  1.00  0.00    -0.026 C 
ATOM      5  C   UNL     1     -15.386  -9.384   6.198  1.00  0.00    -0.000 C 
ATOM      6  C   UNL     1     -14.301 -11.704   5.431  1.00  0.00     0.012 C 
ATOM      7  C   UNL     1     -14.773  -9.398   4.176  1.00  0.00     0.023 C 
ATOM      8  C   UNL     1     -13.989  -9.080   6.843  1.00  0.00     0.031 C 
ATOM      9  C   UNL     1     -15.539  -8.378   5.039  1.00  0.00     0.013 C 
ATOM     10  C   UNL     1     -12.920  -8.932   5.742  1.00  0.00    -0.025 C 
ENDBRANCH   1   2
BRANCH   1  11
ATOM     11  O   UNL     1     -11.820 -10.282   2.973  1.00  0.00    -0.392 OA
ATOM     12  H   UNL     1     -11.633 -10.262   1.998  1.00  0.00     0.211 HD
ENDBRANCH   1  11
TORSDOF 2
ENDMDL
