MODEL 1
REMARK VINA RESULT:    -3.730      0.000      0.000
REMARK INTER + INTRA:          -5.442
REMARK INTER:                  -4.929
REMARK INTRA:                  -0.513
REMARK UNBOUND:                -0.513
REMARK SMILES C=C[C@@H](O)CCCCC
REMARK SMILES IDX 6 1 7 2 8 3 9 4 5 5 3 6 2 7 1 8 4 9
REMARK H PARENT 4 10
REMARK Flexibility Score: inf
ROOT
ATOM      1  C   UNL     1      49.962   6.072 111.222  1.00  0.00     0.003 C 
ENDROOT
BRANCH   1   2
ATOM      2  C   UNL     1      49.502   4.611 111.164  1.00  0.00    -0.000 C 
BRANCH   2   3
ATOM      3  C   UNL     1      49.047   4.123 112.544  1.00  0.00    -0.003 C 
ATOM      4  C   UNL     1      50.135   4.340 113.592  1.00  0.00     0.004 C 
ENDBRANCH   2   3
ENDBRANCH   1   2
BRANCH   1   5
ATOM      5  C   UNL     1      48.956   6.996 110.518  1.00  0.00     0.036 C 
BRANCH   5   6
ATOM      6  C   UNL     1      47.843   7.476 111.469  1.00  0.00     0.136 C 
BRANCH   6   7
ATOM      7  C   UNL     1      48.358   7.636 112.882  1.00  0.00    -0.004 C 
ATOM      8  C   UNL     1      47.610   7.337 113.949  1.00  0.00     0.007 C 
ENDBRANCH   6   7
BRANCH   6   9
ATOM      9  O   UNL     1      47.308   8.694 111.020  1.00  0.00    -0.389 OA
ATOM     10  H   UNL     1      46.441   8.835 111.484  1.00  0.00     0.211 HD
ENDBRANCH   6   9
ENDBRANCH   5   6
ENDBRANCH   1   5
TORSDOF 6
ENDMDL
MODEL 2
REMARK VINA RESULT:    -3.466      7.503      8.338
REMARK INTER + INTRA:          -5.094
REMARK INTER:                  -4.717
REMARK INTRA:                  -0.377
REMARK UNBOUND:                -0.513
REMARK SMILES C=C[C@@H](O)CCCCC
REMARK SMILES IDX 6 1 7 2 8 3 9 4 5 5 3 6 2 7 1 8 4 9
REMARK H PARENT 4 10
REMARK Flexibility Score: inf
ROOT
ATOM      1  C   UNL     1      41.507   0.238 113.309  1.00  0.00     0.003 C 
ENDROOT
BRANCH   1   2
ATOM      2  C   UNL     1      42.091  -0.437 112.062  1.00  0.00    -0.000 C 
BRANCH   2   3
ATOM      3  C   UNL     1      42.779  -1.758 112.423  1.00  0.00    -0.003 C 
ATOM      4  C   UNL     1      44.298  -1.608 112.414  1.00  0.00     0.004 C 
ENDBRANCH   2   3
ENDBRANCH   1   2
BRANCH   1   5
ATOM      5  C   UNL     1      42.449   1.332 113.835  1.00  0.00     0.036 C 
BRANCH   5   6
ATOM      6  C   UNL     1      43.106   2.133 112.694  1.00  0.00     0.136 C 
BRANCH   6   7
ATOM      7  C   UNL     1      42.766   3.604 112.788  1.00  0.00    -0.004 C 
ATOM      8  C   UNL     1      41.548   4.030 113.136  1.00  0.00     0.007 C 
ENDBRANCH   6   7
BRANCH   6   9
ATOM      9  O   UNL     1      44.500   1.967 112.720  1.00  0.00    -0.389 OA
ATOM     10  H   UNL     1      44.708   1.082 112.320  1.00  0.00     0.211 HD
ENDBRANCH   6   9
ENDBRANCH   5   6
ENDBRANCH   1   5
TORSDOF 6
ENDMDL
MODEL 3
REMARK VINA RESULT:    -3.448     10.019     12.114
REMARK INTER + INTRA:          -5.070
REMARK INTER:                  -4.724
REMARK INTRA:                  -0.347
REMARK UNBOUND:                -0.513
REMARK SMILES C=C[C@@H](O)CCCCC
REMARK SMILES IDX 6 1 7 2 8 3 9 4 5 5 3 6 2 7 1 8 4 9
REMARK H PARENT 4 10
REMARK Flexibility Score: inf
ROOT
ATOM      1  C   UNL     1      41.084  15.592 112.942  1.00  0.00     0.003 C 
ENDROOT
BRANCH   1   2
ATOM      2  C   UNL     1      40.137  16.107 114.032  1.00  0.00    -0.000 C 
BRANCH   2   3
ATOM      3  C   UNL     1      40.512  17.532 114.457  1.00  0.00    -0.003 C 
ATOM      4  C   UNL     1      41.202  17.538 115.818  1.00  0.00     0.004 C 
ENDBRANCH   2   3
ENDBRANCH   1   2
BRANCH   1   5
ATOM      5  C   UNL     1      42.199  14.723 113.545  1.00  0.00     0.036 C 
BRANCH   5   6
ATOM      6  C   UNL     1      41.668  13.769 114.633  1.00  0.00     0.136 C 
BRANCH   6   7
ATOM      7  C   UNL     1      41.999  12.329 114.310  1.00  0.00    -0.004 C 
ATOM      8  C   UNL     1      41.201  11.569 113.554  1.00  0.00     0.007 C 
ENDBRANCH   6   7
BRANCH   6   9
ATOM      9  O   UNL     1      42.205  14.109 115.885  1.00  0.00    -0.389 OA
ATOM     10  H   UNL     1      41.907  13.422 116.539  1.00  0.00     0.211 HD
ENDBRANCH   6   9
ENDBRANCH   5   6
ENDBRANCH   1   5
TORSDOF 6
ENDMDL
MODEL 4
REMARK VINA RESULT:    -3.418      9.270     11.316
REMARK INTER + INTRA:          -5.030
REMARK INTER:                  -4.469
REMARK INTRA:                  -0.562
REMARK UNBOUND:                -0.513
REMARK SMILES C=C[C@@H](O)CCCCC
REMARK SMILES IDX 6 1 7 2 8 3 9 4 5 5 3 6 2 7 1 8 4 9
REMARK H PARENT 4 10
REMARK Flexibility Score: inf
ROOT
ATOM      1  C   UNL     1      42.631  11.756 120.355  1.00  0.00     0.003 C 
ENDROOT
BRANCH   1   2
ATOM      2  C   UNL     1      42.778  12.235 121.804  1.00  0.00    -0.000 C 
BRANCH   2   3
ATOM      3  C   UNL     1      44.246  12.211 122.244  1.00  0.00    -0.003 C 
ATOM      4  C   UNL     1      45.150  12.836 121.185  1.00  0.00     0.004 C 
ENDBRANCH   2   3
ENDBRANCH   1   2
BRANCH   1   5
ATOM      5  C   UNL     1      42.337  10.249 120.299  1.00  0.00     0.036 C 
BRANCH   5   6
ATOM      6  C   UNL     1      43.033   9.565 119.106  1.00  0.00     0.136 C 
BRANCH   6   7
ATOM      7  C   UNL     1      44.539   9.637 119.233  1.00  0.00    -0.004 C 
ATOM      8  C   UNL     1      45.195   9.060 120.244  1.00  0.00     0.007 C 
ENDBRANCH   6   7
BRANCH   6   9
ATOM      9  O   UNL     1      42.630   8.223 119.009  1.00  0.00    -0.389 OA
ATOM     10  H   UNL     1      43.081   7.718 119.735  1.00  0.00     0.211 HD
ENDBRANCH   6   9
ENDBRANCH   5   6
ENDBRANCH   1   5
TORSDOF 6
ENDMDL
MODEL 5
REMARK VINA RESULT:    -3.371      2.454      4.562
REMARK INTER + INTRA:          -4.968
REMARK INTER:                  -4.760
REMARK INTRA:                  -0.208
REMARK UNBOUND:                -0.513
REMARK SMILES C=C[C@@H](O)CCCCC
REMARK SMILES IDX 6 1 7 2 8 3 9 4 5 5 3 6 2 7 1 8 4 9
REMARK H PARENT 4 10
REMARK Flexibility Score: inf
ROOT
ATOM      1  C   UNL     1      45.769   7.578 113.490  1.00  0.00     0.003 C 
ENDROOT
BRANCH   1   2
ATOM      2  C   UNL     1      44.825   6.486 114.007  1.00  0.00    -0.000 C 
BRANCH   2   3
ATOM      3  C   UNL     1      43.466   7.075 114.400  1.00  0.00    -0.003 C 
ATOM      4  C   UNL     1      43.480   7.585 115.838  1.00  0.00     0.004 C 
ENDBRANCH   2   3
ENDBRANCH   1   2
BRANCH   1   5
ATOM      5  C   UNL     1      47.213   7.062 113.400  1.00  0.00     0.036 C 
BRANCH   5   6
ATOM      6  C   UNL     1      47.970   7.658 112.197  1.00  0.00     0.136 C 
BRANCH   6   7
ATOM      7  C   UNL     1      48.623   6.575 111.367  1.00  0.00    -0.004 C 
ATOM      8  C   UNL     1      48.681   5.304 111.777  1.00  0.00     0.007 C 
ENDBRANCH   6   7
BRANCH   6   9
ATOM      9  O   UNL     1      47.097   8.409 111.394  1.00  0.00    -0.389 OA
ATOM     10  H   UNL     1      47.211   9.367 111.634  1.00  0.00     0.211 HD
ENDBRANCH   6   9
ENDBRANCH   5   6
ENDBRANCH   1   5
TORSDOF 6
ENDMDL
MODEL 6
REMARK VINA RESULT:    -3.366      7.559     10.105
REMARK INTER + INTRA:          -4.962
REMARK INTER:                  -4.666
REMARK INTRA:                  -0.296
REMARK UNBOUND:                -0.513
REMARK SMILES C=C[C@@H](O)CCCCC
REMARK SMILES IDX 6 1 7 2 8 3 9 4 5 5 3 6 2 7 1 8 4 9
REMARK H PARENT 4 10
REMARK Flexibility Score: inf
ROOT
ATOM      1  C   UNL     1      43.197  10.662 119.115  1.00  0.00     0.003 C 
ENDROOT
BRANCH   1   2
ATOM      2  C   UNL     1      42.322   9.830 120.059  1.00  0.00    -0.000 C 
BRANCH   2   3
ATOM      3  C   UNL     1      41.739  10.700 121.179  1.00  0.00    -0.003 C 
ATOM      4  C   UNL     1      42.201  12.149 121.048  1.00  0.00     0.004 C 
ENDBRANCH   2   3
ENDBRANCH   1   2
BRANCH   1   5
ATOM      5  C   UNL     1      44.263   9.787 118.437  1.00  0.00     0.036 C 
BRANCH   5   6
ATOM      6  C   UNL     1      43.740   8.372 118.123  1.00  0.00     0.136 C 
BRANCH   6   7
ATOM      7  C   UNL     1      43.661   8.134 116.631  1.00  0.00    -0.004 C 
ATOM      8  C   UNL     1      43.663   9.140 115.751  1.00  0.00     0.007 C 
ENDBRANCH   6   7
BRANCH   6   9
ATOM      9  O   UNL     1      44.567   7.403 118.713  1.00  0.00    -0.389 OA
ATOM     10  H   UNL     1      43.981   6.717 119.130  1.00  0.00     0.211 HD
ENDBRANCH   6   9
ENDBRANCH   5   6
ENDBRANCH   1   5
TORSDOF 6
ENDMDL
MODEL 7
REMARK VINA RESULT:    -3.359      1.868      3.947
REMARK INTER + INTRA:          -4.953
REMARK INTER:                  -4.763
REMARK INTRA:                  -0.190
REMARK UNBOUND:                -0.513
REMARK SMILES C=C[C@@H](O)CCCCC
REMARK SMILES IDX 6 1 7 2 8 3 9 4 5 5 3 6 2 7 1 8 4 9
REMARK H PARENT 4 10
REMARK Flexibility Score: inf
ROOT
ATOM      1  C   UNL     1      47.480   6.930 112.846  1.00  0.00     0.003 C 
ENDROOT
BRANCH   1   2
ATOM      2  C   UNL     1      46.228   7.639 113.374  1.00  0.00    -0.000 C 
BRANCH   2   3
ATOM      3  C   UNL     1      45.212   6.628 113.919  1.00  0.00    -0.003 C 
ATOM      4  C   UNL     1      44.654   7.080 115.266  1.00  0.00     0.004 C 
ENDBRANCH   2   3
ENDBRANCH   1   2
BRANCH   1   5
ATOM      5  C   UNL     1      47.883   7.476 111.468  1.00  0.00     0.036 C 
BRANCH   5   6
ATOM      6  C   UNL     1      49.083   6.716 110.869  1.00  0.00     0.136 C 
BRANCH   6   7
ATOM      7  C   UNL     1      49.171   5.309 111.418  1.00  0.00    -0.004 C 
ATOM      8  C   UNL     1      50.337   4.666 111.539  1.00  0.00     0.007 C 
ENDBRANCH   6   7
BRANCH   6   9
ATOM      9  O   UNL     1      48.984   6.672 109.468  1.00  0.00    -0.389 OA
ATOM     10  H   UNL     1      48.555   7.516 109.168  1.00  0.00     0.211 HD
ENDBRANCH   6   9
ENDBRANCH   5   6
ENDBRANCH   1   5
TORSDOF 6
ENDMDL
MODEL 8
REMARK VINA RESULT:    -3.287      8.184      9.084
REMARK INTER + INTRA:          -4.858
REMARK INTER:                  -4.312
REMARK INTRA:                  -0.545
REMARK UNBOUND:                -0.513
REMARK SMILES C=C[C@@H](O)CCCCC
REMARK SMILES IDX 6 1 7 2 8 3 9 4 5 5 3 6 2 7 1 8 4 9
REMARK H PARENT 4 10
REMARK Flexibility Score: inf
ROOT
ATOM      1  C   UNL     1      41.156  -1.030 112.179  1.00  0.00     0.003 C 
ENDROOT
BRANCH   1   2
ATOM      2  C   UNL     1      42.374  -1.955 112.290  1.00  0.00    -0.000 C 
BRANCH   2   3
ATOM      3  C   UNL     1      43.610  -1.315 111.650  1.00  0.00    -0.003 C 
ATOM      4  C   UNL     1      44.863  -1.585 112.479  1.00  0.00     0.004 C 
ENDBRANCH   2   3
ENDBRANCH   1   2
BRANCH   1   5
ATOM      5  C   UNL     1      41.357   0.249 113.007  1.00  0.00     0.036 C 
BRANCH   5   6
ATOM      6  C   UNL     1      41.180   1.524 112.160  1.00  0.00     0.136 C 
BRANCH   6   7
ATOM      7  C   UNL     1      42.366   2.451 112.307  1.00  0.00    -0.004 C 
ATOM      8  C   UNL     1      43.454   2.107 113.002  1.00  0.00     0.007 C 
ENDBRANCH   6   7
BRANCH   6   9
ATOM      9  O   UNL     1      41.003   1.192 110.807  1.00  0.00    -0.389 OA
ATOM     10  H   UNL     1      40.749   0.232 110.761  1.00  0.00     0.211 HD
ENDBRANCH   6   9
ENDBRANCH   5   6
ENDBRANCH   1   5
TORSDOF 6
ENDMDL
MODEL 9
REMARK VINA RESULT:    -3.268      8.213      9.423
REMARK INTER + INTRA:          -4.833
REMARK INTER:                  -4.487
REMARK INTRA:                  -0.346
REMARK UNBOUND:                -0.513
REMARK SMILES C=C[C@@H](O)CCCCC
REMARK SMILES IDX 6 1 7 2 8 3 9 4 5 5 3 6 2 7 1 8 4 9
REMARK H PARENT 4 10
REMARK Flexibility Score: inf
ROOT
ATOM      1  C   UNL     1      41.045   0.873 112.000  1.00  0.00     0.003 C 
ENDROOT
BRANCH   1   2
ATOM      2  C   UNL     1      41.054   1.494 113.402  1.00  0.00    -0.000 C 
BRANCH   2   3
ATOM      3  C   UNL     1      40.359   0.578 114.414  1.00  0.00    -0.003 C 
ATOM      4  C   UNL     1      40.805   0.892 115.839  1.00  0.00     0.004 C 
ENDBRANCH   2   3
ENDBRANCH   1   2
BRANCH   1   5
ATOM      5  C   UNL     1      42.465   0.800 111.420  1.00  0.00     0.036 C 
BRANCH   5   6
ATOM      6  C   UNL     1      43.519   0.483 112.499  1.00  0.00     0.136 C 
BRANCH   6   7
ATOM      7  C   UNL     1      44.145  -0.875 112.274  1.00  0.00    -0.004 C 
ATOM      8  C   UNL     1      43.417  -1.995 112.238  1.00  0.00     0.007 C 
ENDBRANCH   6   7
BRANCH   6   9
ATOM      9  O   UNL     1      44.519   1.470 112.510  1.00  0.00    -0.389 OA
ATOM     10  H   UNL     1      44.744   1.684 111.567  1.00  0.00     0.211 HD
ENDBRANCH   6   9
ENDBRANCH   5   6
ENDBRANCH   1   5
TORSDOF 6
ENDMDL
