MODEL 1
REMARK VINA RESULT:    -4.704      0.000      0.000
REMARK INTER + INTRA:          -4.841
REMARK INTER:                  -4.841
REMARK INTRA:                   0.000
REMARK UNBOUND:                 0.000
REMARK SMILES Nc1ncnc2nc[nH]c12
REMARK SMILES IDX 8 1 7 2 6 3 5 4 4 5 3 6 2 7 10 8 9 9 1 11
REMARK H PARENT 9 10 1 12 1 13
REMARK Flexibility Score: inf
ROOT
ATOM      1  C   UNL     1     -22.516  16.863 -22.011  1.00  0.00     0.199 A 
ATOM      2  N   UNL     1     -22.281  18.102 -21.498  1.00  0.00    -0.217 NA
ATOM      3  C   UNL     1     -21.037  17.976 -21.009  1.00  0.00     0.182 A 
ATOM      4  N   UNL     1     -20.315  18.934 -20.380  1.00  0.00    -0.215 NA
ATOM      5  C   UNL     1     -19.057  18.617 -19.948  1.00  0.00     0.226 A 
ATOM      6  N   UNL     1     -18.549  17.359 -20.151  1.00  0.00    -0.217 NA
ATOM      7  C   UNL     1     -19.275  16.390 -20.784  1.00  0.00     0.152 A 
ATOM      8  C   UNL     1     -20.554  16.730 -21.218  1.00  0.00     0.127 A 
ATOM      9  N   UNL     1     -21.478  16.002 -21.856  1.00  0.00    -0.340 N 
ATOM     10  H   UNL     1     -21.427  15.006 -22.166  1.00  0.00     0.168 HD
ENDROOT
BRANCH   7  11
ATOM     11  N   UNL     1     -18.725  15.088 -20.983  1.00  0.00    -0.382 N 
ATOM     12  H   UNL     1     -17.916  14.932 -21.624  1.00  0.00     0.158 HD
ATOM     13  H   UNL     1     -19.131  14.266 -20.483  1.00  0.00     0.158 HD
ENDBRANCH   7  11
TORSDOF 1
ENDMDL
MODEL 2
REMARK VINA RESULT:    -4.669     15.086     16.572
REMARK INTER + INTRA:          -4.806
REMARK INTER:                  -4.806
REMARK INTRA:                   0.000
REMARK UNBOUND:                 0.000
REMARK SMILES Nc1ncnc2nc[nH]c12
REMARK SMILES IDX 8 1 7 2 6 3 5 4 4 5 3 6 2 7 10 8 9 9 1 11
REMARK H PARENT 9 10 1 12 1 13
REMARK Flexibility Score: inf
ROOT
ATOM      1  C   UNL     1     -13.175  33.616 -24.540  1.00  0.00     0.199 A 
ATOM      2  N   UNL     1     -14.089  32.858 -23.873  1.00  0.00    -0.217 NA
ATOM      3  C   UNL     1     -13.989  31.675 -24.500  1.00  0.00     0.182 A 
ATOM      4  N   UNL     1     -14.693  30.551 -24.222  1.00  0.00    -0.215 NA
ATOM      5  C   UNL     1     -14.452  29.435 -24.974  1.00  0.00     0.226 A 
ATOM      6  N   UNL     1     -13.520  29.463 -25.981  1.00  0.00    -0.217 NA
ATOM      7  C   UNL     1     -12.809  30.595 -26.263  1.00  0.00     0.152 A 
ATOM      8  C   UNL     1     -13.066  31.722 -25.487  1.00  0.00     0.127 A 
ATOM      9  N   UNL     1     -12.534  32.949 -25.533  1.00  0.00    -0.340 N 
ATOM     10  H   UNL     1     -11.798  33.320 -26.174  1.00  0.00     0.168 HD
ENDROOT
BRANCH   7  11
ATOM     11  N   UNL     1     -11.844  30.599 -27.316  1.00  0.00    -0.382 N 
ATOM     12  H   UNL     1     -11.895  29.915 -28.102  1.00  0.00     0.158 HD
ATOM     13  H   UNL     1     -11.067  31.296 -27.310  1.00  0.00     0.158 HD
ENDBRANCH   7  11
TORSDOF 1
ENDMDL
MODEL 3
REMARK VINA RESULT:    -4.604     15.200     16.841
REMARK INTER + INTRA:          -4.739
REMARK INTER:                  -4.739
REMARK INTRA:                   0.000
REMARK UNBOUND:                 0.000
REMARK SMILES Nc1ncnc2nc[nH]c12
REMARK SMILES IDX 8 1 7 2 6 3 5 4 4 5 3 6 2 7 10 8 9 9 1 11
REMARK H PARENT 9 10 1 12 1 13
REMARK Flexibility Score: inf
ROOT
ATOM      1  C   UNL     1     -10.446  30.151 -24.171  1.00  0.00     0.199 A 
ATOM      2  N   UNL     1     -11.528  29.335 -24.308  1.00  0.00    -0.217 NA
ATOM      3  C   UNL     1     -12.522  30.213 -24.517  1.00  0.00     0.182 A 
ATOM      4  N   UNL     1     -13.830  29.920 -24.717  1.00  0.00    -0.215 NA
ATOM      5  C   UNL     1     -14.701  30.955 -24.913  1.00  0.00     0.226 A 
ATOM      6  N   UNL     1     -14.253  32.252 -24.906  1.00  0.00    -0.217 NA
ATOM      7  C   UNL     1     -12.934  32.550 -24.705  1.00  0.00     0.152 A 
ATOM      8  C   UNL     1     -12.061  31.484 -24.507  1.00  0.00     0.127 A 
ATOM      9  N   UNL     1     -10.740  31.471 -24.288  1.00  0.00    -0.340 N 
ATOM     10  H   UNL     1     -10.080  32.277 -24.221  1.00  0.00     0.168 HD
ENDROOT
BRANCH   7  11
ATOM     11  N   UNL     1     -12.492  33.908 -24.702  1.00  0.00    -0.382 N 
ATOM     12  H   UNL     1     -12.459  34.466 -23.821  1.00  0.00     0.158 HD
ATOM     13  H   UNL     1     -12.193  34.363 -25.593  1.00  0.00     0.158 HD
ENDBRANCH   7  11
TORSDOF 1
ENDMDL
MODEL 4
REMARK VINA RESULT:    -4.589     14.535     16.125
REMARK INTER + INTRA:          -4.723
REMARK INTER:                  -4.723
REMARK INTRA:                   0.000
REMARK UNBOUND:                 0.000
REMARK SMILES Nc1ncnc2nc[nH]c12
REMARK SMILES IDX 8 1 7 2 6 3 5 4 4 5 3 6 2 7 10 8 9 9 1 11
REMARK H PARENT 9 10 1 12 1 13
REMARK Flexibility Score: inf
ROOT
ATOM      1  C   UNL     1     -13.823  33.110 -24.533  1.00  0.00     0.199 A 
ATOM      2  N   UNL     1     -14.373  31.926 -24.919  1.00  0.00    -0.217 NA
ATOM      3  C   UNL     1     -13.776  31.052 -24.093  1.00  0.00     0.182 A 
ATOM      4  N   UNL     1     -13.971  29.712 -24.056  1.00  0.00    -0.215 NA
ATOM      5  C   UNL     1     -13.267  28.982 -23.140  1.00  0.00     0.226 A 
ATOM      6  N   UNL     1     -12.390  29.599 -22.283  1.00  0.00    -0.217 NA
ATOM      7  C   UNL     1     -12.192  30.950 -22.318  1.00  0.00     0.152 A 
ATOM      8  C   UNL     1     -12.916  31.679 -23.257  1.00  0.00     0.127 A 
ATOM      9  N   UNL     1     -12.929  32.992 -23.519  1.00  0.00    -0.340 N 
ATOM     10  H   UNL     1     -12.385  33.755 -23.059  1.00  0.00     0.168 HD
ENDROOT
BRANCH   7  11
ATOM     11  N   UNL     1     -11.274  31.570 -21.417  1.00  0.00    -0.382 N 
ATOM     12  H   UNL     1     -11.063  31.153 -20.483  1.00  0.00     0.158 HD
ATOM     13  H   UNL     1     -10.797  32.459 -21.685  1.00  0.00     0.158 HD
ENDBRANCH   7  11
TORSDOF 1
ENDMDL
MODEL 5
REMARK VINA RESULT:    -4.452     14.758     16.262
REMARK INTER + INTRA:          -4.582
REMARK INTER:                  -4.582
REMARK INTRA:                   0.000
REMARK UNBOUND:                 0.000
REMARK SMILES Nc1ncnc2nc[nH]c12
REMARK SMILES IDX 8 1 7 2 6 3 5 4 4 5 3 6 2 7 10 8 9 9 1 11
REMARK H PARENT 9 10 1 12 1 13
REMARK Flexibility Score: inf
ROOT
ATOM      1  C   UNL     1     -12.068  29.612 -27.271  1.00  0.00     0.199 A 
ATOM      2  N   UNL     1     -13.002  28.895 -26.587  1.00  0.00    -0.217 NA
ATOM      3  C   UNL     1     -13.422  29.779 -25.668  1.00  0.00     0.182 A 
ATOM      4  N   UNL     1     -14.364  29.569 -24.717  1.00  0.00    -0.215 NA
ATOM      5  C   UNL     1     -14.660  30.595 -23.864  1.00  0.00     0.226 A 
ATOM      6  N   UNL     1     -14.015  31.801 -23.976  1.00  0.00    -0.217 NA
ATOM      7  C   UNL     1     -13.065  32.015 -24.934  1.00  0.00     0.152 A 
ATOM      8  C   UNL     1     -12.775  30.960 -25.794  1.00  0.00     0.127 A 
ATOM      9  N   UNL     1     -11.907  30.878 -26.809  1.00  0.00    -0.340 N 
ATOM     10  H   UNL     1     -11.254  31.608 -27.171  1.00  0.00     0.168 HD
ENDROOT
BRANCH   7  11
ATOM     11  N   UNL     1     -12.407  33.279 -25.030  1.00  0.00    -0.382 N 
ATOM     12  H   UNL     1     -12.947  34.169 -25.097  1.00  0.00     0.158 HD
ATOM     13  H   UNL     1     -11.364  33.326 -25.034  1.00  0.00     0.158 HD
ENDBRANCH   7  11
TORSDOF 1
ENDMDL
MODEL 6
REMARK VINA RESULT:    -4.424     16.094     16.954
REMARK INTER + INTRA:          -4.553
REMARK INTER:                  -4.553
REMARK INTRA:                   0.000
REMARK UNBOUND:                 0.000
REMARK SMILES Nc1ncnc2nc[nH]c12
REMARK SMILES IDX 8 1 7 2 6 3 5 4 4 5 3 6 2 7 10 8 9 9 1 11
REMARK H PARENT 9 10 1 12 1 13
REMARK Flexibility Score: inf
ROOT
ATOM      1  C   UNL     1     -11.684  29.786 -26.248  1.00  0.00     0.199 A 
ATOM      2  N   UNL     1     -11.674  29.816 -24.887  1.00  0.00    -0.217 NA
ATOM      3  C   UNL     1     -12.454  30.876 -24.620  1.00  0.00     0.182 A 
ATOM      4  N   UNL     1     -12.778  31.353 -23.394  1.00  0.00    -0.215 NA
ATOM      5  C   UNL     1     -13.590  32.450 -23.321  1.00  0.00     0.226 A 
ATOM      6  N   UNL     1     -14.059  33.046 -24.465  1.00  0.00    -0.217 NA
ATOM      7  C   UNL     1     -13.734  32.567 -25.702  1.00  0.00     0.152 A 
ATOM      8  C   UNL     1     -12.906  31.449 -25.759  1.00  0.00     0.127 A 
ATOM      9  N   UNL     1     -12.429  30.772 -26.810  1.00  0.00    -0.340 N 
ATOM     10  H   UNL     1     -12.585  30.949 -27.827  1.00  0.00     0.168 HD
ENDROOT
BRANCH   7  11
ATOM     11  N   UNL     1     -14.234  33.204 -26.879  1.00  0.00    -0.382 N 
ATOM     12  H   UNL     1     -13.602  33.459 -27.669  1.00  0.00     0.158 HD
ATOM     13  H   UNL     1     -15.251  33.424 -26.962  1.00  0.00     0.158 HD
ENDBRANCH   7  11
TORSDOF 1
ENDMDL
MODEL 7
REMARK VINA RESULT:    -4.414      1.524      2.646
REMARK INTER + INTRA:          -4.543
REMARK INTER:                  -4.543
REMARK INTRA:                   0.000
REMARK UNBOUND:                 0.000
REMARK SMILES Nc1ncnc2nc[nH]c12
REMARK SMILES IDX 8 1 7 2 6 3 5 4 4 5 3 6 2 7 10 8 9 9 1 11
REMARK H PARENT 9 10 1 12 1 13
REMARK Flexibility Score: inf
ROOT
ATOM      1  C   UNL     1     -23.648  17.894 -21.146  1.00  0.00     0.199 A 
ATOM      2  N   UNL     1     -23.085  16.746 -20.678  1.00  0.00    -0.217 NA
ATOM      3  C   UNL     1     -21.780  16.951 -20.916  1.00  0.00     0.182 A 
ATOM      4  N   UNL     1     -20.764  16.100 -20.636  1.00  0.00    -0.215 NA
ATOM      5  C   UNL     1     -19.492  16.485 -20.955  1.00  0.00     0.226 A 
ATOM      6  N   UNL     1     -19.260  17.704 -21.542  1.00  0.00    -0.217 NA
ATOM      7  C   UNL     1     -20.284  18.564 -21.825  1.00  0.00     0.152 A 
ATOM      8  C   UNL     1     -21.573  18.156 -21.495  1.00  0.00     0.127 A 
ATOM      9  N   UNL     1     -22.749  18.776 -21.652  1.00  0.00    -0.340 N 
ATOM     10  H   UNL     1     -22.943  19.715 -22.063  1.00  0.00     0.168 HD
ENDROOT
BRANCH   7  11
ATOM     11  N   UNL     1     -20.018  19.826 -22.438  1.00  0.00    -0.382 N 
ATOM     12  H   UNL     1     -19.300  20.477 -22.051  1.00  0.00     0.158 HD
ATOM     13  H   UNL     1     -20.547  20.116 -23.290  1.00  0.00     0.158 HD
ENDBRANCH   7  11
TORSDOF 1
ENDMDL
MODEL 8
REMARK VINA RESULT:    -4.393      1.666      2.724
REMARK INTER + INTRA:          -4.521
REMARK INTER:                  -4.521
REMARK INTRA:                   0.000
REMARK UNBOUND:                 0.000
REMARK SMILES Nc1ncnc2nc[nH]c12
REMARK SMILES IDX 8 1 7 2 6 3 5 4 4 5 3 6 2 7 10 8 9 9 1 11
REMARK H PARENT 9 10 1 12 1 13
REMARK Flexibility Score: inf
ROOT
ATOM      1  C   UNL     1     -20.370  20.470 -21.576  1.00  0.00     0.199 A 
ATOM      2  N   UNL     1     -21.417  20.205 -20.747  1.00  0.00    -0.217 NA
ATOM      3  C   UNL     1     -21.428  18.863 -20.723  1.00  0.00     0.182 A 
ATOM      4  N   UNL     1     -22.289  18.074 -20.035  1.00  0.00    -0.215 NA
ATOM      5  C   UNL     1     -22.143  16.719 -20.135  1.00  0.00     0.226 A 
ATOM      6  N   UNL     1     -21.147  16.181 -20.912  1.00  0.00    -0.217 NA
ATOM      7  C   UNL     1     -20.278  16.975 -21.605  1.00  0.00     0.152 A 
ATOM      8  C   UNL     1     -20.441  18.353 -21.494  1.00  0.00     0.127 A 
ATOM      9  N   UNL     1     -19.753  19.358 -22.048  1.00  0.00    -0.340 N 
ATOM     10  H   UNL     1     -18.933  19.311 -22.693  1.00  0.00     0.168 HD
ENDROOT
BRANCH   7  11
ATOM     11  N   UNL     1     -19.250  16.392 -22.408  1.00  0.00    -0.382 N 
ATOM     12  H   UNL     1     -19.410  15.505 -22.936  1.00  0.00     0.158 HD
ATOM     13  H   UNL     1     -18.316  16.852 -22.477  1.00  0.00     0.158 HD
ENDBRANCH   7  11
TORSDOF 1
ENDMDL
MODEL 9
REMARK VINA RESULT:    -4.264     14.445     15.929
REMARK INTER + INTRA:          -4.388
REMARK INTER:                  -4.388
REMARK INTRA:                   0.000
REMARK UNBOUND:                 0.000
REMARK SMILES Nc1ncnc2nc[nH]c12
REMARK SMILES IDX 8 1 7 2 6 3 5 4 4 5 3 6 2 7 10 8 9 9 1 11
REMARK H PARENT 9 10 1 12 1 13
REMARK Flexibility Score: inf
ROOT
ATOM      1  C   UNL     1     -15.431  30.186 -24.612  1.00  0.00     0.199 A 
ATOM      2  N   UNL     1     -14.601  29.182 -24.218  1.00  0.00    -0.217 NA
ATOM      3  C   UNL     1     -13.402  29.787 -24.219  1.00  0.00     0.182 A 
ATOM      4  N   UNL     1     -12.212  29.224 -23.898  1.00  0.00    -0.215 NA
ATOM      5  C   UNL     1     -11.091  30.004 -23.960  1.00  0.00     0.226 A 
ATOM      6  N   UNL     1     -11.179  31.320 -24.337  1.00  0.00    -0.217 NA
ATOM      7  C   UNL     1     -12.377  31.890 -24.661  1.00  0.00     0.152 A 
ATOM      8  C   UNL     1     -13.509  31.082 -24.593  1.00  0.00     0.127 A 
ATOM      9  N   UNL     1     -14.793  31.361 -24.849  1.00  0.00    -0.340 N 
ATOM     10  H   UNL     1     -15.218  32.263 -25.157  1.00  0.00     0.168 HD
ENDROOT
BRANCH   7  11
ATOM     11  N   UNL     1     -12.444  33.262 -25.051  1.00  0.00    -0.382 N 
ATOM     12  H   UNL     1     -12.165  33.569 -26.009  1.00  0.00     0.158 HD
ATOM     13  H   UNL     1     -12.775  33.983 -24.373  1.00  0.00     0.158 HD
ENDBRANCH   7  11
TORSDOF 1
ENDMDL
