MODEL 1
REMARK VINA RESULT:    -4.069      0.000      0.000
REMARK INTER + INTRA:          -5.241
REMARK INTER:                  -5.021
REMARK INTRA:                  -0.220
REMARK UNBOUND:                -0.220
REMARK SMILES CCCCC=CC(C)=O
REMARK SMILES IDX 4 1 3 2 2 3 1 4 5 5 6 6 7 7 9 8 8 9
REMARK H PARENT
REMARK Flexibility Score: inf
ROOT
ATOM      1  C   UNL     1      32.770  40.412  85.502  1.00  0.00     0.027 C 
ENDROOT
BRANCH   1   2
ATOM      2  C   UNL     1      31.717  40.982  84.540  1.00  0.00     0.004 C 
BRANCH   2   3
ATOM      3  C   UNL     1      32.299  41.307  83.155  1.00  0.00    -0.003 C 
ATOM      4  C   UNL     1      32.614  42.792  82.982  1.00  0.00     0.004 C 
ENDBRANCH   2   3
ENDBRANCH   1   2
BRANCH   1   5
ATOM      5  C   UNL     1      33.873  39.722  84.752  1.00  0.00    -0.023 C 
ATOM      6  C   UNL     1      35.161  39.979  85.010  1.00  0.00     0.042 C 
BRANCH   6   7
ATOM      7  C   UNL     1      36.259  39.305  84.294  1.00  0.00     0.152 C 
ATOM      8  O   UNL     1      36.034  38.296  83.569  1.00  0.00    -0.295 OA
ATOM      9  C   UNL     1      37.655  39.820  84.426  1.00  0.00     0.093 C 
ENDBRANCH   6   7
ENDBRANCH   1   5
TORSDOF 4
ENDMDL
MODEL 2
REMARK VINA RESULT:    -4.037      1.151      1.547
REMARK INTER + INTRA:          -5.201
REMARK INTER:                  -4.946
REMARK INTRA:                  -0.255
REMARK UNBOUND:                -0.220
REMARK SMILES CCCCC=CC(C)=O
REMARK SMILES IDX 4 1 3 2 2 3 1 4 5 5 6 6 7 7 9 8 8 9
REMARK H PARENT
REMARK Flexibility Score: inf
ROOT
ATOM      1  C   UNL     1      32.180  40.156  85.306  1.00  0.00     0.027 C 
ENDROOT
BRANCH   1   2
ATOM      2  C   UNL     1      31.722  41.017  84.119  1.00  0.00     0.004 C 
BRANCH   2   3
ATOM      3  C   UNL     1      31.163  42.378  84.561  1.00  0.00    -0.003 C 
ATOM      4  C   UNL     1      31.104  42.527  86.080  1.00  0.00     0.004 C 
ENDBRANCH   2   3
ENDBRANCH   1   2
BRANCH   1   5
ATOM      5  C   UNL     1      33.638  39.813  85.196  1.00  0.00    -0.023 C 
ATOM      6  C   UNL     1      34.360  40.163  84.125  1.00  0.00     0.042 C 
BRANCH   6   7
ATOM      7  C   UNL     1      35.794  39.848  84.002  1.00  0.00     0.152 C 
ATOM      8  O   UNL     1      36.178  38.671  83.759  1.00  0.00    -0.295 OA
ATOM      9  C   UNL     1      36.808  40.934  84.165  1.00  0.00     0.093 C 
ENDBRANCH   6   7
ENDBRANCH   1   5
TORSDOF 4
ENDMDL
MODEL 3
REMARK VINA RESULT:    -4.032      1.506      2.329
REMARK INTER + INTRA:          -5.195
REMARK INTER:                  -4.906
REMARK INTRA:                  -0.288
REMARK UNBOUND:                -0.220
REMARK SMILES CCCCC=CC(C)=O
REMARK SMILES IDX 4 1 3 2 2 3 1 4 5 5 6 6 7 7 9 8 8 9
REMARK H PARENT
REMARK Flexibility Score: inf
ROOT
ATOM      1  C   UNL     1      33.856  42.188  82.952  1.00  0.00     0.027 C 
ENDROOT
BRANCH   1   2
ATOM      2  C   UNL     1      33.044  40.884  82.944  1.00  0.00     0.004 C 
BRANCH   2   3
ATOM      3  C   UNL     1      31.899  40.897  83.969  1.00  0.00    -0.003 C 
ATOM      4  C   UNL     1      32.251  40.149  85.254  1.00  0.00     0.004 C 
ENDBRANCH   2   3
ENDBRANCH   1   2
BRANCH   1   5
ATOM      5  C   UNL     1      35.277  41.939  83.371  1.00  0.00    -0.023 C 
ATOM      6  C   UNL     1      35.656  40.766  83.891  1.00  0.00     0.042 C 
BRANCH   6   7
ATOM      7  C   UNL     1      37.047  40.496  84.299  1.00  0.00     0.152 C 
ATOM      8  O   UNL     1      37.408  39.334  84.630  1.00  0.00    -0.295 OA
ATOM      9  C   UNL     1      38.042  41.611  84.318  1.00  0.00     0.093 C 
ENDBRANCH   6   7
ENDBRANCH   1   5
TORSDOF 4
ENDMDL
MODEL 4
REMARK VINA RESULT:    -3.875      2.951      3.761
REMARK INTER + INTRA:          -5.001
REMARK INTER:                  -4.835
REMARK INTRA:                  -0.166
REMARK UNBOUND:                -0.220
REMARK SMILES CCCCC=CC(C)=O
REMARK SMILES IDX 4 1 3 2 2 3 1 4 5 5 6 6 7 7 9 8 8 9
REMARK H PARENT
REMARK Flexibility Score: inf
ROOT
ATOM      1  C   UNL     1      32.996  40.977  82.801  1.00  0.00     0.027 C 
ENDROOT
BRANCH   1   2
ATOM      2  C   UNL     1      31.908  41.020  83.885  1.00  0.00     0.004 C 
BRANCH   2   3
ATOM      3  C   UNL     1      32.394  40.457  85.230  1.00  0.00    -0.003 C 
ATOM      4  C   UNL     1      33.701  39.676  85.104  1.00  0.00     0.004 C 
ENDBRANCH   2   3
ENDBRANCH   1   2
BRANCH   1   5
ATOM      5  C   UNL     1      33.750  42.274  82.739  1.00  0.00    -0.023 C 
ATOM      6  C   UNL     1      35.069  42.327  82.959  1.00  0.00     0.042 C 
BRANCH   6   7
ATOM      7  C   UNL     1      35.830  43.587  82.891  1.00  0.00     0.152 C 
ATOM      8  O   UNL     1      35.269  44.664  82.547  1.00  0.00    -0.295 OA
ATOM      9  C   UNL     1      37.285  43.593  83.236  1.00  0.00     0.093 C 
ENDBRANCH   6   7
ENDBRANCH   1   5
TORSDOF 4
ENDMDL
MODEL 5
REMARK VINA RESULT:    -3.752      3.053      3.390
REMARK INTER + INTRA:          -4.849
REMARK INTER:                  -4.592
REMARK INTRA:                  -0.257
REMARK UNBOUND:                -0.220
REMARK SMILES CCCCC=CC(C)=O
REMARK SMILES IDX 4 1 3 2 2 3 1 4 5 5 6 6 7 7 9 8 8 9
REMARK H PARENT
REMARK Flexibility Score: inf
ROOT
ATOM      1  C   UNL     1      33.865  39.799  85.070  1.00  0.00     0.027 C 
ENDROOT
BRANCH   1   2
ATOM      2  C   UNL     1      32.370  40.133  85.182  1.00  0.00     0.004 C 
BRANCH   2   3
ATOM      3  C   UNL     1      31.842  40.890  83.953  1.00  0.00    -0.003 C 
ATOM      4  C   UNL     1      32.871  40.975  82.827  1.00  0.00     0.004 C 
ENDBRANCH   2   3
ENDBRANCH   1   2
BRANCH   1   5
ATOM      5  C   UNL     1      34.669  40.564  86.083  1.00  0.00    -0.023 C 
ATOM      6  C   UNL     1      34.424  41.855  86.338  1.00  0.00     0.042 C 
BRANCH   6   7
ATOM      7  C   UNL     1      35.192  42.621  87.335  1.00  0.00     0.152 C 
ATOM      8  O   UNL     1      34.627  43.101  88.356  1.00  0.00    -0.295 OA
ATOM      9  C   UNL     1      36.659  42.833  87.138  1.00  0.00     0.093 C 
ENDBRANCH   6   7
ENDBRANCH   1   5
TORSDOF 4
ENDMDL
MODEL 6
REMARK VINA RESULT:    -3.724      2.229      2.599
REMARK INTER + INTRA:          -4.815
REMARK INTER:                  -4.573
REMARK INTRA:                  -0.242
REMARK UNBOUND:                -0.220
REMARK SMILES CCCCC=CC(C)=O
REMARK SMILES IDX 4 1 3 2 2 3 1 4 5 5 6 6 7 7 9 8 8 9
REMARK H PARENT
REMARK Flexibility Score: inf
ROOT
ATOM      1  C   UNL     1      34.020  39.717  85.014  1.00  0.00     0.027 C 
ENDROOT
BRANCH   1   2
ATOM      2  C   UNL     1      32.541  40.046  85.267  1.00  0.00     0.004 C 
BRANCH   2   3
ATOM      3  C   UNL     1      31.904  40.823  84.104  1.00  0.00    -0.003 C 
ATOM      4  C   UNL     1      31.252  42.129  84.556  1.00  0.00     0.004 C 
ENDBRANCH   2   3
ENDBRANCH   1   2
BRANCH   1   5
ATOM      5  C   UNL     1      34.718  40.853  84.322  1.00  0.00    -0.023 C 
ATOM      6  C   UNL     1      35.999  41.143  84.574  1.00  0.00     0.042 C 
BRANCH   6   7
ATOM      7  C   UNL     1      36.707  42.245  83.898  1.00  0.00     0.152 C 
ATOM      8  O   UNL     1      37.954  42.386  84.025  1.00  0.00    -0.295 OA
ATOM      9  C   UNL     1      35.939  43.207  83.050  1.00  0.00     0.093 C 
ENDBRANCH   6   7
ENDBRANCH   1   5
TORSDOF 4
ENDMDL
MODEL 7
REMARK VINA RESULT:    -3.711      2.727      5.029
REMARK INTER + INTRA:          -4.798
REMARK INTER:                  -4.693
REMARK INTRA:                  -0.106
REMARK UNBOUND:                -0.220
REMARK SMILES CCCCC=CC(C)=O
REMARK SMILES IDX 4 1 3 2 2 3 1 4 5 5 6 6 7 7 9 8 8 9
REMARK H PARENT
REMARK Flexibility Score: inf
ROOT
ATOM      1  C   UNL     1      33.938  39.578  85.305  1.00  0.00     0.027 C 
ENDROOT
BRANCH   1   2
ATOM      2  C   UNL     1      34.777  39.841  84.045  1.00  0.00     0.004 C 
BRANCH   2   3
ATOM      3  C   UNL     1      36.025  38.947  83.972  1.00  0.00    -0.003 C 
ATOM      4  C   UNL     1      37.301  39.681  84.381  1.00  0.00     0.004 C 
ENDBRANCH   2   3
ENDBRANCH   1   2
BRANCH   1   5
ATOM      5  C   UNL     1      32.652  40.354  85.271  1.00  0.00    -0.023 C 
ATOM      6  C   UNL     1      32.554  41.568  85.824  1.00  0.00     0.042 C 
BRANCH   6   7
ATOM      7  C   UNL     1      31.306  42.351  85.792  1.00  0.00     0.152 C 
ATOM      8  O   UNL     1      30.774  42.675  84.694  1.00  0.00    -0.295 OA
ATOM      9  C   UNL     1      30.660  42.767  87.074  1.00  0.00     0.093 C 
ENDBRANCH   6   7
ENDBRANCH   1   5
TORSDOF 4
ENDMDL
MODEL 8
REMARK VINA RESULT:    -3.692      2.494      3.053
REMARK INTER + INTRA:          -4.775
REMARK INTER:                  -4.529
REMARK INTRA:                  -0.246
REMARK UNBOUND:                -0.220
REMARK SMILES CCCCC=CC(C)=O
REMARK SMILES IDX 4 1 3 2 2 3 1 4 5 5 6 6 7 7 9 8 8 9
REMARK H PARENT
REMARK Flexibility Score: inf
ROOT
ATOM      1  C   UNL     1      34.268  40.638  82.493  1.00  0.00     0.027 C 
ENDROOT
BRANCH   1   2
ATOM      2  C   UNL     1      32.791  40.914  82.813  1.00  0.00     0.004 C 
BRANCH   2   3
ATOM      3  C   UNL     1      32.570  41.301  84.284  1.00  0.00    -0.003 C 
ATOM      4  C   UNL     1      32.383  40.086  85.191  1.00  0.00     0.004 C 
ENDBRANCH   2   3
ENDBRANCH   1   2
BRANCH   1   5
ATOM      5  C   UNL     1      35.166  41.624  83.183  1.00  0.00    -0.023 C 
ATOM      6  C   UNL     1      36.172  41.223  83.968  1.00  0.00     0.042 C 
BRANCH   6   7
ATOM      7  C   UNL     1      37.073  42.173  84.645  1.00  0.00     0.152 C 
ATOM      8  O   UNL     1      38.083  42.641  84.051  1.00  0.00    -0.295 OA
ATOM      9  C   UNL     1      36.787  42.590  86.052  1.00  0.00     0.093 C 
ENDBRANCH   6   7
ENDBRANCH   1   5
TORSDOF 4
ENDMDL
MODEL 9
REMARK VINA RESULT:    -3.586      3.137      5.114
REMARK INTER + INTRA:          -4.644
REMARK INTER:                  -4.400
REMARK INTRA:                  -0.244
REMARK UNBOUND:                -0.220
REMARK SMILES CCCCC=CC(C)=O
REMARK SMILES IDX 4 1 3 2 2 3 1 4 5 5 6 6 7 7 9 8 8 9
REMARK H PARENT
REMARK Flexibility Score: inf
ROOT
ATOM      1  C   UNL     1      32.215  40.139  85.357  1.00  0.00     0.027 C 
ENDROOT
BRANCH   1   2
ATOM      2  C   UNL     1      33.689  39.774  85.125  1.00  0.00     0.004 C 
BRANCH   2   3
ATOM      3  C   UNL     1      34.223  40.302  83.784  1.00  0.00    -0.003 C 
ATOM      4  C   UNL     1      35.749  40.305  83.717  1.00  0.00     0.004 C 
ENDBRANCH   2   3
ENDBRANCH   1   2
BRANCH   1   5
ATOM      5  C   UNL     1      31.791  41.272  84.468  1.00  0.00    -0.023 C 
ATOM      6  C   UNL     1      31.135  42.333  84.953  1.00  0.00     0.042 C 
BRANCH   6   7
ATOM      7  C   UNL     1      30.720  43.462  84.101  1.00  0.00     0.152 C 
ATOM      8  O   UNL     1      29.714  44.161  84.401  1.00  0.00    -0.295 OA
ATOM      9  C   UNL     1      31.500  43.784  82.868  1.00  0.00     0.093 C 
ENDBRANCH   6   7
ENDBRANCH   1   5
TORSDOF 4
ENDMDL
