MODEL 1
REMARK VINA RESULT:    58.777      0.000      0.000
REMARK INTER + INTRA:          73.336
REMARK INTER:                  74.240
REMARK INTRA:                  -0.904
REMARK UNBOUND:                -0.904
REMARK SMILES CC(C)[C@@H](C)C=C[C@H](C)[C@@H]1CC[C@H]2C3=CC=C4C[C@@H](O)CC[C@]4(C)[C@@H]3CC[C@@]21C
REMARK SMILES IDX 8 1 9 2 7 3 6 4 4 5 5 6 2 7 1 8 3 9 10 10 11 11 28 12 12 13
REMARK SMILES IDX 13 14 27 15 29 16 14 17 26 18 25 19 15 20 23 21 16 22 17 23
REMARK SMILES IDX 22 24 24 25 18 26 21 27 19 28 20 29
REMARK H PARENT 20 30
REMARK Flexibility Score: inf
ROOT
ATOM      1  C   UNL     1     -38.761  22.370   5.484  1.00  0.00     0.012 C 
ATOM      2  C   UNL     1     -40.117  21.711   5.808  1.00  0.00     0.012 C 
ENDROOT
BRANCH   1   3
ATOM      3  C   UNL     1     -39.014  23.364   4.367  1.00  0.00    -0.028 C 
ATOM      4  C   UNL     1     -38.064  23.659   3.462  1.00  0.00    -0.028 C 
BRANCH   4   5
ATOM      5  C   UNL     1     -38.298  24.634   2.325  1.00  0.00     0.011 C 
ATOM      6  C   UNL     1     -37.055  24.672   1.417  1.00  0.00     0.012 C 
BRANCH   5   7
ATOM      7  C   UNL     1     -38.709  26.046   2.845  1.00  0.00    -0.011 C 
ATOM      8  C   UNL     1     -40.084  26.006   3.537  1.00  0.00     0.008 C 
ATOM      9  C   UNL     1     -38.749  27.084   1.710  1.00  0.00     0.008 C 
ENDBRANCH   5   7
ENDBRANCH   4   5
ENDBRANCH   1   3
BRANCH   1  10
ATOM     10  C   UNL     1     -38.147  23.062   6.745  1.00  0.00     0.002 C 
ATOM     11  C   UNL     1     -38.890  24.379   7.131  1.00  0.00     0.005 C 
ATOM     12  C   UNL     1     -36.616  23.466   6.695  1.00  0.00    -0.023 C 
ATOM     13  C   UNL     1     -37.836  25.444   7.402  1.00  0.00     0.009 C 
ATOM     14  C   UNL     1     -36.673  24.994   6.540  1.00  0.00     0.021 C 
ATOM     15  C   UNL     1     -35.700  22.900   5.547  1.00  0.00     0.008 C 
ATOM     16  C   UNL     1     -36.000  23.039   8.067  1.00  0.00     0.012 C 
ATOM     17  C   UNL     1     -35.310  25.621   6.734  1.00  0.00    -0.063 C 
ATOM     18  C   UNL     1     -34.621  23.895   5.017  1.00  0.00     0.009 C 
ATOM     19  C   UNL     1     -34.127  24.945   6.060  1.00  0.00     0.025 C 
ATOM     20  C   UNL     1     -35.119  26.736   7.445  1.00  0.00    -0.000 C 
ATOM     21  C   UNL     1     -33.069  25.982   5.511  1.00  0.00    -0.005 C 
ATOM     22  C   UNL     1     -33.832  27.439   7.411  1.00  0.00    -0.000 C 
ATOM     23  C   UNL     1     -32.878  27.131   6.511  1.00  0.00    -0.061 C 
ATOM     24  C   UNL     1     -33.508  26.634   4.167  1.00  0.00     0.014 C 
ATOM     25  C   UNL     1     -31.722  25.230   5.321  1.00  0.00     0.017 C 
ATOM     26  C   UNL     1     -31.889  28.208   6.141  1.00  0.00     0.063 C 
ATOM     27  C   UNL     1     -32.578  27.785   3.712  1.00  0.00     0.033 C 
ATOM     28  C   UNL     1     -32.351  28.844   4.817  1.00  0.00     0.118 C 
BRANCH  28  29
ATOM     29  O   UNL     1     -31.435  29.819   4.388  1.00  0.00    -0.393 OA
ATOM     30  H   UNL     1     -31.761  30.700   4.710  1.00  0.00     0.210 HD
ENDBRANCH  28  29
ENDBRANCH   1  10
TORSDOF 5
ENDMDL
