MODEL 1
REMARK VINA RESULT:    -4.120      0.000      0.000
REMARK INTER + INTRA:          -4.240
REMARK INTER:                  -4.240
REMARK INTRA:                   0.000
REMARK UNBOUND:                 0.000
REMARK SMILES Nc1ncnc2nc[nH]c12
REMARK SMILES IDX 8 1 7 2 6 3 5 4 4 5 3 6 2 7 10 8 9 9 1 11
REMARK H PARENT 9 10 1 12 1 13
REMARK Flexibility Score: inf
ROOT
ATOM      1  C   UNL     1      45.794  40.111   7.585  1.00  0.00     0.199 A 
ATOM      2  N   UNL     1      47.073  40.094   7.118  1.00  0.00    -0.217 NA
ATOM      3  C   UNL     1      47.197  41.320   6.582  1.00  0.00     0.182 A 
ATOM      4  N   UNL     1      48.294  41.828   5.973  1.00  0.00    -0.215 NA
ATOM      5  C   UNL     1      48.229  43.105   5.486  1.00  0.00     0.226 A 
ATOM      6  N   UNL     1      47.079  43.842   5.616  1.00  0.00    -0.217 NA
ATOM      7  C   UNL     1      45.970  43.331   6.230  1.00  0.00     0.152 A 
ATOM      8  C   UNL     1      46.054  42.030   6.720  1.00  0.00     0.127 A 
ATOM      9  N   UNL     1      45.144  41.279   7.356  1.00  0.00    -0.340 N 
ATOM     10  H   UNL     1      44.165  41.525   7.621  1.00  0.00     0.168 HD
ENDROOT
BRANCH   7  11
ATOM     11  N   UNL     1      44.785  44.116   6.354  1.00  0.00    -0.382 N 
ATOM     12  H   UNL     1      43.949  43.762   6.869  1.00  0.00     0.158 HD
ATOM     13  H   UNL     1      44.741  45.066   5.923  1.00  0.00     0.158 HD
ENDBRANCH   7  11
TORSDOF 1
ENDMDL
MODEL 2
REMARK VINA RESULT:    -4.055      6.480      8.056
REMARK INTER + INTRA:          -4.173
REMARK INTER:                  -4.173
REMARK INTRA:                   0.000
REMARK UNBOUND:                 0.000
REMARK SMILES Nc1ncnc2nc[nH]c12
REMARK SMILES IDX 8 1 7 2 6 3 5 4 4 5 3 6 2 7 10 8 9 9 1 11
REMARK H PARENT 9 10 1 12 1 13
REMARK Flexibility Score: inf
ROOT
ATOM      1  C   UNL     1      41.664  35.107  10.400  1.00  0.00     0.199 A 
ATOM      2  N   UNL     1      41.152  35.823  11.437  1.00  0.00    -0.217 NA
ATOM      3  C   UNL     1      41.178  37.078  10.958  1.00  0.00     0.182 A 
ATOM      4  N   UNL     1      40.771  38.198  11.602  1.00  0.00    -0.215 NA
ATOM      5  C   UNL     1      40.876  39.394  10.945  1.00  0.00     0.226 A 
ATOM      6  N   UNL     1      41.381  39.446   9.670  1.00  0.00    -0.217 NA
ATOM      7  C   UNL     1      41.792  38.317   9.019  1.00  0.00     0.152 A 
ATOM      8  C   UNL     1      41.679  37.109   9.701  1.00  0.00     0.127 A 
ATOM      9  N   UNL     1      41.996  35.863   9.324  1.00  0.00    -0.340 N 
ATOM     10  H   UNL     1      42.402  35.539   8.419  1.00  0.00     0.168 HD
ENDROOT
BRANCH   7  11
ATOM     11  N   UNL     1      42.314  38.396   7.693  1.00  0.00    -0.382 N 
ATOM     12  H   UNL     1      43.332  38.267   7.500  1.00  0.00     0.158 HD
ATOM     13  H   UNL     1      41.674  38.588   6.891  1.00  0.00     0.158 HD
ENDBRANCH   7  11
TORSDOF 1
ENDMDL
MODEL 3
REMARK VINA RESULT:    -4.055      6.665      8.256
REMARK INTER + INTRA:          -4.173
REMARK INTER:                  -4.173
REMARK INTRA:                   0.000
REMARK UNBOUND:                 0.000
REMARK SMILES Nc1ncnc2nc[nH]c12
REMARK SMILES IDX 8 1 7 2 6 3 5 4 4 5 3 6 2 7 10 8 9 9 1 11
REMARK H PARENT 9 10 1 12 1 13
REMARK Flexibility Score: inf
ROOT
ATOM      1  C   UNL     1      40.874  35.086  11.415  1.00  0.00     0.199 A 
ATOM      2  N   UNL     1      41.355  35.195  10.146  1.00  0.00    -0.217 NA
ATOM      3  C   UNL     1      41.582  36.515  10.039  1.00  0.00     0.182 A 
ATOM      4  N   UNL     1      42.072  37.165   8.957  1.00  0.00    -0.215 NA
ATOM      5  C   UNL     1      42.236  38.521   9.040  1.00  0.00     0.226 A 
ATOM      6  N   UNL     1      41.910  39.194  10.191  1.00  0.00    -0.217 NA
ATOM      7  C   UNL     1      41.416  38.538  11.283  1.00  0.00     0.152 A 
ATOM      8  C   UNL     1      41.256  37.159  11.183  1.00  0.00     0.127 A 
ATOM      9  N   UNL     1      40.801  36.269  12.075  1.00  0.00    -0.340 N 
ATOM     10  H   UNL     1      40.468  36.434  13.050  1.00  0.00     0.168 HD
ENDROOT
BRANCH   7  11
ATOM     11  N   UNL     1      41.084  39.259  12.470  1.00  0.00    -0.382 N 
ATOM     12  H   UNL     1      41.382  40.250  12.606  1.00  0.00     0.158 HD
ATOM     13  H   UNL     1      40.533  38.794  13.226  1.00  0.00     0.158 HD
ENDBRANCH   7  11
TORSDOF 1
ENDMDL
MODEL 4
REMARK VINA RESULT:    -4.045      1.070      1.132
REMARK INTER + INTRA:          -4.163
REMARK INTER:                  -4.163
REMARK INTRA:                   0.000
REMARK UNBOUND:                 0.000
REMARK SMILES Nc1ncnc2nc[nH]c12
REMARK SMILES IDX 8 1 7 2 6 3 5 4 4 5 3 6 2 7 10 8 9 9 1 11
REMARK H PARENT 9 10 1 12 1 13
REMARK Flexibility Score: inf
ROOT
ATOM      1  C   UNL     1      45.052  39.632   8.044  1.00  0.00     0.199 A 
ATOM      2  N   UNL     1      46.378  39.342   7.938  1.00  0.00    -0.217 NA
ATOM      3  C   UNL     1      46.857  40.425   7.303  1.00  0.00     0.182 A 
ATOM      4  N   UNL     1      48.144  40.649   6.947  1.00  0.00    -0.215 NA
ATOM      5  C   UNL     1      48.441  41.820   6.304  1.00  0.00     0.226 A 
ATOM      6  N   UNL     1      47.455  42.734   6.032  1.00  0.00    -0.217 NA
ATOM      7  C   UNL     1      46.155  42.509   6.390  1.00  0.00     0.152 A 
ATOM      8  C   UNL     1      45.870  41.314   7.044  1.00  0.00     0.127 A 
ATOM      9  N   UNL     1      44.710  40.830   7.506  1.00  0.00    -0.340 N 
ATOM     10  H   UNL     1      43.761  41.263   7.470  1.00  0.00     0.168 HD
ENDROOT
BRANCH   7  11
ATOM     11  N   UNL     1      45.146  43.475   6.097  1.00  0.00    -0.382 N 
ATOM     12  H   UNL     1      45.231  44.466   6.416  1.00  0.00     0.158 HD
ATOM     13  H   UNL     1      44.299  43.196   5.553  1.00  0.00     0.158 HD
ENDBRANCH   7  11
TORSDOF 1
ENDMDL
MODEL 5
REMARK VINA RESULT:    -4.043      0.918      2.999
REMARK INTER + INTRA:          -4.161
REMARK INTER:                  -4.161
REMARK INTRA:                   0.000
REMARK UNBOUND:                 0.000
REMARK SMILES Nc1ncnc2nc[nH]c12
REMARK SMILES IDX 8 1 7 2 6 3 5 4 4 5 3 6 2 7 10 8 9 9 1 11
REMARK H PARENT 9 10 1 12 1 13
REMARK Flexibility Score: inf
ROOT
ATOM      1  C   UNL     1      45.825  44.023   6.132  1.00  0.00     0.199 A 
ATOM      2  N   UNL     1      47.061  43.585   5.765  1.00  0.00    -0.217 NA
ATOM      3  C   UNL     1      47.035  42.300   6.156  1.00  0.00     0.182 A 
ATOM      4  N   UNL     1      48.033  41.395   6.021  1.00  0.00    -0.215 NA
ATOM      5  C   UNL     1      47.818  40.124   6.483  1.00  0.00     0.226 A 
ATOM      6  N   UNL     1      46.622  39.788   7.064  1.00  0.00    -0.217 NA
ATOM      7  C   UNL     1      45.614  40.700   7.200  1.00  0.00     0.152 A 
ATOM      8  C   UNL     1      45.848  41.987   6.725  1.00  0.00     0.127 A 
ATOM      9  N   UNL     1      45.060  43.071   6.722  1.00  0.00    -0.340 N 
ATOM     10  H   UNL     1      44.086  43.171   7.084  1.00  0.00     0.168 HD
ENDROOT
BRANCH   7  11
ATOM     11  N   UNL     1      44.377  40.326   7.808  1.00  0.00    -0.382 N 
ATOM     12  H   UNL     1      43.628  39.844   7.265  1.00  0.00     0.158 HD
ATOM     13  H   UNL     1      44.208  40.536   8.817  1.00  0.00     0.158 HD
ENDBRANCH   7  11
TORSDOF 1
ENDMDL
MODEL 6
REMARK VINA RESULT:    -4.031      5.380      7.565
REMARK INTER + INTRA:          -4.149
REMARK INTER:                  -4.149
REMARK INTRA:                   0.000
REMARK UNBOUND:                 0.000
REMARK SMILES Nc1ncnc2nc[nH]c12
REMARK SMILES IDX 8 1 7 2 6 3 5 4 4 5 3 6 2 7 10 8 9 9 1 11
REMARK H PARENT 9 10 1 12 1 13
REMARK Flexibility Score: inf
ROOT
ATOM      1  C   UNL     1      43.707  39.102   8.576  1.00  0.00     0.199 A 
ATOM      2  N   UNL     1      42.711  38.481   7.887  1.00  0.00    -0.217 NA
ATOM      3  C   UNL     1      41.776  38.303   8.835  1.00  0.00     0.182 A 
ATOM      4  N   UNL     1      40.564  37.721   8.675  1.00  0.00    -0.215 NA
ATOM      5  C   UNL     1      39.742  37.631   9.766  1.00  0.00     0.226 A 
ATOM      6  N   UNL     1      40.145  38.121  10.983  1.00  0.00    -0.217 NA
ATOM      7  C   UNL     1      41.367  38.709  11.145  1.00  0.00     0.152 A 
ATOM      8  C   UNL     1      42.191  38.793  10.026  1.00  0.00     0.127 A 
ATOM      9  N   UNL     1      43.420  39.306   9.886  1.00  0.00    -0.340 N 
ATOM     10  H   UNL     1      44.023  39.760  10.606  1.00  0.00     0.168 HD
ENDROOT
BRANCH   7  11
ATOM     11  N   UNL     1      41.764  39.212  12.421  1.00  0.00    -0.382 N 
ATOM     12  H   UNL     1      42.058  40.205  12.548  1.00  0.00     0.158 HD
ATOM     13  H   UNL     1      41.766  38.581  13.253  1.00  0.00     0.158 HD
ENDBRANCH   7  11
TORSDOF 1
ENDMDL
MODEL 7
REMARK VINA RESULT:    -3.953      1.607      2.702
REMARK INTER + INTRA:          -4.068
REMARK INTER:                  -4.068
REMARK INTRA:                   0.000
REMARK UNBOUND:                 0.000
REMARK SMILES Nc1ncnc2nc[nH]c12
REMARK SMILES IDX 8 1 7 2 6 3 5 4 4 5 3 6 2 7 10 8 9 9 1 11
REMARK H PARENT 9 10 1 12 1 13
REMARK Flexibility Score: inf
ROOT
ATOM      1  C   UNL     1      48.204  38.463   8.182  1.00  0.00     0.199 A 
ATOM      2  N   UNL     1      48.858  39.512   7.613  1.00  0.00    -0.217 NA
ATOM      3  C   UNL     1      47.847  40.333   7.282  1.00  0.00     0.182 A 
ATOM      4  N   UNL     1      47.951  41.540   6.677  1.00  0.00    -0.215 NA
ATOM      5  C   UNL     1      46.800  42.234   6.421  1.00  0.00     0.226 A 
ATOM      6  N   UNL     1      45.580  41.713   6.771  1.00  0.00    -0.217 NA
ATOM      7  C   UNL     1      45.474  40.496   7.382  1.00  0.00     0.152 A 
ATOM      8  C   UNL     1      46.654  39.802   7.636  1.00  0.00     0.127 A 
ATOM      9  N   UNL     1      46.856  38.609   8.211  1.00  0.00    -0.340 N 
ATOM     10  H   UNL     1      46.152  37.942   8.596  1.00  0.00     0.168 HD
ENDROOT
BRANCH   7  11
ATOM     11  N   UNL     1      44.193  39.974   7.737  1.00  0.00    -0.382 N 
ATOM     12  H   UNL     1      43.410  39.936   7.048  1.00  0.00     0.158 HD
ATOM     13  H   UNL     1      44.024  39.621   8.706  1.00  0.00     0.158 HD
ENDBRANCH   7  11
TORSDOF 1
ENDMDL
MODEL 8
REMARK VINA RESULT:    -3.936      6.445      8.064
REMARK INTER + INTRA:          -4.051
REMARK INTER:                  -4.051
REMARK INTRA:                   0.000
REMARK UNBOUND:                 0.000
REMARK SMILES Nc1ncnc2nc[nH]c12
REMARK SMILES IDX 8 1 7 2 6 3 5 4 4 5 3 6 2 7 10 8 9 9 1 11
REMARK H PARENT 9 10 1 12 1 13
REMARK Flexibility Score: inf
ROOT
ATOM      1  C   UNL     1      40.250  40.329  10.868  1.00  0.00     0.199 A 
ATOM      2  N   UNL     1      40.103  39.197  11.610  1.00  0.00    -0.217 NA
ATOM      3  C   UNL     1      40.690  38.270  10.834  1.00  0.00     0.182 A 
ATOM      4  N   UNL     1      40.820  36.951  11.111  1.00  0.00    -0.215 NA
ATOM      5  C   UNL     1      41.454  36.159  10.192  1.00  0.00     0.226 A 
ATOM      6  N   UNL     1      41.939  36.696   9.026  1.00  0.00    -0.217 NA
ATOM      7  C   UNL     1      41.808  38.027   8.746  1.00  0.00     0.152 A 
ATOM      8  C   UNL     1      41.162  38.819   9.691  1.00  0.00     0.127 A 
ATOM      9  N   UNL     1      40.892  40.131   9.689  1.00  0.00    -0.340 N 
ATOM     10  H   UNL     1      41.119  40.843   8.961  1.00  0.00     0.168 HD
ENDROOT
BRANCH   7  11
ATOM     11  N   UNL     1      42.321  38.563   7.526  1.00  0.00    -0.382 N 
ATOM     12  H   UNL     1      43.098  39.260   7.523  1.00  0.00     0.158 HD
ATOM     13  H   UNL     1      41.917  38.261   6.612  1.00  0.00     0.158 HD
ENDBRANCH   7  11
TORSDOF 1
ENDMDL
MODEL 9
REMARK VINA RESULT:    -3.932      6.782      9.116
REMARK INTER + INTRA:          -4.047
REMARK INTER:                  -4.047
REMARK INTRA:                   0.000
REMARK UNBOUND:                 0.000
REMARK SMILES Nc1ncnc2nc[nH]c12
REMARK SMILES IDX 8 1 7 2 6 3 5 4 4 5 3 6 2 7 10 8 9 9 1 11
REMARK H PARENT 9 10 1 12 1 13
REMARK Flexibility Score: inf
ROOT
ATOM      1  C   UNL     1      42.179  37.846   7.921  1.00  0.00     0.199 A 
ATOM      2  N   UNL     1      40.979  38.416   8.218  1.00  0.00    -0.217 NA
ATOM      3  C   UNL     1      40.550  37.659   9.243  1.00  0.00     0.182 A 
ATOM      4  N   UNL     1      39.388  37.803   9.922  1.00  0.00    -0.215 NA
ATOM      5  C   UNL     1      39.125  36.930  10.943  1.00  0.00     0.226 A 
ATOM      6  N   UNL     1      40.021  35.941  11.262  1.00  0.00    -0.217 NA
ATOM      7  C   UNL     1      41.195  35.795  10.577  1.00  0.00     0.152 A 
ATOM      8  C   UNL     1      41.447  36.691   9.542  1.00  0.00     0.127 A 
ATOM      9  N   UNL     1      42.494  36.790   8.712  1.00  0.00    -0.340 N 
ATOM     10  H   UNL     1      43.354  36.201   8.674  1.00  0.00     0.168 HD
ENDROOT
BRANCH   7  11
ATOM     11  N   UNL     1      42.112  34.759  10.927  1.00  0.00    -0.382 N 
ATOM     12  H   UNL     1      41.951  34.146  11.756  1.00  0.00     0.158 HD
ATOM     13  H   UNL     1      42.968  34.602  10.348  1.00  0.00     0.158 HD
ENDBRANCH   7  11
TORSDOF 1
ENDMDL
