MODEL 1
REMARK VINA RESULT:    -3.828      0.000      0.000
REMARK INTER + INTRA:          -5.540
REMARK INTER:                  -5.170
REMARK INTRA:                  -0.370
REMARK UNBOUND:                -0.370
REMARK SMILES O=C[C@@H](O)[C@@H](O)[C@H](O)CO
REMARK SMILES IDX 7 1 9 2 10 3 5 5 3 6 2 7 1 8 4 9 6 11 8 13
REMARK H PARENT 10 4 4 10 6 12 8 14
REMARK Flexibility Score: inf
ROOT
ATOM      1  C   UNL     1     102.975 115.291 126.900  1.00  0.00     0.171 C 
ENDROOT
BRANCH   1   2
ATOM      2  C   UNL     1     102.846 113.878 126.304  1.00  0.00     0.190 C 
BRANCH   2   3
ATOM      3  O   UNL     1     103.354 112.920 127.191  1.00  0.00    -0.394 OA
ATOM      4  H   UNL     1     103.518 112.098 126.659  1.00  0.00     0.210 HD
ENDBRANCH   2   3
ENDBRANCH   1   2
BRANCH   1   5
ATOM      5  C   UNL     1     102.878 116.371 125.789  1.00  0.00     0.181 C 
BRANCH   5   6
ATOM      6  C   UNL     1     102.908 115.783 124.357  1.00  0.00     0.209 C 
BRANCH   6   7
ATOM      7  C   UNL     1     101.845 116.360 123.456  1.00  0.00     0.258 C 
ATOM      8  O   UNL     1     100.692 115.962 123.511  1.00  0.00    -0.300 OA
ENDBRANCH   6   7
BRANCH   6   9
ATOM      9  O   UNL     1     104.175 116.002 123.793  1.00  0.00    -0.383 OA
ATOM     10  H   UNL     1     104.042 116.591 123.003  1.00  0.00     0.211 HD
ENDBRANCH   6   9
ENDBRANCH   5   6
BRANCH   5  11
ATOM     11  O   UNL     1     101.778 117.231 125.973  1.00  0.00    -0.387 OA
ATOM     12  H   UNL     1     101.263 117.264 125.127  1.00  0.00     0.211 HD
ENDBRANCH   5  11
ENDBRANCH   1   5
BRANCH   1  13
ATOM     13  O   UNL     1     104.195 115.403 127.589  1.00  0.00    -0.388 OA
ATOM     14  H   UNL     1     104.555 114.484 127.696  1.00  0.00     0.211 HD
ENDBRANCH   1  13
TORSDOF 8
ENDMDL
MODEL 2
REMARK VINA RESULT:    -3.804      1.659      3.028
REMARK INTER + INTRA:          -5.509
REMARK INTER:                  -5.104
REMARK INTRA:                  -0.405
REMARK UNBOUND:                -0.370
REMARK SMILES O=C[C@@H](O)[C@@H](O)[C@H](O)CO
REMARK SMILES IDX 7 1 9 2 10 3 5 5 3 6 2 7 1 8 4 9 6 11 8 13
REMARK H PARENT 10 4 4 10 6 12 8 14
REMARK Flexibility Score: inf
ROOT
ATOM      1  C   UNL     1     102.560 115.965 126.377  1.00  0.00     0.171 C 
ENDROOT
BRANCH   1   2
ATOM      2  C   UNL     1     103.939 116.352 126.939  1.00  0.00     0.190 C 
BRANCH   2   3
ATOM      3  O   UNL     1     104.381 115.395 127.862  1.00  0.00    -0.394 OA
ATOM      4  H   UNL     1     105.039 114.823 127.386  1.00  0.00     0.210 HD
ENDBRANCH   2   3
ENDBRANCH   1   2
BRANCH   1   5
ATOM      5  C   UNL     1     102.706 115.008 125.163  1.00  0.00     0.181 C 
BRANCH   5   6
ATOM      6  C   UNL     1     102.440 113.524 125.516  1.00  0.00     0.209 C 
BRANCH   6   7
ATOM      7  C   UNL     1     102.863 112.570 124.429  1.00  0.00     0.258 C 
ATOM      8  O   UNL     1     102.185 112.422 123.424  1.00  0.00    -0.300 OA
ENDBRANCH   6   7
BRANCH   6   9
ATOM      9  O   UNL     1     103.107 113.206 126.711  1.00  0.00    -0.383 OA
ATOM     10  H   UNL     1     104.078 113.183 126.502  1.00  0.00     0.211 HD
ENDBRANCH   6   9
ENDBRANCH   5   6
BRANCH   5  11
ATOM     11  O   UNL     1     101.938 115.424 124.058  1.00  0.00    -0.387 OA
ATOM     12  H   UNL     1     101.148 114.829 123.986  1.00  0.00     0.211 HD
ENDBRANCH   5  11
ENDBRANCH   1   5
BRANCH   1  13
ATOM     13  O   UNL     1     101.858 117.125 126.007  1.00  0.00    -0.388 OA
ATOM     14  H   UNL     1     102.341 117.897 126.402  1.00  0.00     0.211 HD
ENDBRANCH   1  13
TORSDOF 8
ENDMDL
MODEL 3
REMARK VINA RESULT:    -3.777      1.376      2.698
REMARK INTER + INTRA:          -5.472
REMARK INTER:                  -4.892
REMARK INTRA:                  -0.580
REMARK UNBOUND:                -0.370
REMARK SMILES O=C[C@@H](O)[C@@H](O)[C@H](O)CO
REMARK SMILES IDX 7 1 9 2 10 3 5 5 3 6 2 7 1 8 4 9 6 11 8 13
REMARK H PARENT 10 4 4 10 6 12 8 14
REMARK Flexibility Score: inf
ROOT
ATOM      1  C   UNL     1     103.345 115.499 126.337  1.00  0.00     0.171 C 
ENDROOT
BRANCH   1   2
ATOM      2  C   UNL     1     102.279 116.609 126.341  1.00  0.00     0.190 C 
BRANCH   2   3
ATOM      3  O   UNL     1     101.880 116.914 125.034  1.00  0.00    -0.394 OA
ATOM      4  H   UNL     1     102.386 117.724 124.763  1.00  0.00     0.210 HD
ENDBRANCH   2   3
ENDBRANCH   1   2
BRANCH   1   5
ATOM      5  C   UNL     1     102.702 114.115 126.053  1.00  0.00     0.181 C 
BRANCH   5   6
ATOM      6  C   UNL     1     102.806 113.682 124.571  1.00  0.00     0.209 C 
BRANCH   6   7
ATOM      7  C   UNL     1     101.468 113.594 123.882  1.00  0.00     0.258 C 
ATOM      8  O   UNL     1     100.910 114.596 123.464  1.00  0.00    -0.300 OA
ENDBRANCH   6   7
BRANCH   6   9
ATOM      9  O   UNL     1     103.633 114.584 123.882  1.00  0.00    -0.383 OA
ATOM     10  H   UNL     1     103.108 114.928 123.112  1.00  0.00     0.211 HD
ENDBRANCH   6   9
ENDBRANCH   5   6
BRANCH   5  11
ATOM     11  O   UNL     1     103.181 113.114 126.921  1.00  0.00    -0.387 OA
ATOM     12  H   UNL     1     104.143 113.283 127.090  1.00  0.00     0.211 HD
ENDBRANCH   5  11
ENDBRANCH   1   5
BRANCH   1  13
ATOM     13  O   UNL     1     104.018 115.485 127.571  1.00  0.00    -0.388 OA
ATOM     14  H   UNL     1     104.420 114.584 127.673  1.00  0.00     0.211 HD
ENDBRANCH   1  13
TORSDOF 8
ENDMDL
MODEL 4
REMARK VINA RESULT:    -3.775     10.087     11.020
REMARK INTER + INTRA:          -5.469
REMARK INTER:                  -4.772
REMARK INTRA:                  -0.697
REMARK UNBOUND:                -0.370
REMARK SMILES O=C[C@@H](O)[C@@H](O)[C@H](O)CO
REMARK SMILES IDX 7 1 9 2 10 3 5 5 3 6 2 7 1 8 4 9 6 11 8 13
REMARK H PARENT 10 4 4 10 6 12 8 14
REMARK Flexibility Score: inf
ROOT
ATOM      1  C   UNL     1     101.368 108.660 119.491  1.00  0.00     0.171 C 
ENDROOT
BRANCH   1   2
ATOM      2  C   UNL     1     100.310 109.749 119.738  1.00  0.00     0.190 C 
BRANCH   2   3
ATOM      3  O   UNL     1      99.182 109.207 120.368  1.00  0.00    -0.394 OA
ATOM      4  H   UNL     1      98.985 109.787 121.149  1.00  0.00     0.210 HD
ENDBRANCH   2   3
ENDBRANCH   1   2
BRANCH   1   5
ATOM      5  C   UNL     1     101.090 107.909 118.162  1.00  0.00     0.181 C 
BRANCH   5   6
ATOM      6  C   UNL     1     101.323 106.382 118.258  1.00  0.00     0.209 C 
BRANCH   6   7
ATOM      7  C   UNL     1     100.879 105.633 117.027  1.00  0.00     0.258 C 
ATOM      8  O   UNL     1     100.729 106.210 115.962  1.00  0.00    -0.300 OA
ENDBRANCH   6   7
BRANCH   6   9
ATOM      9  O   UNL     1     102.686 106.136 118.494  1.00  0.00    -0.383 OA
ATOM     10  H   UNL     1     103.020 106.880 119.062  1.00  0.00     0.211 HD
ENDBRANCH   6   9
ENDBRANCH   5   6
BRANCH   5  11
ATOM     11  O   UNL     1      99.817 108.206 117.636  1.00  0.00    -0.387 OA
ATOM     12  H   UNL     1      99.200 108.378 118.392  1.00  0.00     0.211 HD
ENDBRANCH   5  11
ENDBRANCH   1   5
BRANCH   1  13
ATOM     13  O   UNL     1     101.381 107.760 120.571  1.00  0.00    -0.388 OA
ATOM     14  H   UNL     1     102.059 107.065 120.363  1.00  0.00     0.211 HD
ENDBRANCH   1  13
TORSDOF 8
ENDMDL
MODEL 5
REMARK VINA RESULT:    -3.639     20.094     22.103
REMARK INTER + INTRA:          -5.285
REMARK INTER:                  -4.963
REMARK INTRA:                  -0.322
REMARK UNBOUND:                -0.370
REMARK SMILES O=C[C@@H](O)[C@@H](O)[C@H](O)CO
REMARK SMILES IDX 7 1 9 2 10 3 5 5 3 6 2 7 1 8 4 9 6 11 8 13
REMARK H PARENT 10 4 4 10 6 12 8 14
REMARK Flexibility Score: inf
ROOT
ATOM      1  C   UNL     1      89.000 109.564 111.098  1.00  0.00     0.171 C 
ENDROOT
BRANCH   1   2
ATOM      2  C   UNL     1      89.571 110.779 110.346  1.00  0.00     0.190 C 
BRANCH   2   3
ATOM      3  O   UNL     1      90.654 111.327 111.046  1.00  0.00    -0.394 OA
ATOM      4  H   UNL     1      90.276 111.982 111.690  1.00  0.00     0.210 HD
ENDBRANCH   2   3
ENDBRANCH   1   2
BRANCH   1   5
ATOM      5  C   UNL     1      87.455 109.502 110.956  1.00  0.00     0.181 C 
BRANCH   5   6
ATOM      6  C   UNL     1      86.985 109.039 109.556  1.00  0.00     0.209 C 
BRANCH   6   7
ATOM      7  C   UNL     1      87.327 107.600 109.260  1.00  0.00     0.258 C 
ATOM      8  O   UNL     1      86.879 106.695 109.946  1.00  0.00    -0.300 OA
ENDBRANCH   6   7
BRANCH   6   9
ATOM      9  O   UNL     1      85.597 109.226 109.448  1.00  0.00    -0.383 OA
ATOM     10  H   UNL     1      85.171 108.352 109.653  1.00  0.00     0.211 HD
ENDBRANCH   6   9
ENDBRANCH   5   6
BRANCH   5  11
ATOM     11  O   UNL     1      86.854 108.746 111.981  1.00  0.00    -0.387 OA
ATOM     12  H   UNL     1      87.567 108.266 112.474  1.00  0.00     0.211 HD
ENDBRANCH   5  11
ENDBRANCH   1   5
BRANCH   1  13
ATOM     13  O   UNL     1      89.368 109.630 112.453  1.00  0.00    -0.388 OA
ATOM     14  H   UNL     1      90.069 110.328 112.530  1.00  0.00     0.211 HD
ENDBRANCH   1  13
TORSDOF 8
ENDMDL
MODEL 6
REMARK VINA RESULT:    -3.613     10.875     12.293
REMARK INTER + INTRA:          -5.251
REMARK INTER:                  -4.588
REMARK INTRA:                  -0.663
REMARK UNBOUND:                -0.370
REMARK SMILES O=C[C@@H](O)[C@@H](O)[C@H](O)CO
REMARK SMILES IDX 7 1 9 2 10 3 5 5 3 6 2 7 1 8 4 9 6 11 8 13
REMARK H PARENT 10 4 4 10 6 12 8 14
REMARK Flexibility Score: inf
ROOT
ATOM      1  C   UNL     1      99.724 110.059 115.550  1.00  0.00     0.171 C 
ENDROOT
BRANCH   1   2
ATOM      2  C   UNL     1      98.587 110.284 114.538  1.00  0.00     0.190 C 
BRANCH   2   3
ATOM      3  O   UNL     1      97.341 110.229 115.176  1.00  0.00    -0.394 OA
ATOM      4  H   UNL     1      97.234 111.086 115.667  1.00  0.00     0.210 HD
ENDBRANCH   2   3
ENDBRANCH   1   2
BRANCH   1   5
ATOM      5  C   UNL     1     100.156 108.568 115.575  1.00  0.00     0.181 C 
BRANCH   5   6
ATOM      6  C   UNL     1     101.340 108.288 116.532  1.00  0.00     0.209 C 
BRANCH   6   7
ATOM      7  C   UNL     1     100.912 107.695 117.850  1.00  0.00     0.258 C 
ATOM      8  O   UNL     1     100.203 108.323 118.621  1.00  0.00    -0.300 OA
ENDBRANCH   6   7
BRANCH   6   9
ATOM      9  O   UNL     1     102.251 107.426 115.900  1.00  0.00    -0.383 OA
ATOM     10  H   UNL     1     101.899 106.504 116.008  1.00  0.00     0.211 HD
ENDBRANCH   6   9
ENDBRANCH   5   6
BRANCH   5  11
ATOM     11  O   UNL     1      99.073 107.702 115.823  1.00  0.00    -0.387 OA
ATOM     12  H   UNL     1      98.534 108.081 116.563  1.00  0.00     0.211 HD
ENDBRANCH   5  11
ENDBRANCH   1   5
BRANCH   1  13
ATOM     13  O   UNL     1      99.308 110.473 116.827  1.00  0.00    -0.388 OA
ATOM     14  H   UNL     1      99.072 111.434 116.760  1.00  0.00     0.211 HD
ENDBRANCH   1  13
TORSDOF 8
ENDMDL
MODEL 7
REMARK VINA RESULT:    -3.593     12.392     13.578
REMARK INTER + INTRA:          -5.223
REMARK INTER:                  -4.591
REMARK INTRA:                  -0.632
REMARK UNBOUND:                -0.370
REMARK SMILES O=C[C@@H](O)[C@@H](O)[C@H](O)CO
REMARK SMILES IDX 7 1 9 2 10 3 5 5 3 6 2 7 1 8 4 9 6 11 8 13
REMARK H PARENT 10 4 4 10 6 12 8 14
REMARK Flexibility Score: inf
ROOT
ATOM      1  C   UNL     1     101.261 108.579 114.314  1.00  0.00     0.171 C 
ENDROOT
BRANCH   1   2
ATOM      2  C   UNL     1     102.555 109.309 113.915  1.00  0.00     0.190 C 
BRANCH   2   3
ATOM      3  O   UNL     1     103.449 108.424 113.296  1.00  0.00    -0.394 OA
ATOM      4  H   UNL     1     104.356 108.814 113.404  1.00  0.00     0.210 HD
ENDBRANCH   2   3
ENDBRANCH   1   2
BRANCH   1   5
ATOM      5  C   UNL     1     101.425 107.872 115.686  1.00  0.00     0.181 C 
BRANCH   5   6
ATOM      6  C   UNL     1     100.495 106.646 115.861  1.00  0.00     0.209 C 
BRANCH   6   7
ATOM      7  C   UNL     1     100.860 105.787 117.044  1.00  0.00     0.258 C 
ATOM      8  O   UNL     1     101.116 106.287 118.128  1.00  0.00    -0.300 OA
ENDBRANCH   6   7
BRANCH   6   9
ATOM      9  O   UNL     1      99.167 107.087 115.989  1.00  0.00    -0.383 OA
ATOM     10  H   UNL     1      98.600 106.276 116.069  1.00  0.00     0.211 HD
ENDBRANCH   6   9
ENDBRANCH   5   6
BRANCH   5  11
ATOM     11  O   UNL     1     102.767 107.547 115.964  1.00  0.00    -0.387 OA
ATOM     12  H   UNL     1     102.920 106.603 115.704  1.00  0.00     0.211 HD
ENDBRANCH   5  11
ENDBRANCH   1   5
BRANCH   1  13
ATOM     13  O   UNL     1     100.917 107.648 113.319  1.00  0.00    -0.388 OA
ATOM     14  H   UNL     1     100.688 108.165 112.503  1.00  0.00     0.211 HD
ENDBRANCH   1  13
TORSDOF 8
ENDMDL
MODEL 8
REMARK VINA RESULT:    -3.534     11.081     12.328
REMARK INTER + INTRA:          -5.144
REMARK INTER:                  -4.244
REMARK INTRA:                  -0.900
REMARK UNBOUND:                -0.370
REMARK SMILES O=C[C@@H](O)[C@@H](O)[C@H](O)CO
REMARK SMILES IDX 7 1 9 2 10 3 5 5 3 6 2 7 1 8 4 9 6 11 8 13
REMARK H PARENT 10 4 4 10 6 12 8 14
REMARK Flexibility Score: inf
ROOT
ATOM      1  C   UNL     1     100.828 108.580 117.279  1.00  0.00     0.171 C 
ENDROOT
BRANCH   1   2
ATOM      2  C   UNL     1     100.106 108.407 115.931  1.00  0.00     0.190 C 
BRANCH   2   3
ATOM      3  O   UNL     1      99.315 107.250 115.940  1.00  0.00    -0.394 OA
ATOM      4  H   UNL     1      99.919 106.491 115.728  1.00  0.00     0.210 HD
ENDBRANCH   2   3
ENDBRANCH   1   2
BRANCH   1   5
ATOM      5  C   UNL     1     102.062 107.642 117.370  1.00  0.00     0.181 C 
BRANCH   5   6
ATOM      6  C   UNL     1     101.895 106.507 118.409  1.00  0.00     0.209 C 
BRANCH   6   7
ATOM      7  C   UNL     1     101.647 105.159 117.782  1.00  0.00     0.258 C 
ATOM      8  O   UNL     1     100.683 104.972 117.055  1.00  0.00    -0.300 OA
ENDBRANCH   6   7
BRANCH   6   9
ATOM      9  O   UNL     1     103.042 106.447 119.218  1.00  0.00    -0.383 OA
ATOM     10  H   UNL     1     102.973 107.192 119.873  1.00  0.00     0.211 HD
ENDBRANCH   6   9
ENDBRANCH   5   6
BRANCH   5  11
ATOM     11  O   UNL     1     102.447 107.140 116.112  1.00  0.00    -0.387 OA
ATOM     12  H   UNL     1     101.927 106.316 115.933  1.00  0.00     0.211 HD
ENDBRANCH   5  11
ENDBRANCH   1   5
BRANCH   1  13
ATOM     13  O   UNL     1      99.933 108.319 118.331  1.00  0.00    -0.388 OA
ATOM     14  H   UNL     1     100.462 108.321 119.171  1.00  0.00     0.211 HD
ENDBRANCH   1  13
TORSDOF 8
ENDMDL
MODEL 9
REMARK VINA RESULT:    -3.488      9.645     11.363
REMARK INTER + INTRA:          -5.081
REMARK INTER:                  -4.413
REMARK INTRA:                  -0.668
REMARK UNBOUND:                -0.370
REMARK SMILES O=C[C@@H](O)[C@@H](O)[C@H](O)CO
REMARK SMILES IDX 7 1 9 2 10 3 5 5 3 6 2 7 1 8 4 9 6 11 8 13
REMARK H PARENT 10 4 4 10 6 12 8 14
REMARK Flexibility Score: inf
ROOT
ATOM      1  C   UNL     1     100.198 109.877 116.341  1.00  0.00     0.171 C 
ENDROOT
BRANCH   1   2
ATOM      2  C   UNL     1      99.927 109.280 114.949  1.00  0.00     0.190 C 
BRANCH   2   3
ATOM      3  O   UNL     1      98.612 108.805 114.863  1.00  0.00    -0.394 OA
ATOM      4  H   UNL     1      98.572 107.976 115.409  1.00  0.00     0.210 HD
ENDBRANCH   2   3
ENDBRANCH   1   2
BRANCH   1   5
ATOM      5  C   UNL     1     100.536 108.761 117.366  1.00  0.00     0.181 C 
BRANCH   5   6
ATOM      6  C   UNL     1     100.324 109.194 118.837  1.00  0.00     0.209 C 
BRANCH   6   7
ATOM      7  C   UNL     1     101.131 108.382 119.817  1.00  0.00     0.258 C 
ATOM      8  O   UNL     1     101.421 107.220 119.582  1.00  0.00    -0.300 OA
ENDBRANCH   6   7
BRANCH   6   9
ATOM      9  O   UNL     1     100.648 110.554 118.970  1.00  0.00    -0.383 OA
ATOM     10  H   UNL     1      99.867 111.071 118.639  1.00  0.00     0.211 HD
ENDBRANCH   6   9
ENDBRANCH   5   6
BRANCH   5  11
ATOM     11  O   UNL     1      99.870 107.553 117.080  1.00  0.00    -0.387 OA
ATOM     12  H   UNL     1     100.195 106.861 117.711  1.00  0.00     0.211 HD
ENDBRANCH   5  11
ENDBRANCH   1   5
BRANCH   1  13
ATOM     13  O   UNL     1      99.077 110.612 116.766  1.00  0.00    -0.388 OA
ATOM     14  H   UNL     1      99.329 111.063 117.613  1.00  0.00     0.211 HD
ENDBRANCH   1  13
TORSDOF 8
ENDMDL
