MODEL 1
REMARK VINA RESULT:    -6.486      0.000      0.000
REMARK INTER + INTRA:          -8.754
REMARK INTER:                  -8.192
REMARK INTRA:                  -0.562
REMARK UNBOUND:                -0.562
REMARK SMILES Oc1cc(O)cc(CCc2ccccc2O)c1
REMARK SMILES IDX 9 1 10 2 12 3 13 4 11 5 14 6 15 7 16 8 8 10 7 11 6 12 17 13
REMARK SMILES IDX 4 14 2 15 3 16 5 17 1 19
REMARK H PARENT 16 9 5 18 1 20
REMARK Flexibility Score: inf
ROOT
ATOM      1  C   UNL     1      45.202   8.129  20.331  1.00  0.00     0.044 C 
ENDROOT
BRANCH   1   2
ATOM      2  C   UNL     1      46.318   8.203  21.342  1.00  0.00    -0.006 A 
ATOM      3  C   UNL     1      47.575   9.486  22.981  1.00  0.00     0.001 A 
ATOM      4  C   UNL     1      48.431   8.400  23.182  1.00  0.00     0.004 A 
ATOM      5  C   UNL     1      46.527   9.391  22.063  1.00  0.00     0.007 A 
ATOM      6  C   UNL     1      48.242   7.220  22.461  1.00  0.00     0.046 A 
ATOM      7  C   UNL     1      47.193   7.115  21.535  1.00  0.00     0.118 A 
BRANCH   7   8
ATOM      8  O   UNL     1      47.022   5.937  20.808  1.00  0.00    -0.508 OA
ATOM      9  H   UNL     1      47.570   5.107  21.003  1.00  0.00     0.293 HD
ENDBRANCH   7   8
ENDBRANCH   1   2
BRANCH   1  10
ATOM     10  C   UNL     1      45.575   8.899  19.060  1.00  0.00     0.040 C 
BRANCH  10  11
ATOM     11  C   UNL     1      45.647   7.968  17.880  1.00  0.00    -0.040 A 
ATOM     12  C   UNL     1      44.530   7.792  17.046  1.00  0.00     0.050 A 
ATOM     13  C   UNL     1      46.813   7.224  17.636  1.00  0.00     0.050 A 
ATOM     14  C   UNL     1      44.586   6.901  15.966  1.00  0.00     0.119 A 
ATOM     15  C   UNL     1      46.869   6.331  16.557  1.00  0.00     0.119 A 
ATOM     16  C   UNL     1      45.757   6.175  15.723  1.00  0.00     0.092 A 
BRANCH  14  17
ATOM     17  O   UNL     1      43.485   6.726  15.131  1.00  0.00    -0.508 OA
ATOM     18  H   UNL     1      43.597   6.497  14.150  1.00  0.00     0.293 HD
ENDBRANCH  14  17
BRANCH  15  19
ATOM     19  O   UNL     1      48.025   5.595  16.305  1.00  0.00    -0.508 OA
ATOM     20  H   UNL     1      48.015   4.582  16.288  1.00  0.00     0.293 HD
ENDBRANCH  15  19
ENDBRANCH  10  11
ENDBRANCH   1  10
TORSDOF 6
ENDMDL
MODEL 2
REMARK VINA RESULT:    -6.484      0.046      2.031
REMARK INTER + INTRA:          -8.751
REMARK INTER:                  -8.199
REMARK INTRA:                  -0.553
REMARK UNBOUND:                -0.562
REMARK SMILES Oc1cc(O)cc(CCc2ccccc2O)c1
REMARK SMILES IDX 9 1 10 2 12 3 13 4 11 5 14 6 15 7 16 8 8 10 7 11 6 12 17 13
REMARK SMILES IDX 4 14 2 15 3 16 5 17 1 19
REMARK H PARENT 16 9 5 18 1 20
REMARK Flexibility Score: inf
ROOT
ATOM      1  C   UNL     1      45.201   8.114  20.360  1.00  0.00     0.044 C 
ENDROOT
BRANCH   1   2
ATOM      2  C   UNL     1      46.313   8.195  21.374  1.00  0.00    -0.006 A 
ATOM      3  C   UNL     1      47.552   9.484  23.023  1.00  0.00     0.001 A 
ATOM      4  C   UNL     1      48.419   8.407  23.221  1.00  0.00     0.004 A 
ATOM      5  C   UNL     1      46.507   9.382  22.102  1.00  0.00     0.007 A 
ATOM      6  C   UNL     1      48.246   7.228  22.493  1.00  0.00     0.046 A 
ATOM      7  C   UNL     1      47.201   7.116  21.564  1.00  0.00     0.118 A 
BRANCH   7   8
ATOM      8  O   UNL     1      47.044   5.940  20.831  1.00  0.00    -0.508 OA
ATOM      9  H   UNL     1      47.740   5.634  20.161  1.00  0.00     0.293 HD
ENDBRANCH   7   8
ENDBRANCH   1   2
BRANCH   1  10
ATOM     10  C   UNL     1      45.585   8.860  19.078  1.00  0.00     0.040 C 
BRANCH  10  11
ATOM     11  C   UNL     1      45.642   7.911  17.911  1.00  0.00    -0.040 A 
ATOM     12  C   UNL     1      46.812   7.181  17.649  1.00  0.00     0.050 A 
ATOM     13  C   UNL     1      44.545   7.792  17.043  1.00  0.00     0.050 A 
ATOM     14  C   UNL     1      46.877   6.322  16.543  1.00  0.00     0.119 A 
ATOM     15  C   UNL     1      44.609   6.934  15.936  1.00  0.00     0.119 A 
ATOM     16  C   UNL     1      45.774   6.198  15.692  1.00  0.00     0.092 A 
BRANCH  14  17
ATOM     17  O   UNL     1      48.032   5.589  16.279  1.00  0.00    -0.508 OA
ATOM     18  H   UNL     1      47.996   4.592  16.101  1.00  0.00     0.293 HD
ENDBRANCH  14  17
BRANCH  15  19
ATOM     19  O   UNL     1      43.522   6.805  15.074  1.00  0.00    -0.508 OA
ATOM     20  H   UNL     1      43.014   5.933  14.989  1.00  0.00     0.293 HD
ENDBRANCH  15  19
ENDBRANCH  10  11
ENDBRANCH   1  10
TORSDOF 6
ENDMDL
MODEL 3
REMARK VINA RESULT:    -6.455      1.213      1.761
REMARK INTER + INTRA:          -8.715
REMARK INTER:                  -8.300
REMARK INTRA:                  -0.415
REMARK UNBOUND:                -0.562
REMARK SMILES Oc1cc(O)cc(CCc2ccccc2O)c1
REMARK SMILES IDX 9 1 10 2 12 3 13 4 11 5 14 6 15 7 16 8 8 10 7 11 6 12 17 13
REMARK SMILES IDX 4 14 2 15 3 16 5 17 1 19
REMARK H PARENT 16 9 5 18 1 20
REMARK Flexibility Score: inf
ROOT
ATOM      1  C   UNL     1      46.552   7.029  19.034  1.00  0.00     0.044 C 
ENDROOT
BRANCH   1   2
ATOM      2  C   UNL     1      46.381   7.789  20.325  1.00  0.00    -0.006 A 
ATOM      3  C   UNL     1      45.433   9.675  21.533  1.00  0.00     0.001 A 
ATOM      4  C   UNL     1      46.095   9.270  22.695  1.00  0.00     0.004 A 
ATOM      5  C   UNL     1      45.578   8.943  20.353  1.00  0.00     0.007 A 
ATOM      6  C   UNL     1      46.907   8.134  22.676  1.00  0.00     0.046 A 
ATOM      7  C   UNL     1      47.060   7.392  21.495  1.00  0.00     0.118 A 
BRANCH   7   8
ATOM      8  O   UNL     1      47.885   6.267  21.481  1.00  0.00    -0.508 OA
ATOM      9  H   UNL     1      48.583   6.129  20.759  1.00  0.00     0.293 HD
ENDBRANCH   7   8
ENDBRANCH   1   2
BRANCH   1  10
ATOM     10  C   UNL     1      45.728   7.675  17.915  1.00  0.00     0.040 C 
BRANCH  10  11
ATOM     11  C   UNL     1      45.862   6.888  16.640  1.00  0.00    -0.040 A 
ATOM     12  C   UNL     1      44.731   6.614  15.854  1.00  0.00     0.050 A 
ATOM     13  C   UNL     1      47.110   6.372  16.254  1.00  0.00     0.050 A 
ATOM     14  C   UNL     1      44.849   5.854  14.682  1.00  0.00     0.119 A 
ATOM     15  C   UNL     1      47.229   5.611  15.083  1.00  0.00     0.119 A 
ATOM     16  C   UNL     1      46.099   5.357  14.299  1.00  0.00     0.092 A 
BRANCH  14  17
ATOM     17  O   UNL     1      43.733   5.583  13.895  1.00  0.00    -0.508 OA
ATOM     18  H   UNL     1      43.250   6.319  13.391  1.00  0.00     0.293 HD
ENDBRANCH  14  17
BRANCH  15  19
ATOM     19  O   UNL     1      48.466   5.102  14.690  1.00  0.00    -0.508 OA
ATOM     20  H   UNL     1      48.609   4.715  13.765  1.00  0.00     0.293 HD
ENDBRANCH  15  19
ENDBRANCH  10  11
ENDBRANCH   1  10
TORSDOF 6
ENDMDL
MODEL 4
REMARK VINA RESULT:    -6.439      1.222      2.634
REMARK INTER + INTRA:          -8.694
REMARK INTER:                  -8.274
REMARK INTRA:                  -0.420
REMARK UNBOUND:                -0.562
REMARK SMILES Oc1cc(O)cc(CCc2ccccc2O)c1
REMARK SMILES IDX 9 1 10 2 12 3 13 4 11 5 14 6 15 7 16 8 8 10 7 11 6 12 17 13
REMARK SMILES IDX 4 14 2 15 3 16 5 17 1 19
REMARK H PARENT 16 9 5 18 1 20
REMARK Flexibility Score: inf
ROOT
ATOM      1  C   UNL     1      46.549   7.001  18.995  1.00  0.00     0.044 C 
ENDROOT
BRANCH   1   2
ATOM      2  C   UNL     1      46.383   7.769  20.281  1.00  0.00    -0.006 A 
ATOM      3  C   UNL     1      45.443   9.665  21.481  1.00  0.00     0.001 A 
ATOM      4  C   UNL     1      46.109   9.266  22.642  1.00  0.00     0.004 A 
ATOM      5  C   UNL     1      45.582   8.924  20.304  1.00  0.00     0.007 A 
ATOM      6  C   UNL     1      46.920   8.130  22.627  1.00  0.00     0.046 A 
ATOM      7  C   UNL     1      47.067   7.380  21.451  1.00  0.00     0.118 A 
BRANCH   7   8
ATOM      8  O   UNL     1      47.891   6.254  21.441  1.00  0.00    -0.508 OA
ATOM      9  H   UNL     1      47.816   5.547  20.718  1.00  0.00     0.293 HD
ENDBRANCH   7   8
ENDBRANCH   1   2
BRANCH   1  10
ATOM     10  C   UNL     1      46.322   7.917  17.787  1.00  0.00     0.040 C 
BRANCH  10  11
ATOM     11  C   UNL     1      45.909   7.112  16.585  1.00  0.00    -0.040 A 
ATOM     12  C   UNL     1      46.876   6.467  15.797  1.00  0.00     0.050 A 
ATOM     13  C   UNL     1      44.557   7.047  16.208  1.00  0.00     0.050 A 
ATOM     14  C   UNL     1      46.495   5.744  14.658  1.00  0.00     0.119 A 
ATOM     15  C   UNL     1      44.175   6.325  15.068  1.00  0.00     0.119 A 
ATOM     16  C   UNL     1      45.144   5.673  14.299  1.00  0.00     0.092 A 
BRANCH  14  17
ATOM     17  O   UNL     1      47.447   5.097  13.875  1.00  0.00    -0.508 OA
ATOM     18  H   UNL     1      48.179   4.532  14.292  1.00  0.00     0.293 HD
ENDBRANCH  14  17
BRANCH  15  19
ATOM     19  O   UNL     1      42.835   6.250  14.692  1.00  0.00    -0.508 OA
ATOM     20  H   UNL     1      42.220   5.536  15.063  1.00  0.00     0.293 HD
ENDBRANCH  15  19
ENDBRANCH  10  11
ENDBRANCH   1  10
TORSDOF 6
ENDMDL
MODEL 5
REMARK VINA RESULT:    -6.426      3.607      7.053
REMARK INTER + INTRA:          -8.678
REMARK INTER:                  -8.107
REMARK INTRA:                  -0.571
REMARK UNBOUND:                -0.562
REMARK SMILES Oc1cc(O)cc(CCc2ccccc2O)c1
REMARK SMILES IDX 9 1 10 2 12 3 13 4 11 5 14 6 15 7 16 8 8 10 7 11 6 12 17 13
REMARK SMILES IDX 4 14 2 15 3 16 5 17 1 19
REMARK H PARENT 16 9 5 18 1 20
REMARK Flexibility Score: inf
ROOT
ATOM      1  C   UNL     1      46.623   8.121  22.581  1.00  0.00     0.044 C 
ENDROOT
BRANCH   1   2
ATOM      2  C   UNL     1      46.475   8.083  21.081  1.00  0.00    -0.006 A 
ATOM      3  C   UNL     1      45.808   9.181  19.015  1.00  0.00     0.001 A 
ATOM      4  C   UNL     1      46.119   8.025  18.295  1.00  0.00     0.004 A 
ATOM      5  C   UNL     1      45.980   9.210  20.402  1.00  0.00     0.007 A 
ATOM      6  C   UNL     1      46.597   6.894  18.961  1.00  0.00     0.046 A 
ATOM      7  C   UNL     1      46.772   6.913  20.353  1.00  0.00     0.118 A 
BRANCH   7   8
ATOM      8  O   UNL     1      47.236   5.775  21.012  1.00  0.00    -0.508 OA
ATOM      9  H   UNL     1      47.168   4.854  20.594  1.00  0.00     0.293 HD
ENDBRANCH   7   8
ENDBRANCH   1   2
BRANCH   1  10
ATOM     10  C   UNL     1      46.402   9.542  23.108  1.00  0.00     0.040 C 
BRANCH  10  11
ATOM     11  C   UNL     1      45.179   9.597  23.984  1.00  0.00    -0.040 A 
ATOM     12  C   UNL     1      45.186   8.989  25.250  1.00  0.00     0.050 A 
ATOM     13  C   UNL     1      44.002  10.206  23.518  1.00  0.00     0.050 A 
ATOM     14  C   UNL     1      44.036   9.011  26.052  1.00  0.00     0.119 A 
ATOM     15  C   UNL     1      42.852  10.228  24.319  1.00  0.00     0.119 A 
ATOM     16  C   UNL     1      42.874   9.633  25.586  1.00  0.00     0.092 A 
BRANCH  14  17
ATOM     17  O   UNL     1      44.038   8.416  27.311  1.00  0.00    -0.508 OA
ATOM     18  H   UNL     1      44.556   7.564  27.493  1.00  0.00     0.293 HD
ENDBRANCH  14  17
BRANCH  15  19
ATOM     19  O   UNL     1      41.683  10.837  23.867  1.00  0.00    -0.508 OA
ATOM     20  H   UNL     1      40.859  10.902  24.453  1.00  0.00     0.293 HD
ENDBRANCH  15  19
ENDBRANCH  10  11
ENDBRANCH   1  10
TORSDOF 6
ENDMDL
MODEL 6
REMARK VINA RESULT:    -6.372      1.354      2.672
REMARK INTER + INTRA:          -8.610
REMARK INTER:                  -8.171
REMARK INTRA:                  -0.438
REMARK UNBOUND:                -0.562
REMARK SMILES Oc1cc(O)cc(CCc2ccccc2O)c1
REMARK SMILES IDX 9 1 10 2 12 3 13 4 11 5 14 6 15 7 16 8 8 10 7 11 6 12 17 13
REMARK SMILES IDX 4 14 2 15 3 16 5 17 1 19
REMARK H PARENT 16 9 5 18 1 20
REMARK Flexibility Score: inf
ROOT
ATOM      1  C   UNL     1      46.411   7.723  19.918  1.00  0.00     0.044 C 
ENDROOT
BRANCH   1   2
ATOM      2  C   UNL     1      45.896   8.097  21.284  1.00  0.00    -0.006 A 
ATOM      3  C   UNL     1      44.082   8.906  22.688  1.00  0.00     0.001 A 
ATOM      4  C   UNL     1      44.922   8.870  23.803  1.00  0.00     0.004 A 
ATOM      5  C   UNL     1      44.566   8.527  21.433  1.00  0.00     0.007 A 
ATOM      6  C   UNL     1      46.250   8.459  23.665  1.00  0.00     0.046 A 
ATOM      7  C   UNL     1      46.745   8.078  22.409  1.00  0.00     0.118 A 
BRANCH   7   8
ATOM      8  O   UNL     1      48.077   7.683  22.277  1.00  0.00    -0.508 OA
ATOM      9  H   UNL     1      48.440   6.869  22.759  1.00  0.00     0.293 HD
ENDBRANCH   7   8
ENDBRANCH   1   2
BRANCH   1  10
ATOM     10  C   UNL     1      45.440   8.191  18.829  1.00  0.00     0.040 C 
BRANCH  10  11
ATOM     11  C   UNL     1      45.651   7.408  17.561  1.00  0.00    -0.040 A 
ATOM     12  C   UNL     1      46.859   6.725  17.343  1.00  0.00     0.050 A 
ATOM     13  C   UNL     1      44.664   7.401  16.562  1.00  0.00     0.050 A 
ATOM     14  C   UNL     1      47.069   6.022  16.148  1.00  0.00     0.119 A 
ATOM     15  C   UNL     1      44.874   6.699  15.367  1.00  0.00     0.119 A 
ATOM     16  C   UNL     1      46.074   6.009  15.165  1.00  0.00     0.092 A 
BRANCH  14  17
ATOM     17  O   UNL     1      48.261   5.337  15.927  1.00  0.00    -0.508 OA
ATOM     18  H   UNL     1      49.047   5.780  15.464  1.00  0.00     0.293 HD
ENDBRANCH  14  17
BRANCH  15  19
ATOM     19  O   UNL     1      43.896   6.682  14.374  1.00  0.00    -0.508 OA
ATOM     20  H   UNL     1      42.925   6.879  14.583  1.00  0.00     0.293 HD
ENDBRANCH  15  19
ENDBRANCH  10  11
ENDBRANCH   1  10
TORSDOF 6
ENDMDL
MODEL 7
REMARK VINA RESULT:    -6.333      1.654      6.297
REMARK INTER + INTRA:          -8.560
REMARK INTER:                  -8.100
REMARK INTRA:                  -0.461
REMARK UNBOUND:                -0.562
REMARK SMILES Oc1cc(O)cc(CCc2ccccc2O)c1
REMARK SMILES IDX 9 1 10 2 12 3 13 4 11 5 14 6 15 7 16 8 8 10 7 11 6 12 17 13
REMARK SMILES IDX 4 14 2 15 3 16 5 17 1 19
REMARK H PARENT 16 9 5 18 1 20
REMARK Flexibility Score: inf
ROOT
ATOM      1  C   UNL     1      46.803   7.345  17.190  1.00  0.00     0.044 C 
ENDROOT
BRANCH   1   2
ATOM      2  C   UNL     1      46.211   6.568  16.043  1.00  0.00    -0.006 A 
ATOM      3  C   UNL     1      44.280   5.989  14.682  1.00  0.00     0.001 A 
ATOM      4  C   UNL     1      45.057   5.084  13.956  1.00  0.00     0.004 A 
ATOM      5  C   UNL     1      44.851   6.725  15.723  1.00  0.00     0.007 A 
ATOM      6  C   UNL     1      46.405   4.908  14.274  1.00  0.00     0.046 A 
ATOM      7  C   UNL     1      46.988   5.641  15.318  1.00  0.00     0.118 A 
BRANCH   7   8
ATOM      8  O   UNL     1      48.332   5.448  15.639  1.00  0.00    -0.508 OA
ATOM      9  H   UNL     1      49.048   5.409  14.923  1.00  0.00     0.293 HD
ENDBRANCH   7   8
ENDBRANCH   1   2
BRANCH   1  10
ATOM     10  C   UNL     1      45.702   8.049  17.990  1.00  0.00     0.040 C 
BRANCH  10  11
ATOM     11  C   UNL     1      46.047   8.075  19.454  1.00  0.00    -0.040 A 
ATOM     12  C   UNL     1      45.659   9.162  20.255  1.00  0.00     0.050 A 
ATOM     13  C   UNL     1      46.809   7.040  20.020  1.00  0.00     0.050 A 
ATOM     14  C   UNL     1      46.008   9.203  21.611  1.00  0.00     0.119 A 
ATOM     15  C   UNL     1      47.159   7.080  21.377  1.00  0.00     0.119 A 
ATOM     16  C   UNL     1      46.755   8.160  22.169  1.00  0.00     0.092 A 
BRANCH  14  17
ATOM     17  O   UNL     1      45.622  10.275  22.413  1.00  0.00    -0.508 OA
ATOM     18  H   UNL     1      46.282  10.742  23.024  1.00  0.00     0.293 HD
ENDBRANCH  14  17
BRANCH  15  19
ATOM     19  O   UNL     1      47.908   6.053  21.947  1.00  0.00    -0.508 OA
ATOM     20  H   UNL     1      48.910   5.988  21.808  1.00  0.00     0.293 HD
ENDBRANCH  15  19
ENDBRANCH  10  11
ENDBRANCH   1  10
TORSDOF 6
ENDMDL
MODEL 8
REMARK VINA RESULT:    -6.294      1.665      6.505
REMARK INTER + INTRA:          -8.512
REMARK INTER:                  -8.061
REMARK INTRA:                  -0.451
REMARK UNBOUND:                -0.562
REMARK SMILES Oc1cc(O)cc(CCc2ccccc2O)c1
REMARK SMILES IDX 9 1 10 2 12 3 13 4 11 5 14 6 15 7 16 8 8 10 7 11 6 12 17 13
REMARK SMILES IDX 4 14 2 15 3 16 5 17 1 19
REMARK H PARENT 16 9 5 18 1 20
REMARK Flexibility Score: inf
ROOT
ATOM      1  C   UNL     1      46.729   7.403  17.107  1.00  0.00     0.044 C 
ENDROOT
BRANCH   1   2
ATOM      2  C   UNL     1      46.153   6.574  15.987  1.00  0.00    -0.006 A 
ATOM      3  C   UNL     1      44.238   5.920  14.639  1.00  0.00     0.001 A 
ATOM      4  C   UNL     1      45.030   4.996  13.953  1.00  0.00     0.004 A 
ATOM      5  C   UNL     1      44.794   6.702  15.654  1.00  0.00     0.007 A 
ATOM      6  C   UNL     1      46.378   4.849  14.286  1.00  0.00     0.046 A 
ATOM      7  C   UNL     1      46.945   5.629  15.305  1.00  0.00     0.118 A 
BRANCH   7   8
ATOM      8  O   UNL     1      48.289   5.465  15.640  1.00  0.00    -0.508 OA
ATOM      9  H   UNL     1      48.701   5.942  16.435  1.00  0.00     0.293 HD
ENDBRANCH   7   8
ENDBRANCH   1   2
BRANCH   1  10
ATOM     10  C   UNL     1      45.609   8.006  17.961  1.00  0.00     0.040 C 
BRANCH  10  11
ATOM     11  C   UNL     1      46.029   8.084  19.404  1.00  0.00    -0.040 A 
ATOM     12  C   UNL     1      46.774   7.044  19.983  1.00  0.00     0.050 A 
ATOM     13  C   UNL     1      45.630   9.171  20.199  1.00  0.00     0.050 A 
ATOM     14  C   UNL     1      47.138   7.100  21.336  1.00  0.00     0.119 A 
ATOM     15  C   UNL     1      45.992   9.228  21.552  1.00  0.00     0.119 A 
ATOM     16  C   UNL     1      46.748   8.194  22.115  1.00  0.00     0.092 A 
BRANCH  14  17
ATOM     17  O   UNL     1      47.882   6.075  21.915  1.00  0.00    -0.508 OA
ATOM     18  H   UNL     1      48.537   6.258  22.666  1.00  0.00     0.293 HD
ENDBRANCH  14  17
BRANCH  15  19
ATOM     19  O   UNL     1      45.606  10.306  22.346  1.00  0.00    -0.508 OA
ATOM     20  H   UNL     1      45.302  11.183  21.937  1.00  0.00     0.293 HD
ENDBRANCH  15  19
ENDBRANCH  10  11
ENDBRANCH   1  10
TORSDOF 6
ENDMDL
MODEL 9
REMARK VINA RESULT:    -6.245      1.927      6.530
REMARK INTER + INTRA:          -8.450
REMARK INTER:                  -7.902
REMARK INTRA:                  -0.548
REMARK UNBOUND:                -0.562
REMARK SMILES Oc1cc(O)cc(CCc2ccccc2O)c1
REMARK SMILES IDX 9 1 10 2 12 3 13 4 11 5 14 6 15 7 16 8 8 10 7 11 6 12 17 13
REMARK SMILES IDX 4 14 2 15 3 16 5 17 1 19
REMARK H PARENT 16 9 5 18 1 20
REMARK Flexibility Score: inf
ROOT
ATOM      1  C   UNL     1      44.264   7.627  16.685  1.00  0.00     0.044 C 
ENDROOT
BRANCH   1   2
ATOM      2  C   UNL     1      44.882   6.634  15.734  1.00  0.00    -0.006 A 
ATOM      3  C   UNL     1      46.863   5.525  14.862  1.00  0.00     0.001 A 
ATOM      4  C   UNL     1      46.077   4.845  13.928  1.00  0.00     0.004 A 
ATOM      5  C   UNL     1      46.271   6.418  15.758  1.00  0.00     0.007 A 
ATOM      6  C   UNL     1      44.699   5.064  13.884  1.00  0.00     0.046 A 
ATOM      7  C   UNL     1      44.095   5.960  14.778  1.00  0.00     0.118 A 
BRANCH   7   8
ATOM      8  O   UNL     1      42.719   6.183  14.718  1.00  0.00    -0.508 OA
ATOM      9  H   UNL     1      42.054   5.489  15.038  1.00  0.00     0.293 HD
ENDBRANCH   7   8
ENDBRANCH   1   2
BRANCH   1  10
ATOM     10  C   UNL     1      45.329   8.583  17.232  1.00  0.00     0.040 C 
BRANCH  10  11
ATOM     11  C   UNL     1      45.468   8.423  18.722  1.00  0.00    -0.040 A 
ATOM     12  C   UNL     1      46.489   7.619  19.256  1.00  0.00     0.050 A 
ATOM     13  C   UNL     1      44.543   9.029  19.588  1.00  0.00     0.050 A 
ATOM     14  C   UNL     1      46.599   7.443  20.642  1.00  0.00     0.119 A 
ATOM     15  C   UNL     1      44.653   8.853  20.975  1.00  0.00     0.119 A 
ATOM     16  C   UNL     1      45.682   8.063  21.498  1.00  0.00     0.092 A 
BRANCH  14  17
ATOM     17  O   UNL     1      47.612   6.652  21.179  1.00  0.00    -0.508 OA
ATOM     18  H   UNL     1      48.470   7.061  21.532  1.00  0.00     0.293 HD
ENDBRANCH  14  17
BRANCH  15  19
ATOM     19  O   UNL     1      43.744   9.457  21.841  1.00  0.00    -0.508 OA
ATOM     20  H   UNL     1      43.541   9.066  22.753  1.00  0.00     0.293 HD
ENDBRANCH  15  19
ENDBRANCH  10  11
ENDBRANCH   1  10
TORSDOF 6
ENDMDL
