MODEL 1
REMARK VINA RESULT:    -3.559      0.000      0.000
REMARK INTER + INTRA:          -7.298
REMARK INTER:                  -6.056
REMARK INTRA:                  -1.242
REMARK UNBOUND:                -1.242
REMARK SMILES CCCCCCCCCCCCCC(=O)[O-]
REMARK SMILES IDX 8 1 9 2 10 3 11 4 12 5 13 6 14 7 15 8 16 9 7 10 6 11 5 12
REMARK SMILES IDX 4 13 3 14 2 15 1 16
REMARK H PARENT
REMARK Flexibility Score: inf
ROOT
ATOM      1  C   UNL     1       1.359  -6.974  -7.519  1.00  0.00     0.000 C 
ENDROOT
BRANCH   1   2
ATOM      2  C   UNL     1       1.641  -6.239  -8.841  1.00  0.00     0.000 C 
BRANCH   2   3
ATOM      3  C   UNL     1       1.762  -4.716  -8.659  1.00  0.00     0.000 C 
BRANCH   3   4
ATOM      4  C   UNL     1       2.382  -4.332  -7.304  1.00  0.00     0.000 C 
BRANCH   4   5
ATOM      5  C   UNL     1       3.552  -3.345  -7.451  1.00  0.00     0.006 C 
BRANCH   5   6
ATOM      6  C   UNL     1       3.345  -2.061  -6.638  1.00  0.00     0.053 C 
BRANCH   6   7
ATOM      7  C   UNL     1       2.331  -1.183  -7.300  1.00  0.00     0.041 C 
ATOM      8  O   UNL     1       1.260  -0.890  -6.705  1.00  0.00    -0.550 OA
ATOM      9  O   UNL     1       2.587  -0.646  -8.555  1.00  0.00    -0.550 OA
ENDBRANCH   6   7
ENDBRANCH   5   6
ENDBRANCH   4   5
ENDBRANCH   3   4
ENDBRANCH   2   3
ENDBRANCH   1   2
BRANCH   1  10
ATOM     10  C   UNL     1       2.189  -8.259  -7.367  1.00  0.00     0.000 C 
BRANCH  10  11
ATOM     11  C   UNL     1       2.838  -8.379  -5.977  1.00  0.00    -0.000 C 
BRANCH  11  12
ATOM     12  C   UNL     1       3.875  -7.276  -5.711  1.00  0.00    -0.000 C 
BRANCH  12  13
ATOM     13  C   UNL     1       4.907  -7.681  -4.646  1.00  0.00    -0.000 C 
BRANCH  13  14
ATOM     14  C   UNL     1       5.842  -6.525  -4.248  1.00  0.00    -0.000 C 
BRANCH  14  15
ATOM     15  C   UNL     1       5.620  -5.214  -5.022  1.00  0.00    -0.003 C 
ATOM     16  C   UNL     1       5.972  -3.970  -4.208  1.00  0.00     0.004 C 
ENDBRANCH  14  15
ENDBRANCH  13  14
ENDBRANCH  12  13
ENDBRANCH  11  12
ENDBRANCH  10  11
ENDBRANCH   1  10
TORSDOF 12
ENDMDL
MODEL 2
REMARK VINA RESULT:    -3.522      1.470      3.003
REMARK INTER + INTRA:          -7.234
REMARK INTER:                  -5.935
REMARK INTRA:                  -1.299
REMARK UNBOUND:                -1.242
REMARK SMILES CCCCCCCCCCCCCC(=O)[O-]
REMARK SMILES IDX 8 1 9 2 10 3 11 4 12 5 13 6 14 7 15 8 16 9 7 10 6 11 5 12
REMARK SMILES IDX 4 13 3 14 2 15 1 16
REMARK H PARENT
REMARK Flexibility Score: inf
ROOT
ATOM      1  C   UNL     1       4.399  -6.180  -6.702  1.00  0.00     0.000 C 
ENDROOT
BRANCH   1   2
ATOM      2  C   UNL     1       2.950  -6.630  -6.958  1.00  0.00     0.000 C 
BRANCH   2   3
ATOM      3  C   UNL     1       2.118  -5.565  -7.693  1.00  0.00     0.000 C 
BRANCH   3   4
ATOM      4  C   UNL     1       2.296  -4.161  -7.090  1.00  0.00     0.000 C 
BRANCH   4   5
ATOM      5  C   UNL     1       2.757  -3.128  -8.131  1.00  0.00     0.006 C 
BRANCH   5   6
ATOM      6  C   UNL     1       3.213  -1.810  -7.492  1.00  0.00     0.053 C 
BRANCH   6   7
ATOM      7  C   UNL     1       2.127  -0.785  -7.580  1.00  0.00     0.041 C 
ATOM      8  O   UNL     1       2.124   0.056  -8.517  1.00  0.00    -0.550 OA
ATOM      9  O   UNL     1       1.090  -0.787  -6.656  1.00  0.00    -0.550 OA
ENDBRANCH   6   7
ENDBRANCH   5   6
ENDBRANCH   4   5
ENDBRANCH   3   4
ENDBRANCH   2   3
ENDBRANCH   1   2
BRANCH   1  10
ATOM     10  C   UNL     1       4.855  -6.443  -5.258  1.00  0.00     0.000 C 
BRANCH  10  11
ATOM     11  C   UNL     1       5.549  -5.223  -4.628  1.00  0.00    -0.000 C 
BRANCH  11  12
ATOM     12  C   UNL     1       5.647  -4.033  -5.596  1.00  0.00    -0.000 C 
BRANCH  12  13
ATOM     13  C   UNL     1       5.758  -2.686  -4.864  1.00  0.00    -0.000 C 
BRANCH  13  14
ATOM     14  C   UNL     1       6.310  -2.825  -3.434  1.00  0.00    -0.000 C 
BRANCH  14  15
ATOM     15  C   UNL     1       7.792  -2.446  -3.271  1.00  0.00    -0.003 C 
ATOM     16  C   UNL     1       8.595  -3.486  -2.490  1.00  0.00     0.004 C 
ENDBRANCH  14  15
ENDBRANCH  13  14
ENDBRANCH  12  13
ENDBRANCH  11  12
ENDBRANCH  10  11
ENDBRANCH   1  10
TORSDOF 12
ENDMDL
MODEL 3
REMARK VINA RESULT:    -3.514      0.980      2.288
REMARK INTER + INTRA:          -7.221
REMARK INTER:                  -6.094
REMARK INTRA:                  -1.127
REMARK UNBOUND:                -1.242
REMARK SMILES CCCCCCCCCCCCCC(=O)[O-]
REMARK SMILES IDX 8 1 9 2 10 3 11 4 12 5 13 6 14 7 15 8 16 9 7 10 6 11 5 12
REMARK SMILES IDX 4 13 3 14 2 15 1 16
REMARK H PARENT
REMARK Flexibility Score: inf
ROOT
ATOM      1  C   UNL     1       3.481  -8.114  -6.560  1.00  0.00     0.000 C 
ENDROOT
BRANCH   1   2
ATOM      2  C   UNL     1       1.948  -8.022  -6.653  1.00  0.00     0.000 C 
BRANCH   2   3
ATOM      3  C   UNL     1       1.476  -6.848  -7.528  1.00  0.00     0.000 C 
BRANCH   3   4
ATOM      4  C   UNL     1       2.562  -5.772  -7.705  1.00  0.00     0.000 C 
BRANCH   4   5
ATOM      5  C   UNL     1       2.085  -4.377  -7.269  1.00  0.00     0.006 C 
BRANCH   5   6
ATOM      6  C   UNL     1       3.182  -3.313  -7.395  1.00  0.00     0.053 C 
BRANCH   6   7
ATOM      7  C   UNL     1       2.582  -1.942  -7.387  1.00  0.00     0.041 C 
ATOM      8  O   UNL     1       3.208  -0.973  -7.890  1.00  0.00    -0.550 OA
ATOM      9  O   UNL     1       1.309  -1.742  -6.867  1.00  0.00    -0.550 OA
ENDBRANCH   6   7
ENDBRANCH   5   6
ENDBRANCH   4   5
ENDBRANCH   3   4
ENDBRANCH   2   3
ENDBRANCH   1   2
BRANCH   1  10
ATOM     10  C   UNL     1       3.973  -8.362  -5.124  1.00  0.00     0.000 C 
BRANCH  10  11
ATOM     11  C   UNL     1       5.150  -7.448  -4.739  1.00  0.00    -0.000 C 
BRANCH  11  12
ATOM     12  C   UNL     1       4.965  -6.005  -5.237  1.00  0.00    -0.000 C 
BRANCH  12  13
ATOM     13  C   UNL     1       6.187  -5.119  -4.943  1.00  0.00    -0.000 C 
BRANCH  13  14
ATOM     14  C   UNL     1       6.095  -4.407  -3.581  1.00  0.00    -0.000 C 
BRANCH  14  15
ATOM     15  C   UNL     1       6.317  -2.885  -3.628  1.00  0.00    -0.003 C 
ATOM     16  C   UNL     1       5.384  -2.174  -4.608  1.00  0.00     0.004 C 
ENDBRANCH  14  15
ENDBRANCH  13  14
ENDBRANCH  12  13
ENDBRANCH  11  12
ENDBRANCH  10  11
ENDBRANCH   1  10
TORSDOF 12
ENDMDL
MODEL 4
REMARK VINA RESULT:    -3.476      1.610      3.234
REMARK INTER + INTRA:          -7.156
REMARK INTER:                  -5.725
REMARK INTRA:                  -1.431
REMARK UNBOUND:                -1.242
REMARK SMILES CCCCCCCCCCCCCC(=O)[O-]
REMARK SMILES IDX 8 1 9 2 10 3 11 4 12 5 13 6 14 7 15 8 16 9 7 10 6 11 5 12
REMARK SMILES IDX 4 13 3 14 2 15 1 16
REMARK H PARENT
REMARK Flexibility Score: inf
ROOT
ATOM      1  C   UNL     1       5.265  -6.633  -5.639  1.00  0.00     0.000 C 
ENDROOT
BRANCH   1   2
ATOM      2  C   UNL     1       3.764  -6.689  -5.974  1.00  0.00     0.000 C 
BRANCH   2   3
ATOM      3  C   UNL     1       3.317  -5.537  -6.890  1.00  0.00     0.000 C 
BRANCH   3   4
ATOM      4  C   UNL     1       4.314  -4.365  -6.891  1.00  0.00     0.000 C 
BRANCH   4   5
ATOM      5  C   UNL     1       3.830  -3.182  -7.746  1.00  0.00     0.006 C 
BRANCH   5   6
ATOM      6  C   UNL     1       3.463  -1.955  -6.903  1.00  0.00     0.053 C 
BRANCH   6   7
ATOM      7  C   UNL     1       2.103  -1.454  -7.277  1.00  0.00     0.041 C 
ATOM      8  O   UNL     1       1.140  -2.256  -7.386  1.00  0.00    -0.550 OA
ATOM      9  O   UNL     1       1.889  -0.093  -7.457  1.00  0.00    -0.550 OA
ENDBRANCH   6   7
ENDBRANCH   5   6
ENDBRANCH   4   5
ENDBRANCH   3   4
ENDBRANCH   2   3
ENDBRANCH   1   2
BRANCH   1  10
ATOM     10  C   UNL     1       5.583  -7.206  -4.248  1.00  0.00     0.000 C 
BRANCH  10  11
ATOM     11  C   UNL     1       6.110  -6.135  -3.277  1.00  0.00    -0.000 C 
BRANCH  11  12
ATOM     12  C   UNL     1       6.457  -4.815  -3.983  1.00  0.00    -0.000 C 
BRANCH  12  13
ATOM     13  C   UNL     1       5.846  -3.592  -3.280  1.00  0.00    -0.000 C 
BRANCH  13  14
ATOM     14  C   UNL     1       5.860  -2.328  -4.159  1.00  0.00    -0.000 C 
BRANCH  14  15
ATOM     15  C   UNL     1       7.054  -2.220  -5.124  1.00  0.00    -0.003 C 
ATOM     16  C   UNL     1       8.251  -1.490  -4.516  1.00  0.00     0.004 C 
ENDBRANCH  14  15
ENDBRANCH  13  14
ENDBRANCH  12  13
ENDBRANCH  11  12
ENDBRANCH  10  11
ENDBRANCH   1  10
TORSDOF 12
ENDMDL
MODEL 5
REMARK VINA RESULT:    -3.421      2.341      4.634
REMARK INTER + INTRA:          -7.063
REMARK INTER:                  -5.820
REMARK INTRA:                  -1.244
REMARK UNBOUND:                -1.242
REMARK SMILES CCCCCCCCCCCCCC(=O)[O-]
REMARK SMILES IDX 8 1 9 2 10 3 11 4 12 5 13 6 14 7 15 8 16 9 7 10 6 11 5 12
REMARK SMILES IDX 4 13 3 14 2 15 1 16
REMARK H PARENT
REMARK Flexibility Score: inf
ROOT
ATOM      1  C   UNL     1       3.641  -7.812  -6.835  1.00  0.00     0.000 C 
ENDROOT
BRANCH   1   2
ATOM      2  C   UNL     1       3.975  -7.572  -5.351  1.00  0.00     0.000 C 
BRANCH   2   3
ATOM      3  C   UNL     1       5.079  -6.520  -5.154  1.00  0.00     0.000 C 
BRANCH   3   4
ATOM      4  C   UNL     1       4.743  -5.180  -5.831  1.00  0.00     0.000 C 
BRANCH   4   5
ATOM      5  C   UNL     1       5.898  -4.169  -5.740  1.00  0.00     0.006 C 
BRANCH   5   6
ATOM      6  C   UNL     1       6.520  -4.108  -4.339  1.00  0.00     0.053 C 
BRANCH   6   7
ATOM      7  C   UNL     1       6.243  -2.783  -3.703  1.00  0.00     0.041 C 
ATOM      8  O   UNL     1       5.349  -2.030  -4.170  1.00  0.00    -0.550 OA
ATOM      9  O   UNL     1       6.939  -2.398  -2.563  1.00  0.00    -0.550 OA
ENDBRANCH   6   7
ENDBRANCH   5   6
ENDBRANCH   4   5
ENDBRANCH   3   4
ENDBRANCH   2   3
ENDBRANCH   1   2
BRANCH   1  10
ATOM     10  C   UNL     1       2.139  -8.030  -7.076  1.00  0.00     0.000 C 
BRANCH  10  11
ATOM     11  C   UNL     1       1.382  -6.711  -7.311  1.00  0.00    -0.000 C 
BRANCH  11  12
ATOM     12  C   UNL     1       1.458  -6.238  -8.772  1.00  0.00    -0.000 C 
BRANCH  12  13
ATOM     13  C   UNL     1       1.889  -4.768  -8.894  1.00  0.00    -0.000 C 
BRANCH  13  14
ATOM     14  C   UNL     1       1.900  -4.033  -7.540  1.00  0.00    -0.000 C 
BRANCH  14  15
ATOM     15  C   UNL     1       1.826  -2.499  -7.634  1.00  0.00    -0.003 C 
ATOM     16  C   UNL     1       2.987  -1.800  -6.929  1.00  0.00     0.004 C 
ENDBRANCH  14  15
ENDBRANCH  13  14
ENDBRANCH  12  13
ENDBRANCH  11  12
ENDBRANCH  10  11
ENDBRANCH   1  10
TORSDOF 12
ENDMDL
MODEL 6
REMARK VINA RESULT:    -3.374      1.478      2.302
REMARK INTER + INTRA:          -6.982
REMARK INTER:                  -5.871
REMARK INTRA:                  -1.111
REMARK UNBOUND:                -1.242
REMARK SMILES CCCCCCCCCCCCCC(=O)[O-]
REMARK SMILES IDX 8 1 9 2 10 3 11 4 12 5 13 6 14 7 15 8 16 9 7 10 6 11 5 12
REMARK SMILES IDX 4 13 3 14 2 15 1 16
REMARK H PARENT
REMARK Flexibility Score: inf
ROOT
ATOM      1  C   UNL     1       3.527  -5.510  -6.664  1.00  0.00     0.000 C 
ENDROOT
BRANCH   1   2
ATOM      2  C   UNL     1       2.154  -5.229  -7.300  1.00  0.00     0.000 C 
BRANCH   2   3
ATOM      3  C   UNL     1       1.884  -3.726  -7.489  1.00  0.00     0.000 C 
BRANCH   3   4
ATOM      4  C   UNL     1       3.104  -2.860  -7.132  1.00  0.00     0.000 C 
BRANCH   4   5
ATOM      5  C   UNL     1       2.739  -1.378  -6.945  1.00  0.00     0.006 C 
BRANCH   5   6
ATOM      6  C   UNL     1       1.360  -1.033  -7.520  1.00  0.00     0.053 C 
BRANCH   6   7
ATOM      7  C   UNL     1       1.504  -0.318  -8.826  1.00  0.00     0.041 C 
ATOM      8  O   UNL     1       1.397  -0.950  -9.910  1.00  0.00    -0.550 OA
ATOM      9  O   UNL     1       1.708   1.056  -8.849  1.00  0.00    -0.550 OA
ENDBRANCH   6   7
ENDBRANCH   5   6
ENDBRANCH   4   5
ENDBRANCH   3   4
ENDBRANCH   2   3
ENDBRANCH   1   2
BRANCH   1  10
ATOM     10  C   UNL     1       3.671  -6.965  -6.187  1.00  0.00     0.000 C 
BRANCH  10  11
ATOM     11  C   UNL     1       4.683  -7.109  -5.037  1.00  0.00    -0.000 C 
BRANCH  11  12
ATOM     12  C   UNL     1       5.796  -6.050  -5.093  1.00  0.00    -0.000 C 
BRANCH  12  13
ATOM     13  C   UNL     1       6.150  -5.495  -3.703  1.00  0.00    -0.000 C 
BRANCH  13  14
ATOM     14  C   UNL     1       5.973  -3.968  -3.607  1.00  0.00    -0.000 C 
BRANCH  14  15
ATOM     15  C   UNL     1       5.987  -3.226  -4.955  1.00  0.00    -0.003 C 
ATOM     16  C   UNL     1       7.178  -2.281  -5.106  1.00  0.00     0.004 C 
ENDBRANCH  14  15
ENDBRANCH  13  14
ENDBRANCH  12  13
ENDBRANCH  11  12
ENDBRANCH  10  11
ENDBRANCH   1  10
TORSDOF 12
ENDMDL
MODEL 7
REMARK VINA RESULT:    -3.330      3.158      5.816
REMARK INTER + INTRA:          -6.908
REMARK INTER:                  -5.670
REMARK INTRA:                  -1.238
REMARK UNBOUND:                -1.242
REMARK SMILES CCCCCCCCCCCCCC(=O)[O-]
REMARK SMILES IDX 8 1 9 2 10 3 11 4 12 5 13 6 14 7 15 8 16 9 7 10 6 11 5 12
REMARK SMILES IDX 4 13 3 14 2 15 1 16
REMARK H PARENT
REMARK Flexibility Score: inf
ROOT
ATOM      1  C   UNL     1       4.096  -5.891  -7.268  1.00  0.00     0.000 C 
ENDROOT
BRANCH   1   2
ATOM      2  C   UNL     1       4.318  -6.031  -5.751  1.00  0.00     0.000 C 
BRANCH   2   3
ATOM      3  C   UNL     1       5.517  -5.209  -5.248  1.00  0.00     0.000 C 
BRANCH   3   4
ATOM      4  C   UNL     1       5.639  -3.850  -5.959  1.00  0.00     0.000 C 
BRANCH   4   5
ATOM      5  C   UNL     1       5.786  -2.681  -4.972  1.00  0.00     0.006 C 
BRANCH   5   6
ATOM      6  C   UNL     1       6.070  -3.150  -3.540  1.00  0.00     0.053 C 
BRANCH   6   7
ATOM      7  C   UNL     1       7.407  -2.655  -3.084  1.00  0.00     0.041 C 
ATOM      8  O   UNL     1       8.074  -3.312  -2.243  1.00  0.00    -0.550 OA
ATOM      9  O   UNL     1       7.939  -1.491  -3.624  1.00  0.00    -0.550 OA
ENDBRANCH   6   7
ENDBRANCH   5   6
ENDBRANCH   4   5
ENDBRANCH   3   4
ENDBRANCH   2   3
ENDBRANCH   1   2
BRANCH   1  10
ATOM     10  C   UNL     1       2.628  -5.613  -7.629  1.00  0.00     0.000 C 
BRANCH  10  11
ATOM     11  C   UNL     1       2.113  -4.295  -7.026  1.00  0.00    -0.000 C 
BRANCH  11  12
ATOM     12  C   UNL     1       2.491  -3.069  -7.874  1.00  0.00    -0.000 C 
BRANCH  12  13
ATOM     13  C   UNL     1       2.778  -1.826  -7.017  1.00  0.00    -0.000 C 
BRANCH  13  14
ATOM     14  C   UNL     1       1.677  -0.755  -7.128  1.00  0.00    -0.000 C 
BRANCH  14  15
ATOM     15  C   UNL     1       0.703  -0.946  -8.303  1.00  0.00    -0.003 C 
ATOM     16  C   UNL     1       0.894   0.086  -9.414  1.00  0.00     0.004 C 
ENDBRANCH  14  15
ENDBRANCH  13  14
ENDBRANCH  12  13
ENDBRANCH  11  12
ENDBRANCH  10  11
ENDBRANCH   1  10
TORSDOF 12
ENDMDL
MODEL 8
REMARK VINA RESULT:    -3.282     14.412     16.480
REMARK INTER + INTRA:          -6.826
REMARK INTER:                  -4.989
REMARK INTRA:                  -1.837
REMARK UNBOUND:                -1.242
REMARK SMILES CCCCCCCCCCCCCC(=O)[O-]
REMARK SMILES IDX 8 1 9 2 10 3 11 4 12 5 13 6 14 7 15 8 16 9 7 10 6 11 5 12
REMARK SMILES IDX 4 13 3 14 2 15 1 16
REMARK H PARENT
REMARK Flexibility Score: inf
ROOT
ATOM      1  C   UNL     1      -2.018   7.306   2.845  1.00  0.00     0.000 C 
ENDROOT
BRANCH   1   2
ATOM      2  C   UNL     1      -1.331   8.615   2.416  1.00  0.00     0.000 C 
BRANCH   2   3
ATOM      3  C   UNL     1      -2.328   9.665   1.897  1.00  0.00     0.000 C 
BRANCH   3   4
ATOM      4  C   UNL     1      -3.306   9.087   0.859  1.00  0.00     0.000 C 
BRANCH   4   5
ATOM      5  C   UNL     1      -2.774   9.204  -0.579  1.00  0.00     0.006 C 
BRANCH   5   6
ATOM      6  C   UNL     1      -2.660   7.844  -1.278  1.00  0.00     0.053 C 
BRANCH   6   7
ATOM      7  C   UNL     1      -1.358   7.189  -0.936  1.00  0.00     0.041 C 
ATOM      8  O   UNL     1      -0.274   7.805  -1.112  1.00  0.00    -0.550 OA
ATOM      9  O   UNL     1      -1.344   5.917  -0.379  1.00  0.00    -0.550 OA
ENDBRANCH   6   7
ENDBRANCH   5   6
ENDBRANCH   4   5
ENDBRANCH   3   4
ENDBRANCH   2   3
ENDBRANCH   1   2
BRANCH   1  10
ATOM     10  C   UNL     1      -2.833   7.460   4.138  1.00  0.00     0.000 C 
BRANCH  10  11
ATOM     11  C   UNL     1      -4.101   6.589   4.143  1.00  0.00    -0.000 C 
BRANCH  11  12
ATOM     12  C   UNL     1      -5.136   7.046   3.102  1.00  0.00    -0.000 C 
BRANCH  12  13
ATOM     13  C   UNL     1      -5.598   5.900   2.187  1.00  0.00    -0.000 C 
BRANCH  13  14
ATOM     14  C   UNL     1      -4.646   5.660   1.002  1.00  0.00    -0.000 C 
BRANCH  14  15
ATOM     15  C   UNL     1      -5.335   5.252  -0.312  1.00  0.00    -0.003 C 
ATOM     16  C   UNL     1      -6.083   6.405  -0.979  1.00  0.00     0.004 C 
ENDBRANCH  14  15
ENDBRANCH  13  14
ENDBRANCH  12  13
ENDBRANCH  11  12
ENDBRANCH  10  11
ENDBRANCH   1  10
TORSDOF 12
ENDMDL
MODEL 9
REMARK VINA RESULT:    -3.233      1.727      3.640
REMARK INTER + INTRA:          -6.743
REMARK INTER:                  -4.862
REMARK INTRA:                  -1.881
REMARK UNBOUND:                -1.242
REMARK SMILES CCCCCCCCCCCCCC(=O)[O-]
REMARK SMILES IDX 8 1 9 2 10 3 11 4 12 5 13 6 14 7 15 8 16 9 7 10 6 11 5 12
REMARK SMILES IDX 4 13 3 14 2 15 1 16
REMARK H PARENT
REMARK Flexibility Score: inf
ROOT
ATOM      1  C   UNL     1       5.035  -6.416  -6.803  1.00  0.00     0.000 C 
ENDROOT
BRANCH   1   2
ATOM      2  C   UNL     1       4.648  -5.190  -7.649  1.00  0.00     0.000 C 
BRANCH   2   3
ATOM      3  C   UNL     1       3.612  -4.291  -6.952  1.00  0.00     0.000 C 
BRANCH   3   4
ATOM      4  C   UNL     1       2.286  -4.209  -7.728  1.00  0.00     0.000 C 
BRANCH   4   5
ATOM      5  C   UNL     1       2.387  -3.312  -8.973  1.00  0.00     0.006 C 
BRANCH   5   6
ATOM      6  C   UNL     1       2.314  -1.819  -8.630  1.00  0.00     0.053 C 
BRANCH   6   7
ATOM      7  C   UNL     1       1.076  -1.525  -7.843  1.00  0.00     0.041 C 
ATOM      8  O   UNL     1       1.161  -1.048  -6.681  1.00  0.00    -0.550 OA
ATOM      9  O   UNL     1      -0.176  -1.732  -8.410  1.00  0.00    -0.550 OA
ENDBRANCH   6   7
ENDBRANCH   5   6
ENDBRANCH   4   5
ENDBRANCH   3   4
ENDBRANCH   2   3
ENDBRANCH   1   2
BRANCH   1  10
ATOM     10  C   UNL     1       3.949  -6.800  -5.784  1.00  0.00     0.000 C 
BRANCH  10  11
ATOM     11  C   UNL     1       3.768  -8.323  -5.662  1.00  0.00    -0.000 C 
BRANCH  11  12
ATOM     12  C   UNL     1       2.483  -8.822  -6.341  1.00  0.00    -0.000 C 
BRANCH  12  13
ATOM     13  C   UNL     1       1.659  -7.678  -6.957  1.00  0.00    -0.000 C 
BRANCH  13  14
ATOM     14  C   UNL     1       1.410  -7.864  -8.465  1.00  0.00    -0.000 C 
BRANCH  14  15
ATOM     15  C   UNL     1       2.682  -7.959  -9.326  1.00  0.00    -0.003 C 
ATOM     16  C   UNL     1       2.777  -6.854 -10.377  1.00  0.00     0.004 C 
ENDBRANCH  14  15
ENDBRANCH  13  14
ENDBRANCH  12  13
ENDBRANCH  11  12
ENDBRANCH  10  11
ENDBRANCH   1  10
TORSDOF 12
ENDMDL
