MODEL 1
REMARK VINA RESULT:    -5.444      0.000      0.000
REMARK INTER + INTRA:          -5.603
REMARK INTER:                  -5.603
REMARK INTRA:                   0.000
REMARK UNBOUND:                 0.000
REMARK SMILES Nc1ncnc2nc[nH]c12
REMARK SMILES IDX 8 1 7 2 6 3 5 4 4 5 3 6 2 7 10 8 9 9 1 11
REMARK H PARENT 9 10 1 12 1 13
REMARK Flexibility Score: inf
ROOT
ATOM      1  C   UNL     1       7.275 -63.904 187.786  1.00  0.00     0.199 A 
ATOM      2  N   UNL     1       6.170 -63.109 187.784  1.00  0.00    -0.217 NA
ATOM      3  C   UNL     1       6.311 -62.421 188.930  1.00  0.00     0.182 A 
ATOM      4  N   UNL     1       5.468 -61.479 189.416  1.00  0.00    -0.215 NA
ATOM      5  C   UNL     1       5.782 -60.885 190.606  1.00  0.00     0.226 A 
ATOM      6  N   UNL     1       6.922 -61.240 191.283  1.00  0.00    -0.217 NA
ATOM      7  C   UNL     1       7.773 -62.191 190.794  1.00  0.00     0.152 A 
ATOM      8  C   UNL     1       7.439 -62.786 189.581  1.00  0.00     0.127 A 
ATOM      9  N   UNL     1       8.071 -63.730 188.871  1.00  0.00    -0.340 N 
ATOM     10  H   UNL     1       8.964 -64.223 189.090  1.00  0.00     0.168 HD
ENDROOT
BRANCH   7  11
ATOM     11  N   UNL     1       8.954 -62.545 191.516  1.00  0.00    -0.382 N 
ATOM     12  H   UNL     1       9.512 -63.378 191.226  1.00  0.00     0.158 HD
ATOM     13  H   UNL     1       9.277 -61.987 192.336  1.00  0.00     0.158 HD
ENDBRANCH   7  11
TORSDOF 1
ENDMDL
MODEL 2
REMARK VINA RESULT:    -5.363      1.060      2.972
REMARK INTER + INTRA:          -5.520
REMARK INTER:                  -5.520
REMARK INTRA:                   0.000
REMARK UNBOUND:                 0.000
REMARK SMILES Nc1ncnc2nc[nH]c12
REMARK SMILES IDX 8 1 7 2 6 3 5 4 4 5 3 6 2 7 10 8 9 9 1 11
REMARK H PARENT 9 10 1 12 1 13
REMARK Flexibility Score: inf
ROOT
ATOM      1  C   UNL     1       5.998 -60.357 191.517  1.00  0.00     0.199 A 
ATOM      2  N   UNL     1       5.109 -60.665 190.532  1.00  0.00    -0.217 NA
ATOM      3  C   UNL     1       5.776 -61.591 189.824  1.00  0.00     0.182 A 
ATOM      4  N   UNL     1       5.334 -62.237 188.718  1.00  0.00    -0.215 NA
ATOM      5  C   UNL     1       6.161 -63.153 188.132  1.00  0.00     0.226 A 
ATOM      6  N   UNL     1       7.404 -63.405 188.656  1.00  0.00    -0.217 NA
ATOM      7  C   UNL     1       7.852 -62.755 189.771  1.00  0.00     0.152 A 
ATOM      8  C   UNL     1       6.997 -61.825 190.357  1.00  0.00     0.127 A 
ATOM      9  N   UNL     1       7.161 -61.050 191.437  1.00  0.00    -0.340 N 
ATOM     10  H   UNL     1       7.985 -60.985 192.075  1.00  0.00     0.168 HD
ENDROOT
BRANCH   7  11
ATOM     11  N   UNL     1       9.149 -63.033 190.299  1.00  0.00    -0.382 N 
ATOM     12  H   UNL     1       9.263 -63.744 191.055  1.00  0.00     0.158 HD
ATOM     13  H   UNL     1       9.997 -62.538 189.947  1.00  0.00     0.158 HD
ENDBRANCH   7  11
TORSDOF 1
ENDMDL
MODEL 3
REMARK VINA RESULT:    -5.358      1.076      3.004
REMARK INTER + INTRA:          -5.515
REMARK INTER:                  -5.515
REMARK INTRA:                   0.000
REMARK UNBOUND:                 0.000
REMARK SMILES Nc1ncnc2nc[nH]c12
REMARK SMILES IDX 8 1 7 2 6 3 5 4 4 5 3 6 2 7 10 8 9 9 1 11
REMARK H PARENT 9 10 1 12 1 13
REMARK Flexibility Score: inf
ROOT
ATOM      1  C   UNL     1       8.687 -62.256 190.956  1.00  0.00     0.199 A 
ATOM      2  N   UNL     1       7.472 -61.647 191.043  1.00  0.00    -0.217 NA
ATOM      3  C   UNL     1       6.827 -62.144 189.974  1.00  0.00     0.182 A 
ATOM      4  N   UNL     1       5.560 -61.857 189.589  1.00  0.00    -0.215 NA
ATOM      5  C   UNL     1       5.074 -62.466 188.466  1.00  0.00     0.226 A 
ATOM      6  N   UNL     1       5.855 -63.340 187.754  1.00  0.00    -0.217 NA
ATOM      7  C   UNL     1       7.134 -63.630 188.139  1.00  0.00     0.152 A 
ATOM      8  C   UNL     1       7.614 -63.003 189.286  1.00  0.00     0.127 A 
ATOM      9  N   UNL     1       8.805 -63.091 189.893  1.00  0.00    -0.340 N 
ATOM     10  H   UNL     1       9.635 -63.662 189.622  1.00  0.00     0.168 HD
ENDROOT
BRANCH   7  11
ATOM     11  N   UNL     1       7.929 -64.543 187.382  1.00  0.00    -0.382 N 
ATOM     12  H   UNL     1       7.839 -65.570 187.543  1.00  0.00     0.158 HD
ATOM     13  H   UNL     1       8.607 -64.207 186.664  1.00  0.00     0.158 HD
ENDBRANCH   7  11
TORSDOF 1
ENDMDL
MODEL 4
REMARK VINA RESULT:    -4.735      1.556      3.015
REMARK INTER + INTRA:          -4.874
REMARK INTER:                  -4.874
REMARK INTRA:                   0.000
REMARK UNBOUND:                 0.000
REMARK SMILES Nc1ncnc2nc[nH]c12
REMARK SMILES IDX 8 1 7 2 6 3 5 4 4 5 3 6 2 7 10 8 9 9 1 11
REMARK H PARENT 9 10 1 12 1 13
REMARK Flexibility Score: inf
ROOT
ATOM      1  C   UNL     1       3.587 -63.124 187.873  1.00  0.00     0.199 A 
ATOM      2  N   UNL     1       3.929 -62.138 188.747  1.00  0.00    -0.217 NA
ATOM      3  C   UNL     1       5.253 -62.322 188.882  1.00  0.00     0.182 A 
ATOM      4  N   UNL     1       6.095 -61.595 189.654  1.00  0.00    -0.215 NA
ATOM      5  C   UNL     1       7.419 -61.935 189.661  1.00  0.00     0.226 A 
ATOM      6  N   UNL     1       7.872 -62.986 188.905  1.00  0.00    -0.217 NA
ATOM      7  C   UNL     1       7.024 -63.722 188.126  1.00  0.00     0.152 A 
ATOM      8  C   UNL     1       5.679 -63.362 188.129  1.00  0.00     0.127 A 
ATOM      9  N   UNL     1       4.635 -63.889 187.476  1.00  0.00    -0.340 N 
ATOM     10  H   UNL     1       4.618 -64.698 186.816  1.00  0.00     0.168 HD
ENDROOT
BRANCH   7  11
ATOM     11  N   UNL     1       7.518 -64.812 187.347  1.00  0.00    -0.382 N 
ATOM     12  H   UNL     1       7.449 -64.782 186.306  1.00  0.00     0.158 HD
ATOM     13  H   UNL     1       7.951 -65.648 187.796  1.00  0.00     0.158 HD
ENDBRANCH   7  11
TORSDOF 1
ENDMDL
MODEL 5
REMARK VINA RESULT:    -4.647      1.037      3.883
REMARK INTER + INTRA:          -4.783
REMARK INTER:                  -4.783
REMARK INTRA:                   0.000
REMARK UNBOUND:                 0.000
REMARK SMILES Nc1ncnc2nc[nH]c12
REMARK SMILES IDX 8 1 7 2 6 3 5 4 4 5 3 6 2 7 10 8 9 9 1 11
REMARK H PARENT 9 10 1 12 1 13
REMARK Flexibility Score: inf
ROOT
ATOM      1  C   UNL     1       6.343 -60.863 191.323  1.00  0.00     0.199 A 
ATOM      2  N   UNL     1       7.492 -61.541 191.051  1.00  0.00    -0.217 NA
ATOM      3  C   UNL     1       7.162 -62.231 189.946  1.00  0.00     0.182 A 
ATOM      4  N   UNL     1       7.961 -63.079 189.254  1.00  0.00    -0.215 NA
ATOM      5  C   UNL     1       7.444 -63.691 188.146  1.00  0.00     0.226 A 
ATOM      6  N   UNL     1       6.152 -63.448 187.755  1.00  0.00    -0.217 NA
ATOM      7  C   UNL     1       5.345 -62.594 188.453  1.00  0.00     0.152 A 
ATOM      8  C   UNL     1       5.886 -61.977 189.577  1.00  0.00     0.127 A 
ATOM      9  N   UNL     1       5.343 -61.108 190.440  1.00  0.00    -0.340 N 
ATOM     10  H   UNL     1       4.379 -60.707 190.443  1.00  0.00     0.168 HD
ENDROOT
BRANCH   7  11
ATOM     11  N   UNL     1       4.002 -62.356 188.027  1.00  0.00    -0.382 N 
ATOM     12  H   UNL     1       3.421 -63.146 187.669  1.00  0.00     0.158 HD
ATOM     13  H   UNL     1       3.582 -61.402 188.062  1.00  0.00     0.158 HD
ENDBRANCH   7  11
TORSDOF 1
ENDMDL
MODEL 6
REMARK VINA RESULT:    -4.544      1.127      2.750
REMARK INTER + INTRA:          -4.677
REMARK INTER:                  -4.677
REMARK INTRA:                   0.000
REMARK UNBOUND:                 0.000
REMARK SMILES Nc1ncnc2nc[nH]c12
REMARK SMILES IDX 8 1 7 2 6 3 5 4 4 5 3 6 2 7 10 8 9 9 1 11
REMARK H PARENT 9 10 1 12 1 13
REMARK Flexibility Score: inf
ROOT
ATOM      1  C   UNL     1       7.145 -63.317 188.133  1.00  0.00     0.199 A 
ATOM      2  N   UNL     1       7.838 -63.027 189.268  1.00  0.00    -0.217 NA
ATOM      3  C   UNL     1       7.030 -62.144 189.879  1.00  0.00     0.182 A 
ATOM      4  N   UNL     1       7.253 -61.531 191.066  1.00  0.00    -0.215 NA
ATOM      5  C   UNL     1       6.308 -60.659 191.529  1.00  0.00     0.226 A 
ATOM      6  N   UNL     1       5.169 -60.416 190.803  1.00  0.00    -0.217 NA
ATOM      7  C   UNL     1       4.943 -61.033 189.605  1.00  0.00     0.152 A 
ATOM      8  C   UNL     1       5.914 -61.919 189.148  1.00  0.00     0.127 A 
ATOM      9  N   UNL     1       5.964 -62.656 188.030  1.00  0.00    -0.340 N 
ATOM     10  H   UNL     1       5.267 -62.716 187.256  1.00  0.00     0.168 HD
ENDROOT
BRANCH   7  11
ATOM     11  N   UNL     1       3.750 -60.765 188.867  1.00  0.00    -0.382 N 
ATOM     12  H   UNL     1       2.897 -60.423 189.361  1.00  0.00     0.158 HD
ATOM     13  H   UNL     1       3.707 -60.904 187.834  1.00  0.00     0.158 HD
ENDBRANCH   7  11
TORSDOF 1
ENDMDL
MODEL 7
REMARK VINA RESULT:    -4.526      1.431      2.824
REMARK INTER + INTRA:          -4.658
REMARK INTER:                  -4.658
REMARK INTRA:                   0.000
REMARK UNBOUND:                 0.000
REMARK SMILES Nc1ncnc2nc[nH]c12
REMARK SMILES IDX 8 1 7 2 6 3 5 4 4 5 3 6 2 7 10 8 9 9 1 11
REMARK H PARENT 9 10 1 12 1 13
REMARK Flexibility Score: inf
ROOT
ATOM      1  C   UNL     1       3.607 -62.177 188.472  1.00  0.00     0.199 A 
ATOM      2  N   UNL     1       4.465 -62.986 187.791  1.00  0.00    -0.217 NA
ATOM      3  C   UNL     1       5.619 -62.803 188.455  1.00  0.00     0.182 A 
ATOM      4  N   UNL     1       6.811 -63.385 188.181  1.00  0.00    -0.215 NA
ATOM      5  C   UNL     1       7.879 -63.073 188.976  1.00  0.00     0.226 A 
ATOM      6  N   UNL     1       7.737 -62.192 190.018  1.00  0.00    -0.217 NA
ATOM      7  C   UNL     1       6.536 -61.603 190.295  1.00  0.00     0.152 A 
ATOM      8  C   UNL     1       5.458 -61.932 189.478  1.00  0.00     0.127 A 
ATOM      9  N   UNL     1       4.184 -61.520 189.509  1.00  0.00    -0.340 N 
ATOM     10  H   UNL     1       3.730 -60.851 190.169  1.00  0.00     0.168 HD
ENDROOT
BRANCH   7  11
ATOM     11  N   UNL     1       6.412 -60.689 191.386  1.00  0.00    -0.382 N 
ATOM     12  H   UNL     1       5.870 -59.805 191.267  1.00  0.00     0.158 HD
ATOM     13  H   UNL     1       6.857 -60.882 192.310  1.00  0.00     0.158 HD
ENDBRANCH   7  11
TORSDOF 1
ENDMDL
MODEL 8
REMARK VINA RESULT:    -4.511      2.258      3.856
REMARK INTER + INTRA:          -4.643
REMARK INTER:                  -4.643
REMARK INTRA:                   0.000
REMARK UNBOUND:                 0.000
REMARK SMILES Nc1ncnc2nc[nH]c12
REMARK SMILES IDX 8 1 7 2 6 3 5 4 4 5 3 6 2 7 10 8 9 9 1 11
REMARK H PARENT 9 10 1 12 1 13
REMARK Flexibility Score: inf
ROOT
ATOM      1  C   UNL     1       7.138 -62.775 188.825  1.00  0.00     0.199 A 
ATOM      2  N   UNL     1       6.278 -61.818 189.272  1.00  0.00    -0.217 NA
ATOM      3  C   UNL     1       5.096 -62.256 188.806  1.00  0.00     0.182 A 
ATOM      4  N   UNL     1       3.891 -61.661 188.972  1.00  0.00    -0.215 NA
ATOM      5  C   UNL     1       2.793 -62.261 188.421  1.00  0.00     0.226 A 
ATOM      6  N   UNL     1       2.920 -63.434 187.720  1.00  0.00    -0.217 NA
ATOM      7  C   UNL     1       4.135 -64.035 187.550  1.00  0.00     0.152 A 
ATOM      8  C   UNL     1       5.242 -63.412 188.119  1.00  0.00     0.127 A 
ATOM      9  N   UNL     1       6.535 -63.763 188.117  1.00  0.00    -0.340 N 
ATOM     10  H   UNL     1       6.985 -64.596 187.679  1.00  0.00     0.168 HD
ENDROOT
BRANCH   7  11
ATOM     11  N   UNL     1       4.242 -65.256 186.816  1.00  0.00    -0.382 N 
ATOM     12  H   UNL     1       4.327 -65.233 185.777  1.00  0.00     0.158 HD
ATOM     13  H   UNL     1       4.236 -66.182 187.298  1.00  0.00     0.158 HD
ENDBRANCH   7  11
TORSDOF 1
ENDMDL
MODEL 9
REMARK VINA RESULT:    -4.448      2.085      4.108
REMARK INTER + INTRA:          -4.578
REMARK INTER:                  -4.578
REMARK INTRA:                   0.000
REMARK UNBOUND:                 0.000
REMARK SMILES Nc1ncnc2nc[nH]c12
REMARK SMILES IDX 8 1 7 2 6 3 5 4 4 5 3 6 2 7 10 8 9 9 1 11
REMARK H PARENT 9 10 1 12 1 13
REMARK Flexibility Score: inf
ROOT
ATOM      1  C   UNL     1       7.115 -61.955 188.907  1.00  0.00     0.199 A 
ATOM      2  N   UNL     1       7.215 -63.218 188.407  1.00  0.00    -0.217 NA
ATOM      3  C   UNL     1       5.933 -63.526 188.150  1.00  0.00     0.182 A 
ATOM      4  N   UNL     1       5.469 -64.689 187.632  1.00  0.00    -0.215 NA
ATOM      5  C   UNL     1       4.122 -64.816 187.439  1.00  0.00     0.226 A 
ATOM      6  N   UNL     1       3.271 -63.791 187.764  1.00  0.00    -0.217 NA
ATOM      7  C   UNL     1       3.737 -62.617 188.287  1.00  0.00     0.152 A 
ATOM      8  C   UNL     1       5.111 -62.502 188.477  1.00  0.00     0.127 A 
ATOM      9  N   UNL     1       5.842 -61.489 188.962  1.00  0.00    -0.340 N 
ATOM     10  H   UNL     1       5.520 -60.558 189.304  1.00  0.00     0.168 HD
ENDROOT
BRANCH   7  11
ATOM     11  N   UNL     1       2.832 -61.563 188.619  1.00  0.00    -0.382 N 
ATOM     12  H   UNL     1       2.560 -60.862 187.895  1.00  0.00     0.158 HD
ATOM     13  H   UNL     1       2.431 -61.472 189.578  1.00  0.00     0.158 HD
ENDBRANCH   7  11
TORSDOF 1
ENDMDL
