MODEL 1
REMARK VINA RESULT:    -6.010      0.000      0.000
REMARK INTER + INTRA:         -20.430
REMARK INTER:                 -15.146
REMARK INTRA:                  -5.284
REMARK UNBOUND:                -5.284
REMARK SMILES CCCCCCCCCCCCCCCCCCCCCCCCCCCC(=O)[O-]
REMARK SMILES IDX 15 1 16 2 17 3 18 4 19 5 20 6 21 7 22 8 23 9 24 10 25 11
REMARK SMILES IDX 26 12 27 13 28 14 29 15 30 16 14 17 13 18 12 19 11 20 10 21
REMARK SMILES IDX 9 22 8 23 7 24 6 25 5 26 4 27 3 28 2 29 1 30
REMARK H PARENT
REMARK Flexibility Score: inf
ROOT
ATOM      1  C   UNL     1      10.442   8.853 -16.263  1.00  0.00     0.000 C 
ENDROOT
BRANCH   1   2
ATOM      2  C   UNL     1       9.278   7.961 -16.724  1.00  0.00     0.000 C 
BRANCH   2   3
ATOM      3  C   UNL     1       9.119   6.705 -15.855  1.00  0.00     0.000 C 
BRANCH   3   4
ATOM      4  C   UNL     1      10.318   5.760 -16.021  1.00  0.00     0.000 C 
BRANCH   4   5
ATOM      5  C   UNL     1      10.668   5.005 -14.726  1.00  0.00     0.000 C 
BRANCH   5   6
ATOM      6  C   UNL     1      12.170   4.972 -14.380  1.00  0.00     0.000 C 
BRANCH   6   7
ATOM      7  C   UNL     1      12.528   5.471 -12.965  1.00  0.00     0.000 C 
BRANCH   7   8
ATOM      8  C   UNL     1      11.589   6.550 -12.396  1.00  0.00     0.000 C 
BRANCH   8   9
ATOM      9  C   UNL     1      11.043   6.189 -11.004  1.00  0.00     0.000 C 
BRANCH   9  10
ATOM     10  C   UNL     1      11.809   6.890  -9.870  1.00  0.00     0.000 C 
BRANCH  10  11
ATOM     11  C   UNL     1      12.619   5.908  -9.005  1.00  0.00     0.000 C 
BRANCH  11  12
ATOM     12  C   UNL     1      14.140   6.104  -9.136  1.00  0.00     0.006 C 
BRANCH  12  13
ATOM     13  C   UNL     1      14.547   7.123 -10.215  1.00  0.00     0.053 C 
BRANCH  13  14
ATOM     14  C   UNL     1      15.692   7.989  -9.785  1.00  0.00     0.041 C 
ATOM     15  O   UNL     1      16.747   7.468  -9.339  1.00  0.00    -0.550 OA
ATOM     16  O   UNL     1      15.608   9.372  -9.910  1.00  0.00    -0.550 OA
ENDBRANCH  13  14
ENDBRANCH  12  13
ENDBRANCH  11  12
ENDBRANCH  10  11
ENDBRANCH   9  10
ENDBRANCH   8   9
ENDBRANCH   7   8
ENDBRANCH   6   7
ENDBRANCH   5   6
ENDBRANCH   4   5
ENDBRANCH   3   4
ENDBRANCH   2   3
ENDBRANCH   1   2
BRANCH   1  17
ATOM     17  C   UNL     1      11.552   8.971 -17.322  1.00  0.00     0.000 C 
BRANCH  17  18
ATOM     18  C   UNL     1      12.869   8.319 -16.874  1.00  0.00     0.000 C 
BRANCH  18  19
ATOM     19  C   UNL     1      13.026   8.302 -15.346  1.00  0.00     0.000 C 
BRANCH  19  20
ATOM     20  C   UNL     1      14.479   8.572 -14.936  1.00  0.00     0.000 C 
BRANCH  20  21
ATOM     21  C   UNL     1      14.590   8.771 -13.418  1.00  0.00     0.000 C 
BRANCH  21  22
ATOM     22  C   UNL     1      13.913  10.064 -12.931  1.00  0.00    -0.000 C 
BRANCH  22  23
ATOM     23  C   UNL     1      12.895   9.880 -11.786  1.00  0.00    -0.000 C 
BRANCH  23  24
ATOM     24  C   UNL     1      11.627  10.746 -11.889  1.00  0.00    -0.000 C 
BRANCH  24  25
ATOM     25  C   UNL     1      10.604  10.192 -12.893  1.00  0.00    -0.000 C 
BRANCH  25  26
ATOM     26  C   UNL     1       9.511  11.230 -13.191  1.00  0.00    -0.000 C 
BRANCH  26  27
ATOM     27  C   UNL     1       8.095  10.619 -13.132  1.00  0.00    -0.000 C 
BRANCH  27  28
ATOM     28  C   UNL     1       8.062   9.108 -13.420  1.00  0.00    -0.000 C 
BRANCH  28  29
ATOM     29  C   UNL     1       7.459   8.294 -12.268  1.00  0.00    -0.003 C 
ATOM     30  C   UNL     1       7.790   6.811 -12.412  1.00  0.00     0.004 C 
ENDBRANCH  28  29
ENDBRANCH  27  28
ENDBRANCH  26  27
ENDBRANCH  25  26
ENDBRANCH  24  25
ENDBRANCH  23  24
ENDBRANCH  22  23
ENDBRANCH  21  22
ENDBRANCH  20  21
ENDBRANCH  19  20
ENDBRANCH  18  19
ENDBRANCH  17  18
ENDBRANCH   1  17
TORSDOF 26
ENDMDL
MODEL 2
REMARK VINA RESULT:    -6.006      2.718      5.905
REMARK INTER + INTRA:         -20.418
REMARK INTER:                 -14.919
REMARK INTRA:                  -5.500
REMARK UNBOUND:                -5.284
REMARK SMILES CCCCCCCCCCCCCCCCCCCCCCCCCCCC(=O)[O-]
REMARK SMILES IDX 15 1 16 2 17 3 18 4 19 5 20 6 21 7 22 8 23 9 24 10 25 11
REMARK SMILES IDX 26 12 27 13 28 14 29 15 30 16 14 17 13 18 12 19 11 20 10 21
REMARK SMILES IDX 9 22 8 23 7 24 6 25 5 26 4 27 3 28 2 29 1 30
REMARK H PARENT
REMARK Flexibility Score: inf
ROOT
ATOM      1  C   UNL     1      11.003   6.645  -9.729  1.00  0.00     0.000 C 
ENDROOT
BRANCH   1   2
ATOM      2  C   UNL     1      12.079   5.905  -8.918  1.00  0.00     0.000 C 
BRANCH   2   3
ATOM      3  C   UNL     1      13.374   5.692  -9.715  1.00  0.00     0.000 C 
BRANCH   3   4
ATOM      4  C   UNL     1      13.749   6.952 -10.511  1.00  0.00     0.000 C 
BRANCH   4   5
ATOM      5  C   UNL     1      14.329   6.629 -11.900  1.00  0.00     0.000 C 
BRANCH   5   6
ATOM      6  C   UNL     1      15.275   7.704 -12.473  1.00  0.00     0.000 C 
BRANCH   6   7
ATOM      7  C   UNL     1      14.768   8.409 -13.748  1.00  0.00     0.000 C 
BRANCH   7   8
ATOM      8  C   UNL     1      14.466   9.910 -13.588  1.00  0.00     0.000 C 
BRANCH   8   9
ATOM      9  C   UNL     1      14.036  10.281 -12.158  1.00  0.00     0.000 C 
BRANCH   9  10
ATOM     10  C   UNL     1      12.559  10.698 -12.075  1.00  0.00     0.000 C 
BRANCH  10  11
ATOM     11  C   UNL     1      11.620   9.510 -11.803  1.00  0.00     0.000 C 
BRANCH  11  12
ATOM     12  C   UNL     1      10.535   9.342 -12.881  1.00  0.00     0.006 C 
BRANCH  12  13
ATOM     13  C   UNL     1      10.138  10.655 -13.578  1.00  0.00     0.053 C 
BRANCH  13  14
ATOM     14  C   UNL     1       8.754  11.103 -13.217  1.00  0.00     0.041 C 
ATOM     15  O   UNL     1       7.821  10.264 -13.125  1.00  0.00    -0.550 OA
ATOM     16  O   UNL     1       8.502  12.444 -12.947  1.00  0.00    -0.550 OA
ENDBRANCH  13  14
ENDBRANCH  12  13
ENDBRANCH  11  12
ENDBRANCH  10  11
ENDBRANCH   9  10
ENDBRANCH   8   9
ENDBRANCH   7   8
ENDBRANCH   6   7
ENDBRANCH   5   6
ENDBRANCH   4   5
ENDBRANCH   3   4
ENDBRANCH   2   3
ENDBRANCH   1   2
BRANCH   1  17
ATOM     17  C   UNL     1       9.940   5.695 -10.307  1.00  0.00     0.000 C 
BRANCH  17  18
ATOM     18  C   UNL     1       9.717   5.901 -11.813  1.00  0.00     0.000 C 
BRANCH  18  19
ATOM     19  C   UNL     1      10.657   5.039 -12.670  1.00  0.00     0.000 C 
BRANCH  19  20
ATOM     20  C   UNL     1      11.630   5.911 -13.473  1.00  0.00     0.000 C 
BRANCH  20  21
ATOM     21  C   UNL     1      12.147   5.158 -14.707  1.00  0.00     0.000 C 
BRANCH  21  22
ATOM     22  C   UNL     1      12.510   6.094 -15.873  1.00  0.00    -0.000 C 
BRANCH  22  23
ATOM     23  C   UNL     1      11.951   7.528 -15.761  1.00  0.00    -0.000 C 
BRANCH  23  24
ATOM     24  C   UNL     1      12.295   8.459 -16.936  1.00  0.00    -0.000 C 
BRANCH  24  25
ATOM     25  C   UNL     1      11.170   9.454 -17.262  1.00  0.00    -0.000 C 
BRANCH  25  26
ATOM     26  C   UNL     1      10.225   8.882 -18.330  1.00  0.00    -0.000 C 
BRANCH  26  27
ATOM     27  C   UNL     1       8.961   8.248 -17.713  1.00  0.00    -0.000 C 
BRANCH  27  28
ATOM     28  C   UNL     1       8.598   8.818 -16.330  1.00  0.00    -0.000 C 
BRANCH  28  29
ATOM     29  C   UNL     1       7.968   7.772 -15.401  1.00  0.00    -0.003 C 
ATOM     30  C   UNL     1       8.688   6.431 -15.516  1.00  0.00     0.004 C 
ENDBRANCH  28  29
ENDBRANCH  27  28
ENDBRANCH  26  27
ENDBRANCH  25  26
ENDBRANCH  24  25
ENDBRANCH  23  24
ENDBRANCH  22  23
ENDBRANCH  21  22
ENDBRANCH  20  21
ENDBRANCH  19  20
ENDBRANCH  18  19
ENDBRANCH  17  18
ENDBRANCH   1  17
TORSDOF 26
ENDMDL
MODEL 3
REMARK VINA RESULT:    -5.998      0.912      3.503
REMARK INTER + INTRA:         -20.400
REMARK INTER:                 -15.362
REMARK INTRA:                  -5.038
REMARK UNBOUND:                -5.284
REMARK SMILES CCCCCCCCCCCCCCCCCCCCCCCCCCCC(=O)[O-]
REMARK SMILES IDX 15 1 16 2 17 3 18 4 19 5 20 6 21 7 22 8 23 9 24 10 25 11
REMARK SMILES IDX 26 12 27 13 28 14 29 15 30 16 14 17 13 18 12 19 11 20 10 21
REMARK SMILES IDX 9 22 8 23 7 24 6 25 5 26 4 27 3 28 2 29 1 30
REMARK H PARENT
REMARK Flexibility Score: inf
ROOT
ATOM      1  C   UNL     1      13.549   8.414 -15.124  1.00  0.00     0.000 C 
ENDROOT
BRANCH   1   2
ATOM      2  C   UNL     1      12.616   7.259 -14.727  1.00  0.00     0.000 C 
BRANCH   2   3
ATOM      3  C   UNL     1      12.580   6.142 -15.781  1.00  0.00     0.000 C 
BRANCH   3   4
ATOM      4  C   UNL     1      11.901   4.880 -15.227  1.00  0.00     0.000 C 
BRANCH   4   5
ATOM      5  C   UNL     1      11.988   4.781 -13.693  1.00  0.00     0.000 C 
BRANCH   5   6
ATOM      6  C   UNL     1      10.635   4.877 -12.960  1.00  0.00     0.000 C 
BRANCH   6   7
ATOM      7  C   UNL     1      10.449   6.136 -12.089  1.00  0.00     0.000 C 
BRANCH   7   8
ATOM      8  C   UNL     1      10.168   5.865 -10.600  1.00  0.00     0.000 C 
BRANCH   8   9
ATOM      9  C   UNL     1      11.132   6.617  -9.667  1.00  0.00     0.000 C 
BRANCH   9  10
ATOM     10  C   UNL     1      12.123   5.678  -8.959  1.00  0.00     0.000 C 
BRANCH  10  11
ATOM     11  C   UNL     1      13.589   5.983  -9.315  1.00  0.00     0.000 C 
BRANCH  11  12
ATOM     12  C   UNL     1      13.730   6.923 -10.525  1.00  0.00     0.006 C 
BRANCH  12  13
ATOM     13  C   UNL     1      15.187   7.193 -10.940  1.00  0.00     0.053 C 
BRANCH  13  14
ATOM     14  C   UNL     1      15.915   8.057  -9.956  1.00  0.00     0.041 C 
ATOM     15  O   UNL     1      16.758   7.551  -9.170  1.00  0.00    -0.550 OA
ATOM     16  O   UNL     1      15.689   9.429  -9.930  1.00  0.00    -0.550 OA
ENDBRANCH  13  14
ENDBRANCH  12  13
ENDBRANCH  11  12
ENDBRANCH  10  11
ENDBRANCH   9  10
ENDBRANCH   8   9
ENDBRANCH   7   8
ENDBRANCH   6   7
ENDBRANCH   5   6
ENDBRANCH   4   5
ENDBRANCH   3   4
ENDBRANCH   2   3
ENDBRANCH   1   2
BRANCH   1  17
ATOM     17  C   UNL     1      14.457   8.865 -13.967  1.00  0.00     0.000 C 
BRANCH  17  18
ATOM     18  C   UNL     1      13.941  10.134 -13.270  1.00  0.00     0.000 C 
BRANCH  18  19
ATOM     19  C   UNL     1      12.985   9.819 -12.109  1.00  0.00     0.000 C 
BRANCH  19  20
ATOM     20  C   UNL     1      11.663  10.581 -12.258  1.00  0.00     0.000 C 
BRANCH  20  21
ATOM     21  C   UNL     1      10.570   9.670 -12.836  1.00  0.00     0.000 C 
BRANCH  21  22
ATOM     22  C   UNL     1       9.459  10.451 -13.560  1.00  0.00    -0.000 C 
BRANCH  22  23
ATOM     23  C   UNL     1       8.033   9.894 -13.367  1.00  0.00    -0.000 C 
BRANCH  23  24
ATOM     24  C   UNL     1       7.946   8.573 -12.582  1.00  0.00    -0.000 C 
BRANCH  24  25
ATOM     25  C   UNL     1       7.512   7.385 -13.455  1.00  0.00    -0.000 C 
BRANCH  25  26
ATOM     26  C   UNL     1       7.665   7.716 -14.947  1.00  0.00    -0.000 C 
BRANCH  26  27
ATOM     27  C   UNL     1       8.957   7.124 -15.548  1.00  0.00    -0.000 C 
BRANCH  27  28
ATOM     28  C   UNL     1       9.350   7.745 -16.899  1.00  0.00    -0.000 C 
BRANCH  28  29
ATOM     29  C   UNL     1      10.176   9.030 -16.747  1.00  0.00    -0.003 C 
ATOM     30  C   UNL     1      11.237   9.133 -17.839  1.00  0.00     0.004 C 
ENDBRANCH  28  29
ENDBRANCH  27  28
ENDBRANCH  26  27
ENDBRANCH  25  26
ENDBRANCH  24  25
ENDBRANCH  23  24
ENDBRANCH  22  23
ENDBRANCH  21  22
ENDBRANCH  20  21
ENDBRANCH  19  20
ENDBRANCH  18  19
ENDBRANCH  17  18
ENDBRANCH   1  17
TORSDOF 26
ENDMDL
MODEL 4
REMARK VINA RESULT:    -5.973      3.339      6.428
REMARK INTER + INTRA:         -20.336
REMARK INTER:                 -15.688
REMARK INTRA:                  -4.648
REMARK UNBOUND:                -5.284
REMARK SMILES CCCCCCCCCCCCCCCCCCCCCCCCCCCC(=O)[O-]
REMARK SMILES IDX 15 1 16 2 17 3 18 4 19 5 20 6 21 7 22 8 23 9 24 10 25 11
REMARK SMILES IDX 26 12 27 13 28 14 29 15 30 16 14 17 13 18 12 19 11 20 10 21
REMARK SMILES IDX 9 22 8 23 7 24 6 25 5 26 4 27 3 28 2 29 1 30
REMARK H PARENT
REMARK Flexibility Score: inf
ROOT
ATOM      1  C   UNL     1       9.702   5.959 -10.928  1.00  0.00     0.000 C 
ENDROOT
BRANCH   1   2
ATOM      2  C   UNL     1       9.742   5.948 -12.464  1.00  0.00     0.000 C 
BRANCH   2   3
ATOM      3  C   UNL     1      11.077   5.424 -13.014  1.00  0.00     0.000 C 
BRANCH   3   4
ATOM      4  C   UNL     1      10.876   4.687 -14.347  1.00  0.00     0.000 C 
BRANCH   4   5
ATOM      5  C   UNL     1      10.876   5.636 -15.559  1.00  0.00     0.000 C 
BRANCH   5   6
ATOM      6  C   UNL     1      12.269   6.140 -15.988  1.00  0.00     0.000 C 
BRANCH   6   7
ATOM      7  C   UNL     1      12.525   7.642 -15.747  1.00  0.00     0.000 C 
BRANCH   7   8
ATOM      8  C   UNL     1      12.388   8.536 -16.993  1.00  0.00     0.000 C 
BRANCH   8   9
ATOM      9  C   UNL     1      11.051   9.295 -17.035  1.00  0.00     0.000 C 
BRANCH   9  10
ATOM     10  C   UNL     1      10.168   8.871 -18.221  1.00  0.00     0.000 C 
BRANCH  10  11
ATOM     11  C   UNL     1       8.733   8.516 -17.795  1.00  0.00     0.000 C 
BRANCH  11  12
ATOM     12  C   UNL     1       8.585   8.329 -16.275  1.00  0.00     0.006 C 
BRANCH  12  13
ATOM     13  C   UNL     1       7.133   8.124 -15.808  1.00  0.00     0.053 C 
BRANCH  13  14
ATOM     14  C   UNL     1       6.205   9.175 -16.338  1.00  0.00     0.041 C 
ATOM     15  O   UNL     1       6.097  10.280 -15.746  1.00  0.00    -0.550 OA
ATOM     16  O   UNL     1       5.485   8.947 -17.505  1.00  0.00    -0.550 OA
ENDBRANCH  13  14
ENDBRANCH  12  13
ENDBRANCH  11  12
ENDBRANCH  10  11
ENDBRANCH   9  10
ENDBRANCH   8   9
ENDBRANCH   7   8
ENDBRANCH   6   7
ENDBRANCH   5   6
ENDBRANCH   4   5
ENDBRANCH   3   4
ENDBRANCH   2   3
ENDBRANCH   1   2
BRANCH   1  17
ATOM     17  C   UNL     1      10.895   6.710 -10.310  1.00  0.00     0.000 C 
BRANCH  17  18
ATOM     18  C   UNL     1      11.529   5.948  -9.136  1.00  0.00     0.000 C 
BRANCH  18  19
ATOM     19  C   UNL     1      13.064   5.937  -9.202  1.00  0.00     0.000 C 
BRANCH  19  20
ATOM     20  C   UNL     1      13.562   6.412 -10.573  1.00  0.00     0.000 C 
BRANCH  20  21
ATOM     21  C   UNL     1      14.734   7.393 -10.418  1.00  0.00     0.000 C 
BRANCH  21  22
ATOM     22  C   UNL     1      15.412   7.734 -11.757  1.00  0.00    -0.000 C 
BRANCH  22  23
ATOM     23  C   UNL     1      14.520   8.478 -12.772  1.00  0.00    -0.000 C 
BRANCH  23  24
ATOM     24  C   UNL     1      14.358   9.988 -12.520  1.00  0.00    -0.000 C 
BRANCH  24  25
ATOM     25  C   UNL     1      12.887  10.429 -12.452  1.00  0.00    -0.000 C 
BRANCH  25  26
ATOM     26  C   UNL     1      11.949   9.213 -12.466  1.00  0.00    -0.000 C 
BRANCH  26  27
ATOM     27  C   UNL     1      10.706   9.444 -13.352  1.00  0.00    -0.000 C 
BRANCH  27  28
ATOM     28  C   UNL     1       9.867  10.663 -12.931  1.00  0.00    -0.000 C 
BRANCH  28  29
ATOM     29  C   UNL     1       8.369  10.479 -13.204  1.00  0.00    -0.003 C 
ATOM     30  C   UNL     1       7.865   9.157 -12.631  1.00  0.00     0.004 C 
ENDBRANCH  28  29
ENDBRANCH  27  28
ENDBRANCH  26  27
ENDBRANCH  25  26
ENDBRANCH  24  25
ENDBRANCH  23  24
ENDBRANCH  22  23
ENDBRANCH  21  22
ENDBRANCH  20  21
ENDBRANCH  19  20
ENDBRANCH  18  19
ENDBRANCH  17  18
ENDBRANCH   1  17
TORSDOF 26
ENDMDL
MODEL 5
REMARK VINA RESULT:    -5.951      3.116      5.986
REMARK INTER + INTRA:         -20.281
REMARK INTER:                 -15.546
REMARK INTRA:                  -4.736
REMARK UNBOUND:                -5.284
REMARK SMILES CCCCCCCCCCCCCCCCCCCCCCCCCCCC(=O)[O-]
REMARK SMILES IDX 15 1 16 2 17 3 18 4 19 5 20 6 21 7 22 8 23 9 24 10 25 11
REMARK SMILES IDX 26 12 27 13 28 14 29 15 30 16 14 17 13 18 12 19 11 20 10 21
REMARK SMILES IDX 9 22 8 23 7 24 6 25 5 26 4 27 3 28 2 29 1 30
REMARK H PARENT
REMARK Flexibility Score: inf
ROOT
ATOM      1  C   UNL     1       7.812   9.218 -12.528  1.00  0.00     0.000 C 
ENDROOT
BRANCH   1   2
ATOM      2  C   UNL     1       7.533   7.944 -13.340  1.00  0.00     0.000 C 
BRANCH   2   3
ATOM      3  C   UNL     1       7.422   6.694 -12.455  1.00  0.00     0.000 C 
BRANCH   3   4
ATOM      4  C   UNL     1       8.782   6.326 -11.842  1.00  0.00     0.000 C 
BRANCH   4   5
ATOM      5  C   UNL     1       9.884   6.146 -12.901  1.00  0.00     0.000 C 
BRANCH   5   6
ATOM      6  C   UNL     1      10.565   4.762 -12.899  1.00  0.00     0.000 C 
BRANCH   6   7
ATOM      7  C   UNL     1      10.956   4.223 -14.290  1.00  0.00     0.000 C 
BRANCH   7   8
ATOM      8  C   UNL     1      10.949   5.267 -15.421  1.00  0.00     0.000 C 
BRANCH   8   9
ATOM      9  C   UNL     1      12.328   5.909 -15.647  1.00  0.00     0.000 C 
BRANCH   9  10
ATOM     10  C   UNL     1      12.323   7.425 -15.391  1.00  0.00     0.000 C 
BRANCH  10  11
ATOM     11  C   UNL     1      12.709   8.240 -16.638  1.00  0.00     0.000 C 
BRANCH  11  12
ATOM     12  C   UNL     1      11.516   8.986 -17.262  1.00  0.00     0.006 C 
BRANCH  12  13
ATOM     13  C   UNL     1      10.205   8.842 -16.468  1.00  0.00     0.053 C 
BRANCH  13  14
ATOM     14  C   UNL     1       9.015   8.640 -17.356  1.00  0.00     0.041 C 
ATOM     15  O   UNL     1       9.171   8.296 -18.556  1.00  0.00    -0.550 OA
ATOM     16  O   UNL     1       7.730   8.797 -16.848  1.00  0.00    -0.550 OA
ENDBRANCH  13  14
ENDBRANCH  12  13
ENDBRANCH  11  12
ENDBRANCH  10  11
ENDBRANCH   9  10
ENDBRANCH   8   9
ENDBRANCH   7   8
ENDBRANCH   6   7
ENDBRANCH   5   6
ENDBRANCH   4   5
ENDBRANCH   3   4
ENDBRANCH   2   3
ENDBRANCH   1   2
BRANCH   1  17
ATOM     17  C   UNL     1       8.200  10.413 -13.417  1.00  0.00     0.000 C 
BRANCH  17  18
ATOM     18  C   UNL     1       9.627  10.913 -13.144  1.00  0.00     0.000 C 
BRANCH  18  19
ATOM     19  C   UNL     1      10.660   9.775 -13.146  1.00  0.00     0.000 C 
BRANCH  19  20
ATOM     20  C   UNL     1      11.440   9.734 -11.826  1.00  0.00     0.000 C 
BRANCH  20  21
ATOM     21  C   UNL     1      12.393  10.934 -11.718  1.00  0.00     0.000 C 
BRANCH  21  22
ATOM     22  C   UNL     1      13.874  10.537 -11.848  1.00  0.00    -0.000 C 
BRANCH  22  23
ATOM     23  C   UNL     1      14.326  10.146 -13.270  1.00  0.00    -0.000 C 
BRANCH  23  24
ATOM     24  C   UNL     1      14.779   8.684 -13.436  1.00  0.00    -0.000 C 
BRANCH  24  25
ATOM     25  C   UNL     1      14.714   7.885 -12.126  1.00  0.00    -0.000 C 
BRANCH  25  26
ATOM     26  C   UNL     1      14.446   6.398 -12.403  1.00  0.00    -0.000 C 
BRANCH  26  27
ATOM     27  C   UNL     1      13.304   5.837 -11.529  1.00  0.00    -0.000 C 
BRANCH  27  28
ATOM     28  C   UNL     1      12.563   6.914 -10.717  1.00  0.00    -0.000 C 
BRANCH  28  29
ATOM     29  C   UNL     1      12.115   6.417  -9.336  1.00  0.00    -0.003 C 
ATOM     30  C   UNL     1      13.187   5.542  -8.693  1.00  0.00     0.004 C 
ENDBRANCH  28  29
ENDBRANCH  27  28
ENDBRANCH  26  27
ENDBRANCH  25  26
ENDBRANCH  24  25
ENDBRANCH  23  24
ENDBRANCH  22  23
ENDBRANCH  21  22
ENDBRANCH  20  21
ENDBRANCH  19  20
ENDBRANCH  18  19
ENDBRANCH  17  18
ENDBRANCH   1  17
TORSDOF 26
ENDMDL
MODEL 6
REMARK VINA RESULT:    -5.853      1.447      4.316
REMARK INTER + INTRA:         -20.034
REMARK INTER:                 -15.310
REMARK INTRA:                  -4.724
REMARK UNBOUND:                -5.284
REMARK SMILES CCCCCCCCCCCCCCCCCCCCCCCCCCCC(=O)[O-]
REMARK SMILES IDX 15 1 16 2 17 3 18 4 19 5 20 6 21 7 22 8 23 9 24 10 25 11
REMARK SMILES IDX 26 12 27 13 28 14 29 15 30 16 14 17 13 18 12 19 11 20 10 21
REMARK SMILES IDX 9 22 8 23 7 24 6 25 5 26 4 27 3 28 2 29 1 30
REMARK H PARENT
REMARK Flexibility Score: inf
ROOT
ATOM      1  C   UNL     1      11.242   4.170 -13.897  1.00  0.00     0.000 C 
ENDROOT
BRANCH   1   2
ATOM      2  C   UNL     1      11.040   5.314 -12.890  1.00  0.00     0.000 C 
BRANCH   2   3
ATOM      3  C   UNL     1       9.572   5.471 -12.464  1.00  0.00     0.000 C 
BRANCH   3   4
ATOM      4  C   UNL     1       9.465   5.919 -10.999  1.00  0.00     0.000 C 
BRANCH   4   5
ATOM      5  C   UNL     1      10.733   6.637 -10.501  1.00  0.00     0.000 C 
BRANCH   5   6
ATOM      6  C   UNL     1      11.398   5.997  -9.266  1.00  0.00     0.000 C 
BRANCH   6   7
ATOM      7  C   UNL     1      12.940   6.020  -9.266  1.00  0.00     0.000 C 
BRANCH   7   8
ATOM      8  C   UNL     1      13.587   6.415 -10.606  1.00  0.00     0.000 C 
BRANCH   8   9
ATOM      9  C   UNL     1      14.766   7.387 -10.433  1.00  0.00     0.000 C 
BRANCH   9  10
ATOM     10  C   UNL     1      15.368   7.830 -11.776  1.00  0.00     0.000 C 
BRANCH  10  11
ATOM     11  C   UNL     1      14.295   8.152 -12.831  1.00  0.00     0.000 C 
BRANCH  11  12
ATOM     12  C   UNL     1      14.035   9.661 -12.984  1.00  0.00     0.006 C 
BRANCH  12  13
ATOM     13  C   UNL     1      13.090  10.242 -11.918  1.00  0.00     0.053 C 
BRANCH  13  14
ATOM     14  C   UNL     1      13.768  11.242 -11.031  1.00  0.00     0.041 C 
ATOM     15  O   UNL     1      14.949  11.046 -10.642  1.00  0.00    -0.550 OA
ATOM     16  O   UNL     1      13.108  12.409 -10.661  1.00  0.00    -0.550 OA
ENDBRANCH  13  14
ENDBRANCH  12  13
ENDBRANCH  11  12
ENDBRANCH  10  11
ENDBRANCH   9  10
ENDBRANCH   8   9
ENDBRANCH   7   8
ENDBRANCH   6   7
ENDBRANCH   5   6
ENDBRANCH   4   5
ENDBRANCH   3   4
ENDBRANCH   2   3
ENDBRANCH   1   2
BRANCH   1  17
ATOM     17  C   UNL     1      12.117   4.584 -15.093  1.00  0.00     0.000 C 
BRANCH  17  18
ATOM     18  C   UNL     1      11.860   6.031 -15.541  1.00  0.00     0.000 C 
BRANCH  18  19
ATOM     19  C   UNL     1      13.132   6.722 -16.057  1.00  0.00     0.000 C 
BRANCH  19  20
ATOM     20  C   UNL     1      12.888   8.215 -16.307  1.00  0.00     0.000 C 
BRANCH  20  21
ATOM     21  C   UNL     1      11.410   8.571 -16.089  1.00  0.00     0.000 C 
BRANCH  21  22
ATOM     22  C   UNL     1      10.717   9.064 -17.371  1.00  0.00    -0.000 C 
BRANCH  22  23
ATOM     23  C   UNL     1       9.278   8.546 -17.578  1.00  0.00    -0.000 C 
BRANCH  23  24
ATOM     24  C   UNL     1       8.687   7.759 -16.395  1.00  0.00    -0.000 C 
BRANCH  24  25
ATOM     25  C   UNL     1       7.760   8.609 -15.513  1.00  0.00    -0.000 C 
BRANCH  25  26
ATOM     26  C   UNL     1       7.548   7.947 -14.143  1.00  0.00    -0.000 C 
BRANCH  26  27
ATOM     27  C   UNL     1       7.981   8.862 -12.979  1.00  0.00    -0.000 C 
BRANCH  27  28
ATOM     28  C   UNL     1       9.492   9.152 -12.952  1.00  0.00    -0.000 C 
BRANCH  28  29
ATOM     29  C   UNL     1       9.845  10.531 -13.527  1.00  0.00    -0.003 C 
ATOM     30  C   UNL     1       8.869  11.597 -13.035  1.00  0.00     0.004 C 
ENDBRANCH  28  29
ENDBRANCH  27  28
ENDBRANCH  26  27
ENDBRANCH  25  26
ENDBRANCH  24  25
ENDBRANCH  23  24
ENDBRANCH  22  23
ENDBRANCH  21  22
ENDBRANCH  20  21
ENDBRANCH  19  20
ENDBRANCH  18  19
ENDBRANCH  17  18
ENDBRANCH   1  17
TORSDOF 26
ENDMDL
MODEL 7
REMARK VINA RESULT:    -5.841      1.914      5.334
REMARK INTER + INTRA:         -20.003
REMARK INTER:                 -15.125
REMARK INTRA:                  -4.878
REMARK UNBOUND:                -5.284
REMARK SMILES CCCCCCCCCCCCCCCCCCCCCCCCCCCC(=O)[O-]
REMARK SMILES IDX 15 1 16 2 17 3 18 4 19 5 20 6 21 7 22 8 23 9 24 10 25 11
REMARK SMILES IDX 26 12 27 13 28 14 29 15 30 16 14 17 13 18 12 19 11 20 10 21
REMARK SMILES IDX 9 22 8 23 7 24 6 25 5 26 4 27 3 28 2 29 1 30
REMARK H PARENT
REMARK Flexibility Score: inf
ROOT
ATOM      1  C   UNL     1      14.162   8.399 -15.437  1.00  0.00     0.000 C 
ENDROOT
BRANCH   1   2
ATOM      2  C   UNL     1      13.262   8.082 -16.642  1.00  0.00     0.000 C 
BRANCH   2   3
ATOM      3  C   UNL     1      11.825   8.589 -16.452  1.00  0.00     0.000 C 
BRANCH   3   4
ATOM      4  C   UNL     1      11.306   9.271 -17.727  1.00  0.00     0.000 C 
BRANCH   4   5
ATOM      5  C   UNL     1       9.889   8.810 -18.116  1.00  0.00     0.000 C 
BRANCH   5   6
ATOM      6  C   UNL     1       9.049   8.244 -16.953  1.00  0.00     0.000 C 
BRANCH   6   7
ATOM      7  C   UNL     1       9.344   6.776 -16.585  1.00  0.00     0.000 C 
BRANCH   7   8
ATOM      8  C   UNL     1       8.704   6.290 -15.273  1.00  0.00     0.000 C 
BRANCH   8   9
ATOM      9  C   UNL     1       7.497   7.144 -14.848  1.00  0.00     0.000 C 
BRANCH   9  10
ATOM     10  C   UNL     1       7.235   7.085 -13.334  1.00  0.00     0.000 C 
BRANCH  10  11
ATOM     11  C   UNL     1       7.595   8.398 -12.617  1.00  0.00     0.000 C 
BRANCH  11  12
ATOM     12  C   UNL     1       8.191   9.455 -13.563  1.00  0.00     0.006 C 
BRANCH  12  13
ATOM     13  C   UNL     1       9.721   9.588 -13.467  1.00  0.00     0.053 C 
BRANCH  13  14
ATOM     14  C   UNL     1      10.148  10.876 -12.831  1.00  0.00     0.041 C 
ATOM     15  O   UNL     1       9.441  11.909 -12.957  1.00  0.00    -0.550 OA
ATOM     16  O   UNL     1      11.311  10.928 -12.070  1.00  0.00    -0.550 OA
ENDBRANCH  13  14
ENDBRANCH  12  13
ENDBRANCH  11  12
ENDBRANCH  10  11
ENDBRANCH   9  10
ENDBRANCH   8   9
ENDBRANCH   7   8
ENDBRANCH   6   7
ENDBRANCH   5   6
ENDBRANCH   4   5
ENDBRANCH   3   4
ENDBRANCH   2   3
ENDBRANCH   1   2
BRANCH   1  17
ATOM     17  C   UNL     1      13.360   8.837 -14.199  1.00  0.00     0.000 C 
BRANCH  17  18
ATOM     18  C   UNL     1      14.260   9.335 -13.057  1.00  0.00     0.000 C 
BRANCH  18  19
ATOM     19  C   UNL     1      13.907   8.693 -11.707  1.00  0.00     0.000 C 
BRANCH  19  20
ATOM     20  C   UNL     1      15.168   8.413 -10.881  1.00  0.00     0.000 C 
BRANCH  20  21
ATOM     21  C   UNL     1      14.921   7.280  -9.874  1.00  0.00     0.000 C 
BRANCH  21  22
ATOM     22  C   UNL     1      13.722   6.393 -10.253  1.00  0.00    -0.000 C 
BRANCH  22  23
ATOM     23  C   UNL     1      12.942   5.800  -9.061  1.00  0.00    -0.000 C 
BRANCH  23  24
ATOM     24  C   UNL     1      11.414   5.974  -9.124  1.00  0.00    -0.000 C 
BRANCH  24  25
ATOM     25  C   UNL     1      10.948   6.710 -10.389  1.00  0.00    -0.000 C 
BRANCH  25  26
ATOM     26  C   UNL     1       9.889   5.890 -11.143  1.00  0.00    -0.000 C 
BRANCH  26  27
ATOM     27  C   UNL     1      10.462   5.223 -12.411  1.00  0.00    -0.000 C 
BRANCH  27  28
ATOM     28  C   UNL     1      11.493   6.092 -13.153  1.00  0.00    -0.000 C 
BRANCH  28  29
ATOM     29  C   UNL     1      12.589   5.263 -13.836  1.00  0.00    -0.003 C 
ATOM     30  C   UNL     1      12.124   4.750 -15.195  1.00  0.00     0.004 C 
ENDBRANCH  28  29
ENDBRANCH  27  28
ENDBRANCH  26  27
ENDBRANCH  25  26
ENDBRANCH  24  25
ENDBRANCH  23  24
ENDBRANCH  22  23
ENDBRANCH  21  22
ENDBRANCH  20  21
ENDBRANCH  19  20
ENDBRANCH  18  19
ENDBRANCH  17  18
ENDBRANCH   1  17
TORSDOF 26
ENDMDL
MODEL 8
REMARK VINA RESULT:    -5.830      2.787      6.788
REMARK INTER + INTRA:         -19.975
REMARK INTER:                 -14.283
REMARK INTRA:                  -5.693
REMARK UNBOUND:                -5.284
REMARK SMILES CCCCCCCCCCCCCCCCCCCCCCCCCCCC(=O)[O-]
REMARK SMILES IDX 15 1 16 2 17 3 18 4 19 5 20 6 21 7 22 8 23 9 24 10 25 11
REMARK SMILES IDX 26 12 27 13 28 14 29 15 30 16 14 17 13 18 12 19 11 20 10 21
REMARK SMILES IDX 9 22 8 23 7 24 6 25 5 26 4 27 3 28 2 29 1 30
REMARK H PARENT
REMARK Flexibility Score: inf
ROOT
ATOM      1  C   UNL     1      13.923   6.743 -10.568  1.00  0.00     0.000 C 
ENDROOT
BRANCH   1   2
ATOM      2  C   UNL     1      15.034   7.754 -10.242  1.00  0.00     0.000 C 
BRANCH   2   3
ATOM      3  C   UNL     1      15.936   8.047 -11.450  1.00  0.00     0.000 C 
BRANCH   3   4
ATOM      4  C   UNL     1      15.405   7.361 -12.718  1.00  0.00     0.000 C 
BRANCH   4   5
ATOM      5  C   UNL     1      15.198   8.344 -13.885  1.00  0.00     0.000 C 
BRANCH   5   6
ATOM      6  C   UNL     1      14.491   9.661 -13.506  1.00  0.00     0.000 C 
BRANCH   6   7
ATOM      7  C   UNL     1      13.000   9.523 -13.140  1.00  0.00     0.000 C 
BRANCH   7   8
ATOM      8  C   UNL     1      12.520  10.438 -11.999  1.00  0.00     0.000 C 
BRANCH   8   9
ATOM      9  C   UNL     1      10.992  10.412 -11.818  1.00  0.00     0.000 C 
BRANCH   9  10
ATOM     10  C   UNL     1      10.248  11.073 -12.990  1.00  0.00     0.000 C 
BRANCH  10  11
ATOM     11  C   UNL     1       8.910  10.382 -13.309  1.00  0.00     0.000 C 
BRANCH  11  12
ATOM     12  C   UNL     1       8.902   8.888 -12.940  1.00  0.00     0.006 C 
BRANCH  12  13
ATOM     13  C   UNL     1       7.591   8.164 -13.295  1.00  0.00     0.053 C 
BRANCH  13  14
ATOM     14  C   UNL     1       7.537   7.743 -14.732  1.00  0.00     0.041 C 
ATOM     15  O   UNL     1       6.902   8.434 -15.571  1.00  0.00    -0.550 OA
ATOM     16  O   UNL     1       8.218   6.606 -15.153  1.00  0.00    -0.550 OA
ENDBRANCH  13  14
ENDBRANCH  12  13
ENDBRANCH  11  12
ENDBRANCH  10  11
ENDBRANCH   9  10
ENDBRANCH   8   9
ENDBRANCH   7   8
ENDBRANCH   6   7
ENDBRANCH   5   6
ENDBRANCH   4   5
ENDBRANCH   3   4
ENDBRANCH   2   3
ENDBRANCH   1   2
BRANCH   1  17
ATOM     17  C   UNL     1      13.462   5.952  -9.331  1.00  0.00     0.000 C 
BRANCH  17  18
ATOM     18  C   UNL     1      11.938   5.992  -9.138  1.00  0.00     0.000 C 
BRANCH  18  19
ATOM     19  C   UNL     1      11.218   6.707 -10.292  1.00  0.00     0.000 C 
BRANCH  19  20
ATOM     20  C   UNL     1      10.016   5.891 -10.783  1.00  0.00     0.000 C 
BRANCH  20  21
ATOM     21  C   UNL     1      10.131   5.602 -12.287  1.00  0.00     0.000 C 
BRANCH  21  22
ATOM     22  C   UNL     1      11.310   6.335 -12.950  1.00  0.00    -0.000 C 
BRANCH  22  23
ATOM     23  C   UNL     1      12.433   5.421 -13.484  1.00  0.00    -0.000 C 
BRANCH  23  24
ATOM     24  C   UNL     1      12.136   4.736 -14.830  1.00  0.00    -0.000 C 
BRANCH  24  25
ATOM     25  C   UNL     1      11.745   5.729 -15.935  1.00  0.00    -0.000 C 
BRANCH  25  26
ATOM     26  C   UNL     1      12.906   6.687 -16.247  1.00  0.00    -0.000 C 
BRANCH  26  27
ATOM     27  C   UNL     1      12.436   8.151 -16.373  1.00  0.00    -0.000 C 
BRANCH  27  28
ATOM     28  C   UNL     1      10.984   8.375 -15.915  1.00  0.00    -0.000 C 
BRANCH  28  29
ATOM     29  C   UNL     1      10.198   9.300 -16.854  1.00  0.00    -0.003 C 
ATOM     30  C   UNL     1       9.859   8.593 -18.163  1.00  0.00     0.004 C 
ENDBRANCH  28  29
ENDBRANCH  27  28
ENDBRANCH  26  27
ENDBRANCH  25  26
ENDBRANCH  24  25
ENDBRANCH  23  24
ENDBRANCH  22  23
ENDBRANCH  21  22
ENDBRANCH  20  21
ENDBRANCH  19  20
ENDBRANCH  18  19
ENDBRANCH  17  18
ENDBRANCH   1  17
TORSDOF 26
ENDMDL
MODEL 9
REMARK VINA RESULT:    -5.792      1.435      4.688
REMARK INTER + INTRA:         -19.879
REMARK INTER:                 -14.557
REMARK INTRA:                  -5.322
REMARK UNBOUND:                -5.284
REMARK SMILES CCCCCCCCCCCCCCCCCCCCCCCCCCCC(=O)[O-]
REMARK SMILES IDX 15 1 16 2 17 3 18 4 19 5 20 6 21 7 22 8 23 9 24 10 25 11
REMARK SMILES IDX 26 12 27 13 28 14 29 15 30 16 14 17 13 18 12 19 11 20 10 21
REMARK SMILES IDX 9 22 8 23 7 24 6 25 5 26 4 27 3 28 2 29 1 30
REMARK H PARENT
REMARK Flexibility Score: inf
ROOT
ATOM      1  C   UNL     1      12.424   5.969 -10.841  1.00  0.00     0.000 C 
ENDROOT
BRANCH   1   2
ATOM      2  C   UNL     1      11.131   6.705 -11.227  1.00  0.00     0.000 C 
BRANCH   2   3
ATOM      3  C   UNL     1       9.873   6.001 -10.697  1.00  0.00     0.000 C 
BRANCH   3   4
ATOM      4  C   UNL     1       8.756   5.994 -11.752  1.00  0.00     0.000 C 
BRANCH   4   5
ATOM      5  C   UNL     1       8.858   7.175 -12.735  1.00  0.00     0.000 C 
BRANCH   5   6
ATOM      6  C   UNL     1       7.881   8.335 -12.458  1.00  0.00     0.000 C 
BRANCH   6   7
ATOM      7  C   UNL     1       8.388   9.732 -12.869  1.00  0.00     0.000 C 
BRANCH   7   8
ATOM      8  C   UNL     1       9.870   9.793 -13.282  1.00  0.00     0.000 C 
BRANCH   8   9
ATOM      9  C   UNL     1      10.668  10.836 -12.482  1.00  0.00     0.000 C 
BRANCH   9  10
ATOM     10  C   UNL     1      12.063  10.332 -12.078  1.00  0.00     0.000 C 
BRANCH  10  11
ATOM     11  C   UNL     1      12.677   9.383 -13.123  1.00  0.00     0.000 C 
BRANCH  11  12
ATOM     12  C   UNL     1      14.213   9.459 -13.174  1.00  0.00     0.006 C 
BRANCH  12  13
ATOM     13  C   UNL     1      14.921   8.321 -12.419  1.00  0.00     0.053 C 
BRANCH  13  14
ATOM     14  C   UNL     1      15.108   8.625 -10.963  1.00  0.00     0.041 C 
ATOM     15  O   UNL     1      15.232   7.689 -10.131  1.00  0.00    -0.550 OA
ATOM     16  O   UNL     1      15.180   9.944 -10.529  1.00  0.00    -0.550 OA
ENDBRANCH  13  14
ENDBRANCH  12  13
ENDBRANCH  11  12
ENDBRANCH  10  11
ENDBRANCH   9  10
ENDBRANCH   8   9
ENDBRANCH   7   8
ENDBRANCH   6   7
ENDBRANCH   5   6
ENDBRANCH   4   5
ENDBRANCH   3   4
ENDBRANCH   2   3
ENDBRANCH   1   2
BRANCH   1  17
ATOM     17  C   UNL     1      13.012   5.154 -12.007  1.00  0.00     0.000 C 
BRANCH  17  18
ATOM     18  C   UNL     1      12.599   5.705 -13.380  1.00  0.00     0.000 C 
BRANCH  18  19
ATOM     19  C   UNL     1      11.660   4.753 -14.138  1.00  0.00     0.000 C 
BRANCH  19  20
ATOM     20  C   UNL     1      10.978   5.467 -15.311  1.00  0.00     0.000 C 
BRANCH  20  21
ATOM     21  C   UNL     1      11.339   6.959 -15.327  1.00  0.00     0.000 C 
BRANCH  21  22
ATOM     22  C   UNL     1      12.522   7.281 -16.257  1.00  0.00    -0.000 C 
BRANCH  22  23
ATOM     23  C   UNL     1      12.443   8.647 -16.970  1.00  0.00    -0.000 C 
BRANCH  23  24
ATOM     24  C   UNL     1      11.028   9.241 -17.093  1.00  0.00    -0.000 C 
BRANCH  24  25
ATOM     25  C   UNL     1      10.227   8.642 -18.259  1.00  0.00    -0.000 C 
BRANCH  25  26
ATOM     26  C   UNL     1       8.726   8.611 -17.934  1.00  0.00    -0.000 C 
BRANCH  26  27
ATOM     27  C   UNL     1       8.456   8.668 -16.416  1.00  0.00    -0.000 C 
BRANCH  27  28
ATOM     28  C   UNL     1       7.016   8.284 -16.030  1.00  0.00    -0.000 C 
BRANCH  28  29
ATOM     29  C   UNL     1       5.994   9.372 -16.386  1.00  0.00    -0.003 C 
ATOM     30  C   UNL     1       6.099  10.558 -15.431  1.00  0.00     0.004 C 
ENDBRANCH  28  29
ENDBRANCH  27  28
ENDBRANCH  26  27
ENDBRANCH  25  26
ENDBRANCH  24  25
ENDBRANCH  23  24
ENDBRANCH  22  23
ENDBRANCH  21  22
ENDBRANCH  20  21
ENDBRANCH  19  20
ENDBRANCH  18  19
ENDBRANCH  17  18
ENDBRANCH   1  17
TORSDOF 26
ENDMDL
