MODEL 1
REMARK VINA RESULT:    -3.674      0.000      0.000
REMARK INTER + INTRA:          -9.020
REMARK INTER:                  -6.681
REMARK INTRA:                  -2.340
REMARK UNBOUND:                -2.340
REMARK SMILES CCCCCCCCCCCCCCCC(=O)[O-]
REMARK SMILES IDX 9 1 10 2 11 3 12 4 13 5 14 6 15 7 16 8 17 9 18 10 8 11 7 12
REMARK SMILES IDX 6 13 5 14 4 15 3 16 2 17 1 18
REMARK H PARENT
REMARK Flexibility Score: inf
ROOT
ATOM      1  C   UNL     1     132.480 128.904 114.823  1.00  0.00     0.000 C 
ENDROOT
BRANCH   1   2
ATOM      2  C   UNL     1     131.922 127.479 114.659  1.00  0.00     0.000 C 
BRANCH   2   3
ATOM      3  C   UNL     1     130.486 127.337 115.187  1.00  0.00     0.000 C 
BRANCH   3   4
ATOM      4  C   UNL     1     130.451 127.436 116.717  1.00  0.00     0.000 C 
BRANCH   4   5
ATOM      5  C   UNL     1     129.495 128.547 117.175  1.00  0.00     0.000 C 
BRANCH   5   6
ATOM      6  C   UNL     1     130.232 129.741 117.801  1.00  0.00     0.006 C 
BRANCH   6   7
ATOM      7  C   UNL     1     129.557 131.083 117.488  1.00  0.00     0.053 C 
BRANCH   7   8
ATOM      8  C   UNL     1     128.253 131.192 118.213  1.00  0.00     0.041 C 
ATOM      9  O   UNL     1     127.192 131.424 117.575  1.00  0.00    -0.550 OA
ATOM     10  O   UNL     1     128.201 130.990 119.585  1.00  0.00    -0.550 OA
ENDBRANCH   7   8
ENDBRANCH   6   7
ENDBRANCH   5   6
ENDBRANCH   4   5
ENDBRANCH   3   4
ENDBRANCH   2   3
ENDBRANCH   1   2
BRANCH   1  11
ATOM     11  C   UNL     1     131.554 130.032 114.327  1.00  0.00     0.000 C 
BRANCH  11  12
ATOM     12  C   UNL     1     132.028 131.460 114.654  1.00  0.00    -0.000 C 
BRANCH  12  13
ATOM     13  C   UNL     1     131.886 132.423 113.466  1.00  0.00    -0.000 C 
BRANCH  13  14
ATOM     14  C   UNL     1     130.406 132.688 113.150  1.00  0.00    -0.000 C 
BRANCH  14  15
ATOM     15  C   UNL     1     129.618 133.182 114.373  1.00  0.00    -0.000 C 
BRANCH  15  16
ATOM     16  C   UNL     1     128.134 132.778 114.324  1.00  0.00    -0.000 C 
BRANCH  16  17
ATOM     17  C   UNL     1     127.897 131.515 113.481  1.00  0.00    -0.003 C 
ATOM     18  C   UNL     1     127.884 130.236 114.319  1.00  0.00     0.004 C 
ENDBRANCH  16  17
ENDBRANCH  15  16
ENDBRANCH  14  15
ENDBRANCH  13  14
ENDBRANCH  12  13
ENDBRANCH  11  12
ENDBRANCH   1  11
TORSDOF 14
ENDMDL
MODEL 2
REMARK VINA RESULT:    -3.573     10.448     12.859
REMARK INTER + INTRA:          -8.838
REMARK INTER:                  -6.825
REMARK INTRA:                  -2.013
REMARK UNBOUND:                -2.340
REMARK SMILES CCCCCCCCCCCCCCCC(=O)[O-]
REMARK SMILES IDX 9 1 10 2 11 3 12 4 13 5 14 6 15 7 16 8 17 9 18 10 8 11 7 12
REMARK SMILES IDX 6 13 5 14 4 15 3 16 2 17 1 18
REMARK H PARENT
REMARK Flexibility Score: inf
ROOT
ATOM      1  C   UNL     1     140.040 129.762 114.413  1.00  0.00     0.000 C 
ENDROOT
BRANCH   1   2
ATOM      2  C   UNL     1     141.467 130.227 114.071  1.00  0.00     0.000 C 
BRANCH   2   3
ATOM      3  C   UNL     1     142.480 129.906 115.180  1.00  0.00     0.000 C 
BRANCH   3   4
ATOM      4  C   UNL     1     142.186 128.541 115.815  1.00  0.00     0.000 C 
BRANCH   4   5
ATOM      5  C   UNL     1     142.835 127.407 115.007  1.00  0.00     0.000 C 
BRANCH   5   6
ATOM      6  C   UNL     1     144.336 127.635 114.767  1.00  0.00     0.006 C 
BRANCH   6   7
ATOM      7  C   UNL     1     145.208 127.048 115.883  1.00  0.00     0.053 C 
BRANCH   7   8
ATOM      8  C   UNL     1     145.827 128.144 116.692  1.00  0.00     0.041 C 
ATOM      9  O   UNL     1     146.029 129.275 116.177  1.00  0.00    -0.550 OA
ATOM     10  O   UNL     1     146.136 127.932 118.029  1.00  0.00    -0.550 OA
ENDBRANCH   7   8
ENDBRANCH   6   7
ENDBRANCH   5   6
ENDBRANCH   4   5
ENDBRANCH   3   4
ENDBRANCH   2   3
ENDBRANCH   1   2
BRANCH   1  11
ATOM     11  C   UNL     1     139.176 129.357 113.202  1.00  0.00     0.000 C 
BRANCH  11  12
ATOM     12  C   UNL     1     138.661 127.907 113.221  1.00  0.00    -0.000 C 
BRANCH  12  13
ATOM     13  C   UNL     1     138.768 127.253 114.607  1.00  0.00    -0.000 C 
BRANCH  13  14
ATOM     14  C   UNL     1     137.406 127.252 115.318  1.00  0.00    -0.000 C 
BRANCH  14  15
ATOM     15  C   UNL     1     137.532 127.416 116.841  1.00  0.00    -0.000 C 
BRANCH  15  16
ATOM     16  C   UNL     1     138.873 126.893 117.384  1.00  0.00    -0.000 C 
BRANCH  16  17
ATOM     17  C   UNL     1     139.553 127.892 118.334  1.00  0.00    -0.003 C 
ATOM     18  C   UNL     1     139.206 129.345 118.014  1.00  0.00     0.004 C 
ENDBRANCH  16  17
ENDBRANCH  15  16
ENDBRANCH  14  15
ENDBRANCH  13  14
ENDBRANCH  12  13
ENDBRANCH  11  12
ENDBRANCH   1  11
TORSDOF 14
ENDMDL
MODEL 3
REMARK VINA RESULT:    -3.540     11.075     13.361
REMARK INTER + INTRA:          -8.778
REMARK INTER:                  -6.756
REMARK INTRA:                  -2.022
REMARK UNBOUND:                -2.340
REMARK SMILES CCCCCCCCCCCCCCCC(=O)[O-]
REMARK SMILES IDX 9 1 10 2 11 3 12 4 13 5 14 6 15 7 16 8 17 9 18 10 8 11 7 12
REMARK SMILES IDX 6 13 5 14 4 15 3 16 2 17 1 18
REMARK H PARENT
REMARK Flexibility Score: inf
ROOT
ATOM      1  C   UNL     1     143.145 127.513 115.053  1.00  0.00     0.000 C 
ENDROOT
BRANCH   1   2
ATOM      2  C   UNL     1     142.314 127.339 116.337  1.00  0.00     0.000 C 
BRANCH   2   3
ATOM      3  C   UNL     1     140.919 127.971 116.235  1.00  0.00     0.000 C 
BRANCH   3   4
ATOM      4  C   UNL     1     139.870 126.928 115.831  1.00  0.00     0.000 C 
BRANCH   4   5
ATOM      5  C   UNL     1     138.732 127.574 115.026  1.00  0.00     0.000 C 
BRANCH   5   6
ATOM      6  C   UNL     1     139.136 127.884 113.576  1.00  0.00     0.006 C 
BRANCH   6   7
ATOM      7  C   UNL     1     138.745 129.303 113.145  1.00  0.00     0.053 C 
BRANCH   7   8
ATOM      8  C   UNL     1     139.695 130.304 113.722  1.00  0.00     0.041 C 
ATOM      9  O   UNL     1     140.827 130.477 113.198  1.00  0.00    -0.550 OA
ATOM     10  O   UNL     1     139.314 131.079 114.809  1.00  0.00    -0.550 OA
ENDBRANCH   7   8
ENDBRANCH   6   7
ENDBRANCH   5   6
ENDBRANCH   4   5
ENDBRANCH   3   4
ENDBRANCH   2   3
ENDBRANCH   1   2
BRANCH   1  11
ATOM     11  C   UNL     1     144.621 127.084 115.164  1.00  0.00     0.000 C 
BRANCH  11  12
ATOM     12  C   UNL     1     145.604 127.890 114.295  1.00  0.00    -0.000 C 
BRANCH  12  13
ATOM     13  C   UNL     1     145.266 129.387 114.242  1.00  0.00    -0.000 C 
BRANCH  13  14
ATOM     14  C   UNL     1     145.781 130.110 115.496  1.00  0.00    -0.000 C 
BRANCH  14  15
ATOM     15  C   UNL     1     144.663 130.830 116.267  1.00  0.00    -0.000 C 
BRANCH  15  16
ATOM     16  C   UNL     1     144.354 130.166 117.620  1.00  0.00    -0.000 C 
BRANCH  16  17
ATOM     17  C   UNL     1     145.485 129.237 118.091  1.00  0.00    -0.003 C 
ATOM     18  C   UNL     1     144.973 128.029 118.875  1.00  0.00     0.004 C 
ENDBRANCH  16  17
ENDBRANCH  15  16
ENDBRANCH  14  15
ENDBRANCH  13  14
ENDBRANCH  12  13
ENDBRANCH  11  12
ENDBRANCH   1  11
TORSDOF 14
ENDMDL
MODEL 4
REMARK VINA RESULT:    -3.506     10.873     13.088
REMARK INTER + INTRA:          -8.715
REMARK INTER:                  -6.567
REMARK INTRA:                  -2.149
REMARK UNBOUND:                -2.340
REMARK SMILES CCCCCCCCCCCCCCCC(=O)[O-]
REMARK SMILES IDX 9 1 10 2 11 3 12 4 13 5 14 6 15 7 16 8 17 9 18 10 8 11 7 12
REMARK SMILES IDX 6 13 5 14 4 15 3 16 2 17 1 18
REMARK H PARENT
REMARK Flexibility Score: inf
ROOT
ATOM      1  C   UNL     1     141.606 129.391 115.976  1.00  0.00     0.000 C 
ENDROOT
BRANCH   1   2
ATOM      2  C   UNL     1     142.550 128.218 116.294  1.00  0.00     0.000 C 
BRANCH   2   3
ATOM      3  C   UNL     1     143.040 127.490 115.034  1.00  0.00     0.000 C 
BRANCH   3   4
ATOM      4  C   UNL     1     144.560 127.626 114.876  1.00  0.00     0.000 C 
BRANCH   4   5
ATOM      5  C   UNL     1     144.940 129.039 114.407  1.00  0.00     0.000 C 
BRANCH   5   6
ATOM      6  C   UNL     1     146.006 129.693 115.300  1.00  0.00     0.006 C 
BRANCH   6   7
ATOM      7  C   UNL     1     145.420 130.757 116.236  1.00  0.00     0.053 C 
BRANCH   7   8
ATOM      8  C   UNL     1     145.326 130.229 117.633  1.00  0.00     0.041 C 
ATOM      9  O   UNL     1     144.667 130.855 118.504  1.00  0.00    -0.550 OA
ATOM     10  O   UNL     1     145.923 129.019 117.961  1.00  0.00    -0.550 OA
ENDBRANCH   7   8
ENDBRANCH   6   7
ENDBRANCH   5   6
ENDBRANCH   4   5
ENDBRANCH   3   4
ENDBRANCH   2   3
ENDBRANCH   1   2
BRANCH   1  11
ATOM     11  C   UNL     1     141.208 129.529 114.493  1.00  0.00     0.000 C 
BRANCH  11  12
ATOM     12  C   UNL     1     139.822 130.151 114.243  1.00  0.00    -0.000 C 
BRANCH  12  13
ATOM     13  C   UNL     1     138.992 129.367 113.215  1.00  0.00    -0.000 C 
BRANCH  13  14
ATOM     14  C   UNL     1     138.972 127.869 113.555  1.00  0.00    -0.000 C 
BRANCH  14  15
ATOM     15  C   UNL     1     137.988 127.532 114.688  1.00  0.00    -0.000 C 
BRANCH  15  16
ATOM     16  C   UNL     1     138.701 127.114 115.985  1.00  0.00    -0.000 C 
BRANCH  16  17
ATOM     17  C   UNL     1     138.368 128.042 117.164  1.00  0.00    -0.003 C 
ATOM     18  C   UNL     1     139.204 127.744 118.408  1.00  0.00     0.004 C 
ENDBRANCH  16  17
ENDBRANCH  15  16
ENDBRANCH  14  15
ENDBRANCH  13  14
ENDBRANCH  12  13
ENDBRANCH  11  12
ENDBRANCH   1  11
TORSDOF 14
ENDMDL
MODEL 5
REMARK VINA RESULT:    -3.494     11.375     13.619
REMARK INTER + INTRA:          -8.693
REMARK INTER:                  -5.948
REMARK INTRA:                  -2.745
REMARK UNBOUND:                -2.340
REMARK SMILES CCCCCCCCCCCCCCCC(=O)[O-]
REMARK SMILES IDX 9 1 10 2 11 3 12 4 13 5 14 6 15 7 16 8 17 9 18 10 8 11 7 12
REMARK SMILES IDX 6 13 5 14 4 15 3 16 2 17 1 18
REMARK H PARENT
REMARK Flexibility Score: inf
ROOT
ATOM      1  C   UNL     1     144.878 128.751 118.552  1.00  0.00     0.000 C 
ENDROOT
BRANCH   1   2
ATOM      2  C   UNL     1     143.392 128.973 118.880  1.00  0.00     0.000 C 
BRANCH   2   3
ATOM      3  C   UNL     1     142.503 127.797 118.450  1.00  0.00     0.000 C 
BRANCH   3   4
ATOM      4  C   UNL     1     141.732 128.131 117.167  1.00  0.00     0.000 C 
BRANCH   4   5
ATOM      5  C   UNL     1     142.142 127.197 116.018  1.00  0.00     0.000 C 
BRANCH   5   6
ATOM      6  C   UNL     1     141.270 127.380 114.766  1.00  0.00     0.006 C 
BRANCH   6   7
ATOM      7  C   UNL     1     140.277 128.541 114.903  1.00  0.00     0.053 C 
BRANCH   7   8
ATOM      8  C   UNL     1     139.055 128.282 114.081  1.00  0.00     0.041 C 
ATOM      9  O   UNL     1     138.253 127.369 114.410  1.00  0.00    -0.550 OA
ATOM     10  O   UNL     1     138.775 129.079 112.980  1.00  0.00    -0.550 OA
ENDBRANCH   7   8
ENDBRANCH   6   7
ENDBRANCH   5   6
ENDBRANCH   4   5
ENDBRANCH   3   4
ENDBRANCH   2   3
ENDBRANCH   1   2
BRANCH   1  11
ATOM     11  C   UNL     1     145.260 127.300 118.193  1.00  0.00     0.000 C 
BRANCH  11  12
ATOM     12  C   UNL     1     145.768 127.094 116.754  1.00  0.00    -0.000 C 
BRANCH  12  13
ATOM     13  C   UNL     1     145.989 128.416 116.004  1.00  0.00    -0.000 C 
BRANCH  13  14
ATOM     14  C   UNL     1     145.409 128.342 114.583  1.00  0.00    -0.000 C 
BRANCH  14  15
ATOM     15  C   UNL     1     144.410 129.473 114.290  1.00  0.00    -0.000 C 
BRANCH  15  16
ATOM     16  C   UNL     1     144.369 130.530 115.408  1.00  0.00    -0.000 C 
BRANCH  16  17
ATOM     17  C   UNL     1     142.964 131.121 115.607  1.00  0.00    -0.003 C 
ATOM     18  C   UNL     1     142.878 132.050 116.817  1.00  0.00     0.004 C 
ENDBRANCH  16  17
ENDBRANCH  15  16
ENDBRANCH  14  15
ENDBRANCH  13  14
ENDBRANCH  12  13
ENDBRANCH  11  12
ENDBRANCH   1  11
TORSDOF 14
ENDMDL
MODEL 6
REMARK VINA RESULT:    -3.487     11.251     13.544
REMARK INTER + INTRA:          -8.680
REMARK INTER:                  -6.762
REMARK INTRA:                  -1.919
REMARK UNBOUND:                -2.340
REMARK SMILES CCCCCCCCCCCCCCCC(=O)[O-]
REMARK SMILES IDX 9 1 10 2 11 3 12 4 13 5 14 6 15 7 16 8 17 9 18 10 8 11 7 12
REMARK SMILES IDX 6 13 5 14 4 15 3 16 2 17 1 18
REMARK H PARENT
REMARK Flexibility Score: inf
ROOT
ATOM      1  C   UNL     1     142.413 130.121 116.883  1.00  0.00     0.000 C 
ENDROOT
BRANCH   1   2
ATOM      2  C   UNL     1     142.957 130.840 115.636  1.00  0.00     0.000 C 
BRANCH   2   3
ATOM      3  C   UNL     1     143.611 129.879 114.632  1.00  0.00     0.000 C 
BRANCH   3   4
ATOM      4  C   UNL     1     145.074 129.607 115.004  1.00  0.00     0.000 C 
BRANCH   4   5
ATOM      5  C   UNL     1     145.407 128.113 114.869  1.00  0.00     0.000 C 
BRANCH   5   6
ATOM      6  C   UNL     1     145.380 127.376 116.218  1.00  0.00     0.006 C 
BRANCH   6   7
ATOM      7  C   UNL     1     145.598 128.318 117.409  1.00  0.00     0.053 C 
BRANCH   7   8
ATOM      8  C   UNL     1     145.264 127.623 118.691  1.00  0.00     0.041 C 
ATOM      9  O   UNL     1     144.111 127.149 118.872  1.00  0.00    -0.550 OA
ATOM     10  O   UNL     1     146.238 127.455 119.665  1.00  0.00    -0.550 OA
ENDBRANCH   7   8
ENDBRANCH   6   7
ENDBRANCH   5   6
ENDBRANCH   4   5
ENDBRANCH   3   4
ENDBRANCH   2   3
ENDBRANCH   1   2
BRANCH   1  11
ATOM     11  C   UNL     1     141.279 129.112 116.615  1.00  0.00     0.000 C 
BRANCH  11  12
ATOM     12  C   UNL     1     141.742 127.686 116.263  1.00  0.00    -0.000 C 
BRANCH  12  13
ATOM     13  C   UNL     1     140.667 126.875 115.523  1.00  0.00    -0.000 C 
BRANCH  13  14
ATOM     14  C   UNL     1     139.263 127.410 115.839  1.00  0.00    -0.000 C 
BRANCH  14  15
ATOM     15  C   UNL     1     138.296 127.277 114.651  1.00  0.00    -0.000 C 
BRANCH  15  16
ATOM     16  C   UNL     1     138.869 127.872 113.353  1.00  0.00    -0.000 C 
BRANCH  16  17
ATOM     17  C   UNL     1     138.656 129.391 113.258  1.00  0.00    -0.003 C 
ATOM     18  C   UNL     1     139.965 130.178 113.324  1.00  0.00     0.004 C 
ENDBRANCH  16  17
ENDBRANCH  15  16
ENDBRANCH  14  15
ENDBRANCH  13  14
ENDBRANCH  12  13
ENDBRANCH  11  12
ENDBRANCH   1  11
TORSDOF 14
ENDMDL
MODEL 7
REMARK VINA RESULT:    -3.484     11.030     13.257
REMARK INTER + INTRA:          -8.675
REMARK INTER:                  -6.919
REMARK INTRA:                  -1.756
REMARK UNBOUND:                -2.340
REMARK SMILES CCCCCCCCCCCCCCCC(=O)[O-]
REMARK SMILES IDX 9 1 10 2 11 3 12 4 13 5 14 6 15 7 16 8 17 9 18 10 8 11 7 12
REMARK SMILES IDX 6 13 5 14 4 15 3 16 2 17 1 18
REMARK H PARENT
REMARK Flexibility Score: inf
ROOT
ATOM      1  C   UNL     1     141.898 127.277 115.161  1.00  0.00     0.000 C 
ENDROOT
BRANCH   1   2
ATOM      2  C   UNL     1     143.199 128.094 115.063  1.00  0.00     0.000 C 
BRANCH   2   3
ATOM      3  C   UNL     1     144.428 127.223 114.762  1.00  0.00     0.000 C 
BRANCH   3   4
ATOM      4  C   UNL     1     145.679 128.088 114.561  1.00  0.00     0.000 C 
BRANCH   4   5
ATOM      5  C   UNL     1     145.354 129.578 114.751  1.00  0.00     0.000 C 
BRANCH   5   6
ATOM      6  C   UNL     1     146.205 130.233 115.851  1.00  0.00     0.006 C 
BRANCH   6   7
ATOM      7  C   UNL     1     145.368 130.681 117.056  1.00  0.00     0.053 C 
BRANCH   7   8
ATOM      8  C   UNL     1     145.034 129.509 117.924  1.00  0.00     0.041 C 
ATOM      9  O   UNL     1     143.894 129.416 118.451  1.00  0.00    -0.550 OA
ATOM     10  O   UNL     1     145.963 128.494 118.110  1.00  0.00    -0.550 OA
ENDBRANCH   7   8
ENDBRANCH   6   7
ENDBRANCH   5   6
ENDBRANCH   4   5
ENDBRANCH   3   4
ENDBRANCH   2   3
ENDBRANCH   1   2
BRANCH   1  11
ATOM     11  C   UNL     1     141.216 127.297 116.544  1.00  0.00     0.000 C 
BRANCH  11  12
ATOM     12  C   UNL     1     140.507 128.615 116.905  1.00  0.00    -0.000 C 
BRANCH  12  13
ATOM     13  C   UNL     1     139.303 128.409 117.836  1.00  0.00    -0.000 C 
BRANCH  13  14
ATOM     14  C   UNL     1     138.217 127.567 117.149  1.00  0.00    -0.000 C 
BRANCH  14  15
ATOM     15  C   UNL     1     137.705 128.206 115.848  1.00  0.00    -0.000 C 
BRANCH  15  16
ATOM     16  C   UNL     1     137.602 127.195 114.693  1.00  0.00    -0.000 C 
BRANCH  16  17
ATOM     17  C   UNL     1     138.591 127.497 113.556  1.00  0.00    -0.003 C 
ATOM     18  C   UNL     1     138.935 128.982 113.448  1.00  0.00     0.004 C 
ENDBRANCH  16  17
ENDBRANCH  15  16
ENDBRANCH  14  15
ENDBRANCH  13  14
ENDBRANCH  12  13
ENDBRANCH  11  12
ENDBRANCH   1  11
TORSDOF 14
ENDMDL
MODEL 8
REMARK VINA RESULT:    -3.413     12.616     14.718
REMARK INTER + INTRA:          -8.546
REMARK INTER:                  -6.362
REMARK INTRA:                  -2.184
REMARK UNBOUND:                -2.340
REMARK SMILES CCCCCCCCCCCCCCCC(=O)[O-]
REMARK SMILES IDX 9 1 10 2 11 3 12 4 13 5 14 6 15 7 16 8 17 9 18 10 8 11 7 12
REMARK SMILES IDX 6 13 5 14 4 15 3 16 2 17 1 18
REMARK H PARENT
REMARK Flexibility Score: inf
ROOT
ATOM      1  C   UNL     1     145.628 131.350 116.351  1.00  0.00     0.000 C 
ENDROOT
BRANCH   1   2
ATOM      2  C   UNL     1     144.954 131.316 117.734  1.00  0.00     0.000 C 
BRANCH   2   3
ATOM      3  C   UNL     1     143.462 130.956 117.662  1.00  0.00     0.000 C 
BRANCH   3   4
ATOM      4  C   UNL     1     142.910 130.620 119.052  1.00  0.00     0.000 C 
BRANCH   4   5
ATOM      5  C   UNL     1     142.328 129.199 119.085  1.00  0.00     0.000 C 
BRANCH   5   6
ATOM      6  C   UNL     1     143.293 128.178 119.708  1.00  0.00     0.006 C 
BRANCH   6   7
ATOM      7  C   UNL     1     144.070 127.379 118.654  1.00  0.00     0.053 C 
BRANCH   7   8
ATOM      8  C   UNL     1     145.539 127.619 118.796  1.00  0.00     0.041 C 
ATOM      9  O   UNL     1     146.343 127.140 117.953  1.00  0.00    -0.550 OA
ATOM     10  O   UNL     1     146.018 128.412 119.829  1.00  0.00    -0.550 OA
ENDBRANCH   7   8
ENDBRANCH   6   7
ENDBRANCH   5   6
ENDBRANCH   4   5
ENDBRANCH   3   4
ENDBRANCH   2   3
ENDBRANCH   1   2
BRANCH   1  11
ATOM     11  C   UNL     1     146.120 129.985 115.829  1.00  0.00     0.000 C 
BRANCH  11  12
ATOM     12  C   UNL     1     145.351 129.433 114.615  1.00  0.00    -0.000 C 
BRANCH  12  13
ATOM     13  C   UNL     1     145.372 127.898 114.543  1.00  0.00    -0.000 C 
BRANCH  13  14
ATOM     14  C   UNL     1     144.020 127.311 114.976  1.00  0.00    -0.000 C 
BRANCH  14  15
ATOM     15  C   UNL     1     142.925 128.382 115.114  1.00  0.00    -0.000 C 
BRANCH  15  16
ATOM     16  C   UNL     1     141.507 127.792 115.032  1.00  0.00    -0.000 C 
BRANCH  16  17
ATOM     17  C   UNL     1     141.065 127.137 116.350  1.00  0.00    -0.003 C 
ATOM     18  C   UNL     1     139.564 127.269 116.604  1.00  0.00     0.004 C 
ENDBRANCH  16  17
ENDBRANCH  15  16
ENDBRANCH  14  15
ENDBRANCH  13  14
ENDBRANCH  12  13
ENDBRANCH  11  12
ENDBRANCH   1  11
TORSDOF 14
ENDMDL
MODEL 9
REMARK VINA RESULT:    -3.408     10.969     13.469
REMARK INTER + INTRA:          -8.537
REMARK INTER:                  -6.335
REMARK INTRA:                  -2.202
REMARK UNBOUND:                -2.340
REMARK SMILES CCCCCCCCCCCCCCCC(=O)[O-]
REMARK SMILES IDX 9 1 10 2 11 3 12 4 13 5 14 6 15 7 16 8 17 9 18 10 8 11 7 12
REMARK SMILES IDX 6 13 5 14 4 15 3 16 2 17 1 18
REMARK H PARENT
REMARK Flexibility Score: inf
ROOT
ATOM      1  C   UNL     1     143.695 130.532 116.336  1.00  0.00     0.000 C 
ENDROOT
BRANCH   1   2
ATOM      2  C   UNL     1     142.366 130.476 115.562  1.00  0.00     0.000 C 
BRANCH   2   3
ATOM      3  C   UNL     1     142.170 129.152 114.809  1.00  0.00     0.000 C 
BRANCH   3   4
ATOM      4  C   UNL     1     141.360 128.157 115.650  1.00  0.00     0.000 C 
BRANCH   4   5
ATOM      5  C   UNL     1     140.992 126.913 114.827  1.00  0.00     0.000 C 
BRANCH   5   6
ATOM      6  C   UNL     1     139.549 126.958 114.300  1.00  0.00     0.006 C 
BRANCH   6   7
ATOM      7  C   UNL     1     138.520 127.191 115.414  1.00  0.00     0.053 C 
BRANCH   7   8
ATOM      8  C   UNL     1     137.698 128.405 115.118  1.00  0.00     0.041 C 
ATOM      9  O   UNL     1     136.551 128.531 115.623  1.00  0.00    -0.550 OA
ATOM     10  O   UNL     1     138.215 129.420 114.326  1.00  0.00    -0.550 OA
ENDBRANCH   7   8
ENDBRANCH   6   7
ENDBRANCH   5   6
ENDBRANCH   4   5
ENDBRANCH   3   4
ENDBRANCH   2   3
ENDBRANCH   1   2
BRANCH   1  11
ATOM     11  C   UNL     1     144.956 130.693 115.463  1.00  0.00     0.000 C 
BRANCH  11  12
ATOM     12  C   UNL     1     145.950 129.519 115.527  1.00  0.00    -0.000 C 
BRANCH  12  13
ATOM     13  C   UNL     1     145.642 128.420 114.499  1.00  0.00    -0.000 C 
BRANCH  13  14
ATOM     14  C   UNL     1     145.214 127.120 115.198  1.00  0.00    -0.000 C 
BRANCH  14  15
ATOM     15  C   UNL     1     145.497 127.139 116.708  1.00  0.00    -0.000 C 
BRANCH  15  16
ATOM     16  C   UNL     1     144.237 126.875 117.550  1.00  0.00    -0.000 C 
BRANCH  16  17
ATOM     17  C   UNL     1     144.077 127.880 118.702  1.00  0.00    -0.003 C 
ATOM     18  C   UNL     1     145.364 128.649 119.001  1.00  0.00     0.004 C 
ENDBRANCH  16  17
ENDBRANCH  15  16
ENDBRANCH  14  15
ENDBRANCH  13  14
ENDBRANCH  12  13
ENDBRANCH  11  12
ENDBRANCH   1  11
TORSDOF 14
ENDMDL
