MODEL 1
REMARK VINA RESULT:    -4.801      0.000      0.000
REMARK INTER + INTRA:         -10.571
REMARK INTER:                  -9.010
REMARK INTRA:                  -1.560
REMARK UNBOUND:                -1.560
REMARK SMILES O=C([O-])CCCCCCCCCCCCCCC(=O)[O-]
REMARK SMILES IDX 10 1 9 2 8 3 7 4 6 5 5 6 4 7 2 8 1 9 3 10 11 11 12 12 13 13
REMARK SMILES IDX 14 14 15 15 16 16 17 17 18 18 19 19 20 20
REMARK H PARENT
REMARK Flexibility Score: inf
ROOT
ATOM      1  C   UNL     1      -4.211  12.641  -3.395  1.00  0.00     0.000 C 
ENDROOT
BRANCH   1   2
ATOM      2  C   UNL     1      -3.516  12.832  -4.747  1.00  0.00     0.000 C 
BRANCH   2   3
ATOM      3  C   UNL     1      -3.897  11.714  -5.726  1.00  0.00     0.000 C 
BRANCH   3   4
ATOM      4  C   UNL     1      -3.672  12.152  -7.177  1.00  0.00     0.000 C 
BRANCH   4   5
ATOM      5  C   UNL     1      -2.269  12.751  -7.361  1.00  0.00     0.000 C 
BRANCH   5   6
ATOM      6  C   UNL     1      -1.486  12.086  -8.504  1.00  0.00     0.006 C 
BRANCH   6   7
ATOM      7  C   UNL     1      -1.814  10.596  -8.654  1.00  0.00     0.053 C 
BRANCH   7   8
ATOM      8  C   UNL     1      -2.387  10.321 -10.009  1.00  0.00     0.041 C 
ATOM      9  O   UNL     1      -1.918   9.392 -10.718  1.00  0.00    -0.550 OA
ATOM     10  O   UNL     1      -3.402  11.125 -10.511  1.00  0.00    -0.550 OA
ENDBRANCH   7   8
ENDBRANCH   6   7
ENDBRANCH   5   6
ENDBRANCH   4   5
ENDBRANCH   3   4
ENDBRANCH   2   3
ENDBRANCH   1   2
BRANCH   1  11
ATOM     11  C   UNL     1      -4.893  13.941  -2.939  1.00  0.00     0.000 C 
BRANCH  11  12
ATOM     12  C   UNL     1      -6.312  13.702  -2.399  1.00  0.00     0.000 C 
BRANCH  12  13
ATOM     13  C   UNL     1      -7.397  13.946  -3.463  1.00  0.00     0.000 C 
BRANCH  13  14
ATOM     14  C   UNL     1      -7.645  12.717  -4.356  1.00  0.00     0.000 C 
BRANCH  14  15
ATOM     15  C   UNL     1      -7.210  12.883  -5.824  1.00  0.00     0.000 C 
BRANCH  15  16
ATOM     16  C   UNL     1      -7.540  11.658  -6.690  1.00  0.00     0.006 C 
BRANCH  16  17
ATOM     17  C   UNL     1      -7.929  10.460  -5.819  1.00  0.00     0.053 C 
BRANCH  17  18
ATOM     18  C   UNL     1      -8.601   9.409  -6.643  1.00  0.00     0.041 C 
ATOM     19  O   UNL     1      -9.215   9.725  -7.695  1.00  0.00    -0.550 OA
ATOM     20  O   UNL     1      -8.504   8.071  -6.279  1.00  0.00    -0.550 OA
ENDBRANCH  17  18
ENDBRANCH  16  17
ENDBRANCH  15  16
ENDBRANCH  14  15
ENDBRANCH  13  14
ENDBRANCH  12  13
ENDBRANCH  11  12
ENDBRANCH   1  11
TORSDOF 15
ENDMDL
MODEL 2
REMARK VINA RESULT:    -4.638      1.379      2.058
REMARK INTER + INTRA:         -10.266
REMARK INTER:                  -8.744
REMARK INTRA:                  -1.522
REMARK UNBOUND:                -1.560
REMARK SMILES O=C([O-])CCCCCCCCCCCCCCC(=O)[O-]
REMARK SMILES IDX 10 1 9 2 8 3 7 4 6 5 5 6 4 7 2 8 1 9 3 10 11 11 12 12 13 13
REMARK SMILES IDX 14 14 15 15 16 16 17 17 18 18 19 19 20 20
REMARK H PARENT
REMARK Flexibility Score: inf
ROOT
ATOM      1  C   UNL     1      -5.623  13.642  -2.506  1.00  0.00     0.000 C 
ENDROOT
BRANCH   1   2
ATOM      2  C   UNL     1      -4.835  14.096  -3.740  1.00  0.00     0.000 C 
BRANCH   2   3
ATOM      3  C   UNL     1      -3.525  13.309  -3.878  1.00  0.00     0.000 C 
BRANCH   3   4
ATOM      4  C   UNL     1      -2.848  13.600  -5.222  1.00  0.00     0.000 C 
BRANCH   4   5
ATOM      5  C   UNL     1      -3.709  13.104  -6.393  1.00  0.00     0.000 C 
BRANCH   5   6
ATOM      6  C   UNL     1      -3.268  11.726  -6.910  1.00  0.00     0.006 C 
BRANCH   6   7
ATOM      7  C   UNL     1      -2.821  11.761  -8.377  1.00  0.00     0.053 C 
BRANCH   7   8
ATOM      8  C   UNL     1      -1.512  11.054  -8.541  1.00  0.00     0.041 C 
ATOM      9  O   UNL     1      -1.443   9.807  -8.391  1.00  0.00    -0.550 OA
ATOM     10  O   UNL     1      -0.359  11.781  -8.807  1.00  0.00    -0.550 OA
ENDBRANCH   7   8
ENDBRANCH   6   7
ENDBRANCH   5   6
ENDBRANCH   4   5
ENDBRANCH   3   4
ENDBRANCH   2   3
ENDBRANCH   1   2
BRANCH   1  11
ATOM     11  C   UNL     1      -7.127  13.892  -2.693  1.00  0.00     0.000 C 
BRANCH  11  12
ATOM     12  C   UNL     1      -7.766  12.917  -3.695  1.00  0.00     0.000 C 
BRANCH  12  13
ATOM     13  C   UNL     1      -8.566  13.640  -4.793  1.00  0.00     0.000 C 
BRANCH  13  14
ATOM     14  C   UNL     1      -7.967  13.442  -6.197  1.00  0.00     0.000 C 
BRANCH  14  15
ATOM     15  C   UNL     1      -7.167  12.139  -6.383  1.00  0.00     0.000 C 
BRANCH  15  16
ATOM     16  C   UNL     1      -7.844  11.152  -7.345  1.00  0.00     0.006 C 
BRANCH  16  17
ATOM     17  C   UNL     1      -9.045  10.475  -6.679  1.00  0.00     0.053 C 
BRANCH  17  18
ATOM     18  C   UNL     1      -8.602   9.299  -5.869  1.00  0.00     0.041 C 
ATOM     19  O   UNL     1      -8.521   8.159  -6.398  1.00  0.00    -0.550 OA
ATOM     20  O   UNL     1      -8.225   9.470  -4.543  1.00  0.00    -0.550 OA
ENDBRANCH  17  18
ENDBRANCH  16  17
ENDBRANCH  15  16
ENDBRANCH  14  15
ENDBRANCH  13  14
ENDBRANCH  12  13
ENDBRANCH  11  12
ENDBRANCH   1  11
TORSDOF 15
ENDMDL
MODEL 3
REMARK VINA RESULT:    -4.557     13.646     16.282
REMARK INTER + INTRA:         -10.113
REMARK INTER:                  -8.059
REMARK INTRA:                  -2.054
REMARK UNBOUND:                -1.560
REMARK SMILES O=C([O-])CCCCCCCCCCCCCCC(=O)[O-]
REMARK SMILES IDX 10 1 9 2 8 3 7 4 6 5 5 6 4 7 2 8 1 9 3 10 11 11 12 12 13 13
REMARK SMILES IDX 14 14 15 15 16 16 17 17 18 18 19 19 20 20
REMARK H PARENT
REMARK Flexibility Score: inf
ROOT
ATOM      1  C   UNL     1       5.549   1.257  -9.733  1.00  0.00     0.000 C 
ENDROOT
BRANCH   1   2
ATOM      2  C   UNL     1       6.694   0.812 -10.650  1.00  0.00     0.000 C 
BRANCH   2   3
ATOM      3  C   UNL     1       8.019   0.737  -9.881  1.00  0.00     0.000 C 
BRANCH   3   4
ATOM      4  C   UNL     1       8.636   2.130  -9.711  1.00  0.00     0.000 C 
BRANCH   4   5
ATOM      5  C   UNL     1       9.482   2.206  -8.431  1.00  0.00     0.000 C 
BRANCH   5   6
ATOM      6  C   UNL     1       8.987   1.248  -7.337  1.00  0.00     0.006 C 
BRANCH   6   7
ATOM      7  C   UNL     1      10.047   0.985  -6.260  1.00  0.00     0.053 C 
BRANCH   7   8
ATOM      8  C   UNL     1       9.403   0.484  -5.005  1.00  0.00     0.041 C 
ATOM      9  O   UNL     1       8.980   1.297  -4.142  1.00  0.00    -0.550 OA
ATOM     10  O   UNL     1       9.319  -0.881  -4.765  1.00  0.00    -0.550 OA
ENDBRANCH   7   8
ENDBRANCH   6   7
ENDBRANCH   5   6
ENDBRANCH   4   5
ENDBRANCH   3   4
ENDBRANCH   2   3
ENDBRANCH   1   2
BRANCH   1  11
ATOM     11  C   UNL     1       4.487   2.038 -10.521  1.00  0.00     0.000 C 
BRANCH  11  12
ATOM     12  C   UNL     1       3.897   3.206  -9.715  1.00  0.00     0.000 C 
BRANCH  12  13
ATOM     13  C   UNL     1       4.487   4.566 -10.128  1.00  0.00     0.000 C 
BRANCH  13  14
ATOM     14  C   UNL     1       5.974   4.710  -9.755  1.00  0.00     0.000 C 
BRANCH  14  15
ATOM     15  C   UNL     1       6.246   5.505  -8.465  1.00  0.00     0.000 C 
BRANCH  15  16
ATOM     16  C   UNL     1       6.929   4.665  -7.376  1.00  0.00     0.006 C 
BRANCH  16  17
ATOM     17  C   UNL     1       6.028   3.511  -6.926  1.00  0.00     0.053 C 
BRANCH  17  18
ATOM     18  C   UNL     1       6.301   3.158  -5.499  1.00  0.00     0.041 C 
ATOM     19  O   UNL     1       6.008   2.014  -5.062  1.00  0.00    -0.550 OA
ATOM     20  O   UNL     1       6.930   4.073  -4.664  1.00  0.00    -0.550 OA
ENDBRANCH  17  18
ENDBRANCH  16  17
ENDBRANCH  15  16
ENDBRANCH  14  15
ENDBRANCH  13  14
ENDBRANCH  12  13
ENDBRANCH  11  12
ENDBRANCH   1  11
TORSDOF 15
ENDMDL
MODEL 4
REMARK VINA RESULT:    -4.475     13.397     15.922
REMARK INTER + INTRA:          -9.959
REMARK INTER:                  -7.979
REMARK INTRA:                  -1.980
REMARK UNBOUND:                -1.560
REMARK SMILES O=C([O-])CCCCCCCCCCCCCCC(=O)[O-]
REMARK SMILES IDX 10 1 9 2 8 3 7 4 6 5 5 6 4 7 2 8 1 9 3 10 11 11 12 12 13 13
REMARK SMILES IDX 14 14 15 15 16 16 17 17 18 18 19 19 20 20
REMARK H PARENT
REMARK Flexibility Score: inf
ROOT
ATOM      1  C   UNL     1       7.838   5.664  -7.919  1.00  0.00     0.000 C 
ENDROOT
BRANCH   1   2
ATOM      2  C   UNL     1       6.766   5.813  -6.835  1.00  0.00     0.000 C 
BRANCH   2   3
ATOM      3  C   UNL     1       6.543   4.489  -6.093  1.00  0.00     0.000 C 
BRANCH   3   4
ATOM      4  C   UNL     1       7.823   3.646  -6.075  1.00  0.00     0.000 C 
BRANCH   4   5
ATOM      5  C   UNL     1       8.257   3.334  -4.634  1.00  0.00     0.000 C 
BRANCH   5   6
ATOM      6  C   UNL     1       8.660   1.864  -4.443  1.00  0.00     0.006 C 
BRANCH   6   7
ATOM      7  C   UNL     1       9.869   1.467  -5.299  1.00  0.00     0.053 C 
BRANCH   7   8
ATOM      8  C   UNL     1       9.850  -0.004  -5.578  1.00  0.00     0.041 C 
ATOM      9  O   UNL     1       9.826  -0.422  -6.764  1.00  0.00    -0.550 OA
ATOM     10  O   UNL     1       9.806  -0.910  -4.526  1.00  0.00    -0.550 OA
ENDBRANCH   7   8
ENDBRANCH   6   7
ENDBRANCH   5   6
ENDBRANCH   4   5
ENDBRANCH   3   4
ENDBRANCH   2   3
ENDBRANCH   1   2
BRANCH   1  11
ATOM     11  C   UNL     1       7.315   6.151  -9.280  1.00  0.00     0.000 C 
BRANCH  11  12
ATOM     12  C   UNL     1       5.938   6.824  -9.173  1.00  0.00     0.000 C 
BRANCH  12  13
ATOM     13  C   UNL     1       4.853   6.079  -9.972  1.00  0.00     0.000 C 
BRANCH  13  14
ATOM     14  C   UNL     1       5.428   4.964 -10.863  1.00  0.00     0.000 C 
BRANCH  14  15
ATOM     15  C   UNL     1       4.806   3.572 -10.645  1.00  0.00     0.000 C 
BRANCH  15  16
ATOM     16  C   UNL     1       5.276   2.902  -9.345  1.00  0.00     0.006 C 
BRANCH  16  17
ATOM     17  C   UNL     1       6.739   2.462  -9.454  1.00  0.00     0.053 C 
BRANCH  17  18
ATOM     18  C   UNL     1       6.931   1.120  -8.823  1.00  0.00     0.041 C 
ATOM     19  O   UNL     1       6.629   0.938  -7.614  1.00  0.00    -0.550 OA
ATOM     20  O   UNL     1       7.392   0.053  -9.585  1.00  0.00    -0.550 OA
ENDBRANCH  17  18
ENDBRANCH  16  17
ENDBRANCH  15  16
ENDBRANCH  14  15
ENDBRANCH  13  14
ENDBRANCH  12  13
ENDBRANCH  11  12
ENDBRANCH   1  11
TORSDOF 15
ENDMDL
MODEL 5
REMARK VINA RESULT:    -4.427     13.348     16.294
REMARK INTER + INTRA:          -9.870
REMARK INTER:                  -7.619
REMARK INTRA:                  -2.251
REMARK UNBOUND:                -1.560
REMARK SMILES O=C([O-])CCCCCCCCCCCCCCC(=O)[O-]
REMARK SMILES IDX 10 1 9 2 8 3 7 4 6 5 5 6 4 7 2 8 1 9 3 10 11 11 12 12 13 13
REMARK SMILES IDX 14 14 15 15 16 16 17 17 18 18 19 19 20 20
REMARK H PARENT
REMARK Flexibility Score: inf
ROOT
ATOM      1  C   UNL     1       4.234   1.755 -10.058  1.00  0.00     0.000 C 
ENDROOT
BRANCH   1   2
ATOM      2  C   UNL     1       3.770   3.175  -9.713  1.00  0.00     0.000 C 
BRANCH   2   3
ATOM      3  C   UNL     1       4.412   4.207 -10.649  1.00  0.00     0.000 C 
BRANCH   3   4
ATOM      4  C   UNL     1       5.103   5.318  -9.851  1.00  0.00     0.000 C 
BRANCH   4   5
ATOM      5  C   UNL     1       6.632   5.196  -9.946  1.00  0.00     0.000 C 
BRANCH   5   6
ATOM      6  C   UNL     1       7.278   4.806  -8.607  1.00  0.00     0.006 C 
BRANCH   6   7
ATOM      7  C   UNL     1       6.614   5.494  -7.409  1.00  0.00     0.053 C 
BRANCH   7   8
ATOM      8  C   UNL     1       6.558   4.563  -6.238  1.00  0.00     0.041 C 
ATOM      9  O   UNL     1       7.372   4.693  -5.287  1.00  0.00    -0.550 OA
ATOM     10  O   UNL     1       5.641   3.520  -6.223  1.00  0.00    -0.550 OA
ENDBRANCH   7   8
ENDBRANCH   6   7
ENDBRANCH   5   6
ENDBRANCH   4   5
ENDBRANCH   3   4
ENDBRANCH   2   3
ENDBRANCH   1   2
BRANCH   1  11
ATOM     11  C   UNL     1       5.698   1.541  -9.643  1.00  0.00     0.000 C 
BRANCH  11  12
ATOM     12  C   UNL     1       6.567   1.020 -10.800  1.00  0.00     0.000 C 
BRANCH  12  13
ATOM     13  C   UNL     1       7.820   1.883 -11.032  1.00  0.00     0.000 C 
BRANCH  13  14
ATOM     14  C   UNL     1       9.088   1.277 -10.403  1.00  0.00     0.000 C 
BRANCH  14  15
ATOM     15  C   UNL     1       9.519   1.913  -9.069  1.00  0.00     0.000 C 
BRANCH  15  16
ATOM     16  C   UNL     1       9.218   1.024  -7.854  1.00  0.00     0.006 C 
BRANCH  16  17
ATOM     17  C   UNL     1       9.026   1.868  -6.591  1.00  0.00     0.053 C 
BRANCH  17  18
ATOM     18  C   UNL     1       8.331   1.075  -5.531  1.00  0.00     0.041 C 
ATOM     19  O   UNL     1       8.883   0.887  -4.415  1.00  0.00    -0.550 OA
ATOM     20  O   UNL     1       7.049   0.589  -5.754  1.00  0.00    -0.550 OA
ENDBRANCH  17  18
ENDBRANCH  16  17
ENDBRANCH  15  16
ENDBRANCH  14  15
ENDBRANCH  13  14
ENDBRANCH  12  13
ENDBRANCH  11  12
ENDBRANCH   1  11
TORSDOF 15
ENDMDL
MODEL 6
REMARK VINA RESULT:    -4.417     13.028     15.369
REMARK INTER + INTRA:          -9.851
REMARK INTER:                  -7.579
REMARK INTRA:                  -2.271
REMARK UNBOUND:                -1.560
REMARK SMILES O=C([O-])CCCCCCCCCCCCCCC(=O)[O-]
REMARK SMILES IDX 10 1 9 2 8 3 7 4 6 5 5 6 4 7 2 8 1 9 3 10 11 11 12 12 13 13
REMARK SMILES IDX 14 14 15 15 16 16 17 17 18 18 19 19 20 20
REMARK H PARENT
REMARK Flexibility Score: inf
ROOT
ATOM      1  C   UNL     1       4.395   4.119 -10.039  1.00  0.00     0.000 C 
ENDROOT
BRANCH   1   2
ATOM      2  C   UNL     1       5.263   2.912  -9.668  1.00  0.00     0.000 C 
BRANCH   2   3
ATOM      3  C   UNL     1       6.313   2.634 -10.751  1.00  0.00     0.000 C 
BRANCH   3   4
ATOM      4  C   UNL     1       7.724   2.595 -10.154  1.00  0.00     0.000 C 
BRANCH   4   5
ATOM      5  C   UNL     1       7.676   2.671  -8.620  1.00  0.00     0.000 C 
BRANCH   5   6
ATOM      6  C   UNL     1       8.244   1.412  -7.947  1.00  0.00     0.006 C 
BRANCH   6   7
ATOM      7  C   UNL     1       8.964   1.721  -6.629  1.00  0.00     0.053 C 
BRANCH   7   8
ATOM      8  C   UNL     1       8.253   1.076  -5.481  1.00  0.00     0.041 C 
ATOM      9  O   UNL     1       8.837   0.930  -4.376  1.00  0.00    -0.550 OA
ATOM     10  O   UNL     1       6.964   0.588  -5.648  1.00  0.00    -0.550 OA
ENDBRANCH   7   8
ENDBRANCH   6   7
ENDBRANCH   5   6
ENDBRANCH   4   5
ENDBRANCH   3   4
ENDBRANCH   2   3
ENDBRANCH   1   2
BRANCH   1  11
ATOM     11  C   UNL     1       5.127   5.040 -11.027  1.00  0.00     0.000 C 
BRANCH  11  12
ATOM     12  C   UNL     1       4.863   6.529 -10.751  1.00  0.00     0.000 C 
BRANCH  12  13
ATOM     13  C   UNL     1       6.120   7.270 -10.262  1.00  0.00     0.000 C 
BRANCH  13  14
ATOM     14  C   UNL     1       7.298   6.322  -9.971  1.00  0.00     0.000 C 
BRANCH  14  15
ATOM     15  C   UNL     1       7.616   6.121  -8.478  1.00  0.00     0.000 C 
BRANCH  15  16
ATOM     16  C   UNL     1       6.357   6.027  -7.603  1.00  0.00     0.006 C 
BRANCH  16  17
ATOM     17  C   UNL     1       6.716   6.100  -6.116  1.00  0.00     0.053 C 
BRANCH  17  18
ATOM     18  C   UNL     1       6.734   4.732  -5.513  1.00  0.00     0.041 C 
ATOM     19  O   UNL     1       7.531   4.462  -4.577  1.00  0.00    -0.550 OA
ATOM     20  O   UNL     1       5.831   3.769  -5.948  1.00  0.00    -0.550 OA
ENDBRANCH  17  18
ENDBRANCH  16  17
ENDBRANCH  15  16
ENDBRANCH  14  15
ENDBRANCH  13  14
ENDBRANCH  12  13
ENDBRANCH  11  12
ENDBRANCH   1  11
TORSDOF 15
ENDMDL
MODEL 7
REMARK VINA RESULT:    -4.338     12.717     15.313
REMARK INTER + INTRA:          -9.702
REMARK INTER:                  -7.788
REMARK INTRA:                  -1.914
REMARK UNBOUND:                -1.560
REMARK SMILES O=C([O-])CCCCCCCCCCCCCCC(=O)[O-]
REMARK SMILES IDX 10 1 9 2 8 3 7 4 6 5 5 6 4 7 2 8 1 9 3 10 11 11 12 12 13 13
REMARK SMILES IDX 14 14 15 15 16 16 17 17 18 18 19 19 20 20
REMARK H PARENT
REMARK Flexibility Score: inf
ROOT
ATOM      1  C   UNL     1       5.925   1.746  -9.171  1.00  0.00     0.000 C 
ENDROOT
BRANCH   1   2
ATOM      2  C   UNL     1       5.653   2.485 -10.486  1.00  0.00     0.000 C 
BRANCH   2   3
ATOM      3  C   UNL     1       4.280   3.170 -10.460  1.00  0.00     0.000 C 
BRANCH   3   4
ATOM      4  C   UNL     1       4.341   4.550 -11.122  1.00  0.00     0.000 C 
BRANCH   4   5
ATOM      5  C   UNL     1       5.589   5.325 -10.671  1.00  0.00     0.000 C 
BRANCH   5   6
ATOM      6  C   UNL     1       5.258   6.463  -9.693  1.00  0.00     0.006 C 
BRANCH   6   7
ATOM      7  C   UNL     1       6.473   7.342  -9.378  1.00  0.00     0.053 C 
BRANCH   7   8
ATOM      8  C   UNL     1       6.630   7.507  -7.898  1.00  0.00     0.041 C 
ATOM      9  O   UNL     1       5.814   8.213  -7.250  1.00  0.00    -0.550 OA
ATOM     10  O   UNL     1       7.707   6.923  -7.244  1.00  0.00    -0.550 OA
ENDBRANCH   7   8
ENDBRANCH   6   7
ENDBRANCH   5   6
ENDBRANCH   4   5
ENDBRANCH   3   4
ENDBRANCH   2   3
ENDBRANCH   1   2
BRANCH   1  11
ATOM     11  C   UNL     1       7.244   2.217  -8.539  1.00  0.00     0.000 C 
BRANCH  11  12
ATOM     12  C   UNL     1       7.165   3.663  -8.024  1.00  0.00     0.000 C 
BRANCH  12  13
ATOM     13  C   UNL     1       5.915   3.916  -7.161  1.00  0.00     0.000 C 
BRANCH  13  14
ATOM     14  C   UNL     1       6.071   3.399  -5.719  1.00  0.00     0.000 C 
BRANCH  14  15
ATOM     15  C   UNL     1       7.081   4.177  -4.856  1.00  0.00     0.000 C 
BRANCH  15  16
ATOM     16  C   UNL     1       8.109   3.267  -4.168  1.00  0.00     0.006 C 
BRANCH  16  17
ATOM     17  C   UNL     1       8.985   2.551  -5.200  1.00  0.00     0.053 C 
BRANCH  17  18
ATOM     18  C   UNL     1       8.858   1.069  -5.057  1.00  0.00     0.041 C 
ATOM     19  O   UNL     1       9.775   0.403  -4.507  1.00  0.00    -0.550 OA
ATOM     20  O   UNL     1       7.702   0.425  -5.483  1.00  0.00    -0.550 OA
ENDBRANCH  17  18
ENDBRANCH  16  17
ENDBRANCH  15  16
ENDBRANCH  14  15
ENDBRANCH  13  14
ENDBRANCH  12  13
ENDBRANCH  11  12
ENDBRANCH   1  11
TORSDOF 15
ENDMDL
MODEL 8
REMARK VINA RESULT:    -4.331     13.544     15.549
REMARK INTER + INTRA:          -9.690
REMARK INTER:                  -7.627
REMARK INTRA:                  -2.063
REMARK UNBOUND:                -1.560
REMARK SMILES O=C([O-])CCCCCCCCCCCCCCC(=O)[O-]
REMARK SMILES IDX 10 1 9 2 8 3 7 4 6 5 5 6 4 7 2 8 1 9 3 10 11 11 12 12 13 13
REMARK SMILES IDX 14 14 15 15 16 16 17 17 18 18 19 19 20 20
REMARK H PARENT
REMARK Flexibility Score: inf
ROOT
ATOM      1  C   UNL     1       7.920   5.577  -9.453  1.00  0.00     0.000 C 
ENDROOT
BRANCH   1   2
ATOM      2  C   UNL     1       8.697   4.293  -9.145  1.00  0.00     0.000 C 
BRANCH   2   3
ATOM      3  C   UNL     1       8.034   3.507  -8.006  1.00  0.00     0.000 C 
BRANCH   3   4
ATOM      4  C   UNL     1       6.763   4.210  -7.519  1.00  0.00     0.000 C 
BRANCH   4   5
ATOM      5  C   UNL     1       6.378   3.740  -6.108  1.00  0.00     0.000 C 
BRANCH   5   6
ATOM      6  C   UNL     1       7.117   4.513  -5.004  1.00  0.00     0.006 C 
BRANCH   6   7
ATOM      7  C   UNL     1       7.623   3.598  -3.882  1.00  0.00     0.053 C 
BRANCH   7   8
ATOM      8  C   UNL     1       8.738   2.731  -4.378  1.00  0.00     0.041 C 
ATOM      9  O   UNL     1       9.780   3.251  -4.855  1.00  0.00    -0.550 OA
ATOM     10  O   UNL     1       8.602   1.349  -4.364  1.00  0.00    -0.550 OA
ENDBRANCH   7   8
ENDBRANCH   6   7
ENDBRANCH   5   6
ENDBRANCH   4   5
ENDBRANCH   3   4
ENDBRANCH   2   3
ENDBRANCH   1   2
BRANCH   1  11
ATOM     11  C   UNL     1       7.276   5.509 -10.847  1.00  0.00     0.000 C 
BRANCH  11  12
ATOM     12  C   UNL     1       5.953   6.287 -10.922  1.00  0.00     0.000 C 
BRANCH  12  13
ATOM     13  C   UNL     1       4.849   5.658 -10.053  1.00  0.00     0.000 C 
BRANCH  13  14
ATOM     14  C   UNL     1       4.259   4.377 -10.670  1.00  0.00     0.000 C 
BRANCH  14  15
ATOM     15  C   UNL     1       3.963   3.249  -9.665  1.00  0.00     0.000 C 
BRANCH  15  16
ATOM     16  C   UNL     1       4.367   1.861 -10.184  1.00  0.00     0.006 C 
BRANCH  16  17
ATOM     17  C   UNL     1       5.889   1.743 -10.306  1.00  0.00     0.053 C 
BRANCH  17  18
ATOM     18  C   UNL     1       6.376   0.508  -9.619  1.00  0.00     0.041 C 
ATOM     19  O   UNL     1       5.554  -0.336  -9.174  1.00  0.00    -0.550 OA
ATOM     20  O   UNL     1       7.739   0.259  -9.517  1.00  0.00    -0.550 OA
ENDBRANCH  17  18
ENDBRANCH  16  17
ENDBRANCH  15  16
ENDBRANCH  14  15
ENDBRANCH  13  14
ENDBRANCH  12  13
ENDBRANCH  11  12
ENDBRANCH   1  11
TORSDOF 15
ENDMDL
MODEL 9
REMARK VINA RESULT:    -4.292     14.168     16.188
REMARK INTER + INTRA:          -9.617
REMARK INTER:                  -7.590
REMARK INTRA:                  -2.027
REMARK UNBOUND:                -1.560
REMARK SMILES O=C([O-])CCCCCCCCCCCCCCC(=O)[O-]
REMARK SMILES IDX 10 1 9 2 8 3 7 4 6 5 5 6 4 7 2 8 1 9 3 10 11 11 12 12 13 13
REMARK SMILES IDX 14 14 15 15 16 16 17 17 18 18 19 19 20 20
REMARK H PARENT
REMARK Flexibility Score: inf
ROOT
ATOM      1  C   UNL     1       3.719   3.628  -9.881  1.00  0.00     0.000 C 
ENDROOT
BRANCH   1   2
ATOM      2  C   UNL     1       3.722   2.259 -10.570  1.00  0.00     0.000 C 
BRANCH   2   3
ATOM      3  C   UNL     1       5.154   1.763 -10.806  1.00  0.00     0.000 C 
BRANCH   3   4
ATOM      4  C   UNL     1       5.598   0.812  -9.689  1.00  0.00     0.000 C 
BRANCH   4   5
ATOM      5  C   UNL     1       7.026   0.300  -9.935  1.00  0.00     0.000 C 
BRANCH   5   6
ATOM      6  C   UNL     1       7.994   1.420 -10.347  1.00  0.00     0.006 C 
BRANCH   6   7
ATOM      7  C   UNL     1       9.444   1.123  -9.944  1.00  0.00     0.053 C 
BRANCH   7   8
ATOM      8  C   UNL     1       9.629   1.327  -8.473  1.00  0.00     0.041 C 
ATOM      9  O   UNL     1       9.468   0.366  -7.676  1.00  0.00    -0.550 OA
ATOM     10  O   UNL     1       9.927   2.590  -7.978  1.00  0.00    -0.550 OA
ENDBRANCH   7   8
ENDBRANCH   6   7
ENDBRANCH   5   6
ENDBRANCH   4   5
ENDBRANCH   3   4
ENDBRANCH   2   3
ENDBRANCH   1   2
BRANCH   1  11
ATOM     11  C   UNL     1       4.738   4.574 -10.536  1.00  0.00     0.000 C 
BRANCH  11  12
ATOM     12  C   UNL     1       5.546   5.375  -9.502  1.00  0.00     0.000 C 
BRANCH  12  13
ATOM     13  C   UNL     1       6.856   4.673  -9.105  1.00  0.00     0.000 C 
BRANCH  13  14
ATOM     14  C   UNL     1       6.741   3.898  -7.780  1.00  0.00     0.000 C 
BRANCH  14  15
ATOM     15  C   UNL     1       6.906   4.754  -6.510  1.00  0.00     0.000 C 
BRANCH  15  16
ATOM     16  C   UNL     1       6.778   3.939  -5.215  1.00  0.00     0.006 C 
BRANCH  16  17
ATOM     17  C   UNL     1       7.229   2.491  -5.433  1.00  0.00     0.053 C 
BRANCH  17  18
ATOM     18  C   UNL     1       8.543   2.245  -4.765  1.00  0.00     0.041 C 
ATOM     19  O   UNL     1       8.823   1.103  -4.315  1.00  0.00    -0.550 OA
ATOM     20  O   UNL     1       9.486   3.264  -4.687  1.00  0.00    -0.550 OA
ENDBRANCH  17  18
ENDBRANCH  16  17
ENDBRANCH  15  16
ENDBRANCH  14  15
ENDBRANCH  13  14
ENDBRANCH  12  13
ENDBRANCH  11  12
ENDBRANCH   1  11
TORSDOF 15
ENDMDL
