MODEL 1
REMARK VINA RESULT:    -5.980      0.000      0.000
REMARK INTER + INTRA:          -6.364
REMARK INTER:                  -6.330
REMARK INTRA:                  -0.035
REMARK UNBOUND:                -0.035
REMARK SMILES COc1ccc2ccc(=O)oc2c1
REMARK SMILES IDX 3 1 13 2 12 3 6 4 5 5 4 6 7 7 8 8 9 9 10 10 11 11 2 12 1 13
REMARK H PARENT
REMARK Flexibility Score: inf
ROOT
ATOM      1  C   UNL     1       6.525   6.376  10.374  1.00  0.00     0.122 A 
ATOM      2  C   UNL     1       6.044   5.165   9.859  1.00  0.00     0.094 A 
ATOM      3  C   UNL     1       6.656   3.955  10.200  1.00  0.00     0.142 A 
ATOM      4  C   UNL     1       7.767   3.951  11.071  1.00  0.00     0.018 A 
ATOM      5  C   UNL     1       8.251   5.158  11.588  1.00  0.00     0.016 A 
ATOM      6  C   UNL     1       7.635   6.365  11.243  1.00  0.00     0.047 A 
ATOM      7  C   UNL     1       8.357   2.725  11.394  1.00  0.00     0.019 A 
ATOM      8  C   UNL     1       7.836   1.551  10.851  1.00  0.00     0.094 A 
ATOM      9  C   UNL     1       6.732   1.631   9.995  1.00  0.00     0.336 A 
ATOM     10  O   UNL     1       6.248   0.582   9.496  1.00  0.00    -0.246 OA
ATOM     11  O   UNL     1       6.190   2.810   9.704  1.00  0.00    -0.423 OA
ENDROOT
BRANCH   1  12
ATOM     12  O   UNL     1       5.875   7.562   9.999  1.00  0.00    -0.497 OA
ATOM     13  C   UNL     1       6.489   8.847   9.990  1.00  0.00     0.278 C 
ENDBRANCH   1  12
TORSDOF 1
ENDMDL
MODEL 2
REMARK VINA RESULT:    -5.668      1.510      2.186
REMARK INTER + INTRA:          -6.034
REMARK INTER:                  -6.000
REMARK INTRA:                  -0.034
REMARK UNBOUND:                -0.035
REMARK SMILES COc1ccc2ccc(=O)oc2c1
REMARK SMILES IDX 3 1 13 2 12 3 6 4 5 5 4 6 7 7 8 8 9 9 10 10 11 11 2 12 1 13
REMARK H PARENT
REMARK Flexibility Score: inf
ROOT
ATOM      1  C   UNL     1       7.384   6.322  10.997  1.00  0.00     0.122 A 
ATOM      2  C   UNL     1       8.128   5.222  11.444  1.00  0.00     0.094 A 
ATOM      3  C   UNL     1       7.789   3.926  11.045  1.00  0.00     0.142 A 
ATOM      4  C   UNL     1       6.689   3.721  10.184  1.00  0.00     0.018 A 
ATOM      5  C   UNL     1       5.943   4.817   9.734  1.00  0.00     0.016 A 
ATOM      6  C   UNL     1       6.287   6.111  10.137  1.00  0.00     0.047 A 
ATOM      7  C   UNL     1       6.375   2.413   9.803  1.00  0.00     0.019 A 
ATOM      8  C   UNL     1       7.150   1.357  10.280  1.00  0.00     0.094 A 
ATOM      9  C   UNL     1       8.226   1.635  11.130  1.00  0.00     0.336 A 
ATOM     10  O   UNL     1       8.937   0.694  11.570  1.00  0.00    -0.246 OA
ATOM     11  O   UNL     1       8.503   2.888  11.478  1.00  0.00    -0.423 OA
ENDROOT
BRANCH   1  12
ATOM     12  O   UNL     1       7.767   7.602  11.427  1.00  0.00    -0.497 OA
ATOM     13  C   UNL     1       7.540   8.799  10.690  1.00  0.00     0.278 C 
ENDBRANCH   1  12
TORSDOF 1
ENDMDL
MODEL 3
REMARK VINA RESULT:    -5.379      1.718      5.273
REMARK INTER + INTRA:          -5.728
REMARK INTER:                  -5.695
REMARK INTRA:                  -0.033
REMARK UNBOUND:                -0.035
REMARK SMILES COc1ccc2ccc(=O)oc2c1
REMARK SMILES IDX 3 1 13 2 12 3 6 4 5 5 4 6 7 7 8 8 9 9 10 10 11 11 2 12 1 13
REMARK H PARENT
REMARK Flexibility Score: inf
ROOT
ATOM      1  C   UNL     1       8.095   1.621  11.075  1.00  0.00     0.122 A 
ATOM      2  C   UNL     1       8.408   2.921  11.494  1.00  0.00     0.094 A 
ATOM      3  C   UNL     1       7.677   4.016  11.021  1.00  0.00     0.142 A 
ATOM      4  C   UNL     1       6.616   3.811  10.113  1.00  0.00     0.018 A 
ATOM      5  C   UNL     1       6.299   2.515   9.691  1.00  0.00     0.016 A 
ATOM      6  C   UNL     1       7.033   1.425  10.168  1.00  0.00     0.047 A 
ATOM      7  C   UNL     1       5.904   4.926   9.657  1.00  0.00     0.019 A 
ATOM      8  C   UNL     1       6.261   6.196  10.109  1.00  0.00     0.094 A 
ATOM      9  C   UNL     1       7.324   6.323  11.009  1.00  0.00     0.336 A 
ATOM     10  O   UNL     1       7.660   7.462  11.427  1.00  0.00    -0.246 OA
ATOM     11  O   UNL     1       7.985   5.246  11.426  1.00  0.00    -0.423 OA
ENDROOT
BRANCH   1  12
ATOM     12  O   UNL     1       8.858   0.558  11.580  1.00  0.00    -0.497 OA
ATOM     13  C   UNL     1      10.049   0.065  10.974  1.00  0.00     0.278 C 
ENDBRANCH   1  12
TORSDOF 1
ENDMDL
MODEL 4
REMARK VINA RESULT:    -4.991      0.869      5.101
REMARK INTER + INTRA:          -5.317
REMARK INTER:                  -5.282
REMARK INTRA:                  -0.035
REMARK UNBOUND:                -0.035
REMARK SMILES COc1ccc2ccc(=O)oc2c1
REMARK SMILES IDX 3 1 13 2 12 3 6 4 5 5 4 6 7 7 8 8 9 9 10 10 11 11 2 12 1 13
REMARK H PARENT
REMARK Flexibility Score: inf
ROOT
ATOM      1  C   UNL     1       6.603   4.017  10.322  1.00  0.00     0.122 A 
ATOM      2  C   UNL     1       6.033   5.193   9.816  1.00  0.00     0.094 A 
ATOM      3  C   UNL     1       6.543   6.443  10.178  1.00  0.00     0.142 A 
ATOM      4  C   UNL     1       7.641   6.524  11.060  1.00  0.00     0.018 A 
ATOM      5  C   UNL     1       8.215   5.353  11.569  1.00  0.00     0.016 A 
ATOM      6  C   UNL     1       7.700   4.106  11.203  1.00  0.00     0.047 A 
ATOM      7  C   UNL     1       8.129   7.789  11.404  1.00  0.00     0.019 A 
ATOM      8  C   UNL     1       7.521   8.925  10.870  1.00  0.00     0.094 A 
ATOM      9  C   UNL     1       6.437   8.768  10.000  1.00  0.00     0.336 A 
ATOM     10  O   UNL     1       5.875   9.782   9.508  1.00  0.00    -0.246 OA
ATOM     11  O   UNL     1       5.992   7.553   9.690  1.00  0.00    -0.423 OA
ENDROOT
BRANCH   1  12
ATOM     12  O   UNL     1       6.054   2.788   9.926  1.00  0.00    -0.497 OA
ATOM     13  C   UNL     1       6.746   1.545   9.977  1.00  0.00     0.278 C 
ENDBRANCH   1  12
TORSDOF 1
ENDMDL
MODEL 5
REMARK VINA RESULT:    -4.917     10.548     12.333
REMARK INTER + INTRA:          -5.239
REMARK INTER:                  -5.206
REMARK INTRA:                  -0.033
REMARK UNBOUND:                -0.035
REMARK SMILES COc1ccc2ccc(=O)oc2c1
REMARK SMILES IDX 3 1 13 2 12 3 6 4 5 5 4 6 7 7 8 8 9 9 10 10 11 11 2 12 1 13
REMARK H PARENT
REMARK Flexibility Score: inf
ROOT
ATOM      1  C   UNL     1      10.114  -2.109  18.239  1.00  0.00     0.122 A 
ATOM      2  C   UNL     1       9.061  -3.031  18.313  1.00  0.00     0.094 A 
ATOM      3  C   UNL     1       9.247  -4.274  18.926  1.00  0.00     0.142 A 
ATOM      4  C   UNL     1      10.505  -4.605  19.474  1.00  0.00     0.018 A 
ATOM      5  C   UNL     1      11.560  -3.688  19.403  1.00  0.00     0.016 A 
ATOM      6  C   UNL     1      11.367  -2.447  18.789  1.00  0.00     0.047 A 
ATOM      7  C   UNL     1      10.660  -5.856  20.080  1.00  0.00     0.019 A 
ATOM      8  C   UNL     1       9.577  -6.733  20.125  1.00  0.00     0.094 A 
ATOM      9  C   UNL     1       8.360  -6.338  19.560  1.00  0.00     0.336 A 
ATOM     10  O   UNL     1       7.371  -7.116  19.591  1.00  0.00    -0.246 OA
ATOM     11  O   UNL     1       8.239  -5.142  18.989  1.00  0.00    -0.423 OA
ENDROOT
BRANCH   1  12
ATOM     12  O   UNL     1       9.874  -0.876  17.614  1.00  0.00    -0.497 OA
ATOM     13  C   UNL     1       9.525   0.320  18.304  1.00  0.00     0.278 C 
ENDBRANCH   1  12
TORSDOF 1
ENDMDL
MODEL 6
REMARK VINA RESULT:    -4.758     10.968     12.603
REMARK INTER + INTRA:          -5.071
REMARK INTER:                  -5.036
REMARK INTRA:                  -0.035
REMARK UNBOUND:                -0.035
REMARK SMILES COc1ccc2ccc(=O)oc2c1
REMARK SMILES IDX 3 1 13 2 12 3 6 4 5 5 4 6 7 7 8 8 9 9 10 10 11 11 2 12 1 13
REMARK H PARENT
REMARK Flexibility Score: inf
ROOT
ATOM      1  C   UNL     1      11.498  -1.988  18.676  1.00  0.00     0.122 A 
ATOM      2  C   UNL     1      11.630  -3.311  19.118  1.00  0.00     0.094 A 
ATOM      3  C   UNL     1      10.512  -4.148  19.201  1.00  0.00     0.142 A 
ATOM      4  C   UNL     1       9.240  -3.657  18.836  1.00  0.00     0.018 A 
ATOM      5  C   UNL     1       9.103  -2.336  18.394  1.00  0.00     0.016 A 
ATOM      6  C   UNL     1      10.225  -1.505  18.314  1.00  0.00     0.047 A 
ATOM      7  C   UNL     1       8.142  -4.517  18.929  1.00  0.00     0.019 A 
ATOM      8  C   UNL     1       8.333  -5.824  19.376  1.00  0.00     0.094 A 
ATOM      9  C   UNL     1       9.623  -6.242  19.720  1.00  0.00     0.336 A 
ATOM     10  O   UNL     1       9.814  -7.418  20.125  1.00  0.00    -0.246 OA
ATOM     11  O   UNL     1      10.650  -5.403  19.622  1.00  0.00    -0.423 OA
ENDROOT
BRANCH   1  12
ATOM     12  O   UNL     1      12.651  -1.191  18.612  1.00  0.00    -0.497 OA
ATOM     13  C   UNL     1      13.390  -0.754  19.748  1.00  0.00     0.278 C 
ENDBRANCH   1  12
TORSDOF 1
ENDMDL
MODEL 7
REMARK VINA RESULT:    -4.742     10.316     12.111
REMARK INTER + INTRA:          -5.054
REMARK INTER:                  -5.021
REMARK INTRA:                  -0.033
REMARK UNBOUND:                -0.035
REMARK SMILES COc1ccc2ccc(=O)oc2c1
REMARK SMILES IDX 3 1 13 2 12 3 6 4 5 5 4 6 7 7 8 8 9 9 10 10 11 11 2 12 1 13
REMARK H PARENT
REMARK Flexibility Score: inf
ROOT
ATOM      1  C   UNL     1       9.148  -1.867  18.049  1.00  0.00     0.122 A 
ATOM      2  C   UNL     1       9.922  -2.974  18.419  1.00  0.00     0.094 A 
ATOM      3  C   UNL     1       9.319  -4.117  18.954  1.00  0.00     0.142 A 
ATOM      4  C   UNL     1       7.918  -4.156  19.123  1.00  0.00     0.018 A 
ATOM      5  C   UNL     1       7.140  -3.052  18.755  1.00  0.00     0.016 A 
ATOM      6  C   UNL     1       7.750  -1.913  18.221  1.00  0.00     0.047 A 
ATOM      7  C   UNL     1       7.344  -5.312  19.661  1.00  0.00     0.019 A 
ATOM      8  C   UNL     1       8.164  -6.384  20.011  1.00  0.00     0.094 A 
ATOM      9  C   UNL     1       9.545  -6.274  19.815  1.00  0.00     0.336 A 
ATOM     10  O   UNL     1      10.301  -7.232  20.125  1.00  0.00    -0.246 OA
ATOM     11  O   UNL     1      10.065  -5.163  19.302  1.00  0.00    -0.423 OA
ENDROOT
BRANCH   1  12
ATOM     12  O   UNL     1       9.804  -0.746  17.517  1.00  0.00    -0.497 OA
ATOM     13  C   UNL     1      10.098   0.437  18.252  1.00  0.00     0.278 C 
ENDBRANCH   1  12
TORSDOF 1
ENDMDL
MODEL 8
REMARK VINA RESULT:    -4.399     10.038     11.495
REMARK INTER + INTRA:          -4.690
REMARK INTER:                  -4.657
REMARK INTRA:                  -0.034
REMARK UNBOUND:                -0.035
REMARK SMILES COc1ccc2ccc(=O)oc2c1
REMARK SMILES IDX 3 1 13 2 12 3 6 4 5 5 4 6 7 7 8 8 9 9 10 10 11 11 2 12 1 13
REMARK H PARENT
REMARK Flexibility Score: inf
ROOT
ATOM      1  C   UNL     1      11.054   0.707  18.577  1.00  0.00     0.122 A 
ATOM      2  C   UNL     1      12.248   0.350  19.217  1.00  0.00     0.094 A 
ATOM      3  C   UNL     1      12.832  -0.900  18.988  1.00  0.00     0.142 A 
ATOM      4  C   UNL     1      12.214  -1.811  18.105  1.00  0.00     0.018 A 
ATOM      5  C   UNL     1      11.021  -1.459  17.462  1.00  0.00     0.016 A 
ATOM      6  C   UNL     1      10.443  -0.208  17.695  1.00  0.00     0.047 A 
ATOM      7  C   UNL     1      12.822  -3.054  17.896  1.00  0.00     0.019 A 
ATOM      8  C   UNL     1      14.009  -3.354  18.562  1.00  0.00     0.094 A 
ATOM      9  C   UNL     1      14.565  -2.402  19.423  1.00  0.00     0.336 A 
ATOM     10  O   UNL     1      15.637  -2.655  20.032  1.00  0.00    -0.246 OA
ATOM     11  O   UNL     1      13.966  -1.228  19.604  1.00  0.00    -0.423 OA
ENDROOT
BRANCH   1  12
ATOM     12  O   UNL     1      10.511   1.973  18.841  1.00  0.00    -0.497 OA
ATOM     13  C   UNL     1       9.116   2.258  18.877  1.00  0.00     0.278 C 
ENDBRANCH   1  12
TORSDOF 1
ENDMDL
