MODEL 1
REMARK VINA RESULT:    -6.419      0.000      0.000
REMARK INTER + INTRA:         -10.721
REMARK INTER:                  -9.984
REMARK INTRA:                  -0.737
REMARK UNBOUND:                -0.737
REMARK SMILES COc1cc(CNC(=O)CCCCC=CC(C)C)ccc1O
REMARK SMILES IDX 11 1 12 2 13 3 14 4 15 5 16 6 17 7 18 8 10 9 8 10 9 11 7 12
REMARK SMILES IDX 6 14 5 15 4 16 19 17 3 18 20 19 21 20 2 21 1 22 22 23
REMARK H PARENT 7 13 22 24
REMARK Flexibility Score: inf
ROOT
ATOM      1  C   UNL     1      33.081  52.908  76.265  1.00  0.00     0.010 C 
ENDROOT
BRANCH   1   2
ATOM      2  C   UNL     1      33.948  52.021  75.358  1.00  0.00     0.005 C 
BRANCH   2   3
ATOM      3  C   UNL     1      34.515  50.828  76.135  1.00  0.00     0.027 C 
BRANCH   3   4
ATOM      4  C   UNL     1      35.276  49.905  75.225  1.00  0.00    -0.031 C 
ATOM      5  C   UNL     1      35.793  50.336  74.061  1.00  0.00    -0.028 C 
BRANCH   5   6
ATOM      6  C   UNL     1      36.558  49.435  73.119  1.00  0.00     0.005 C 
ATOM      7  C   UNL     1      37.166  48.239  73.860  1.00  0.00     0.012 C 
ATOM      8  C   UNL     1      37.628  50.213  72.347  1.00  0.00     0.012 C 
ENDBRANCH   5   6
ENDBRANCH   3   4
ENDBRANCH   2   3
ENDBRANCH   1   2
BRANCH   1   9
ATOM      9  C   UNL     1      33.828  53.356  77.529  1.00  0.00     0.100 C 
BRANCH   9  10
ATOM     10  C   UNL     1      34.308  54.775  77.416  1.00  0.00     0.220 C 
ATOM     11  O   UNL     1      33.672  55.588  76.693  1.00  0.00    -0.275 OA
ATOM     12  N   UNL     1      35.508  55.183  78.087  1.00  0.00    -0.352 N 
ATOM     13  H   UNL     1      36.023  54.491  78.676  1.00  0.00     0.163 HD
BRANCH  12  14
ATOM     14  C   UNL     1      36.077  56.520  77.932  1.00  0.00     0.151 C 
BRANCH  14  15
ATOM     15  C   UNL     1      35.511  57.455  78.968  1.00  0.00    -0.025 A 
ATOM     16  C   UNL     1      34.913  58.662  78.572  1.00  0.00     0.056 A 
ATOM     17  C   UNL     1      35.583  57.136  80.331  1.00  0.00     0.009 A 
ATOM     18  C   UNL     1      34.384  59.550  79.530  1.00  0.00     0.160 A 
ATOM     19  C   UNL     1      35.059  58.009  81.286  1.00  0.00     0.050 A 
ATOM     20  C   UNL     1      34.460  59.211  80.894  1.00  0.00     0.157 A 
BRANCH  18  21
ATOM     21  O   UNL     1      33.780  60.764  79.164  1.00  0.00    -0.493 OA
ATOM     22  C   UNL     1      32.390  60.927  78.900  1.00  0.00     0.278 C 
ENDBRANCH  18  21
BRANCH  20  23
ATOM     23  O   UNL     1      33.948  60.059  81.876  1.00  0.00    -0.504 OA
ATOM     24  H   UNL     1      33.114  60.612  81.730  1.00  0.00     0.293 HD
ENDBRANCH  20  23
ENDBRANCH  14  15
ENDBRANCH  12  14
ENDBRANCH   9  10
ENDBRANCH   1   9
TORSDOF 10
ENDMDL
MODEL 2
REMARK VINA RESULT:    -6.341      3.319      6.273
REMARK INTER + INTRA:         -10.600
REMARK INTER:                  -8.551
REMARK INTRA:                  -2.049
REMARK UNBOUND:                -0.737
REMARK SMILES COc1cc(CNC(=O)CCCCC=CC(C)C)ccc1O
REMARK SMILES IDX 11 1 12 2 13 3 14 4 15 5 16 6 17 7 18 8 10 9 8 10 9 11 7 12
REMARK SMILES IDX 6 14 5 15 4 16 19 17 3 18 20 19 21 20 2 21 1 22 22 23
REMARK H PARENT 7 13 22 24
REMARK Flexibility Score: inf
ROOT
ATOM      1  C   UNL     1      36.900  47.894  74.347  1.00  0.00     0.010 C 
ENDROOT
BRANCH   1   2
ATOM      2  C   UNL     1      36.435  48.082  75.799  1.00  0.00     0.005 C 
BRANCH   2   3
ATOM      3  C   UNL     1      34.954  48.473  75.857  1.00  0.00     0.027 C 
BRANCH   3   4
ATOM      4  C   UNL     1      34.642  49.218  77.123  1.00  0.00    -0.031 C 
ATOM      5  C   UNL     1      35.526  50.072  77.671  1.00  0.00    -0.028 C 
BRANCH   5   6
ATOM      6  C   UNL     1      35.249  50.832  78.948  1.00  0.00     0.005 C 
ATOM      7  C   UNL     1      35.743  50.061  80.176  1.00  0.00     0.012 C 
ATOM      8  C   UNL     1      33.763  51.187  79.075  1.00  0.00     0.012 C 
ENDBRANCH   5   6
ENDBRANCH   3   4
ENDBRANCH   2   3
ENDBRANCH   1   2
BRANCH   1   9
ATOM      9  C   UNL     1      38.070  48.818  73.985  1.00  0.00     0.100 C 
BRANCH   9  10
ATOM     10  C   UNL     1      37.610  50.226  73.738  1.00  0.00     0.220 C 
ATOM     11  O   UNL     1      37.315  50.584  72.565  1.00  0.00    -0.275 OA
ATOM     12  N   UNL     1      37.555  51.165  74.820  1.00  0.00    -0.352 N 
ATOM     13  H   UNL     1      37.810  50.849  75.782  1.00  0.00     0.163 HD
BRANCH  12  14
ATOM     14  C   UNL     1      37.213  52.572  74.621  1.00  0.00     0.151 C 
BRANCH  14  15
ATOM     15  C   UNL     1      35.857  52.870  75.205  1.00  0.00    -0.025 A 
ATOM     16  C   UNL     1      35.705  53.919  76.125  1.00  0.00     0.056 A 
ATOM     17  C   UNL     1      34.742  52.101  74.847  1.00  0.00     0.009 A 
ATOM     18  C   UNL     1      34.443  54.207  76.685  1.00  0.00     0.160 A 
ATOM     19  C   UNL     1      33.489  52.380  75.395  1.00  0.00     0.050 A 
ATOM     20  C   UNL     1      33.333  53.427  76.309  1.00  0.00     0.157 A 
BRANCH  18  21
ATOM     21  O   UNL     1      34.260  55.250  77.606  1.00  0.00    -0.493 OA
ATOM     22  C   UNL     1      34.724  55.228  78.953  1.00  0.00     0.278 C 
ENDBRANCH  18  21
BRANCH  20  23
ATOM     23  O   UNL     1      32.066  53.677  76.836  1.00  0.00    -0.504 OA
ATOM     24  H   UNL     1      31.510  52.952  77.270  1.00  0.00     0.293 HD
ENDBRANCH  20  23
ENDBRANCH  14  15
ENDBRANCH  12  14
ENDBRANCH   9  10
ENDBRANCH   1   9
TORSDOF 10
ENDMDL
MODEL 3
REMARK VINA RESULT:    -6.297      2.269      3.948
REMARK INTER + INTRA:         -10.531
REMARK INTER:                  -9.707
REMARK INTRA:                  -0.824
REMARK UNBOUND:                -0.737
REMARK SMILES COc1cc(CNC(=O)CCCCC=CC(C)C)ccc1O
REMARK SMILES IDX 11 1 12 2 13 3 14 4 15 5 16 6 17 7 18 8 10 9 8 10 9 11 7 12
REMARK SMILES IDX 6 14 5 15 4 16 19 17 3 18 20 19 21 20 2 21 1 22 22 23
REMARK H PARENT 7 13 22 24
REMARK Flexibility Score: inf
ROOT
ATOM      1  C   UNL     1      37.153  50.004  75.580  1.00  0.00     0.010 C 
ENDROOT
BRANCH   1   2
ATOM      2  C   UNL     1      36.291  50.060  74.309  1.00  0.00     0.005 C 
BRANCH   2   3
ATOM      3  C   UNL     1      37.011  49.404  73.127  1.00  0.00     0.027 C 
BRANCH   3   4
ATOM      4  C   UNL     1      37.836  50.408  72.373  1.00  0.00    -0.031 C 
ATOM      5  C   UNL     1      37.539  51.720  72.397  1.00  0.00    -0.028 C 
BRANCH   5   6
ATOM      6  C   UNL     1      38.343  52.757  71.645  1.00  0.00     0.005 C 
ATOM      7  C   UNL     1      38.410  54.078  72.419  1.00  0.00     0.012 C 
ATOM      8  C   UNL     1      37.796  52.968  70.230  1.00  0.00     0.012 C 
ENDBRANCH   5   6
ENDBRANCH   3   4
ENDBRANCH   2   3
ENDBRANCH   1   2
BRANCH   1   9
ATOM      9  C   UNL     1      37.502  51.401  76.111  1.00  0.00     0.100 C 
BRANCH   9  10
ATOM     10  C   UNL     1      36.356  52.010  76.867  1.00  0.00     0.220 C 
ATOM     11  O   UNL     1      35.696  51.297  77.672  1.00  0.00    -0.275 OA
ATOM     12  N   UNL     1      35.987  53.376  76.636  1.00  0.00    -0.352 N 
ATOM     13  H   UNL     1      36.544  53.947  75.960  1.00  0.00     0.163 HD
BRANCH  12  14
ATOM     14  C   UNL     1      34.821  53.992  77.266  1.00  0.00     0.151 C 
BRANCH  14  15
ATOM     15  C   UNL     1      35.121  55.418  77.645  1.00  0.00    -0.025 A 
ATOM     16  C   UNL     1      35.126  55.799  78.996  1.00  0.00     0.056 A 
ATOM     17  C   UNL     1      35.385  56.377  76.658  1.00  0.00     0.009 A 
ATOM     18  C   UNL     1      35.399  57.131  79.366  1.00  0.00     0.160 A 
ATOM     19  C   UNL     1      35.658  57.698  77.016  1.00  0.00     0.050 A 
ATOM     20  C   UNL     1      35.668  58.080  78.361  1.00  0.00     0.157 A 
BRANCH  18  21
ATOM     21  O   UNL     1      35.412  57.542  80.708  1.00  0.00    -0.493 OA
ATOM     22  C   UNL     1      36.193  56.933  81.731  1.00  0.00     0.278 C 
ENDBRANCH  18  21
BRANCH  20  23
ATOM     23  O   UNL     1      35.944  59.409  78.681  1.00  0.00    -0.504 OA
ATOM     24  H   UNL     1      36.177  59.701  79.621  1.00  0.00     0.293 HD
ENDBRANCH  20  23
ENDBRANCH  14  15
ENDBRANCH  12  14
ENDBRANCH   9  10
ENDBRANCH   1   9
TORSDOF 10
ENDMDL
MODEL 4
REMARK VINA RESULT:    -6.190      1.285      2.191
REMARK INTER + INTRA:         -10.364
REMARK INTER:                  -9.768
REMARK INTRA:                  -0.596
REMARK UNBOUND:                -0.737
REMARK SMILES COc1cc(CNC(=O)CCCCC=CC(C)C)ccc1O
REMARK SMILES IDX 11 1 12 2 13 3 14 4 15 5 16 6 17 7 18 8 10 9 8 10 9 11 7 12
REMARK SMILES IDX 6 14 5 15 4 16 19 17 3 18 20 19 21 20 2 21 1 22 22 23
REMARK H PARENT 7 13 22 24
REMARK Flexibility Score: inf
ROOT
ATOM      1  C   UNL     1      35.506  52.981  75.828  1.00  0.00     0.010 C 
ENDROOT
BRANCH   1   2
ATOM      2  C   UNL     1      34.328  52.081  75.425  1.00  0.00     0.005 C 
BRANCH   2   3
ATOM      3  C   UNL     1      34.465  50.685  76.042  1.00  0.00     0.027 C 
BRANCH   3   4
ATOM      4  C   UNL     1      35.467  49.858  75.286  1.00  0.00    -0.031 C 
ATOM      5  C   UNL     1      35.740  50.098  73.991  1.00  0.00    -0.028 C 
BRANCH   5   6
ATOM      6  C   UNL     1      36.736  49.282  73.198  1.00  0.00     0.005 C 
ATOM      7  C   UNL     1      37.583  48.392  74.114  1.00  0.00     0.012 C 
ATOM      8  C   UNL     1      37.618  50.177  72.321  1.00  0.00     0.012 C 
ENDBRANCH   5   6
ENDBRANCH   3   4
ENDBRANCH   2   3
ENDBRANCH   1   2
BRANCH   1   9
ATOM      9  C   UNL     1      35.248  53.725  77.146  1.00  0.00     0.100 C 
BRANCH   9  10
ATOM     10  C   UNL     1      34.776  55.130  76.906  1.00  0.00     0.220 C 
ATOM     11  O   UNL     1      33.603  55.326  76.487  1.00  0.00    -0.275 OA
ATOM     12  N   UNL     1      35.670  56.233  77.106  1.00  0.00    -0.352 N 
ATOM     13  H   UNL     1      36.639  56.047  77.448  1.00  0.00     0.163 HD
BRANCH  12  14
ATOM     14  C   UNL     1      35.298  57.611  76.793  1.00  0.00     0.151 C 
BRANCH  14  15
ATOM     15  C   UNL     1      35.283  58.448  78.044  1.00  0.00    -0.025 A 
ATOM     16  C   UNL     1      35.274  57.827  79.304  1.00  0.00     0.056 A 
ATOM     17  C   UNL     1      35.267  59.847  77.966  1.00  0.00     0.009 A 
ATOM     18  C   UNL     1      35.254  58.597  80.484  1.00  0.00     0.160 A 
ATOM     19  C   UNL     1      35.249  60.617  79.131  1.00  0.00     0.050 A 
ATOM     20  C   UNL     1      35.243  60.001  80.387  1.00  0.00     0.157 A 
BRANCH  18  21
ATOM     21  O   UNL     1      35.245  58.004  81.757  1.00  0.00    -0.493 OA
ATOM     22  C   UNL     1      36.020  56.867  82.123  1.00  0.00     0.278 C 
ENDBRANCH  18  21
BRANCH  20  23
ATOM     23  O   UNL     1      35.225  60.802  81.528  1.00  0.00    -0.504 OA
ATOM     24  H   UNL     1      34.593  60.629  82.299  1.00  0.00     0.293 HD
ENDBRANCH  20  23
ENDBRANCH  14  15
ENDBRANCH  12  14
ENDBRANCH   9  10
ENDBRANCH   1   9
TORSDOF 10
ENDMDL
MODEL 5
REMARK VINA RESULT:    -6.181      1.605      2.258
REMARK INTER + INTRA:         -10.350
REMARK INTER:                  -9.708
REMARK INTRA:                  -0.643
REMARK UNBOUND:                -0.737
REMARK SMILES COc1cc(CNC(=O)CCCCC=CC(C)C)ccc1O
REMARK SMILES IDX 11 1 12 2 13 3 14 4 15 5 16 6 17 7 18 8 10 9 8 10 9 11 7 12
REMARK SMILES IDX 6 14 5 15 4 16 19 17 3 18 20 19 21 20 2 21 1 22 22 23
REMARK H PARENT 7 13 22 24
REMARK Flexibility Score: inf
ROOT
ATOM      1  C   UNL     1      36.080  51.997  76.332  1.00  0.00     0.010 C 
ENDROOT
BRANCH   1   2
ATOM      2  C   UNL     1      35.252  51.266  75.263  1.00  0.00     0.005 C 
BRANCH   2   3
ATOM      3  C   UNL     1      36.150  50.733  74.141  1.00  0.00     0.027 C 
BRANCH   3   4
ATOM      4  C   UNL     1      36.876  51.854  73.453  1.00  0.00    -0.031 C 
ATOM      5  C   UNL     1      37.631  51.637  72.362  1.00  0.00    -0.028 C 
BRANCH   5   6
ATOM      6  C   UNL     1      38.381  52.739  71.649  1.00  0.00     0.005 C 
ATOM      7  C   UNL     1      38.392  54.030  72.475  1.00  0.00     0.012 C 
ATOM      8  C   UNL     1      37.815  52.981  70.246  1.00  0.00     0.012 C 
ENDBRANCH   5   6
ENDBRANCH   3   4
ENDBRANCH   2   3
ENDBRANCH   1   2
BRANCH   1   9
ATOM      9  C   UNL     1      35.226  52.945  77.184  1.00  0.00     0.100 C 
BRANCH   9  10
ATOM     10  C   UNL     1      35.528  54.385  76.884  1.00  0.00     0.220 C 
ATOM     11  O   UNL     1      35.721  54.742  75.690  1.00  0.00    -0.275 OA
ATOM     12  N   UNL     1      35.645  55.333  77.954  1.00  0.00    -0.352 N 
ATOM     13  H   UNL     1      35.488  55.014  78.936  1.00  0.00     0.163 HD
BRANCH  12  14
ATOM     14  C   UNL     1      36.036  56.723  77.731  1.00  0.00     0.151 C 
BRANCH  14  15
ATOM     15  C   UNL     1      35.470  57.607  78.809  1.00  0.00    -0.025 A 
ATOM     16  C   UNL     1      34.826  58.807  78.467  1.00  0.00     0.056 A 
ATOM     17  C   UNL     1      35.588  57.250  80.160  1.00  0.00     0.009 A 
ATOM     18  C   UNL     1      34.295  59.648  79.466  1.00  0.00     0.160 A 
ATOM     19  C   UNL     1      35.064  58.077  81.155  1.00  0.00     0.050 A 
ATOM     20  C   UNL     1      34.418  59.271  80.817  1.00  0.00     0.157 A 
BRANCH  18  21
ATOM     21  O   UNL     1      33.646  60.853  79.155  1.00  0.00    -0.493 OA
ATOM     22  C   UNL     1      32.266  60.963  78.820  1.00  0.00     0.278 C 
ENDBRANCH  18  21
BRANCH  20  23
ATOM     23  O   UNL     1      33.908  60.071  81.838  1.00  0.00    -0.504 OA
ATOM     24  H   UNL     1      32.923  60.291  81.910  1.00  0.00     0.293 HD
ENDBRANCH  20  23
ENDBRANCH  14  15
ENDBRANCH  12  14
ENDBRANCH   9  10
ENDBRANCH   1   9
TORSDOF 10
ENDMDL
MODEL 6
REMARK VINA RESULT:    -6.111      3.177      5.916
REMARK INTER + INTRA:         -10.242
REMARK INTER:                  -9.054
REMARK INTRA:                  -1.188
REMARK UNBOUND:                -0.737
REMARK SMILES COc1cc(CNC(=O)CCCCC=CC(C)C)ccc1O
REMARK SMILES IDX 11 1 12 2 13 3 14 4 15 5 16 6 17 7 18 8 10 9 8 10 9 11 7 12
REMARK SMILES IDX 6 14 5 15 4 16 19 17 3 18 20 19 21 20 2 21 1 22 22 23
REMARK H PARENT 7 13 22 24
REMARK Flexibility Score: inf
ROOT
ATOM      1  C   UNL     1      37.281  48.330  74.519  1.00  0.00     0.010 C 
ENDROOT
BRANCH   1   2
ATOM      2  C   UNL     1      36.870  49.061  73.232  1.00  0.00     0.005 C 
BRANCH   2   3
ATOM      3  C   UNL     1      36.080  50.335  73.551  1.00  0.00     0.027 C 
BRANCH   3   4
ATOM      4  C   UNL     1      36.833  51.560  73.113  1.00  0.00    -0.031 C 
ATOM      5  C   UNL     1      37.621  51.547  72.023  1.00  0.00    -0.028 C 
BRANCH   5   6
ATOM      6  C   UNL     1      38.398  52.758  71.559  1.00  0.00     0.005 C 
ATOM      7  C   UNL     1      38.341  53.888  72.592  1.00  0.00     0.012 C 
ATOM      8  C   UNL     1      37.916  53.236  70.185  1.00  0.00     0.012 C 
ENDBRANCH   5   6
ENDBRANCH   3   4
ENDBRANCH   2   3
ENDBRANCH   1   2
BRANCH   1   9
ATOM      9  C   UNL     1      38.391  49.068  75.280  1.00  0.00     0.100 C 
BRANCH   9  10
ATOM     10  C   UNL     1      37.829  50.000  76.315  1.00  0.00     0.220 C 
ATOM     11  O   UNL     1      38.387  51.113  76.514  1.00  0.00    -0.275 OA
ATOM     12  N   UNL     1      36.699  49.602  77.103  1.00  0.00    -0.352 N 
ATOM     13  H   UNL     1      36.257  48.672  76.926  1.00  0.00     0.163 HD
BRANCH  12  14
ATOM     14  C   UNL     1      36.174  50.423  78.192  1.00  0.00     0.151 C 
BRANCH  14  15
ATOM     15  C   UNL     1      35.197  51.438  77.659  1.00  0.00    -0.025 A 
ATOM     16  C   UNL     1      35.207  52.751  78.157  1.00  0.00     0.056 A 
ATOM     17  C   UNL     1      34.265  51.082  76.675  1.00  0.00     0.009 A 
ATOM     18  C   UNL     1      34.295  53.710  77.673  1.00  0.00     0.160 A 
ATOM     19  C   UNL     1      33.360  52.027  76.189  1.00  0.00     0.050 A 
ATOM     20  C   UNL     1      33.370  53.336  76.680  1.00  0.00     0.157 A 
BRANCH  18  21
ATOM     21  O   UNL     1      34.283  55.030  78.150  1.00  0.00    -0.493 OA
ATOM     22  C   UNL     1      35.449  55.797  78.435  1.00  0.00     0.278 C 
ENDBRANCH  18  21
BRANCH  20  23
ATOM     23  O   UNL     1      32.450  54.253  76.171  1.00  0.00    -0.504 OA
ATOM     24  H   UNL     1      31.584  53.963  75.735  1.00  0.00     0.293 HD
ENDBRANCH  20  23
ENDBRANCH  14  15
ENDBRANCH  12  14
ENDBRANCH   9  10
ENDBRANCH   1   9
TORSDOF 10
ENDMDL
MODEL 7
REMARK VINA RESULT:    -6.048      3.149      9.669
REMARK INTER + INTRA:         -10.144
REMARK INTER:                  -9.384
REMARK INTRA:                  -0.759
REMARK UNBOUND:                -0.737
REMARK SMILES COc1cc(CNC(=O)CCCCC=CC(C)C)ccc1O
REMARK SMILES IDX 11 1 12 2 13 3 14 4 15 5 16 6 17 7 18 8 10 9 8 10 9 11 7 12
REMARK SMILES IDX 6 14 5 15 4 16 19 17 3 18 20 19 21 20 2 21 1 22 22 23
REMARK H PARENT 7 13 22 24
REMARK Flexibility Score: inf
ROOT
ATOM      1  C   UNL     1      34.289  55.806  76.890  1.00  0.00     0.010 C 
ENDROOT
BRANCH   1   2
ATOM      2  C   UNL     1      34.949  57.112  76.419  1.00  0.00     0.005 C 
BRANCH   2   3
ATOM      3  C   UNL     1      36.075  57.533  77.370  1.00  0.00     0.027 C 
BRANCH   3   4
ATOM      4  C   UNL     1      35.742  58.825  78.060  1.00  0.00    -0.031 C 
ATOM      5  C   UNL     1      34.499  59.086  78.501  1.00  0.00    -0.028 C 
BRANCH   5   6
ATOM      6  C   UNL     1      34.127  60.378  79.193  1.00  0.00     0.005 C 
ATOM      7  C   UNL     1      32.634  60.687  79.033  1.00  0.00     0.012 C 
ATOM      8  C   UNL     1      34.991  61.543  78.700  1.00  0.00     0.012 C 
ENDBRANCH   5   6
ENDBRANCH   3   4
ENDBRANCH   2   3
ENDBRANCH   1   2
BRANCH   1   9
ATOM      9  C   UNL     1      35.317  54.782  77.391  1.00  0.00     0.100 C 
BRANCH   9  10
ATOM     10  C   UNL     1      35.098  53.429  76.775  1.00  0.00     0.220 C 
ATOM     11  O   UNL     1      34.720  53.350  75.575  1.00  0.00    -0.275 OA
ATOM     12  N   UNL     1      35.269  52.244  77.564  1.00  0.00    -0.352 N 
ATOM     13  H   UNL     1      35.576  52.334  78.558  1.00  0.00     0.163 HD
BRANCH  12  14
ATOM     14  C   UNL     1      34.973  50.909  77.048  1.00  0.00     0.151 C 
BRANCH  14  15
ATOM     15  C   UNL     1      36.197  50.310  76.408  1.00  0.00    -0.025 A 
ATOM     16  C   UNL     1      36.237  50.114  75.018  1.00  0.00     0.056 A 
ATOM     17  C   UNL     1      37.298  49.934  77.189  1.00  0.00     0.009 A 
ATOM     18  C   UNL     1      37.374  49.549  74.405  1.00  0.00     0.160 A 
ATOM     19  C   UNL     1      38.428  49.375  76.590  1.00  0.00     0.050 A 
ATOM     20  C   UNL     1      38.473  49.182  75.205  1.00  0.00     0.157 A 
BRANCH  18  21
ATOM     21  O   UNL     1      37.444  49.342  73.019  1.00  0.00    -0.493 OA
ATOM     22  C   UNL     1      37.749  50.355  72.065  1.00  0.00     0.278 C 
ENDBRANCH  18  21
BRANCH  20  23
ATOM     23  O   UNL     1      39.618  48.621  74.641  1.00  0.00    -0.504 OA
ATOM     24  H   UNL     1      40.171  49.106  73.947  1.00  0.00     0.293 HD
ENDBRANCH  20  23
ENDBRANCH  14  15
ENDBRANCH  12  14
ENDBRANCH   9  10
ENDBRANCH   1   9
TORSDOF 10
ENDMDL
MODEL 8
REMARK VINA RESULT:    -6.038      2.840      4.961
REMARK INTER + INTRA:         -10.128
REMARK INTER:                  -9.437
REMARK INTRA:                  -0.691
REMARK UNBOUND:                -0.737
REMARK SMILES COc1cc(CNC(=O)CCCCC=CC(C)C)ccc1O
REMARK SMILES IDX 11 1 12 2 13 3 14 4 15 5 16 6 17 7 18 8 10 9 8 10 9 11 7 12
REMARK SMILES IDX 6 14 5 15 4 16 19 17 3 18 20 19 21 20 2 21 1 22 22 23
REMARK H PARENT 7 13 22 24
REMARK Flexibility Score: inf
ROOT
ATOM      1  C   UNL     1      33.822  53.044  76.257  1.00  0.00     0.010 C 
ENDROOT
BRANCH   1   2
ATOM      2  C   UNL     1      33.568  51.819  77.149  1.00  0.00     0.005 C 
BRANCH   2   3
ATOM      3  C   UNL     1      33.007  52.239  78.513  1.00  0.00     0.027 C 
BRANCH   3   4
ATOM      4  C   UNL     1      32.107  51.175  79.075  1.00  0.00    -0.031 C 
ATOM      5  C   UNL     1      30.945  51.486  79.678  1.00  0.00    -0.028 C 
BRANCH   5   6
ATOM      6  C   UNL     1      30.019  50.443  80.261  1.00  0.00     0.005 C 
ATOM      7  C   UNL     1      29.326  50.957  81.527  1.00  0.00     0.012 C 
ATOM      8  C   UNL     1      30.757  49.127  80.526  1.00  0.00     0.012 C 
ENDBRANCH   5   6
ENDBRANCH   3   4
ENDBRANCH   2   3
ENDBRANCH   1   2
BRANCH   1   9
ATOM      9  C   UNL     1      33.467  54.361  76.960  1.00  0.00     0.100 C 
BRANCH   9  10
ATOM     10  C   UNL     1      34.593  55.352  76.883  1.00  0.00     0.220 C 
ATOM     11  O   UNL     1      35.782  54.948  77.003  1.00  0.00    -0.275 OA
ATOM     12  N   UNL     1      34.313  56.749  76.725  1.00  0.00    -0.352 N 
ATOM     13  H   UNL     1      33.320  57.062  76.635  1.00  0.00     0.163 HD
BRANCH  12  14
ATOM     14  C   UNL     1      35.361  57.767  76.745  1.00  0.00     0.151 C 
BRANCH  14  15
ATOM     15  C   UNL     1      35.313  58.544  78.034  1.00  0.00    -0.025 A 
ATOM     16  C   UNL     1      35.275  57.865  79.262  1.00  0.00     0.056 A 
ATOM     17  C   UNL     1      35.294  59.946  78.021  1.00  0.00     0.009 A 
ATOM     18  C   UNL     1      35.224  58.579  80.477  1.00  0.00     0.160 A 
ATOM     19  C   UNL     1      35.245  60.660  79.220  1.00  0.00     0.050 A 
ATOM     20  C   UNL     1      35.212  59.986  80.445  1.00  0.00     0.157 A 
BRANCH  18  21
ATOM     21  O   UNL     1      35.187  57.927  81.720  1.00  0.00    -0.493 OA
ATOM     22  C   UNL     1      36.092  56.904  82.123  1.00  0.00     0.278 C 
ENDBRANCH  18  21
BRANCH  20  23
ATOM     23  O   UNL     1      35.163  60.733  81.622  1.00  0.00    -0.504 OA
ATOM     24  H   UNL     1      35.830  61.466  81.824  1.00  0.00     0.293 HD
ENDBRANCH  20  23
ENDBRANCH  14  15
ENDBRANCH  12  14
ENDBRANCH   9  10
ENDBRANCH   1   9
TORSDOF 10
ENDMDL
MODEL 9
REMARK VINA RESULT:    -5.993      3.227      9.576
REMARK INTER + INTRA:         -10.058
REMARK INTER:                  -9.303
REMARK INTRA:                  -0.755
REMARK UNBOUND:                -0.737
REMARK SMILES COc1cc(CNC(=O)CCCCC=CC(C)C)ccc1O
REMARK SMILES IDX 11 1 12 2 13 3 14 4 15 5 16 6 17 7 18 8 10 9 8 10 9 11 7 12
REMARK SMILES IDX 6 14 5 15 4 16 19 17 3 18 20 19 21 20 2 21 1 22 22 23
REMARK H PARENT 7 13 22 24
REMARK Flexibility Score: inf
ROOT
ATOM      1  C   UNL     1      34.821  55.198  78.196  1.00  0.00     0.010 C 
ENDROOT
BRANCH   1   2
ATOM      2  C   UNL     1      36.037  56.131  78.089  1.00  0.00     0.005 C 
BRANCH   2   3
ATOM      3  C   UNL     1      35.803  57.222  77.038  1.00  0.00     0.027 C 
BRANCH   3   4
ATOM      4  C   UNL     1      35.097  58.405  77.638  1.00  0.00    -0.031 C 
ATOM      5  C   UNL     1      35.387  58.843  78.876  1.00  0.00    -0.028 C 
BRANCH   5   6
ATOM      6  C   UNL     1      34.691  60.024  79.513  1.00  0.00     0.005 C 
ATOM      7  C   UNL     1      35.043  61.332  78.796  1.00  0.00     0.012 C 
ATOM      8  C   UNL     1      34.998  60.111  81.012  1.00  0.00     0.012 C 
ENDBRANCH   5   6
ENDBRANCH   3   4
ENDBRANCH   2   3
ENDBRANCH   1   2
BRANCH   1   9
ATOM      9  C   UNL     1      34.487  54.521  76.860  1.00  0.00     0.100 C 
BRANCH   9  10
ATOM     10  C   UNL     1      34.946  53.091  76.832  1.00  0.00     0.220 C 
ATOM     11  O   UNL     1      34.092  52.165  76.893  1.00  0.00    -0.275 OA
ATOM     12  N   UNL     1      36.346  52.786  76.789  1.00  0.00    -0.352 N 
ATOM     13  H   UNL     1      37.037  53.568  76.746  1.00  0.00     0.163 HD
BRANCH  12  14
ATOM     14  C   UNL     1      36.854  51.417  76.862  1.00  0.00     0.151 C 
BRANCH  14  15
ATOM     15  C   UNL     1      36.834  50.776  75.500  1.00  0.00    -0.025 A 
ATOM     16  C   UNL     1      37.202  51.521  74.369  1.00  0.00     0.056 A 
ATOM     17  C   UNL     1      36.441  49.439  75.347  1.00  0.00     0.009 A 
ATOM     18  C   UNL     1      37.183  50.937  73.086  1.00  0.00     0.160 A 
ATOM     19  C   UNL     1      36.422  48.853  74.080  1.00  0.00     0.050 A 
ATOM     20  C   UNL     1      36.791  49.592  72.951  1.00  0.00     0.157 A 
BRANCH  18  21
ATOM     21  O   UNL     1      37.545  51.657  71.937  1.00  0.00    -0.493 OA
ATOM     22  C   UNL     1      38.205  52.919  71.949  1.00  0.00     0.278 C 
ENDBRANCH  18  21
BRANCH  20  23
ATOM     23  O   UNL     1      36.759  48.972  71.702  1.00  0.00    -0.504 OA
ATOM     24  H   UNL     1      37.420  49.199  70.971  1.00  0.00     0.293 HD
ENDBRANCH  20  23
ENDBRANCH  14  15
ENDBRANCH  12  14
ENDBRANCH   9  10
ENDBRANCH   1   9
TORSDOF 10
ENDMDL
