MODEL 1
REMARK VINA RESULT:    -4.166      0.000      0.000
REMARK INTER + INTRA:          -4.166
REMARK INTER:                  -4.166
REMARK INTRA:                   0.000
REMARK UNBOUND:                 0.000
REMARK SMILES CC(C)=C1CC[C@H](C)CC1=O
REMARK SMILES IDX 8 1 7 2 6 3 5 4 4 5 2 6 1 7 3 8 10 9 11 10 9 11
REMARK H PARENT
REMARK Flexibility Score: inf
ROOT
ATOM      1  C   UNL     1     151.629 152.588 166.729  1.00  0.00     0.008 C 
ATOM      2  C   UNL     1     150.350 152.642 167.572  1.00  0.00    -0.006 C 
ATOM      3  C   UNL     1     149.189 153.230 166.756  1.00  0.00     0.008 C 
ATOM      4  C   UNL     1     147.927 153.388 167.614  1.00  0.00     0.039 C 
ATOM      5  C   UNL     1     147.544 152.100 168.331  1.00  0.00    -0.006 C 
ATOM      6  C   UNL     1     146.238 151.795 168.593  1.00  0.00    -0.070 C 
ATOM      7  C   UNL     1     145.120 152.732 168.197  1.00  0.00     0.039 C 
ATOM      8  C   UNL     1     145.842 150.494 169.252  1.00  0.00     0.039 C 
ATOM      9  C   UNL     1     148.677 151.264 168.826  1.00  0.00     0.159 C 
ATOM     10  O   UNL     1     148.570 150.572 169.874  1.00  0.00    -0.295 OA
ATOM     11  C   UNL     1     149.978 151.241 168.077  1.00  0.00     0.084 C 
ENDROOT
TORSDOF 0
ENDMDL
MODEL 2
REMARK VINA RESULT:    -4.083      1.758      4.363
REMARK INTER + INTRA:          -4.083
REMARK INTER:                  -4.083
REMARK INTRA:                   0.000
REMARK UNBOUND:                 0.000
REMARK SMILES CC(C)=C1CC[C@H](C)CC1=O
REMARK SMILES IDX 8 1 7 2 6 3 5 4 4 5 2 6 1 7 3 8 10 9 11 10 9 11
REMARK H PARENT
REMARK Flexibility Score: inf
ROOT
ATOM      1  C   UNL     1     143.906 153.609 166.109  1.00  0.00     0.008 C 
ATOM      2  C   UNL     1     145.050 153.396 167.106  1.00  0.00    -0.006 C 
ATOM      3  C   UNL     1     144.993 151.981 167.701  1.00  0.00     0.008 C 
ATOM      4  C   UNL     1     146.069 151.784 168.776  1.00  0.00     0.039 C 
ATOM      5  C   UNL     1     147.461 152.156 168.284  1.00  0.00    -0.006 C 
ATOM      6  C   UNL     1     148.574 151.514 168.749  1.00  0.00    -0.070 C 
ATOM      7  C   UNL     1     148.470 150.418 169.787  1.00  0.00     0.039 C 
ATOM      8  C   UNL     1     149.955 151.834 168.227  1.00  0.00     0.039 C 
ATOM      9  C   UNL     1     147.540 153.328 167.363  1.00  0.00     0.159 C 
ATOM     10  O   UNL     1     148.544 154.090 167.358  1.00  0.00    -0.295 OA
ATOM     11  C   UNL     1     146.407 153.624 166.424  1.00  0.00     0.084 C 
ENDROOT
TORSDOF 0
ENDMDL
MODEL 3
REMARK VINA RESULT:    -3.957      1.858      2.855
REMARK INTER + INTRA:          -3.957
REMARK INTER:                  -3.957
REMARK INTRA:                   0.000
REMARK UNBOUND:                 0.000
REMARK SMILES CC(C)=C1CC[C@H](C)CC1=O
REMARK SMILES IDX 8 1 7 2 6 3 5 4 4 5 2 6 1 7 3 8 10 9 11 10 9 11
REMARK H PARENT
REMARK Flexibility Score: inf
ROOT
ATOM      1  C   UNL     1     150.631 151.609 168.892  1.00  0.00     0.008 C 
ATOM      2  C   UNL     1     149.153 151.432 168.524  1.00  0.00    -0.006 C 
ATOM      3  C   UNL     1     148.422 150.616 169.601  1.00  0.00     0.008 C 
ATOM      4  C   UNL     1     146.967 150.341 169.200  1.00  0.00     0.039 C 
ATOM      5  C   UNL     1     146.217 151.610 168.819  1.00  0.00    -0.006 C 
ATOM      6  C   UNL     1     144.876 151.739 169.049  1.00  0.00    -0.070 C 
ATOM      7  C   UNL     1     144.077 150.618 169.675  1.00  0.00     0.039 C 
ATOM      8  C   UNL     1     144.132 153.014 168.729  1.00  0.00     0.039 C 
ATOM      9  C   UNL     1     147.006 152.642 168.084  1.00  0.00     0.159 C 
ATOM     10  O   UNL     1     146.465 153.392 167.227  1.00  0.00    -0.295 OA
ATOM     11  C   UNL     1     148.474 152.799 168.352  1.00  0.00     0.084 C 
ENDROOT
TORSDOF 0
ENDMDL
MODEL 4
REMARK VINA RESULT:    -3.939      2.206      4.301
REMARK INTER + INTRA:          -3.939
REMARK INTER:                  -3.939
REMARK INTRA:                   0.000
REMARK UNBOUND:                 0.000
REMARK SMILES CC(C)=C1CC[C@H](C)CC1=O
REMARK SMILES IDX 8 1 7 2 6 3 5 4 4 5 2 6 1 7 3 8 10 9 11 10 9 11
REMARK H PARENT
REMARK Flexibility Score: inf
ROOT
ATOM      1  C   UNL     1     148.864 150.753 169.739  1.00  0.00     0.008 C 
ATOM      2  C   UNL     1     149.099 151.378 168.359  1.00  0.00    -0.006 C 
ATOM      3  C   UNL     1     148.059 152.474 168.078  1.00  0.00     0.008 C 
ATOM      4  C   UNL     1     148.214 153.040 166.661  1.00  0.00     0.039 C 
ATOM      5  C   UNL     1     149.637 153.496 166.367  1.00  0.00    -0.006 C 
ATOM      6  C   UNL     1     149.888 154.543 165.527  1.00  0.00    -0.070 C 
ATOM      7  C   UNL     1     148.763 155.282 164.837  1.00  0.00     0.039 C 
ATOM      8  C   UNL     1     151.292 155.041 165.272  1.00  0.00     0.039 C 
ATOM      9  C   UNL     1     150.727 152.663 166.956  1.00  0.00     0.159 C 
ATOM     10  O   UNL     1     151.834 152.523 166.370  1.00  0.00    -0.295 OA
ATOM     11  C   UNL     1     150.515 151.965 168.268  1.00  0.00     0.084 C 
ENDROOT
TORSDOF 0
ENDMDL
MODEL 5
REMARK VINA RESULT:    -3.937      2.080      4.584
REMARK INTER + INTRA:          -3.937
REMARK INTER:                  -3.937
REMARK INTRA:                   0.000
REMARK UNBOUND:                 0.000
REMARK SMILES CC(C)=C1CC[C@H](C)CC1=O
REMARK SMILES IDX 8 1 7 2 6 3 5 4 4 5 2 6 1 7 3 8 10 9 11 10 9 11
REMARK H PARENT
REMARK Flexibility Score: inf
ROOT
ATOM      1  C   UNL     1     144.634 153.563 166.259  1.00  0.00     0.008 C 
ATOM      2  C   UNL     1     146.035 153.595 166.880  1.00  0.00    -0.006 C 
ATOM      3  C   UNL     1     146.284 152.330 167.716  1.00  0.00     0.008 C 
ATOM      4  C   UNL     1     147.641 152.391 168.429  1.00  0.00     0.039 C 
ATOM      5  C   UNL     1     148.788 152.697 167.475  1.00  0.00    -0.006 C 
ATOM      6  C   UNL     1     150.042 152.198 167.689  1.00  0.00    -0.070 C 
ATOM      7  C   UNL     1     150.347 151.336 168.894  1.00  0.00     0.039 C 
ATOM      8  C   UNL     1     151.174 152.448 166.721  1.00  0.00     0.039 C 
ATOM      9  C   UNL     1     148.486 153.658 166.374  1.00  0.00     0.159 C 
ATOM     10  O   UNL     1     149.370 154.434 165.921  1.00  0.00    -0.295 OA
ATOM     11  C   UNL     1     147.106 153.720 165.787  1.00  0.00     0.084 C 
ENDROOT
TORSDOF 0
ENDMDL
MODEL 6
REMARK VINA RESULT:    -3.865      1.281      4.071
REMARK INTER + INTRA:          -3.865
REMARK INTER:                  -3.865
REMARK INTRA:                   0.000
REMARK UNBOUND:                 0.000
REMARK SMILES CC(C)=C1CC[C@H](C)CC1=O
REMARK SMILES IDX 8 1 7 2 6 3 5 4 4 5 2 6 1 7 3 8 10 9 11 10 9 11
REMARK H PARENT
REMARK Flexibility Score: inf
ROOT
ATOM      1  C   UNL     1     144.848 153.707 166.837  1.00  0.00     0.008 C 
ATOM      2  C   UNL     1     146.161 152.917 166.820  1.00  0.00    -0.006 C 
ATOM      3  C   UNL     1     147.218 153.642 165.972  1.00  0.00     0.008 C 
ATOM      4  C   UNL     1     148.505 152.816 165.860  1.00  0.00     0.039 C 
ATOM      5  C   UNL     1     149.042 152.383 167.217  1.00  0.00    -0.006 C 
ATOM      6  C   UNL     1     150.382 152.235 167.437  1.00  0.00    -0.070 C 
ATOM      7  C   UNL     1     151.388 152.477 166.334  1.00  0.00     0.039 C 
ATOM      8  C   UNL     1     150.930 151.861 168.794  1.00  0.00     0.039 C 
ATOM      9  C   UNL     1     148.018 152.023 168.242  1.00  0.00     0.159 C 
ATOM     10  O   UNL     1     148.244 151.137 169.110  1.00  0.00    -0.295 OA
ATOM     11  C   UNL     1     146.685 152.713 168.249  1.00  0.00     0.084 C 
ENDROOT
TORSDOF 0
ENDMDL
MODEL 7
REMARK VINA RESULT:    -3.820      1.639      4.608
REMARK INTER + INTRA:          -3.820
REMARK INTER:                  -3.820
REMARK INTRA:                   0.000
REMARK UNBOUND:                 0.000
REMARK SMILES CC(C)=C1CC[C@H](C)CC1=O
REMARK SMILES IDX 8 1 7 2 6 3 5 4 4 5 2 6 1 7 3 8 10 9 11 10 9 11
REMARK H PARENT
REMARK Flexibility Score: inf
ROOT
ATOM      1  C   UNL     1     144.907 149.887 169.429  1.00  0.00     0.008 C 
ATOM      2  C   UNL     1     146.069 150.874 169.275  1.00  0.00    -0.006 C 
ATOM      3  C   UNL     1     147.416 150.149 169.417  1.00  0.00     0.008 C 
ATOM      4  C   UNL     1     148.589 151.138 169.369  1.00  0.00     0.039 C 
ATOM      5  C   UNL     1     148.538 152.044 168.146  1.00  0.00    -0.006 C 
ATOM      6  C   UNL     1     149.681 152.504 167.556  1.00  0.00    -0.070 C 
ATOM      7  C   UNL     1     151.045 152.148 168.104  1.00  0.00     0.039 C 
ATOM      8  C   UNL     1     149.645 153.357 166.309  1.00  0.00     0.039 C 
ATOM      9  C   UNL     1     147.180 152.484 167.712  1.00  0.00     0.159 C 
ATOM     10  O   UNL     1     146.996 153.611 167.179  1.00  0.00    -0.295 OA
ATOM     11  C   UNL     1     145.996 151.584 167.916  1.00  0.00     0.084 C 
ENDROOT
TORSDOF 0
ENDMDL
MODEL 8
REMARK VINA RESULT:    -3.768      8.835     10.585
REMARK INTER + INTRA:          -3.768
REMARK INTER:                  -3.768
REMARK INTRA:                   0.000
REMARK UNBOUND:                 0.000
REMARK SMILES CC(C)=C1CC[C@H](C)CC1=O
REMARK SMILES IDX 8 1 7 2 6 3 5 4 4 5 2 6 1 7 3 8 10 9 11 10 9 11
REMARK H PARENT
REMARK Flexibility Score: inf
ROOT
ATOM      1  C   UNL     1     144.915 161.967 162.165  1.00  0.00     0.008 C 
ATOM      2  C   UNL     1     146.306 161.343 162.326  1.00  0.00    -0.006 C 
ATOM      3  C   UNL     1     146.305 160.306 163.461  1.00  0.00     0.008 C 
ATOM      4  C   UNL     1     147.712 159.746 163.705  1.00  0.00     0.039 C 
ATOM      5  C   UNL     1     148.359 159.218 162.433  1.00  0.00    -0.006 C 
ATOM      6  C   UNL     1     149.231 158.166 162.463  1.00  0.00    -0.070 C 
ATOM      7  C   UNL     1     149.604 157.495 163.765  1.00  0.00     0.039 C 
ATOM      8  C   UNL     1     149.836 157.597 161.201  1.00  0.00     0.039 C 
ATOM      9  C   UNL     1     148.075 159.986 161.185  1.00  0.00     0.159 C 
ATOM     10  O   UNL     1     148.927 160.073 160.261  1.00  0.00    -0.295 OA
ATOM     11  C   UNL     1     146.756 160.683 161.015  1.00  0.00     0.084 C 
ENDROOT
TORSDOF 0
ENDMDL
MODEL 9
REMARK VINA RESULT:    -3.729      2.005      4.058
REMARK INTER + INTRA:          -3.729
REMARK INTER:                  -3.729
REMARK INTRA:                   0.000
REMARK UNBOUND:                 0.000
REMARK SMILES CC(C)=C1CC[C@H](C)CC1=O
REMARK SMILES IDX 8 1 7 2 6 3 5 4 4 5 2 6 1 7 3 8 10 9 11 10 9 11
REMARK H PARENT
REMARK Flexibility Score: inf
ROOT
ATOM      1  C   UNL     1     148.495 150.362 169.892  1.00  0.00     0.008 C 
ATOM      2  C   UNL     1     148.602 151.582 168.970  1.00  0.00    -0.006 C 
ATOM      3  C   UNL     1     149.758 151.406 167.973  1.00  0.00     0.008 C 
ATOM      4  C   UNL     1     149.946 152.660 167.109  1.00  0.00     0.039 C 
ATOM      5  C   UNL     1     148.655 153.101 166.434  1.00  0.00    -0.006 C 
ATOM      6  C   UNL     1     148.665 153.712 165.212  1.00  0.00    -0.070 C 
ATOM      7  C   UNL     1     149.963 153.992 164.487  1.00  0.00     0.039 C 
ATOM      8  C   UNL     1     147.388 154.103 164.506  1.00  0.00     0.039 C 
ATOM      9  C   UNL     1     147.405 152.932 167.233  1.00  0.00     0.159 C 
ATOM     10  O   UNL     1     146.438 153.731 167.113  1.00  0.00    -0.295 OA
ATOM     11  C   UNL     1     147.285 151.799 168.210  1.00  0.00     0.084 C 
ENDROOT
TORSDOF 0
ENDMDL
