MODEL 1
REMARK VINA RESULT:    -2.606      0.000      0.000
REMARK INTER + INTRA:          -8.884
REMARK INTER:                  -6.566
REMARK INTRA:                  -2.318
REMARK UNBOUND:                -2.318
REMARK SMILES CCCCCCCCCCCCCCCCCCCCCCCCCCCC(=O)[O-]
REMARK SMILES IDX 15 1 16 2 17 3 18 4 19 5 20 6 21 7 22 8 23 9 24 10 25 11
REMARK SMILES IDX 26 12 27 13 28 14 29 15 30 16 14 17 13 18 12 19 11 20 10 21
REMARK SMILES IDX 9 22 8 23 7 24 6 25 5 26 4 27 3 28 2 29 1 30
REMARK H PARENT
REMARK Flexibility Score: inf
ROOT
ATOM      1  C   UNL     1      26.216  37.921  31.587  1.00  0.00     0.000 C 
ENDROOT
BRANCH   1   2
ATOM      2  C   UNL     1      24.983  38.695  31.082  1.00  0.00     0.000 C 
BRANCH   2   3
ATOM      3  C   UNL     1      24.875  38.822  29.552  1.00  0.00     0.000 C 
BRANCH   3   4
ATOM      4  C   UNL     1      26.240  39.002  28.870  1.00  0.00     0.000 C 
BRANCH   4   5
ATOM      5  C   UNL     1      26.522  37.862  27.884  1.00  0.00     0.000 C 
BRANCH   5   6
ATOM      6  C   UNL     1      25.229  37.391  27.207  1.00  0.00     0.000 C 
BRANCH   6   7
ATOM      7  C   UNL     1      24.909  38.246  25.971  1.00  0.00     0.000 C 
BRANCH   7   8
ATOM      8  C   UNL     1      26.176  38.778  25.280  1.00  0.00     0.000 C 
BRANCH   8   9
ATOM      9  C   UNL     1      26.120  40.294  25.038  1.00  0.00     0.000 C 
BRANCH   9  10
ATOM     10  C   UNL     1      25.388  41.049  26.161  1.00  0.00     0.000 C 
BRANCH  10  11
ATOM     11  C   UNL     1      26.264  42.044  26.943  1.00  0.00     0.000 C 
BRANCH  11  12
ATOM     12  C   UNL     1      27.753  41.939  26.581  1.00  0.00     0.006 C 
BRANCH  12  13
ATOM     13  C   UNL     1      28.330  43.312  26.219  1.00  0.00     0.053 C 
BRANCH  13  14
ATOM     14  C   UNL     1      29.806  43.349  26.462  1.00  0.00     0.041 C 
ATOM     15  O   UNL     1      30.512  44.257  25.944  1.00  0.00    -0.550 OA
ATOM     16  O   UNL     1      30.404  42.395  27.274  1.00  0.00    -0.550 OA
ENDBRANCH  13  14
ENDBRANCH  12  13
ENDBRANCH  11  12
ENDBRANCH  10  11
ENDBRANCH   9  10
ENDBRANCH   8   9
ENDBRANCH   7   8
ENDBRANCH   6   7
ENDBRANCH   5   6
ENDBRANCH   4   5
ENDBRANCH   3   4
ENDBRANCH   2   3
ENDBRANCH   1   2
BRANCH   1  17
ATOM     17  C   UNL     1      26.172  37.650  33.102  1.00  0.00     0.000 C 
BRANCH  17  18
ATOM     18  C   UNL     1      24.921  38.244  33.781  1.00  0.00     0.000 C 
BRANCH  18  19
ATOM     19  C   UNL     1      24.885  38.077  35.312  1.00  0.00     0.000 C 
BRANCH  19  20
ATOM     20  C   UNL     1      25.907  37.048  35.825  1.00  0.00     0.000 C 
BRANCH  20  21
ATOM     21  C   UNL     1      26.825  37.618  36.917  1.00  0.00     0.000 C 
BRANCH  21  22
ATOM     22  C   UNL     1      26.204  37.543  38.322  1.00  0.00    -0.000 C 
BRANCH  22  23
ATOM     23  C   UNL     1      24.898  38.348  38.419  1.00  0.00    -0.000 C 
BRANCH  23  24
ATOM     24  C   UNL     1      24.981  39.492  39.446  1.00  0.00    -0.000 C 
BRANCH  24  25
ATOM     25  C   UNL     1      26.087  40.502  39.089  1.00  0.00    -0.000 C 
BRANCH  25  26
ATOM     26  C   UNL     1      26.215  41.632  40.128  1.00  0.00    -0.000 C 
BRANCH  26  27
ATOM     27  C   UNL     1      27.094  41.220  41.326  1.00  0.00    -0.000 C 
BRANCH  27  28
ATOM     28  C   UNL     1      28.229  40.263  40.922  1.00  0.00    -0.000 C 
BRANCH  28  29
ATOM     29  C   UNL     1      28.227  38.943  41.722  1.00  0.00    -0.003 C 
ATOM     30  C   UNL     1      28.940  37.810  40.976  1.00  0.00     0.004 C 
ENDBRANCH  28  29
ENDBRANCH  27  28
ENDBRANCH  26  27
ENDBRANCH  25  26
ENDBRANCH  24  25
ENDBRANCH  23  24
ENDBRANCH  22  23
ENDBRANCH  21  22
ENDBRANCH  20  21
ENDBRANCH  19  20
ENDBRANCH  18  19
ENDBRANCH  17  18
ENDBRANCH   1  17
TORSDOF 26
ENDMDL
MODEL 2
REMARK VINA RESULT:    -2.324      2.932      4.500
REMARK INTER + INTRA:          -8.175
REMARK INTER:                  -6.514
REMARK INTRA:                  -1.661
REMARK UNBOUND:                -2.318
REMARK SMILES CCCCCCCCCCCCCCCCCCCCCCCCCCCC(=O)[O-]
REMARK SMILES IDX 15 1 16 2 17 3 18 4 19 5 20 6 21 7 22 8 23 9 24 10 25 11
REMARK SMILES IDX 26 12 27 13 28 14 29 15 30 16 14 17 13 18 12 19 11 20 10 21
REMARK SMILES IDX 9 22 8 23 7 24 6 25 5 26 4 27 3 28 2 29 1 30
REMARK H PARENT
REMARK Flexibility Score: inf
ROOT
ATOM      1  C   UNL     1      31.790  38.144  33.242  1.00  0.00     0.000 C 
ENDROOT
BRANCH   1   2
ATOM      2  C   UNL     1      30.784  36.996  33.444  1.00  0.00     0.000 C 
BRANCH   2   3
ATOM      3  C   UNL     1      29.690  36.890  32.365  1.00  0.00     0.000 C 
BRANCH   3   4
ATOM      4  C   UNL     1      28.271  36.875  32.954  1.00  0.00     0.000 C 
BRANCH   4   5
ATOM      5  C   UNL     1      27.306  37.701  32.095  1.00  0.00     0.000 C 
BRANCH   5   6
ATOM      6  C   UNL     1      27.053  37.019  30.745  1.00  0.00     0.000 C 
BRANCH   6   7
ATOM      7  C   UNL     1      25.727  37.491  30.128  1.00  0.00     0.000 C 
BRANCH   7   8
ATOM      8  C   UNL     1      25.763  38.975  29.724  1.00  0.00     0.000 C 
BRANCH   8   9
ATOM      9  C   UNL     1      25.946  39.166  28.211  1.00  0.00     0.000 C 
BRANCH   9  10
ATOM     10  C   UNL     1      25.669  40.610  27.756  1.00  0.00     0.000 C 
BRANCH  10  11
ATOM     11  C   UNL     1      26.618  41.133  26.662  1.00  0.00     0.000 C 
BRANCH  11  12
ATOM     12  C   UNL     1      27.175  42.530  26.975  1.00  0.00     0.006 C 
BRANCH  12  13
ATOM     13  C   UNL     1      28.665  42.462  27.328  1.00  0.00     0.053 C 
BRANCH  13  14
ATOM     14  C   UNL     1      29.456  43.408  26.480  1.00  0.00     0.041 C 
ATOM     15  O   UNL     1      29.649  44.594  26.863  1.00  0.00    -0.550 OA
ATOM     16  O   UNL     1      29.997  42.979  25.276  1.00  0.00    -0.550 OA
ENDBRANCH  13  14
ENDBRANCH  12  13
ENDBRANCH  11  12
ENDBRANCH  10  11
ENDBRANCH   9  10
ENDBRANCH   8   9
ENDBRANCH   7   8
ENDBRANCH   6   7
ENDBRANCH   5   6
ENDBRANCH   4   5
ENDBRANCH   3   4
ENDBRANCH   2   3
ENDBRANCH   1   2
BRANCH   1  17
ATOM     17  C   UNL     1      32.261  38.765  34.571  1.00  0.00     0.000 C 
BRANCH  17  18
ATOM     18  C   UNL     1      33.303  37.895  35.303  1.00  0.00     0.000 C 
BRANCH  18  19
ATOM     19  C   UNL     1      33.024  37.691  36.804  1.00  0.00     0.000 C 
BRANCH  19  20
ATOM     20  C   UNL     1      31.635  37.086  37.077  1.00  0.00     0.000 C 
BRANCH  20  21
ATOM     21  C   UNL     1      31.148  37.343  38.511  1.00  0.00     0.000 C 
BRANCH  21  22
ATOM     22  C   UNL     1      29.640  37.098  38.685  1.00  0.00    -0.000 C 
BRANCH  22  23
ATOM     23  C   UNL     1      28.922  36.940  37.334  1.00  0.00    -0.000 C 
BRANCH  23  24
ATOM     24  C   UNL     1      27.522  37.580  37.328  1.00  0.00    -0.000 C 
BRANCH  24  25
ATOM     25  C   UNL     1      27.103  38.054  38.733  1.00  0.00    -0.000 C 
BRANCH  25  26
ATOM     26  C   UNL     1      25.605  37.828  39.012  1.00  0.00    -0.000 C 
BRANCH  26  27
ATOM     27  C   UNL     1      24.956  39.047  39.698  1.00  0.00    -0.000 C 
BRANCH  27  28
ATOM     28  C   UNL     1      25.825  40.313  39.597  1.00  0.00    -0.000 C 
BRANCH  28  29
ATOM     29  C   UNL     1      25.849  41.140  40.899  1.00  0.00    -0.003 C 
ATOM     30  C   UNL     1      24.978  42.397  40.806  1.00  0.00     0.004 C 
ENDBRANCH  28  29
ENDBRANCH  27  28
ENDBRANCH  26  27
ENDBRANCH  25  26
ENDBRANCH  24  25
ENDBRANCH  23  24
ENDBRANCH  22  23
ENDBRANCH  21  22
ENDBRANCH  20  21
ENDBRANCH  19  20
ENDBRANCH  18  19
ENDBRANCH  17  18
ENDBRANCH   1  17
TORSDOF 26
ENDMDL
MODEL 3
REMARK VINA RESULT:    -2.100      2.538      3.413
REMARK INTER + INTRA:          -7.610
REMARK INTER:                  -6.008
REMARK INTRA:                  -1.602
REMARK UNBOUND:                -2.318
REMARK SMILES CCCCCCCCCCCCCCCCCCCCCCCCCCCC(=O)[O-]
REMARK SMILES IDX 15 1 16 2 17 3 18 4 19 5 20 6 21 7 22 8 23 9 24 10 25 11
REMARK SMILES IDX 26 12 27 13 28 14 29 15 30 16 14 17 13 18 12 19 11 20 10 21
REMARK SMILES IDX 9 22 8 23 7 24 6 25 5 26 4 27 3 28 2 29 1 30
REMARK H PARENT
REMARK Flexibility Score: inf
ROOT
ATOM      1  C   UNL     1      26.317  38.320  30.599  1.00  0.00     0.000 C 
ENDROOT
BRANCH   1   2
ATOM      2  C   UNL     1      25.268  39.332  30.100  1.00  0.00     0.000 C 
BRANCH   2   3
ATOM      3  C   UNL     1      24.904  39.211  28.608  1.00  0.00     0.000 C 
BRANCH   3   4
ATOM      4  C   UNL     1      26.135  39.251  27.690  1.00  0.00     0.000 C 
BRANCH   4   5
ATOM      5  C   UNL     1      26.422  37.870  27.087  1.00  0.00     0.000 C 
BRANCH   5   6
ATOM      6  C   UNL     1      25.117  37.119  26.792  1.00  0.00     0.000 C 
BRANCH   6   7
ATOM      7  C   UNL     1      24.879  36.999  25.279  1.00  0.00     0.000 C 
BRANCH   7   8
ATOM      8  C   UNL     1      26.179  37.130  24.468  1.00  0.00     0.000 C 
BRANCH   8   9
ATOM      9  C   UNL     1      26.103  38.248  23.416  1.00  0.00     0.000 C 
BRANCH   9  10
ATOM     10  C   UNL     1      24.878  39.159  23.604  1.00  0.00     0.000 C 
BRANCH  10  11
ATOM     11  C   UNL     1      25.207  40.653  23.775  1.00  0.00     0.000 C 
BRANCH  11  12
ATOM     12  C   UNL     1      25.880  40.964  25.120  1.00  0.00     0.006 C 
BRANCH  12  13
ATOM     13  C   UNL     1      26.652  42.287  25.058  1.00  0.00     0.053 C 
BRANCH  13  14
ATOM     14  C   UNL     1      26.935  42.803  26.434  1.00  0.00     0.041 C 
ATOM     15  O   UNL     1      26.002  43.273  27.140  1.00  0.00    -0.550 OA
ATOM     16  O   UNL     1      28.224  42.750  26.947  1.00  0.00    -0.550 OA
ENDBRANCH  13  14
ENDBRANCH  12  13
ENDBRANCH  11  12
ENDBRANCH  10  11
ENDBRANCH   9  10
ENDBRANCH   8   9
ENDBRANCH   7   8
ENDBRANCH   6   7
ENDBRANCH   5   6
ENDBRANCH   4   5
ENDBRANCH   3   4
ENDBRANCH   2   3
ENDBRANCH   1   2
BRANCH   1  17
ATOM     17  C   UNL     1      26.158  37.986  32.094  1.00  0.00     0.000 C 
BRANCH  17  18
ATOM     18  C   UNL     1      24.958  38.703  32.745  1.00  0.00     0.000 C 
BRANCH  18  19
ATOM     19  C   UNL     1      24.927  38.629  34.283  1.00  0.00     0.000 C 
BRANCH  19  20
ATOM     20  C   UNL     1      25.042  37.189  34.815  1.00  0.00     0.000 C 
BRANCH  20  21
ATOM     21  C   UNL     1      26.430  36.881  35.395  1.00  0.00     0.000 C 
BRANCH  21  22
ATOM     22  C   UNL     1      26.495  37.059  36.922  1.00  0.00    -0.000 C 
BRANCH  22  23
ATOM     23  C   UNL     1      26.911  38.486  37.317  1.00  0.00    -0.000 C 
BRANCH  23  24
ATOM     24  C   UNL     1      27.871  38.512  38.520  1.00  0.00    -0.000 C 
BRANCH  24  25
ATOM     25  C   UNL     1      28.849  37.323  38.498  1.00  0.00    -0.000 C 
BRANCH  25  26
ATOM     26  C   UNL     1      29.534  37.144  37.130  1.00  0.00    -0.000 C 
BRANCH  26  27
ATOM     27  C   UNL     1      30.641  38.192  36.897  1.00  0.00    -0.000 C 
BRANCH  27  28
ATOM     28  C   UNL     1      32.049  37.631  37.164  1.00  0.00    -0.000 C 
BRANCH  28  29
ATOM     29  C   UNL     1      33.151  38.338  36.348  1.00  0.00    -0.003 C 
ATOM     30  C   UNL     1      32.679  39.675  35.768  1.00  0.00     0.004 C 
ENDBRANCH  28  29
ENDBRANCH  27  28
ENDBRANCH  26  27
ENDBRANCH  25  26
ENDBRANCH  24  25
ENDBRANCH  23  24
ENDBRANCH  22  23
ENDBRANCH  21  22
ENDBRANCH  20  21
ENDBRANCH  19  20
ENDBRANCH  18  19
ENDBRANCH  17  18
ENDBRANCH   1  17
TORSDOF 26
ENDMDL
MODEL 4
REMARK VINA RESULT:    -1.946      2.978     11.145
REMARK INTER + INTRA:          -7.221
REMARK INTER:                  -7.456
REMARK INTRA:                   0.234
REMARK UNBOUND:                -2.318
REMARK SMILES CCCCCCCCCCCCCCCCCCCCCCCCCCCC(=O)[O-]
REMARK SMILES IDX 15 1 16 2 17 3 18 4 19 5 20 6 21 7 22 8 23 9 24 10 25 11
REMARK SMILES IDX 26 12 27 13 28 14 29 15 30 16 14 17 13 18 12 19 11 20 10 21
REMARK SMILES IDX 9 22 8 23 7 24 6 25 5 26 4 27 3 28 2 29 1 30
REMARK H PARENT
REMARK Flexibility Score: inf
ROOT
ATOM      1  C   UNL     1      27.234  37.691  31.286  1.00  0.00     0.000 C 
ENDROOT
BRANCH   1   2
ATOM      2  C   UNL     1      28.015  36.875  32.335  1.00  0.00     0.000 C 
BRANCH   2   3
ATOM      3  C   UNL     1      27.405  36.880  33.749  1.00  0.00     0.000 C 
BRANCH   3   4
ATOM      4  C   UNL     1      25.874  37.005  33.738  1.00  0.00     0.000 C 
BRANCH   4   5
ATOM      5  C   UNL     1      25.394  38.024  34.778  1.00  0.00     0.000 C 
BRANCH   5   6
ATOM      6  C   UNL     1      25.329  37.394  36.175  1.00  0.00     0.000 C 
BRANCH   6   7
ATOM      7  C   UNL     1      25.955  38.319  37.229  1.00  0.00     0.000 C 
BRANCH   7   8
ATOM      8  C   UNL     1      27.035  37.612  38.065  1.00  0.00     0.000 C 
BRANCH   8   9
ATOM      9  C   UNL     1      28.155  38.567  38.505  1.00  0.00     0.000 C 
BRANCH   9  10
ATOM     10  C   UNL     1      29.484  37.839  38.777  1.00  0.00     0.000 C 
BRANCH  10  11
ATOM     11  C   UNL     1      30.205  37.325  37.518  1.00  0.00     0.000 C 
BRANCH  11  12
ATOM     12  C   UNL     1      30.986  38.427  36.787  1.00  0.00     0.006 C 
BRANCH  12  13
ATOM     13  C   UNL     1      31.823  37.843  35.643  1.00  0.00     0.053 C 
BRANCH  13  14
ATOM     14  C   UNL     1      32.387  38.934  34.787  1.00  0.00     0.041 C 
ATOM     15  O   UNL     1      32.760  40.020  35.307  1.00  0.00    -0.550 OA
ATOM     16  O   UNL     1      32.520  38.747  33.417  1.00  0.00    -0.550 OA
ENDBRANCH  13  14
ENDBRANCH  12  13
ENDBRANCH  11  12
ENDBRANCH  10  11
ENDBRANCH   9  10
ENDBRANCH   8   9
ENDBRANCH   7   8
ENDBRANCH   6   7
ENDBRANCH   5   6
ENDBRANCH   4   5
ENDBRANCH   3   4
ENDBRANCH   2   3
ENDBRANCH   1   2
BRANCH   1  17
ATOM     17  C   UNL     1      25.717  37.702  31.549  1.00  0.00     0.000 C 
BRANCH  17  18
ATOM     18  C   UNL     1      24.891  38.007  30.283  1.00  0.00     0.000 C 
BRANCH  18  19
ATOM     19  C   UNL     1      25.705  38.590  29.113  1.00  0.00     0.000 C 
BRANCH  19  20
ATOM     20  C   UNL     1      25.246  38.060  27.743  1.00  0.00     0.000 C 
BRANCH  20  21
ATOM     21  C   UNL     1      26.002  38.709  26.574  1.00  0.00     0.000 C 
BRANCH  21  22
ATOM     22  C   UNL     1      25.534  38.199  25.200  1.00  0.00    -0.000 C 
BRANCH  22  23
ATOM     23  C   UNL     1      25.635  39.286  24.117  1.00  0.00    -0.000 C 
BRANCH  23  24
ATOM     24  C   UNL     1      25.059  40.637  24.577  1.00  0.00    -0.000 C 
BRANCH  24  25
ATOM     25  C   UNL     1      25.992  41.809  24.220  1.00  0.00    -0.000 C 
BRANCH  25  26
ATOM     26  C   UNL     1      26.291  42.718  25.426  1.00  0.00    -0.000 C 
BRANCH  26  27
ATOM     27  C   UNL     1      27.806  42.902  25.650  1.00  0.00    -0.000 C 
BRANCH  27  28
ATOM     28  C   UNL     1      28.207  42.747  27.126  1.00  0.00    -0.000 C 
BRANCH  28  29
ATOM     29  C   UNL     1      29.714  42.478  27.324  1.00  0.00    -0.003 C 
ATOM     30  C   UNL     1      30.534  42.823  26.076  1.00  0.00     0.004 C 
ENDBRANCH  28  29
ENDBRANCH  27  28
ENDBRANCH  26  27
ENDBRANCH  25  26
ENDBRANCH  24  25
ENDBRANCH  23  24
ENDBRANCH  22  23
ENDBRANCH  21  22
ENDBRANCH  20  21
ENDBRANCH  19  20
ENDBRANCH  18  19
ENDBRANCH  17  18
ENDBRANCH   1  17
TORSDOF 26
ENDMDL
MODEL 5
REMARK VINA RESULT:    -1.886      4.114     11.816
REMARK INTER + INTRA:          -7.069
REMARK INTER:                  -5.399
REMARK INTRA:                  -1.671
REMARK UNBOUND:                -2.318
REMARK SMILES CCCCCCCCCCCCCCCCCCCCCCCCCCCC(=O)[O-]
REMARK SMILES IDX 15 1 16 2 17 3 18 4 19 5 20 6 21 7 22 8 23 9 24 10 25 11
REMARK SMILES IDX 26 12 27 13 28 14 29 15 30 16 14 17 13 18 12 19 11 20 10 21
REMARK SMILES IDX 9 22 8 23 7 24 6 25 5 26 4 27 3 28 2 29 1 30
REMARK H PARENT
REMARK Flexibility Score: inf
ROOT
ATOM      1  C   UNL     1      31.338  38.025  33.108  1.00  0.00     0.000 C 
ENDROOT
BRANCH   1   2
ATOM      2  C   UNL     1      32.371  37.882  34.242  1.00  0.00     0.000 C 
BRANCH   2   3
ATOM      3  C   UNL     1      32.140  38.803  35.453  1.00  0.00     0.000 C 
BRANCH   3   4
ATOM      4  C   UNL     1      31.197  38.189  36.499  1.00  0.00     0.000 C 
BRANCH   4   5
ATOM      5  C   UNL     1      31.711  38.438  37.922  1.00  0.00     0.000 C 
BRANCH   5   6
ATOM      6  C   UNL     1      30.722  37.900  38.964  1.00  0.00     0.000 C 
BRANCH   6   7
ATOM      7  C   UNL     1      29.628  37.049  38.300  1.00  0.00     0.000 C 
BRANCH   7   8
ATOM      8  C   UNL     1      28.222  37.392  38.819  1.00  0.00     0.000 C 
BRANCH   8   9
ATOM      9  C   UNL     1      28.226  37.796  40.301  1.00  0.00     0.000 C 
BRANCH   9  10
ATOM     10  C   UNL     1      27.042  37.200  41.082  1.00  0.00     0.000 C 
BRANCH  10  11
ATOM     11  C   UNL     1      26.296  38.202  41.982  1.00  0.00     0.000 C 
BRANCH  11  12
ATOM     12  C   UNL     1      25.949  39.511  41.256  1.00  0.00     0.006 C 
BRANCH  12  13
ATOM     13  C   UNL     1      25.083  39.243  40.020  1.00  0.00     0.053 C 
BRANCH  13  14
ATOM     14  C   UNL     1      25.596  40.003  38.837  1.00  0.00     0.041 C 
ATOM     15  O   UNL     1      24.882  40.128  37.805  1.00  0.00    -0.550 OA
ATOM     16  O   UNL     1      26.854  40.589  38.876  1.00  0.00    -0.550 OA
ENDBRANCH  13  14
ENDBRANCH  12  13
ENDBRANCH  11  12
ENDBRANCH  10  11
ENDBRANCH   9  10
ENDBRANCH   8   9
ENDBRANCH   7   8
ENDBRANCH   6   7
ENDBRANCH   5   6
ENDBRANCH   4   5
ENDBRANCH   3   4
ENDBRANCH   2   3
ENDBRANCH   1   2
BRANCH   1  17
ATOM     17  C   UNL     1      30.314  36.875  33.086  1.00  0.00     0.000 C 
BRANCH  17  18
ATOM     18  C   UNL     1      29.177  37.103  32.070  1.00  0.00     0.000 C 
BRANCH  18  19
ATOM     19  C   UNL     1      27.926  37.787  32.653  1.00  0.00     0.000 C 
BRANCH  19  20
ATOM     20  C   UNL     1      26.614  37.135  32.182  1.00  0.00     0.000 C 
BRANCH  20  21
ATOM     21  C   UNL     1      25.514  38.165  31.884  1.00  0.00     0.000 C 
BRANCH  21  22
ATOM     22  C   UNL     1      24.897  37.997  30.485  1.00  0.00    -0.000 C 
BRANCH  22  23
ATOM     23  C   UNL     1      25.911  38.300  29.369  1.00  0.00    -0.000 C 
BRANCH  23  24
ATOM     24  C   UNL     1      25.378  37.945  27.970  1.00  0.00    -0.000 C 
BRANCH  24  25
ATOM     25  C   UNL     1      24.956  39.200  27.182  1.00  0.00    -0.000 C 
BRANCH  25  26
ATOM     26  C   UNL     1      25.556  40.494  27.762  1.00  0.00    -0.000 C 
BRANCH  26  27
ATOM     27  C   UNL     1      26.179  41.383  26.667  1.00  0.00    -0.000 C 
BRANCH  27  28
ATOM     28  C   UNL     1      27.147  42.432  27.240  1.00  0.00    -0.000 C 
BRANCH  28  29
ATOM     29  C   UNL     1      28.185  42.929  26.213  1.00  0.00    -0.003 C 
ATOM     30  C   UNL     1      29.608  42.477  26.559  1.00  0.00     0.004 C 
ENDBRANCH  28  29
ENDBRANCH  27  28
ENDBRANCH  26  27
ENDBRANCH  25  26
ENDBRANCH  24  25
ENDBRANCH  23  24
ENDBRANCH  22  23
ENDBRANCH  21  22
ENDBRANCH  20  21
ENDBRANCH  19  20
ENDBRANCH  18  19
ENDBRANCH  17  18
ENDBRANCH   1  17
TORSDOF 26
ENDMDL
MODEL 6
REMARK VINA RESULT:    -1.835      8.414     13.528
REMARK INTER + INTRA:          -6.941
REMARK INTER:                  -5.589
REMARK INTRA:                  -1.352
REMARK UNBOUND:                -2.318
REMARK SMILES CCCCCCCCCCCCCCCCCCCCCCCCCCCC(=O)[O-]
REMARK SMILES IDX 15 1 16 2 17 3 18 4 19 5 20 6 21 7 22 8 23 9 24 10 25 11
REMARK SMILES IDX 26 12 27 13 28 14 29 15 30 16 14 17 13 18 12 19 11 20 10 21
REMARK SMILES IDX 9 22 8 23 7 24 6 25 5 26 4 27 3 28 2 29 1 30
REMARK H PARENT
REMARK Flexibility Score: inf
ROOT
ATOM      1  C   UNL     1      29.493  45.841  40.651  1.00  0.00     0.000 C 
ENDROOT
BRANCH   1   2
ATOM      2  C   UNL     1      30.887  46.492  40.729  1.00  0.00     0.000 C 
BRANCH   2   3
ATOM      3  C   UNL     1      31.221  47.157  42.078  1.00  0.00     0.000 C 
BRANCH   3   4
ATOM      4  C   UNL     1      31.047  48.683  42.049  1.00  0.00     0.000 C 
BRANCH   4   5
ATOM      5  C   UNL     1      29.566  49.073  42.125  1.00  0.00     0.000 C 
BRANCH   5   6
ATOM      6  C   UNL     1      29.105  49.731  40.819  1.00  0.00     0.000 C 
BRANCH   6   7
ATOM      7  C   UNL     1      27.737  50.409  40.995  1.00  0.00     0.000 C 
BRANCH   7   8
ATOM      8  C   UNL     1      27.828  51.715  41.802  1.00  0.00     0.000 C 
BRANCH   8   9
ATOM      9  C   UNL     1      29.274  52.217  41.944  1.00  0.00     0.000 C 
BRANCH   9  10
ATOM     10  C   UNL     1      29.381  53.750  41.870  1.00  0.00     0.000 C 
BRANCH  10  11
ATOM     11  C   UNL     1      28.460  54.409  40.827  1.00  0.00     0.000 C 
BRANCH  11  12
ATOM     12  C   UNL     1      29.123  54.543  39.448  1.00  0.00     0.006 C 
BRANCH  12  13
ATOM     13  C   UNL     1      29.206  53.185  38.741  1.00  0.00     0.053 C 
BRANCH  13  14
ATOM     14  C   UNL     1      27.912  52.858  38.064  1.00  0.00     0.041 C 
ATOM     15  O   UNL     1      26.828  52.915  38.706  1.00  0.00    -0.550 OA
ATOM     16  O   UNL     1      27.897  52.509  36.720  1.00  0.00    -0.550 OA
ENDBRANCH  13  14
ENDBRANCH  12  13
ENDBRANCH  11  12
ENDBRANCH  10  11
ENDBRANCH   9  10
ENDBRANCH   8   9
ENDBRANCH   7   8
ENDBRANCH   6   7
ENDBRANCH   5   6
ENDBRANCH   4   5
ENDBRANCH   3   4
ENDBRANCH   2   3
ENDBRANCH   1   2
BRANCH   1  17
ATOM     17  C   UNL     1      29.158  44.999  41.897  1.00  0.00     0.000 C 
BRANCH  17  18
ATOM     18  C   UNL     1      27.645  44.754  42.066  1.00  0.00     0.000 C 
BRANCH  18  19
ATOM     19  C   UNL     1      27.230  43.271  42.029  1.00  0.00     0.000 C 
BRANCH  19  20
ATOM     20  C   UNL     1      26.848  42.793  40.617  1.00  0.00     0.000 C 
BRANCH  20  21
ATOM     21  C   UNL     1      25.421  42.229  40.548  1.00  0.00     0.000 C 
BRANCH  21  22
ATOM     22  C   UNL     1      25.243  40.944  41.375  1.00  0.00    -0.000 C 
BRANCH  22  23
ATOM     23  C   UNL     1      26.301  39.884  41.026  1.00  0.00    -0.000 C 
BRANCH  23  24
ATOM     24  C   UNL     1      25.939  39.075  39.768  1.00  0.00    -0.000 C 
BRANCH  24  25
ATOM     25  C   UNL     1      27.009  38.017  39.440  1.00  0.00    -0.000 C 
BRANCH  25  26
ATOM     26  C   UNL     1      27.745  38.308  38.118  1.00  0.00    -0.000 C 
BRANCH  26  27
ATOM     27  C   UNL     1      29.258  38.515  38.333  1.00  0.00    -0.000 C 
BRANCH  27  28
ATOM     28  C   UNL     1      30.091  38.074  37.117  1.00  0.00    -0.000 C 
BRANCH  28  29
ATOM     29  C   UNL     1      31.270  39.021  36.811  1.00  0.00    -0.003 C 
ATOM     30  C   UNL     1      32.380  38.329  36.013  1.00  0.00     0.004 C 
ENDBRANCH  28  29
ENDBRANCH  27  28
ENDBRANCH  26  27
ENDBRANCH  25  26
ENDBRANCH  24  25
ENDBRANCH  23  24
ENDBRANCH  22  23
ENDBRANCH  21  22
ENDBRANCH  20  21
ENDBRANCH  19  20
ENDBRANCH  18  19
ENDBRANCH  17  18
ENDBRANCH   1  17
TORSDOF 26
ENDMDL
MODEL 7
REMARK VINA RESULT:    -1.668      3.292     11.662
REMARK INTER + INTRA:          -6.520
REMARK INTER:                  -6.297
REMARK INTRA:                  -0.223
REMARK UNBOUND:                -2.318
REMARK SMILES CCCCCCCCCCCCCCCCCCCCCCCCCCCC(=O)[O-]
REMARK SMILES IDX 15 1 16 2 17 3 18 4 19 5 20 6 21 7 22 8 23 9 24 10 25 11
REMARK SMILES IDX 26 12 27 13 28 14 29 15 30 16 14 17 13 18 12 19 11 20 10 21
REMARK SMILES IDX 9 22 8 23 7 24 6 25 5 26 4 27 3 28 2 29 1 30
REMARK H PARENT
REMARK Flexibility Score: inf
ROOT
ATOM      1  C   UNL     1      27.123  38.155  31.522  1.00  0.00     0.000 C 
ENDROOT
BRANCH   1   2
ATOM      2  C   UNL     1      27.210  36.875  32.375  1.00  0.00     0.000 C 
BRANCH   2   3
ATOM      3  C   UNL     1      26.572  36.978  33.772  1.00  0.00     0.000 C 
BRANCH   3   4
ATOM      4  C   UNL     1      25.107  37.438  33.726  1.00  0.00     0.000 C 
BRANCH   4   5
ATOM      5  C   UNL     1      24.876  38.642  34.647  1.00  0.00     0.000 C 
BRANCH   5   6
ATOM      6  C   UNL     1      24.877  38.215  36.120  1.00  0.00     0.000 C 
BRANCH   6   7
ATOM      7  C   UNL     1      25.100  39.421  37.045  1.00  0.00     0.000 C 
BRANCH   7   8
ATOM      8  C   UNL     1      25.379  39.003  38.498  1.00  0.00     0.000 C 
BRANCH   8   9
ATOM      9  C   UNL     1      26.551  39.779  39.117  1.00  0.00     0.000 C 
BRANCH   9  10
ATOM     10  C   UNL     1      27.339  38.947  40.144  1.00  0.00     0.000 C 
BRANCH  10  11
ATOM     11  C   UNL     1      28.868  38.995  39.973  1.00  0.00     0.000 C 
BRANCH  11  12
ATOM     12  C   UNL     1      29.534  37.626  40.180  1.00  0.00     0.006 C 
BRANCH  12  13
ATOM     13  C   UNL     1      30.255  37.166  38.908  1.00  0.00     0.053 C 
BRANCH  13  14
ATOM     14  C   UNL     1      29.856  38.008  37.737  1.00  0.00     0.041 C 
ATOM     15  O   UNL     1      30.516  39.042  37.446  1.00  0.00    -0.550 OA
ATOM     16  O   UNL     1      28.770  37.643  36.954  1.00  0.00    -0.550 OA
ENDBRANCH  13  14
ENDBRANCH  12  13
ENDBRANCH  11  12
ENDBRANCH  10  11
ENDBRANCH   9  10
ENDBRANCH   8   9
ENDBRANCH   7   8
ENDBRANCH   6   7
ENDBRANCH   5   6
ENDBRANCH   4   5
ENDBRANCH   3   4
ENDBRANCH   2   3
ENDBRANCH   1   2
BRANCH   1  17
ATOM     17  C   UNL     1      25.735  38.820  31.587  1.00  0.00     0.000 C 
BRANCH  17  18
ATOM     18  C   UNL     1      24.934  38.667  30.278  1.00  0.00     0.000 C 
BRANCH  18  19
ATOM     19  C   UNL     1      25.799  38.486  29.017  1.00  0.00     0.000 C 
BRANCH  19  20
ATOM     20  C   UNL     1      25.053  38.856  27.722  1.00  0.00     0.000 C 
BRANCH  20  21
ATOM     21  C   UNL     1      25.862  38.530  26.458  1.00  0.00     0.000 C 
BRANCH  21  22
ATOM     22  C   UNL     1      25.023  38.612  25.171  1.00  0.00    -0.000 C 
BRANCH  22  23
ATOM     23  C   UNL     1      25.472  39.770  24.264  1.00  0.00    -0.000 C 
BRANCH  23  24
ATOM     24  C   UNL     1      25.256  41.149  24.912  1.00  0.00    -0.000 C 
BRANCH  24  25
ATOM     25  C   UNL     1      26.495  42.052  24.764  1.00  0.00    -0.000 C 
BRANCH  25  26
ATOM     26  C   UNL     1      26.577  43.132  25.859  1.00  0.00    -0.000 C 
BRANCH  26  27
ATOM     27  C   UNL     1      27.574  42.750  26.973  1.00  0.00    -0.000 C 
BRANCH  27  28
ATOM     28  C   UNL     1      28.735  41.886  26.453  1.00  0.00    -0.000 C 
BRANCH  28  29
ATOM     29  C   UNL     1      30.115  42.557  26.616  1.00  0.00    -0.003 C 
ATOM     30  C   UNL     1      30.027  44.086  26.566  1.00  0.00     0.004 C 
ENDBRANCH  28  29
ENDBRANCH  27  28
ENDBRANCH  26  27
ENDBRANCH  25  26
ENDBRANCH  24  25
ENDBRANCH  23  24
ENDBRANCH  22  23
ENDBRANCH  21  22
ENDBRANCH  20  21
ENDBRANCH  19  20
ENDBRANCH  18  19
ENDBRANCH  17  18
ENDBRANCH   1  17
TORSDOF 26
ENDMDL
MODEL 8
REMARK VINA RESULT:    -1.484      3.130      4.310
REMARK INTER + INTRA:          -6.058
REMARK INTER:                  -4.445
REMARK INTRA:                  -1.613
REMARK UNBOUND:                -2.318
REMARK SMILES CCCCCCCCCCCCCCCCCCCCCCCCCCCC(=O)[O-]
REMARK SMILES IDX 15 1 16 2 17 3 18 4 19 5 20 6 21 7 22 8 23 9 24 10 25 11
REMARK SMILES IDX 26 12 27 13 28 14 29 15 30 16 14 17 13 18 12 19 11 20 10 21
REMARK SMILES IDX 9 22 8 23 7 24 6 25 5 26 4 27 3 28 2 29 1 30
REMARK H PARENT
REMARK Flexibility Score: inf
ROOT
ATOM      1  C   UNL     1      31.708  38.184  32.264  1.00  0.00     0.000 C 
ENDROOT
BRANCH   1   2
ATOM      2  C   UNL     1      30.338  37.747  32.815  1.00  0.00     0.000 C 
BRANCH   2   3
ATOM      3  C   UNL     1      29.431  37.018  31.806  1.00  0.00     0.000 C 
BRANCH   3   4
ATOM      4  C   UNL     1      27.984  36.875  32.299  1.00  0.00     0.000 C 
BRANCH   4   5
ATOM      5  C   UNL     1      27.070  37.918  31.644  1.00  0.00     0.000 C 
BRANCH   5   6
ATOM      6  C   UNL     1      26.114  37.257  30.643  1.00  0.00     0.000 C 
BRANCH   6   7
ATOM      7  C   UNL     1      25.994  38.094  29.360  1.00  0.00     0.000 C 
BRANCH   7   8
ATOM      8  C   UNL     1      25.012  37.480  28.348  1.00  0.00     0.000 C 
BRANCH   8   9
ATOM      9  C   UNL     1      25.234  38.007  26.922  1.00  0.00     0.000 C 
BRANCH   9  10
ATOM     10  C   UNL     1      25.155  39.541  26.836  1.00  0.00     0.000 C 
BRANCH  10  11
ATOM     11  C   UNL     1      24.920  40.094  25.419  1.00  0.00     0.000 C 
BRANCH  11  12
ATOM     12  C   UNL     1      25.914  41.202  25.039  1.00  0.00     0.006 C 
BRANCH  12  13
ATOM     13  C   UNL     1      27.005  41.352  26.105  1.00  0.00     0.053 C 
BRANCH  13  14
ATOM     14  C   UNL     1      27.054  42.756  26.623  1.00  0.00     0.041 C 
ATOM     15  O   UNL     1      26.051  43.253  27.203  1.00  0.00    -0.550 OA
ATOM     16  O   UNL     1      28.211  43.510  26.483  1.00  0.00    -0.550 OA
ENDBRANCH  13  14
ENDBRANCH  12  13
ENDBRANCH  11  12
ENDBRANCH  10  11
ENDBRANCH   9  10
ENDBRANCH   8   9
ENDBRANCH   7   8
ENDBRANCH   6   7
ENDBRANCH   5   6
ENDBRANCH   4   5
ENDBRANCH   3   4
ENDBRANCH   2   3
ENDBRANCH   1   2
BRANCH   1  17
ATOM     17  C   UNL     1      32.883  37.698  33.133  1.00  0.00     0.000 C 
BRANCH  17  18
ATOM     18  C   UNL     1      32.424  37.053  34.456  1.00  0.00     0.000 C 
BRANCH  18  19
ATOM     19  C   UNL     1      32.793  37.852  35.719  1.00  0.00     0.000 C 
BRANCH  19  20
ATOM     20  C   UNL     1      32.004  37.402  36.962  1.00  0.00     0.000 C 
BRANCH  20  21
ATOM     21  C   UNL     1      31.400  38.581  37.739  1.00  0.00     0.000 C 
BRANCH  21  22
ATOM     22  C   UNL     1      30.116  38.205  38.499  1.00  0.00    -0.000 C 
BRANCH  22  23
ATOM     23  C   UNL     1      29.265  37.186  37.721  1.00  0.00    -0.000 C 
BRANCH  23  24
ATOM     24  C   UNL     1      27.761  37.511  37.768  1.00  0.00    -0.000 C 
BRANCH  24  25
ATOM     25  C   UNL     1      27.113  37.033  39.082  1.00  0.00    -0.000 C 
BRANCH  25  26
ATOM     26  C   UNL     1      26.055  38.017  39.613  1.00  0.00    -0.000 C 
BRANCH  26  27
ATOM     27  C   UNL     1      26.545  38.773  40.865  1.00  0.00    -0.000 C 
BRANCH  27  28
ATOM     28  C   UNL     1      26.879  37.827  42.031  1.00  0.00    -0.000 C 
BRANCH  28  29
ATOM     29  C   UNL     1      28.367  37.418  42.075  1.00  0.00    -0.003 C 
ATOM     30  C   UNL     1      29.304  38.602  41.818  1.00  0.00     0.004 C 
ENDBRANCH  28  29
ENDBRANCH  27  28
ENDBRANCH  26  27
ENDBRANCH  25  26
ENDBRANCH  24  25
ENDBRANCH  23  24
ENDBRANCH  22  23
ENDBRANCH  21  22
ENDBRANCH  20  21
ENDBRANCH  19  20
ENDBRANCH  18  19
ENDBRANCH  17  18
ENDBRANCH   1  17
TORSDOF 26
ENDMDL
MODEL 9
REMARK VINA RESULT:    -1.379      4.352     12.204
REMARK INTER + INTRA:          -5.792
REMARK INTER:                  -4.311
REMARK INTRA:                  -1.481
REMARK UNBOUND:                -2.318
REMARK SMILES CCCCCCCCCCCCCCCCCCCCCCCCCCCC(=O)[O-]
REMARK SMILES IDX 15 1 16 2 17 3 18 4 19 5 20 6 21 7 22 8 23 9 24 10 25 11
REMARK SMILES IDX 26 12 27 13 28 14 29 15 30 16 14 17 13 18 12 19 11 20 10 21
REMARK SMILES IDX 9 22 8 23 7 24 6 25 5 26 4 27 3 28 2 29 1 30
REMARK H PARENT
REMARK Flexibility Score: inf
ROOT
ATOM      1  C   UNL     1      31.086  38.028  33.172  1.00  0.00     0.000 C 
ENDROOT
BRANCH   1   2
ATOM      2  C   UNL     1      32.120  37.605  34.233  1.00  0.00     0.000 C 
BRANCH   2   3
ATOM      3  C   UNL     1      32.074  38.411  35.544  1.00  0.00     0.000 C 
BRANCH   3   4
ATOM      4  C   UNL     1      31.148  37.783  36.597  1.00  0.00     0.000 C 
BRANCH   4   5
ATOM      5  C   UNL     1      31.609  38.130  38.018  1.00  0.00     0.000 C 
BRANCH   5   6
ATOM      6  C   UNL     1      30.585  37.658  39.058  1.00  0.00     0.000 C 
BRANCH   6   7
ATOM      7  C   UNL     1      29.426  36.902  38.388  1.00  0.00     0.000 C 
BRANCH   7   8
ATOM      8  C   UNL     1      28.055  37.504  38.736  1.00  0.00     0.000 C 
BRANCH   8   9
ATOM      9  C   UNL     1      27.895  37.771  40.240  1.00  0.00     0.000 C 
BRANCH   9  10
ATOM     10  C   UNL     1      26.442  38.081  40.639  1.00  0.00     0.000 C 
BRANCH  10  11
ATOM     11  C   UNL     1      26.293  39.006  41.860  1.00  0.00     0.000 C 
BRANCH  11  12
ATOM     12  C   UNL     1      26.502  40.488  41.513  1.00  0.00     0.006 C 
BRANCH  12  13
ATOM     13  C   UNL     1      25.987  40.803  40.105  1.00  0.00     0.053 C 
BRANCH  13  14
ATOM     14  C   UNL     1      25.777  42.275  39.932  1.00  0.00     0.041 C 
ATOM     15  O   UNL     1      24.973  42.703  39.060  1.00  0.00    -0.550 OA
ATOM     16  O   UNL     1      26.454  43.175  40.743  1.00  0.00    -0.550 OA
ENDBRANCH  13  14
ENDBRANCH  12  13
ENDBRANCH  11  12
ENDBRANCH  10  11
ENDBRANCH   9  10
ENDBRANCH   8   9
ENDBRANCH   7   8
ENDBRANCH   6   7
ENDBRANCH   5   6
ENDBRANCH   4   5
ENDBRANCH   3   4
ENDBRANCH   2   3
ENDBRANCH   1   2
BRANCH   1  17
ATOM     17  C   UNL     1      30.155  36.875  32.754  1.00  0.00     0.000 C 
BRANCH  17  18
ATOM     18  C   UNL     1      29.060  37.317  31.763  1.00  0.00     0.000 C 
BRANCH  18  19
ATOM     19  C   UNL     1      27.671  37.526  32.396  1.00  0.00     0.000 C 
BRANCH  19  20
ATOM     20  C   UNL     1      26.534  36.918  31.555  1.00  0.00     0.000 C 
BRANCH  20  21
ATOM     21  C   UNL     1      25.253  37.765  31.591  1.00  0.00     0.000 C 
BRANCH  21  22
ATOM     22  C   UNL     1      24.875  38.339  30.214  1.00  0.00    -0.000 C 
BRANCH  22  23
ATOM     23  C   UNL     1      25.896  37.955  29.130  1.00  0.00    -0.000 C 
BRANCH  23  24
ATOM     24  C   UNL     1      25.488  38.447  27.730  1.00  0.00    -0.000 C 
BRANCH  24  25
ATOM     25  C   UNL     1      25.262  39.971  27.703  1.00  0.00    -0.000 C 
BRANCH  25  26
ATOM     26  C   UNL     1      25.978  40.655  26.523  1.00  0.00    -0.000 C 
BRANCH  26  27
ATOM     27  C   UNL     1      26.775  39.649  25.668  1.00  0.00    -0.000 C 
BRANCH  27  28
ATOM     28  C   UNL     1      25.934  39.050  24.527  1.00  0.00    -0.000 C 
BRANCH  28  29
ATOM     29  C   UNL     1      26.531  37.750  23.948  1.00  0.00    -0.003 C 
ATOM     30  C   UNL     1      27.611  37.151  24.856  1.00  0.00     0.004 C 
ENDBRANCH  28  29
ENDBRANCH  27  28
ENDBRANCH  26  27
ENDBRANCH  25  26
ENDBRANCH  24  25
ENDBRANCH  23  24
ENDBRANCH  22  23
ENDBRANCH  21  22
ENDBRANCH  20  21
ENDBRANCH  19  20
ENDBRANCH  18  19
ENDBRANCH  17  18
ENDBRANCH   1  17
TORSDOF 26
ENDMDL
