MODEL 1
REMARK VINA RESULT:    -3.244      0.000      0.000
REMARK INTER + INTRA:          -3.262
REMARK INTER:                  -4.003
REMARK INTRA:                   0.741
REMARK UNBOUND:                 0.741
REMARK SMILES CC1=CC=CC(C)(C)CC1=O
REMARK SMILES IDX 1 1 2 2 3 3 10 4 11 5 9 6 4 8 5 9 6 10 7 11 8 12
REMARK H PARENT
REMARK Flexibility Score: 80.00
ROOT
ATOM      1  C   UNL     1      29.748 -45.480 -18.376  1.00  0.00     0.048 C 
ATOM      2  C   UNL     1      28.986 -44.197 -18.608  1.00  0.00    -0.008 C 
ATOM      3  C   UNL     1      29.217 -43.170 -17.764  1.00  0.00     0.007 C 
ENDROOT
BRANCH   2   4
ATOM      4  C   UNL     1      28.097 -44.146 -19.796  1.00  0.00     0.159 C 
ATOM      5  O   UNL     1      28.178 -45.066 -20.656  1.00  0.00    -0.295 OA
BRANCH   4   6
ATOM      6  C   UNL     1      27.090 -43.062 -20.028  1.00  0.00     0.091 CG0
ATOM      7  G   UNL     1      27.719 -41.653 -20.109  1.00  0.00     0.000 G0
ENDBRANCH   4   6
ENDBRANCH   2   4
BRANCH   3   8
ATOM      8  C   UNL     1      28.650 -41.801 -17.754  1.00  0.00    -0.003 C 
ATOM      9  C   UNL     1      28.026 -41.137 -18.735  1.00  0.00    -0.020 C 
BRANCH   9  10
ATOM     10  C   UNL     1      27.721 -41.662 -20.119  1.00  0.00    -0.010 CG0
ATOM     11  C   UNL     1      26.674 -40.730 -20.771  1.00  0.00     0.016 C 
ATOM     12  C   UNL     1      28.998 -41.628 -20.990  1.00  0.00     0.016 C 
ATOM     13  G   UNL     1      27.108 -43.076 -20.017  1.00  0.00     0.000 G0
ENDBRANCH   9  10
ENDBRANCH   3   8
TORSDOF 0
ENDMDL
MODEL 2
REMARK VINA RESULT:    -3.200      1.539      3.101
REMARK INTER + INTRA:          -3.208
REMARK INTER:                  -3.959
REMARK INTRA:                   0.752
REMARK UNBOUND:                 0.741
REMARK SMILES CC1=CC=CC(C)(C)CC1=O
REMARK SMILES IDX 1 1 2 2 3 3 10 4 11 5 9 6 4 8 5 9 6 10 7 11 8 12
REMARK H PARENT
REMARK Flexibility Score: 80.00
ROOT
ATOM      1  C   UNL     1      28.110 -42.988 -22.735  1.00  0.00     0.048 C 
ATOM      2  C   UNL     1      28.317 -43.031 -21.239  1.00  0.00    -0.008 C 
ATOM      3  C   UNL     1      28.678 -41.884 -20.625  1.00  0.00     0.007 C 
ENDROOT
BRANCH   2   4
ATOM      4  C   UNL     1      28.034 -44.316 -20.554  1.00  0.00     0.159 C 
ATOM      5  O   UNL     1      27.449 -45.231 -21.198  1.00  0.00    -0.295 OA
BRANCH   4   6
ATOM      6  C   UNL     1      28.416 -44.598 -19.134  1.00  0.00     0.091 CG0
ATOM      7  G   UNL     1      27.781 -43.616 -18.125  1.00  0.00     0.000 G0
ENDBRANCH   4   6
ENDBRANCH   2   4
BRANCH   3   8
ATOM      8  C   UNL     1      28.925 -41.611 -19.189  1.00  0.00    -0.003 C 
ATOM      9  C   UNL     1      28.547 -42.320 -18.117  1.00  0.00    -0.020 C 
BRANCH   9  10
ATOM     10  C   UNL     1      27.779 -43.621 -18.128  1.00  0.00    -0.010 CG0
ATOM     11  C   UNL     1      27.889 -44.260 -16.724  1.00  0.00     0.016 C 
ATOM     12  C   UNL     1      26.284 -43.350 -18.413  1.00  0.00     0.016 C 
ATOM     13  G   UNL     1      28.414 -44.592 -19.148  1.00  0.00     0.000 G0
ENDBRANCH   9  10
ENDBRANCH   3   8
TORSDOF 0
ENDMDL
MODEL 3
REMARK VINA RESULT:    -3.182      1.852      2.992
REMARK INTER + INTRA:          -3.185
REMARK INTER:                  -3.930
REMARK INTRA:                   0.745
REMARK UNBOUND:                 0.741
REMARK SMILES CC1=CC=CC(C)(C)CC1=O
REMARK SMILES IDX 1 1 2 2 3 3 10 4 11 5 9 6 4 8 5 9 6 10 7 11 8 12
REMARK H PARENT
REMARK Flexibility Score: 80.00
ROOT
ATOM      1  C   UNL     1      28.810 -42.625 -15.756  1.00  0.00     0.048 C 
ATOM      2  C   UNL     1      28.910 -43.090 -17.190  1.00  0.00    -0.008 C 
ATOM      3  C   UNL     1      29.231 -44.383 -17.407  1.00  0.00     0.007 C 
ENDROOT
BRANCH   2   4
ATOM      4  C   UNL     1      28.572 -42.103 -18.245  1.00  0.00     0.159 C 
ATOM      5  O   UNL     1      28.026 -41.016 -17.909  1.00  0.00    -0.295 OA
BRANCH   4   6
ATOM      6  C   UNL     1      28.856 -42.318 -19.700  1.00  0.00     0.091 CG0
ATOM      7  G   UNL     1      28.154 -43.566 -20.280  1.00  0.00     0.000 G0
ENDBRANCH   4   6
ENDBRANCH   2   4
BRANCH   3   8
ATOM      8  C   UNL     1      29.376 -45.126 -18.682  1.00  0.00    -0.003 C 
ATOM      9  C   UNL     1      28.924 -44.807 -19.902  1.00  0.00    -0.020 C 
BRANCH   9  10
ATOM     10  C   UNL     1      28.160 -43.559 -20.277  1.00  0.00    -0.010 CG0
ATOM     11  C   UNL     1      28.175 -43.426 -21.817  1.00  0.00     0.016 C 
ATOM     12  C   UNL     1      26.688 -43.684 -19.823  1.00  0.00     0.016 C 
ATOM     13  G   UNL     1      28.863 -42.319 -19.681  1.00  0.00     0.000 G0
ENDBRANCH   9  10
ENDBRANCH   3   8
TORSDOF 0
ENDMDL
MODEL 4
REMARK VINA RESULT:    -2.988      1.533      2.542
REMARK INTER + INTRA:          -2.946
REMARK INTER:                  -3.708
REMARK INTRA:                   0.762
REMARK UNBOUND:                 0.741
REMARK SMILES CC1=CC=CC(C)(C)CC1=O
REMARK SMILES IDX 1 1 2 2 3 3 10 4 11 5 9 6 4 8 5 9 6 10 7 11 8 12
REMARK H PARENT
REMARK Flexibility Score: 80.00
ROOT
ATOM      1  C   UNL     1      29.748 -45.023 -18.375  1.00  0.00     0.048 C 
ATOM      2  C   UNL     1      28.985 -44.133 -19.326  1.00  0.00    -0.008 C 
ATOM      3  C   UNL     1      28.325 -44.725 -20.345  1.00  0.00     0.007 C 
ENDROOT
BRANCH   2   4
ATOM      4  C   UNL     1      28.959 -42.681 -19.020  1.00  0.00     0.159 C 
ATOM      5  O   UNL     1      29.366 -42.290 -17.891  1.00  0.00    -0.295 OA
BRANCH   4   6
ATOM      6  C   UNL     1      28.486 -41.640 -19.987  1.00  0.00     0.091 CG0
ATOM      7  G   UNL     1      27.014 -41.830 -20.415  1.00  0.00     0.000 G0
ENDBRANCH   4   6
ENDBRANCH   2   4
BRANCH   3   8
ATOM      8  C   UNL     1      27.482 -44.128 -21.407  1.00  0.00    -0.003 C 
ATOM      9  C   UNL     1      26.905 -42.920 -21.450  1.00  0.00    -0.020 C 
BRANCH   9  10
ATOM     10  C   UNL     1      27.008 -41.840 -20.398  1.00  0.00    -0.010 CG0
ATOM     11  C   UNL     1      26.508 -40.514 -21.015  1.00  0.00     0.016 C 
ATOM     12  C   UNL     1      26.095 -42.182 -19.198  1.00  0.00     0.016 C 
ATOM     13  G   UNL     1      28.485 -41.653 -19.987  1.00  0.00     0.000 G0
ENDBRANCH   9  10
ENDBRANCH   3   8
TORSDOF 0
ENDMDL
MODEL 5
REMARK VINA RESULT:    -2.833     12.629     14.194
REMARK INTER + INTRA:          -2.754
REMARK INTER:                  -3.511
REMARK INTRA:                   0.757
REMARK UNBOUND:                 0.741
REMARK SMILES CC1=CC=CC(C)(C)CC1=O
REMARK SMILES IDX 1 1 2 2 3 3 10 4 11 5 9 6 4 8 5 9 6 10 7 11 8 12
REMARK H PARENT
REMARK Flexibility Score: 80.00
ROOT
ATOM      1  C   UNL     1      27.080 -26.938 -15.853  1.00  0.00     0.048 C 
ATOM      2  C   UNL     1      27.168 -28.367 -15.373  1.00  0.00    -0.008 C 
ATOM      3  C   UNL     1      28.250 -28.718 -14.646  1.00  0.00     0.007 C 
ENDROOT
BRANCH   2   4
ATOM      4  C   UNL     1      26.018 -29.254 -15.677  1.00  0.00     0.159 C 
ATOM      5  O   UNL     1      24.951 -28.738 -16.112  1.00  0.00    -0.295 OA
BRANCH   4   6
ATOM      6  C   UNL     1      26.054 -30.742 -15.510  1.00  0.00     0.091 CG0
ATOM      7  G   UNL     1      26.345 -31.185 -14.059  1.00  0.00     0.000 G0
ENDBRANCH   4   6
ENDBRANCH   2   4
BRANCH   3   8
ATOM      8  C   UNL     1      28.598 -30.018 -14.025  1.00  0.00    -0.003 C 
ATOM      9  C   UNL     1      27.808 -31.065 -13.757  1.00  0.00    -0.020 C 
BRANCH   9  10
ATOM     10  C   UNL     1      26.333 -31.177 -14.063  1.00  0.00    -0.010 CG0
ATOM     11  C   UNL     1      25.922 -32.662 -13.937  1.00  0.00     0.016 C 
ATOM     12  C   UNL     1      25.516 -30.366 -13.031  1.00  0.00     0.016 C 
ATOM     13  G   UNL     1      26.067 -30.727 -15.517  1.00  0.00     0.000 G0
ENDBRANCH   9  10
ENDBRANCH   3   8
TORSDOF 0
ENDMDL
MODEL 6
REMARK VINA RESULT:    -2.763      1.982      3.807
REMARK INTER + INTRA:          -2.668
REMARK INTER:                  -3.421
REMARK INTRA:                   0.753
REMARK UNBOUND:                 0.741
REMARK SMILES CC1=CC=CC(C)(C)CC1=O
REMARK SMILES IDX 1 1 2 2 3 3 10 4 11 5 9 6 4 8 5 9 6 10 7 11 8 12
REMARK H PARENT
REMARK Flexibility Score: 80.00
ROOT
ATOM      1  C   UNL     1      27.302 -40.385 -22.852  1.00  0.00     0.048 C 
ATOM      2  C   UNL     1      27.426 -41.465 -21.803  1.00  0.00    -0.008 C 
ATOM      3  C   UNL     1      28.261 -42.493 -22.060  1.00  0.00     0.007 C 
ENDROOT
BRANCH   2   4
ATOM      4  C   UNL     1      26.675 -41.267 -20.539  1.00  0.00     0.159 C 
ATOM      5  O   UNL     1      26.148 -40.143 -20.314  1.00  0.00    -0.295 OA
BRANCH   4   6
ATOM      6  C   UNL     1      26.493 -42.340 -19.509  1.00  0.00     0.091 CG0
ATOM      7  G   UNL     1      27.827 -42.865 -18.934  1.00  0.00     0.000 G0
ENDBRANCH   4   6
ENDBRANCH   2   4
BRANCH   3   8
ATOM      8  C   UNL     1      28.607 -43.669 -21.226  1.00  0.00    -0.003 C 
ATOM      9  C   UNL     1      28.445 -43.848 -19.909  1.00  0.00    -0.020 C 
BRANCH   9  10
ATOM     10  C   UNL     1      27.824 -42.868 -18.941  1.00  0.00    -0.010 CG0
ATOM     11  C   UNL     1      27.504 -43.620 -17.629  1.00  0.00     0.016 C 
ATOM     12  C   UNL     1      28.830 -41.741 -18.612  1.00  0.00     0.016 C 
ATOM     13  G   UNL     1      26.497 -42.331 -19.523  1.00  0.00     0.000 G0
ENDBRANCH   9  10
ENDBRANCH   3   8
TORSDOF 0
ENDMDL
MODEL 7
REMARK VINA RESULT:    -2.761      1.940      3.361
REMARK INTER + INTRA:          -2.665
REMARK INTER:                  -3.707
REMARK INTRA:                   1.042
REMARK UNBOUND:                 0.741
REMARK SMILES CC1=CC=CC(C)(C)CC1=O
REMARK SMILES IDX 1 1 2 2 3 3 10 4 11 5 9 6 4 8 5 9 6 10 7 11 8 12
REMARK H PARENT
REMARK Flexibility Score: 80.00
ROOT
ATOM      1  C   UNL     1      28.583 -43.489 -21.925  1.00  0.00     0.048 C 
ATOM      2  C   UNL     1      28.559 -43.559 -20.416  1.00  0.00    -0.008 C 
ATOM      3  C   UNL     1      28.904 -44.729 -19.838  1.00  0.00     0.007 C 
ENDROOT
BRANCH   2   4
ATOM      4  C   UNL     1      28.232 -42.309 -19.687  1.00  0.00     0.159 C 
ATOM      5  O   UNL     1      27.717 -41.349 -20.326  1.00  0.00    -0.295 OA
BRANCH   4   6
ATOM      6  C   UNL     1      28.465 -42.122 -18.219  1.00  0.00     0.091 CG0
ATOM      7  G   UNL     1      27.718 -43.155 -17.347  1.00  0.00     0.000 G0
ENDBRANCH   4   6
ENDBRANCH   2   4
BRANCH   3   8
ATOM      8  C   UNL     1      28.999 -45.090 -18.404  1.00  0.00    -0.003 C 
ATOM      9  C   UNL     1      28.525 -44.438 -17.335  1.00  0.00    -0.020 C 
BRANCH   9  10
ATOM     10  C   UNL     1      27.732 -43.152 -17.348  1.00  0.00    -0.010 CG0
ATOM     11  C   UNL     1      26.351 -43.440 -17.980  1.00  0.00     0.016 C 
ATOM     12  C   UNL     1      27.502 -42.658 -15.901  1.00  0.00     0.016 C 
ATOM     13  G   UNL     1      28.453 -42.105 -18.226  1.00  0.00     0.000 G0
ENDBRANCH   9  10
ENDBRANCH   3   8
TORSDOF 0
ENDMDL
MODEL 8
REMARK VINA RESULT:    -2.717      1.791      2.594
REMARK INTER + INTRA:          -2.611
REMARK INTER:                  -3.369
REMARK INTRA:                   0.758
REMARK UNBOUND:                 0.741
REMARK SMILES CC1=CC=CC(C)(C)CC1=O
REMARK SMILES IDX 1 1 2 2 3 3 10 4 11 5 9 6 4 8 5 9 6 10 7 11 8 12
REMARK H PARENT
REMARK Flexibility Score: 80.00
ROOT
ATOM      1  C   UNL     1      29.339 -42.867 -17.126  1.00  0.00     0.048 C 
ATOM      2  C   UNL     1      28.531 -42.829 -18.402  1.00  0.00    -0.008 C 
ATOM      3  C   UNL     1      28.982 -42.045 -19.404  1.00  0.00     0.007 C 
ENDROOT
BRANCH   2   4
ATOM      4  C   UNL     1      27.345 -43.717 -18.477  1.00  0.00     0.159 C 
ATOM      5  O   UNL     1      27.201 -44.614 -17.601  1.00  0.00    -0.295 OA
BRANCH   4   6
ATOM      6  C   UNL     1      26.291 -43.602 -19.535  1.00  0.00     0.091 CG0
ATOM      7  G   UNL     1      26.838 -43.809 -20.965  1.00  0.00     0.000 G0
ENDBRANCH   4   6
ENDBRANCH   2   4
BRANCH   3   8
ATOM      8  C   UNL     1      28.429 -41.825 -20.761  1.00  0.00    -0.003 C 
ATOM      9  C   UNL     1      27.540 -42.560 -21.441  1.00  0.00    -0.020 C 
BRANCH   9  10
ATOM     10  C   UNL     1      26.852 -43.814 -20.952  1.00  0.00    -0.010 CG0
ATOM     11  C   UNL     1      25.658 -44.108 -21.889  1.00  0.00     0.016 C 
ATOM     12  C   UNL     1      27.824 -45.013 -21.027  1.00  0.00     0.016 C 
ATOM     13  G   UNL     1      26.300 -43.583 -19.528  1.00  0.00     0.000 G0
ENDBRANCH   9  10
ENDBRANCH   3   8
TORSDOF 0
ENDMDL
MODEL 9
REMARK VINA RESULT:    -2.527      1.845      2.640
REMARK INTER + INTRA:          -2.377
REMARK INTER:                  -3.128
REMARK INTRA:                   0.752
REMARK UNBOUND:                 0.741
REMARK SMILES CC1=CC=CC(C)(C)CC1=O
REMARK SMILES IDX 1 1 2 2 3 3 10 4 11 5 9 6 4 8 5 9 6 10 7 11 8 12
REMARK H PARENT
REMARK Flexibility Score: 80.00
ROOT
ATOM      1  C   UNL     1      29.406 -45.433 -18.529  1.00  0.00     0.048 C 
ATOM      2  C   UNL     1      28.494 -44.336 -19.023  1.00  0.00    -0.008 C 
ATOM      3  C   UNL     1      28.661 -43.908 -20.292  1.00  0.00     0.007 C 
ENDROOT
BRANCH   2   4
ATOM      4  C   UNL     1      27.434 -43.869 -18.095  1.00  0.00     0.159 C 
ATOM      5  O   UNL     1      27.218 -44.527 -17.039  1.00  0.00    -0.295 OA
BRANCH   4   6
ATOM      6  C   UNL     1      26.608 -42.643 -18.333  1.00  0.00     0.091 CG0
ATOM      7  G   UNL     1      25.806 -42.696 -19.652  1.00  0.00     0.000 G0
ENDBRANCH   4   6
ENDBRANCH   2   4
BRANCH   3   8
ATOM      8  C   UNL     1      27.913 -42.880 -21.056  1.00  0.00    -0.003 C 
ATOM      9  C   UNL     1      26.702 -42.362 -20.814  1.00  0.00    -0.020 C 
BRANCH   9  10
ATOM     10  C   UNL     1      25.799 -42.699 -19.650  1.00  0.00    -0.010 CG0
ATOM     11  C   UNL     1      24.694 -41.621 -19.566  1.00  0.00     0.016 C 
ATOM     12  C   UNL     1      25.117 -44.065 -19.888  1.00  0.00     0.016 C 
ATOM     13  G   UNL     1      26.609 -42.660 -18.335  1.00  0.00     0.000 G0
ENDBRANCH   9  10
ENDBRANCH   3   8
TORSDOF 0
ENDMDL
