MODEL 1
REMARK VINA RESULT:    -4.010      0.000      0.000
REMARK INTER + INTRA:          -6.456
REMARK INTER:                  -6.120
REMARK INTRA:                  -0.336
REMARK UNBOUND:                -0.336
REMARK SMILES O=C([O-])CCCCCCCCC(=O)[O-]
REMARK SMILES IDX 7 1 6 2 5 3 4 4 2 5 1 6 3 7 8 8 9 9 10 10 11 11 12 12 13 13
REMARK SMILES IDX 14 14
REMARK H PARENT
REMARK Flexibility Score: inf
ROOT
ATOM      1  C   UNL     1     -17.771 -15.499   1.152  1.00  0.00     0.000 C 
ENDROOT
BRANCH   1   2
ATOM      2  C   UNL     1     -18.158 -14.829  -0.172  1.00  0.00     0.000 C 
BRANCH   2   3
ATOM      3  C   UNL     1     -16.913 -14.423  -0.969  1.00  0.00     0.006 C 
BRANCH   3   4
ATOM      4  C   UNL     1     -17.061 -14.791  -2.447  1.00  0.00     0.053 C 
BRANCH   4   5
ATOM      5  C   UNL     1     -17.983 -13.837  -3.135  1.00  0.00     0.041 C 
ATOM      6  O   UNL     1     -18.820 -14.258  -3.976  1.00  0.00    -0.550 OA
ATOM      7  O   UNL     1     -17.953 -12.486  -2.813  1.00  0.00    -0.550 OA
ENDBRANCH   4   5
ENDBRANCH   3   4
ENDBRANCH   2   3
ENDBRANCH   1   2
BRANCH   1   8
ATOM      8  C   UNL     1     -18.493 -16.842   1.321  1.00  0.00     0.000 C 
BRANCH   8   9
ATOM      9  C   UNL     1     -17.731 -17.760   2.284  1.00  0.00     0.000 C 
BRANCH   9  10
ATOM     10  C   UNL     1     -17.837 -19.228   1.846  1.00  0.00     0.006 C 
BRANCH  10  11
ATOM     11  C   UNL     1     -16.471 -19.926   1.817  1.00  0.00     0.053 C 
BRANCH  11  12
ATOM     12  C   UNL     1     -15.956 -20.193   3.198  1.00  0.00     0.041 C 
ATOM     13  O   UNL     1     -14.727 -20.087   3.448  1.00  0.00    -0.550 OA
ATOM     14  O   UNL     1     -16.831 -20.590   4.202  1.00  0.00    -0.550 OA
ENDBRANCH  11  12
ENDBRANCH  10  11
ENDBRANCH   9  10
ENDBRANCH   8   9
ENDBRANCH   1   8
TORSDOF 9
ENDMDL
MODEL 2
REMARK VINA RESULT:    -3.927      4.825      5.814
REMARK INTER + INTRA:          -6.329
REMARK INTER:                  -5.751
REMARK INTRA:                  -0.579
REMARK UNBOUND:                -0.336
REMARK SMILES O=C([O-])CCCCCCCCC(=O)[O-]
REMARK SMILES IDX 7 1 6 2 5 3 4 4 2 5 1 6 3 7 8 8 9 9 10 10 11 11 12 12 13 13
REMARK SMILES IDX 14 14
REMARK H PARENT
REMARK Flexibility Score: inf
ROOT
ATOM      1  C   UNL     1     -20.098 -17.637   1.277  1.00  0.00     0.000 C 
ENDROOT
BRANCH   1   2
ATOM      2  C   UNL     1     -21.209 -18.496   0.659  1.00  0.00     0.000 C 
BRANCH   2   3
ATOM      3  C   UNL     1     -20.732 -19.936   0.435  1.00  0.00     0.006 C 
BRANCH   3   4
ATOM      4  C   UNL     1     -21.595 -20.645  -0.612  1.00  0.00     0.053 C 
BRANCH   4   5
ATOM      5  C   UNL     1     -22.179 -21.900  -0.048  1.00  0.00     0.041 C 
ATOM      6  O   UNL     1     -22.232 -22.070   1.199  1.00  0.00    -0.550 OA
ATOM      7  O   UNL     1     -22.709 -22.863  -0.896  1.00  0.00    -0.550 OA
ENDBRANCH   4   5
ENDBRANCH   3   4
ENDBRANCH   2   3
ENDBRANCH   1   2
BRANCH   1   8
ATOM      8  C   UNL     1     -19.193 -18.478   2.185  1.00  0.00     0.000 C 
BRANCH   8   9
ATOM      9  C   UNL     1     -17.714 -18.239   1.863  1.00  0.00     0.000 C 
BRANCH   9  10
ATOM     10  C   UNL     1     -16.969 -19.569   1.676  1.00  0.00     0.006 C 
BRANCH  10  11
ATOM     11  C   UNL     1     -17.181 -20.525   2.858  1.00  0.00     0.053 C 
BRANCH  11  12
ATOM     12  C   UNL     1     -16.096 -20.387   3.882  1.00  0.00     0.041 C 
ATOM     13  O   UNL     1     -14.933 -20.054   3.534  1.00  0.00    -0.550 OA
ATOM     14  O   UNL     1     -16.364 -20.655   5.219  1.00  0.00    -0.550 OA
ENDBRANCH  11  12
ENDBRANCH  10  11
ENDBRANCH   9  10
ENDBRANCH   8   9
ENDBRANCH   1   8
TORSDOF 9
ENDMDL
MODEL 3
REMARK VINA RESULT:    -3.811      5.089      7.585
REMARK INTER + INTRA:          -6.152
REMARK INTER:                  -5.558
REMARK INTRA:                  -0.594
REMARK UNBOUND:                -0.336
REMARK SMILES O=C([O-])CCCCCCCCC(=O)[O-]
REMARK SMILES IDX 7 1 6 2 5 3 4 4 2 5 1 6 3 7 8 8 9 9 10 10 11 11 12 12 13 13
REMARK SMILES IDX 14 14
REMARK H PARENT
REMARK Flexibility Score: inf
ROOT
ATOM      1  C   UNL     1     -18.935 -19.007   1.633  1.00  0.00     0.000 C 
ENDROOT
BRANCH   1   2
ATOM      2  C   UNL     1     -17.407 -19.057   1.761  1.00  0.00     0.000 C 
BRANCH   2   3
ATOM      3  C   UNL     1     -16.953 -20.362   2.425  1.00  0.00     0.006 C 
BRANCH   3   4
ATOM      4  C   UNL     1     -15.673 -20.149   3.238  1.00  0.00     0.053 C 
BRANCH   4   5
ATOM      5  C   UNL     1     -15.970 -20.184   4.703  1.00  0.00     0.041 C 
ATOM      6  O   UNL     1     -15.068 -20.490   5.526  1.00  0.00    -0.550 OA
ATOM      7  O   UNL     1     -17.232 -19.834   5.165  1.00  0.00    -0.550 OA
ENDBRANCH   4   5
ENDBRANCH   3   4
ENDBRANCH   2   3
ENDBRANCH   1   2
BRANCH   1   8
ATOM      8  C   UNL     1     -19.590 -20.164   2.398  1.00  0.00     0.000 C 
BRANCH   8   9
ATOM      9  C   UNL     1     -20.841 -20.668   1.670  1.00  0.00     0.000 C 
BRANCH   9  10
ATOM     10  C   UNL     1     -21.090 -19.867   0.384  1.00  0.00     0.006 C 
BRANCH  10  11
ATOM     11  C   UNL     1     -21.390 -20.774  -0.817  1.00  0.00     0.053 C 
BRANCH  11  12
ATOM     12  C   UNL     1     -22.609 -21.615  -0.586  1.00  0.00     0.041 C 
ATOM     13  O   UNL     1     -22.552 -22.864  -0.725  1.00  0.00    -0.550 OA
ATOM     14  O   UNL     1     -23.814 -21.013  -0.246  1.00  0.00    -0.550 OA
ENDBRANCH  11  12
ENDBRANCH  10  11
ENDBRANCH   9  10
ENDBRANCH   8   9
ENDBRANCH   1   8
TORSDOF 9
ENDMDL
MODEL 4
REMARK VINA RESULT:    -3.802      4.437      5.670
REMARK INTER + INTRA:          -6.139
REMARK INTER:                  -5.699
REMARK INTRA:                  -0.440
REMARK UNBOUND:                -0.336
REMARK SMILES O=C([O-])CCCCCCCCC(=O)[O-]
REMARK SMILES IDX 7 1 6 2 5 3 4 4 2 5 1 6 3 7 8 8 9 9 10 10 11 11 12 12 13 13
REMARK SMILES IDX 14 14
REMARK H PARENT
REMARK Flexibility Score: inf
ROOT
ATOM      1  C   UNL     1     -19.005 -18.120   1.543  1.00  0.00     0.000 C 
ENDROOT
BRANCH   1   2
ATOM      2  C   UNL     1     -19.977 -19.271   1.830  1.00  0.00     0.000 C 
BRANCH   2   3
ATOM      3  C   UNL     1     -20.834 -19.588   0.599  1.00  0.00     0.006 C 
BRANCH   3   4
ATOM      4  C   UNL     1     -21.612 -20.893   0.791  1.00  0.00     0.053 C 
BRANCH   4   5
ATOM      5  C   UNL     1     -21.959 -21.495  -0.533  1.00  0.00     0.041 C 
ATOM      6  O   UNL     1     -21.671 -20.892  -1.599  1.00  0.00    -0.550 OA
ATOM      7  O   UNL     1     -22.559 -22.746  -0.592  1.00  0.00    -0.550 OA
ENDBRANCH   4   5
ENDBRANCH   3   4
ENDBRANCH   2   3
ENDBRANCH   1   2
BRANCH   1   8
ATOM      8  C   UNL     1     -17.655 -18.355   2.231  1.00  0.00     0.000 C 
BRANCH   8   9
ATOM      9  C   UNL     1     -16.946 -19.583   1.649  1.00  0.00     0.000 C 
BRANCH   9  10
ATOM     10  C   UNL     1     -16.128 -20.309   2.727  1.00  0.00     0.006 C 
BRANCH  10  11
ATOM     11  C   UNL     1     -16.083 -19.528   4.047  1.00  0.00     0.053 C 
BRANCH  11  12
ATOM     12  C   UNL     1     -16.060 -20.444   5.233  1.00  0.00     0.041 C 
ATOM     13  O   UNL     1     -14.973 -20.705   5.811  1.00  0.00    -0.550 OA
ATOM     14  O   UNL     1     -17.236 -21.032   5.680  1.00  0.00    -0.550 OA
ENDBRANCH  11  12
ENDBRANCH  10  11
ENDBRANCH   9  10
ENDBRANCH   8   9
ENDBRANCH   1   8
TORSDOF 9
ENDMDL
MODEL 5
REMARK VINA RESULT:    -3.768      5.123      6.206
REMARK INTER + INTRA:          -6.086
REMARK INTER:                  -5.514
REMARK INTRA:                  -0.572
REMARK UNBOUND:                -0.336
REMARK SMILES O=C([O-])CCCCCCCCC(=O)[O-]
REMARK SMILES IDX 7 1 6 2 5 3 4 4 2 5 1 6 3 7 8 8 9 9 10 10 11 11 12 12 13 13
REMARK SMILES IDX 14 14
REMARK H PARENT
REMARK Flexibility Score: inf
ROOT
ATOM      1  C   UNL     1     -20.186 -19.572   1.801  1.00  0.00     0.000 C 
ENDROOT
BRANCH   1   2
ATOM      2  C   UNL     1     -21.066 -19.223   0.594  1.00  0.00     0.000 C 
BRANCH   2   3
ATOM      3  C   UNL     1     -20.861 -20.228  -0.546  1.00  0.00     0.006 C 
BRANCH   3   4
ATOM      4  C   UNL     1     -22.183 -20.532  -1.256  1.00  0.00     0.053 C 
BRANCH   4   5
ATOM      5  C   UNL     1     -22.908 -21.640  -0.561  1.00  0.00     0.041 C 
ATOM      6  O   UNL     1     -22.537 -22.833  -0.713  1.00  0.00    -0.550 OA
ATOM      7  O   UNL     1     -23.965 -21.352   0.293  1.00  0.00    -0.550 OA
ENDBRANCH   4   5
ENDBRANCH   3   4
ENDBRANCH   2   3
ENDBRANCH   1   2
BRANCH   1   8
ATOM      8  C   UNL     1     -20.566 -20.939   2.383  1.00  0.00     0.000 C 
BRANCH   8   9
ATOM      9  C   UNL     1     -19.689 -21.286   3.592  1.00  0.00     0.000 C 
BRANCH   9  10
ATOM     10  C   UNL     1     -18.236 -21.539   3.164  1.00  0.00     0.006 C 
BRANCH  10  11
ATOM     11  C   UNL     1     -17.262 -20.533   3.790  1.00  0.00     0.053 C 
BRANCH  11  12
ATOM     12  C   UNL     1     -16.169 -20.154   2.838  1.00  0.00     0.041 C 
ATOM     13  O   UNL     1     -16.436 -19.901   1.634  1.00  0.00    -0.550 OA
ATOM     14  O   UNL     1     -14.851 -20.111   3.274  1.00  0.00    -0.550 OA
ENDBRANCH  11  12
ENDBRANCH  10  11
ENDBRANCH   9  10
ENDBRANCH   8   9
ENDBRANCH   1   8
TORSDOF 9
ENDMDL
MODEL 6
REMARK VINA RESULT:    -3.678      0.538      7.446
REMARK INTER + INTRA:          -5.950
REMARK INTER:                  -5.571
REMARK INTRA:                  -0.379
REMARK UNBOUND:                -0.336
REMARK SMILES O=C([O-])CCCCCCCCC(=O)[O-]
REMARK SMILES IDX 7 1 6 2 5 3 4 4 2 5 1 6 3 7 8 8 9 9 10 10 11 11 12 12 13 13
REMARK SMILES IDX 14 14
REMARK H PARENT
REMARK Flexibility Score: inf
ROOT
ATOM      1  C   UNL     1     -19.344 -16.666   1.430  1.00  0.00     0.000 C 
ENDROOT
BRANCH   1   2
ATOM      2  C   UNL     1     -18.902 -18.135   1.447  1.00  0.00     0.000 C 
BRANCH   2   3
ATOM      3  C   UNL     1     -17.738 -18.349   2.421  1.00  0.00     0.006 C 
BRANCH   3   4
ATOM      4  C   UNL     1     -16.870 -19.535   1.991  1.00  0.00     0.053 C 
BRANCH   4   5
ATOM      5  C   UNL     1     -16.161 -20.120   3.170  1.00  0.00     0.041 C 
ATOM      6  O   UNL     1     -14.904 -20.185   3.185  1.00  0.00    -0.550 OA
ATOM      7  O   UNL     1     -16.885 -20.550   4.275  1.00  0.00    -0.550 OA
ENDBRANCH   4   5
ENDBRANCH   3   4
ENDBRANCH   2   3
ENDBRANCH   1   2
BRANCH   1   8
ATOM      8  C   UNL     1     -18.154 -15.736   1.164  1.00  0.00     0.000 C 
BRANCH   8   9
ATOM      9  C   UNL     1     -18.348 -14.950  -0.138  1.00  0.00     0.000 C 
BRANCH   9  10
ATOM     10  C   UNL     1     -16.997 -14.595  -0.774  1.00  0.00     0.006 C 
BRANCH  10  11
ATOM     11  C   UNL     1     -17.008 -14.773  -2.299  1.00  0.00     0.053 C 
BRANCH  11  12
ATOM     12  C   UNL     1     -17.827 -13.715  -2.974  1.00  0.00     0.041 C 
ATOM     13  O   UNL     1     -17.674 -12.504  -2.669  1.00  0.00    -0.550 OA
ATOM     14  O   UNL     1     -18.781 -14.073  -3.918  1.00  0.00    -0.550 OA
ENDBRANCH  11  12
ENDBRANCH  10  11
ENDBRANCH   9  10
ENDBRANCH   8   9
ENDBRANCH   1   8
TORSDOF 9
ENDMDL
MODEL 7
REMARK VINA RESULT:    -3.648      5.214      7.384
REMARK INTER + INTRA:          -5.903
REMARK INTER:                  -5.252
REMARK INTRA:                  -0.651
REMARK UNBOUND:                -0.336
REMARK SMILES O=C([O-])CCCCCCCCC(=O)[O-]
REMARK SMILES IDX 7 1 6 2 5 3 4 4 2 5 1 6 3 7 8 8 9 9 10 10 11 11 12 12 13 13
REMARK SMILES IDX 14 14
REMARK H PARENT
REMARK Flexibility Score: inf
ROOT
ATOM      1  C   UNL     1     -19.783 -19.765   2.199  1.00  0.00     0.000 C 
ENDROOT
BRANCH   1   2
ATOM      2  C   UNL     1     -19.675 -21.061   3.012  1.00  0.00     0.000 C 
BRANCH   2   3
ATOM      3  C   UNL     1     -18.211 -21.399   3.318  1.00  0.00     0.006 C 
BRANCH   3   4
ATOM      4  C   UNL     1     -17.391 -20.128   3.556  1.00  0.00     0.053 C 
BRANCH   4   5
ATOM      5  C   UNL     1     -16.126 -20.164   2.760  1.00  0.00     0.041 C 
ATOM      6  O   UNL     1     -15.010 -20.176   3.344  1.00  0.00    -0.550 OA
ATOM      7  O   UNL     1     -16.177 -20.234   1.374  1.00  0.00    -0.550 OA
ENDBRANCH   4   5
ENDBRANCH   3   4
ENDBRANCH   2   3
ENDBRANCH   1   2
BRANCH   1   8
ATOM      8  C   UNL     1     -21.212 -19.210   2.235  1.00  0.00     0.000 C 
BRANCH   8   9
ATOM      9  C   UNL     1     -21.764 -19.016   0.818  1.00  0.00     0.000 C 
BRANCH   9  10
ATOM     10  C   UNL     1     -20.968 -19.845  -0.201  1.00  0.00     0.006 C 
BRANCH  10  11
ATOM     11  C   UNL     1     -21.872 -20.759  -1.039  1.00  0.00     0.053 C 
BRANCH  11  12
ATOM     12  C   UNL     1     -22.787 -21.575  -0.176  1.00  0.00     0.041 C 
ATOM     13  O   UNL     1     -24.034 -21.503  -0.330  1.00  0.00    -0.550 OA
ATOM     14  O   UNL     1     -22.261 -22.390   0.818  1.00  0.00    -0.550 OA
ENDBRANCH  11  12
ENDBRANCH  10  11
ENDBRANCH   9  10
ENDBRANCH   8   9
ENDBRANCH   1   8
TORSDOF 9
ENDMDL
MODEL 8
REMARK VINA RESULT:    -3.614      4.915      7.524
REMARK INTER + INTRA:          -5.851
REMARK INTER:                  -5.356
REMARK INTRA:                  -0.495
REMARK UNBOUND:                -0.336
REMARK SMILES O=C([O-])CCCCCCCCC(=O)[O-]
REMARK SMILES IDX 7 1 6 2 5 3 4 4 2 5 1 6 3 7 8 8 9 9 10 10 11 11 12 12 13 13
REMARK SMILES IDX 14 14
REMARK H PARENT
REMARK Flexibility Score: inf
ROOT
ATOM      1  C   UNL     1     -14.811 -12.350   0.603  1.00  0.00     0.000 C 
ENDROOT
BRANCH   1   2
ATOM      2  C   UNL     1     -13.991 -13.470   1.255  1.00  0.00     0.000 C 
BRANCH   2   3
ATOM      3  C   UNL     1     -12.489 -13.244   1.049  1.00  0.00     0.006 C 
BRANCH   3   4
ATOM      4  C   UNL     1     -12.203 -11.801   0.623  1.00  0.00     0.053 C 
BRANCH   4   5
ATOM      5  C   UNL     1     -11.615 -11.026   1.759  1.00  0.00     0.041 C 
ATOM      6  O   UNL     1     -11.484  -9.777   1.674  1.00  0.00    -0.550 OA
ATOM      7  O   UNL     1     -11.256 -11.677   2.933  1.00  0.00    -0.550 OA
ENDBRANCH   4   5
ENDBRANCH   3   4
ENDBRANCH   2   3
ENDBRANCH   1   2
BRANCH   1   8
ATOM      8  C   UNL     1     -16.247 -12.811   0.323  1.00  0.00     0.000 C 
BRANCH   8   9
ATOM      9  C   UNL     1     -16.295 -14.314   0.022  1.00  0.00     0.000 C 
BRANCH   9  10
ATOM     10  C   UNL     1     -17.489 -14.657  -0.880  1.00  0.00     0.006 C 
BRANCH  10  11
ATOM     11  C   UNL     1     -17.123 -14.613  -2.370  1.00  0.00     0.053 C 
BRANCH  11  12
ATOM     12  C   UNL     1     -18.074 -13.757  -3.149  1.00  0.00     0.041 C 
ATOM     13  O   UNL     1     -18.839 -14.275  -4.003  1.00  0.00    -0.550 OA
ATOM     14  O   UNL     1     -18.092 -12.382  -2.953  1.00  0.00    -0.550 OA
ENDBRANCH  11  12
ENDBRANCH  10  11
ENDBRANCH   9  10
ENDBRANCH   8   9
ENDBRANCH   1   8
TORSDOF 9
ENDMDL
MODEL 9
REMARK VINA RESULT:    -3.525      5.076      6.015
REMARK INTER + INTRA:          -5.716
REMARK INTER:                  -5.215
REMARK INTRA:                  -0.501
REMARK UNBOUND:                -0.336
REMARK SMILES O=C([O-])CCCCCCCCC(=O)[O-]
REMARK SMILES IDX 7 1 6 2 5 3 4 4 2 5 1 6 3 7 8 8 9 9 10 10 11 11 12 12 13 13
REMARK SMILES IDX 14 14
REMARK H PARENT
REMARK Flexibility Score: inf
ROOT
ATOM      1  C   UNL     1     -16.673 -12.383  -2.302  1.00  0.00     0.000 C 
ENDROOT
BRANCH   1   2
ATOM      2  C   UNL     1     -17.232 -13.807  -2.412  1.00  0.00     0.000 C 
BRANCH   2   3
ATOM      3  C   UNL     1     -18.351 -13.881  -3.458  1.00  0.00     0.006 C 
BRANCH   3   4
ATOM      4  C   UNL     1     -19.486 -12.911  -3.119  1.00  0.00     0.053 C 
BRANCH   4   5
ATOM      5  C   UNL     1     -19.689 -11.933  -4.231  1.00  0.00     0.041 C 
ATOM      6  O   UNL     1     -19.895 -12.340  -5.404  1.00  0.00    -0.550 OA
ATOM      7  O   UNL     1     -19.698 -10.570  -3.965  1.00  0.00    -0.550 OA
ENDBRANCH   4   5
ENDBRANCH   3   4
ENDBRANCH   2   3
ENDBRANCH   1   2
BRANCH   1   8
ATOM      8  C   UNL     1     -16.176 -12.095  -0.880  1.00  0.00     0.000 C 
BRANCH   8   9
ATOM      9  C   UNL     1     -16.124 -13.378  -0.043  1.00  0.00     0.000 C 
BRANCH   9  10
ATOM     10  C   UNL     1     -14.952 -13.342   0.948  1.00  0.00     0.006 C 
BRANCH  10  11
ATOM     11  C   UNL     1     -14.150 -12.037   0.852  1.00  0.00     0.053 C 
BRANCH  11  12
ATOM     12  C   UNL     1     -12.686 -12.299   0.675  1.00  0.00     0.041 C 
ATOM     13  O   UNL     1     -12.224 -13.457   0.845  1.00  0.00    -0.550 OA
ATOM     14  O   UNL     1     -11.827 -11.256   0.351  1.00  0.00    -0.550 OA
ENDBRANCH  11  12
ENDBRANCH  10  11
ENDBRANCH   9  10
ENDBRANCH   8   9
ENDBRANCH   1   8
TORSDOF 9
ENDMDL
