MODEL 1
REMARK VINA RESULT:    -6.377      0.000      0.000
REMARK INTER + INTRA:          -8.073
REMARK INTER:                  -7.682
REMARK INTRA:                  -0.391
REMARK UNBOUND:                -0.391
REMARK SMILES COc1ccc([C@H]2CC(=O)c3c(O)cc(O)cc3O2)cc1O
REMARK SMILES IDX 7 1 8 2 9 3 10 4 11 5 12 6 14 7 15 8 17 9 18 10 19 11 6 12
REMARK SMILES IDX 3 13 21 14 4 15 20 16 5 17 2 18 1 19 22 20 13 22 16 24
REMARK H PARENT 22 21 13 23 16 25
REMARK Flexibility Score: inf
ROOT
ATOM      1  C   UNL     1     111.532 114.072 110.412  1.00  0.00     0.211 C 
ATOM      2  C   UNL     1     110.381 113.878 111.410  1.00  0.00     0.131 C 
ATOM      3  C   UNL     1     109.144 113.479 110.664  1.00  0.00     0.174 C 
ATOM      4  O   UNL     1     108.450 112.515 111.086  1.00  0.00    -0.294 OA
ATOM      5  C   UNL     1     108.804 114.197 109.410  1.00  0.00     0.102 A 
ATOM      6  C   UNL     1     107.507 114.217 108.831  1.00  0.00     0.133 A 
ATOM      7  C   UNL     1     107.308 114.872 107.611  1.00  0.00     0.093 A 
ATOM      8  C   UNL     1     108.357 115.554 106.985  1.00  0.00     0.123 A 
ATOM      9  C   UNL     1     109.621 115.573 107.574  1.00  0.00     0.093 A 
ATOM     10  C   UNL     1     109.850 114.896 108.774  1.00  0.00     0.138 A 
ATOM     11  O   UNL     1     111.133 114.933 109.340  1.00  0.00    -0.484 OA
ENDROOT
BRANCH   1  12
ATOM     12  C   UNL     1     112.747 114.641 111.102  1.00  0.00    -0.003 A 
ATOM     13  C   UNL     1     114.989 115.742 112.412  1.00  0.00     0.160 A 
ATOM     14  C   UNL     1     114.675 116.131 111.101  1.00  0.00     0.158 A 
ATOM     15  C   UNL     1     114.166 114.807 113.069  1.00  0.00     0.051 A 
ATOM     16  C   UNL     1     113.558 115.586 110.453  1.00  0.00     0.057 A 
ATOM     17  C   UNL     1     113.054 114.266 112.419  1.00  0.00     0.011 A 
BRANCH  13  18
ATOM     18  O   UNL     1     116.119 116.305 113.024  1.00  0.00    -0.493 OA
ATOM     19  C   UNL     1     116.080 117.405 113.929  1.00  0.00     0.278 C 
ENDBRANCH  13  18
BRANCH  14  20
ATOM     20  O   UNL     1     115.481 117.062 110.447  1.00  0.00    -0.504 OA
ATOM     21  H   UNL     1     115.421 118.053 110.652  1.00  0.00     0.293 HD
ENDBRANCH  14  20
ENDBRANCH   1  12
BRANCH   6  22
ATOM     22  O   UNL     1     106.391 113.640 109.440  1.00  0.00    -0.507 OA
ATOM     23  H   UNL     1     105.506 113.495 108.975  1.00  0.00     0.293 HD
ENDBRANCH   6  22
BRANCH   8  24
ATOM     24  O   UNL     1     108.149 116.227 105.783  1.00  0.00    -0.508 OA
ATOM     25  H   UNL     1     107.564 117.053 105.734  1.00  0.00     0.293 HD
ENDBRANCH   8  24
TORSDOF 5
ENDMDL
MODEL 2
REMARK VINA RESULT:    -6.118      2.175      3.512
REMARK INTER + INTRA:          -7.761
REMARK INTER:                  -7.376
REMARK INTRA:                  -0.385
REMARK UNBOUND:                -0.391
REMARK SMILES COc1ccc([C@H]2CC(=O)c3c(O)cc(O)cc3O2)cc1O
REMARK SMILES IDX 7 1 8 2 9 3 10 4 11 5 12 6 14 7 15 8 17 9 18 10 19 11 6 12
REMARK SMILES IDX 3 13 21 14 4 15 20 16 5 17 2 18 1 19 22 20 13 22 16 24
REMARK H PARENT 22 21 13 23 16 25
REMARK Flexibility Score: inf
ROOT
ATOM      1  C   UNL     1     108.151 114.394 109.900  1.00  0.00     0.211 C 
ATOM      2  C   UNL     1     107.526 115.633 110.558  1.00  0.00     0.131 C 
ATOM      3  C   UNL     1     106.157 115.855 109.989  1.00  0.00     0.174 C 
ATOM      4  O   UNL     1     105.195 116.092 110.767  1.00  0.00    -0.294 OA
ATOM      5  C   UNL     1     105.965 115.730 108.523  1.00  0.00     0.102 A 
ATOM      6  C   UNL     1     104.868 116.288 107.813  1.00  0.00     0.133 A 
ATOM      7  C   UNL     1     104.748 116.056 106.439  1.00  0.00     0.093 A 
ATOM      8  C   UNL     1     105.722 115.329 105.747  1.00  0.00     0.123 A 
ATOM      9  C   UNL     1     106.824 114.817 106.434  1.00  0.00     0.093 A 
ATOM     10  C   UNL     1     106.946 115.008 107.812  1.00  0.00     0.138 A 
ATOM     11  O   UNL     1     108.064 114.479 108.474  1.00  0.00    -0.484 OA
ENDROOT
BRANCH   1  12
ATOM     12  C   UNL     1     109.593 114.237 110.317  1.00  0.00    -0.003 A 
ATOM     13  C   UNL     1     112.288 113.996 111.111  1.00  0.00     0.160 A 
ATOM     14  C   UNL     1     111.969 114.311 109.782  1.00  0.00     0.158 A 
ATOM     15  C   UNL     1     111.250 113.814 112.044  1.00  0.00     0.051 A 
ATOM     16  C   UNL     1     110.628 114.436 109.391  1.00  0.00     0.057 A 
ATOM     17  C   UNL     1     109.916 113.938 111.650  1.00  0.00     0.011 A 
BRANCH  13  18
ATOM     18  O   UNL     1     113.641 113.874 111.462  1.00  0.00    -0.493 OA
ATOM     19  C   UNL     1     114.366 114.837 112.221  1.00  0.00     0.278 C 
ENDBRANCH  13  18
BRANCH  14  20
ATOM     20  O   UNL     1     112.992 114.500 108.853  1.00  0.00    -0.504 OA
ATOM     21  H   UNL     1     113.925 114.771 109.140  1.00  0.00     0.293 HD
ENDBRANCH  14  20
ENDBRANCH   1  12
BRANCH   6  22
ATOM     22  O   UNL     1     103.905 117.101 108.414  1.00  0.00    -0.507 OA
ATOM     23  H   UNL     1     103.643 117.039 109.388  1.00  0.00     0.293 HD
ENDBRANCH   6  22
BRANCH   8  24
ATOM     24  O   UNL     1     105.613 115.121 104.374  1.00  0.00    -0.508 OA
ATOM     25  H   UNL     1     106.209 115.610 103.716  1.00  0.00     0.293 HD
ENDBRANCH   8  24
TORSDOF 5
ENDMDL
MODEL 3
REMARK VINA RESULT:    -6.090      2.143      7.618
REMARK INTER + INTRA:          -7.726
REMARK INTER:                  -7.364
REMARK INTRA:                  -0.362
REMARK UNBOUND:                -0.391
REMARK SMILES COc1ccc([C@H]2CC(=O)c3c(O)cc(O)cc3O2)cc1O
REMARK SMILES IDX 7 1 8 2 9 3 10 4 11 5 12 6 14 7 15 8 17 9 18 10 19 11 6 12
REMARK SMILES IDX 3 13 21 14 4 15 20 16 5 17 2 18 1 19 22 20 13 22 16 24
REMARK H PARENT 22 21 13 23 16 25
REMARK Flexibility Score: inf
ROOT
ATOM      1  C   UNL     1     109.182 115.047 109.306  1.00  0.00     0.211 C 
ATOM      2  C   UNL     1     108.931 114.001 110.403  1.00  0.00     0.131 C 
ATOM      3  C   UNL     1     110.058 114.044 111.391  1.00  0.00     0.174 C 
ATOM      4  O   UNL     1     109.800 114.055 112.624  1.00  0.00    -0.294 OA
ATOM      5  C   UNL     1     111.449 114.133 110.882  1.00  0.00     0.102 A 
ATOM      6  C   UNL     1     112.598 113.783 111.640  1.00  0.00     0.133 A 
ATOM      7  C   UNL     1     113.870 113.966 111.087  1.00  0.00     0.093 A 
ATOM      8  C   UNL     1     114.022 114.435 109.778  1.00  0.00     0.123 A 
ATOM      9  C   UNL     1     112.893 114.737 109.015  1.00  0.00     0.093 A 
ATOM     10  C   UNL     1     111.615 114.595 109.560  1.00  0.00     0.138 A 
ATOM     11  O   UNL     1     110.501 114.910 108.768  1.00  0.00    -0.484 OA
ENDROOT
BRANCH   1  12
ATOM     12  C   UNL     1     108.161 114.917 108.202  1.00  0.00    -0.003 A 
ATOM     13  C   UNL     1     106.235 114.722 106.151  1.00  0.00     0.160 A 
ATOM     14  C   UNL     1     105.950 114.237 107.436  1.00  0.00     0.158 A 
ATOM     15  C   UNL     1     107.486 115.317 105.901  1.00  0.00     0.051 A 
ATOM     16  C   UNL     1     106.907 114.339 108.455  1.00  0.00     0.057 A 
ATOM     17  C   UNL     1     108.437 115.416 106.920  1.00  0.00     0.011 A 
BRANCH  13  18
ATOM     18  O   UNL     1     105.254 114.596 105.155  1.00  0.00    -0.493 OA
ATOM     19  C   UNL     1     105.240 113.573 104.164  1.00  0.00     0.278 C 
ENDBRANCH  13  18
BRANCH  14  20
ATOM     20  O   UNL     1     104.710 113.653 107.693  1.00  0.00    -0.504 OA
ATOM     21  H   UNL     1     103.958 113.683 107.013  1.00  0.00     0.293 HD
ENDBRANCH  14  20
ENDBRANCH   1  12
BRANCH   6  22
ATOM     22  O   UNL     1     112.527 113.222 112.917  1.00  0.00    -0.507 OA
ATOM     23  H   UNL     1     113.289 113.232 113.581  1.00  0.00     0.293 HD
ENDBRANCH   6  22
BRANCH   8  24
ATOM     24  O   UNL     1     115.289 114.591 109.221  1.00  0.00    -0.508 OA
ATOM     25  H   UNL     1     115.460 115.256 108.476  1.00  0.00     0.293 HD
ENDBRANCH   8  24
TORSDOF 5
ENDMDL
MODEL 4
REMARK VINA RESULT:    -5.962      3.368      8.967
REMARK INTER + INTRA:          -7.573
REMARK INTER:                  -7.221
REMARK INTRA:                  -0.352
REMARK UNBOUND:                -0.391
REMARK SMILES COc1ccc([C@H]2CC(=O)c3c(O)cc(O)cc3O2)cc1O
REMARK SMILES IDX 7 1 8 2 9 3 10 4 11 5 12 6 14 7 15 8 17 9 18 10 19 11 6 12
REMARK SMILES IDX 3 13 21 14 4 15 20 16 5 17 2 18 1 19 22 20 13 22 16 24
REMARK H PARENT 22 21 13 23 16 25
REMARK Flexibility Score: inf
ROOT
ATOM      1  C   UNL     1     106.445 115.130 107.079  1.00  0.00     0.211 C 
ATOM      2  C   UNL     1     105.959 114.663 108.459  1.00  0.00     0.131 C 
ATOM      3  C   UNL     1     106.907 115.159 109.508  1.00  0.00     0.174 C 
ATOM      4  O   UNL     1     106.449 115.701 110.550  1.00  0.00    -0.294 OA
ATOM      5  C   UNL     1     108.366 115.049 109.261  1.00  0.00     0.102 A 
ATOM      6  C   UNL     1     109.352 115.092 110.282  1.00  0.00     0.133 A 
ATOM      7  C   UNL     1     110.706 115.044 109.935  1.00  0.00     0.093 A 
ATOM      8  C   UNL     1     111.098 114.898 108.600  1.00  0.00     0.123 A 
ATOM      9  C   UNL     1     110.130 114.811 107.599  1.00  0.00     0.093 A 
ATOM     10  C   UNL     1     108.774 114.892 107.920  1.00  0.00     0.138 A 
ATOM     11  O   UNL     1     107.826 114.803 106.891  1.00  0.00    -0.484 OA
ENDROOT
BRANCH   1  12
ATOM     12  C   UNL     1     105.616 114.508 105.982  1.00  0.00    -0.003 A 
ATOM     13  C   UNL     1     104.108 113.315 103.918  1.00  0.00     0.160 A 
ATOM     14  C   UNL     1     104.831 114.492 103.675  1.00  0.00     0.158 A 
ATOM     15  C   UNL     1     104.154 112.731 105.198  1.00  0.00     0.051 A 
ATOM     16  C   UNL     1     105.584 115.081 104.701  1.00  0.00     0.057 A 
ATOM     17  C   UNL     1     104.905 113.321 106.217  1.00  0.00     0.011 A 
BRANCH  13  18
ATOM     18  O   UNL     1     103.362 112.760 102.868  1.00  0.00    -0.493 OA
ATOM     19  C   UNL     1     103.833 111.733 102.000  1.00  0.00     0.278 C 
ENDBRANCH  13  18
BRANCH  14  20
ATOM     20  O   UNL     1     104.796 115.073 102.407  1.00  0.00    -0.504 OA
ATOM     21  H   UNL     1     105.556 114.952 101.747  1.00  0.00     0.293 HD
ENDBRANCH  14  20
ENDBRANCH   1  12
BRANCH   6  22
ATOM     22  O   UNL     1     109.039 115.143 111.643  1.00  0.00    -0.507 OA
ATOM     23  H   UNL     1     109.569 115.668 112.324  1.00  0.00     0.293 HD
ENDBRANCH   6  22
BRANCH   8  24
ATOM     24  O   UNL     1     112.447 114.825 108.259  1.00  0.00    -0.508 OA
ATOM     25  H   UNL     1     112.820 115.334 107.466  1.00  0.00     0.293 HD
ENDBRANCH   8  24
TORSDOF 5
ENDMDL
MODEL 5
REMARK VINA RESULT:    -5.957      2.487      4.062
REMARK INTER + INTRA:          -7.567
REMARK INTER:                  -7.202
REMARK INTRA:                  -0.365
REMARK UNBOUND:                -0.391
REMARK SMILES COc1ccc([C@H]2CC(=O)c3c(O)cc(O)cc3O2)cc1O
REMARK SMILES IDX 7 1 8 2 9 3 10 4 11 5 12 6 14 7 15 8 17 9 18 10 19 11 6 12
REMARK SMILES IDX 3 13 21 14 4 15 20 16 5 17 2 18 1 19 22 20 13 22 16 24
REMARK H PARENT 22 21 13 23 16 25
REMARK Flexibility Score: inf
ROOT
ATOM      1  C   UNL     1     107.775 114.462 110.338  1.00  0.00     0.211 C 
ATOM      2  C   UNL     1     107.384 115.930 110.562  1.00  0.00     0.131 C 
ATOM      3  C   UNL     1     105.922 116.099 110.276  1.00  0.00     0.174 C 
ATOM      4  O   UNL     1     105.204 116.742 111.088  1.00  0.00    -0.294 OA
ATOM      5  C   UNL     1     105.351 115.451 109.070  1.00  0.00     0.102 A 
ATOM      6  C   UNL     1     104.127 115.838 108.463  1.00  0.00     0.133 A 
ATOM      7  C   UNL     1     103.646 115.117 107.365  1.00  0.00     0.093 A 
ATOM      8  C   UNL     1     104.382 114.057 106.824  1.00  0.00     0.123 A 
ATOM      9  C   UNL     1     105.607 113.704 107.392  1.00  0.00     0.093 A 
ATOM     10  C   UNL     1     106.090 114.388 108.510  1.00  0.00     0.138 A 
ATOM     11  O   UNL     1     107.323 114.007 109.058  1.00  0.00    -0.484 OA
ENDROOT
BRANCH   1  12
ATOM     12  C   UNL     1     109.270 114.285 110.446  1.00  0.00    -0.003 A 
ATOM     13  C   UNL     1     112.068 114.003 110.667  1.00  0.00     0.160 A 
ATOM     14  C   UNL     1     111.496 114.454 109.468  1.00  0.00     0.158 A 
ATOM     15  C   UNL     1     111.232 113.705 111.760  1.00  0.00     0.051 A 
ATOM     16  C   UNL     1     110.105 114.599 109.362  1.00  0.00     0.057 A 
ATOM     17  C   UNL     1     109.847 113.850 111.649  1.00  0.00     0.011 A 
BRANCH  13  18
ATOM     18  O   UNL     1     113.463 113.866 110.732  1.00  0.00    -0.493 OA
ATOM     19  C   UNL     1     114.324 114.740 111.456  1.00  0.00     0.278 C 
ENDBRANCH  13  18
BRANCH  14  20
ATOM     20  O   UNL     1     112.318 114.759 108.384  1.00  0.00    -0.504 OA
ATOM     21  H   UNL     1     112.088 114.460 107.443  1.00  0.00     0.293 HD
ENDBRANCH  14  20
ENDBRANCH   1  12
BRANCH   6  22
ATOM     22  O   UNL     1     103.381 116.940 108.885  1.00  0.00    -0.507 OA
ATOM     23  H   UNL     1     103.788 117.805 109.211  1.00  0.00     0.293 HD
ENDBRANCH   6  22
BRANCH   8  24
ATOM     24  O   UNL     1     103.913 113.358 105.714  1.00  0.00    -0.508 OA
ATOM     25  H   UNL     1     103.703 112.368 105.763  1.00  0.00     0.293 HD
ENDBRANCH   8  24
TORSDOF 5
ENDMDL
MODEL 6
REMARK VINA RESULT:    -5.932      3.009      7.930
REMARK INTER + INTRA:          -7.537
REMARK INTER:                  -7.153
REMARK INTRA:                  -0.383
REMARK UNBOUND:                -0.391
REMARK SMILES COc1ccc([C@H]2CC(=O)c3c(O)cc(O)cc3O2)cc1O
REMARK SMILES IDX 7 1 8 2 9 3 10 4 11 5 12 6 14 7 15 8 17 9 18 10 19 11 6 12
REMARK SMILES IDX 3 13 21 14 4 15 20 16 5 17 2 18 1 19 22 20 13 22 16 24
REMARK H PARENT 22 21 13 23 16 25
REMARK Flexibility Score: inf
ROOT
ATOM      1  C   UNL     1     107.707 114.712 109.068  1.00  0.00     0.211 C 
ATOM      2  C   UNL     1     108.547 115.489 108.044  1.00  0.00     0.131 C 
ATOM      3  C   UNL     1     109.918 114.888 107.974  1.00  0.00     0.174 C 
ATOM      4  O   UNL     1     110.436 114.655 106.849  1.00  0.00    -0.294 OA
ATOM      5  C   UNL     1     110.605 114.529 109.240  1.00  0.00     0.102 A 
ATOM      6  C   UNL     1     112.007 114.341 109.359  1.00  0.00     0.133 A 
ATOM      7  C   UNL     1     112.547 113.939 110.586  1.00  0.00     0.093 A 
ATOM      8  C   UNL     1     111.729 113.776 111.709  1.00  0.00     0.123 A 
ATOM      9  C   UNL     1     110.356 114.003 111.605  1.00  0.00     0.093 A 
ATOM     10  C   UNL     1     109.792 114.370 110.381  1.00  0.00     0.138 A 
ATOM     11  O   UNL     1     108.409 114.589 110.310  1.00  0.00    -0.484 OA
ENDROOT
BRANCH   1  12
ATOM     12  C   UNL     1     106.378 115.391 109.294  1.00  0.00    -0.003 A 
ATOM     13  C   UNL     1     103.915 116.703 109.696  1.00  0.00     0.160 A 
ATOM     14  C   UNL     1     104.890 116.707 110.705  1.00  0.00     0.158 A 
ATOM     15  C   UNL     1     104.185 116.049 108.479  1.00  0.00     0.051 A 
ATOM     16  C   UNL     1     106.116 116.058 110.501  1.00  0.00     0.057 A 
ATOM     17  C   UNL     1     105.407 115.403 108.281  1.00  0.00     0.011 A 
BRANCH  13  18
ATOM     18  O   UNL     1     102.698 117.359 109.940  1.00  0.00    -0.493 OA
ATOM     19  C   UNL     1     101.484 116.699 110.285  1.00  0.00     0.278 C 
ENDBRANCH  13  18
BRANCH  14  20
ATOM     20  O   UNL     1     104.632 117.360 111.910  1.00  0.00    -0.504 OA
ATOM     21  H   UNL     1     105.341 117.444 112.630  1.00  0.00     0.293 HD
ENDBRANCH  14  20
ENDBRANCH   1  12
BRANCH   6  22
ATOM     22  O   UNL     1     112.900 114.574 108.311  1.00  0.00    -0.507 OA
ATOM     23  H   UNL     1     113.315 115.473 108.112  1.00  0.00     0.293 HD
ENDBRANCH   6  22
BRANCH   8  24
ATOM     24  O   UNL     1     112.272 113.401 112.936  1.00  0.00    -0.508 OA
ATOM     25  H   UNL     1     111.682 113.183 113.731  1.00  0.00     0.293 HD
ENDBRANCH   8  24
TORSDOF 5
ENDMDL
MODEL 7
REMARK VINA RESULT:    -5.816      3.507      6.092
REMARK INTER + INTRA:          -7.396
REMARK INTER:                  -7.033
REMARK INTRA:                  -0.363
REMARK UNBOUND:                -0.391
REMARK SMILES COc1ccc([C@H]2CC(=O)c3c(O)cc(O)cc3O2)cc1O
REMARK SMILES IDX 7 1 8 2 9 3 10 4 11 5 12 6 14 7 15 8 17 9 18 10 19 11 6 12
REMARK SMILES IDX 3 13 21 14 4 15 20 16 5 17 2 18 1 19 22 20 13 22 16 24
REMARK H PARENT 22 21 13 23 16 25
REMARK Flexibility Score: inf
ROOT
ATOM      1  C   UNL     1     106.040 114.416 108.409  1.00  0.00     0.211 C 
ATOM      2  C   UNL     1     105.223 115.716 108.380  1.00  0.00     0.131 C 
ATOM      3  C   UNL     1     103.847 115.421 107.861  1.00  0.00     0.174 C 
ATOM      4  O   UNL     1     102.845 115.885 108.466  1.00  0.00    -0.294 OA
ATOM      5  C   UNL     1     103.706 114.536 106.678  1.00  0.00     0.102 A 
ATOM      6  C   UNL     1     102.552 114.492 105.851  1.00  0.00     0.133 A 
ATOM      7  C   UNL     1     102.495 113.574 104.797  1.00  0.00     0.093 A 
ATOM      8  C   UNL     1     103.582 112.740 104.514  1.00  0.00     0.123 A 
ATOM      9  C   UNL     1     104.734 112.813 105.298  1.00  0.00     0.093 A 
ATOM     10  C   UNL     1     104.798 113.697 106.377  1.00  0.00     0.138 A 
ATOM     11  O   UNL     1     105.970 113.745 107.146  1.00  0.00    -0.484 OA
ENDROOT
BRANCH   1  12
ATOM     12  C   UNL     1     107.480 114.699 108.760  1.00  0.00    -0.003 A 
ATOM     13  C   UNL     1     110.183 115.176 109.411  1.00  0.00     0.160 A 
ATOM     14  C   UNL     1     109.249 114.911 110.423  1.00  0.00     0.158 A 
ATOM     15  C   UNL     1     109.759 115.189 108.068  1.00  0.00     0.051 A 
ATOM     16  C   UNL     1     107.907 114.669 110.097  1.00  0.00     0.057 A 
ATOM     17  C   UNL     1     108.421 114.947 107.748  1.00  0.00     0.011 A 
BRANCH  13  18
ATOM     18  O   UNL     1     111.515 115.419 109.777  1.00  0.00    -0.493 OA
ATOM     19  C   UNL     1     112.552 114.444 109.736  1.00  0.00     0.278 C 
ENDBRANCH  13  18
BRANCH  14  20
ATOM     20  O   UNL     1     109.663 114.890 111.755  1.00  0.00    -0.504 OA
ATOM     21  H   UNL     1     109.030 114.630 112.503  1.00  0.00     0.293 HD
ENDBRANCH  14  20
ENDBRANCH   1  12
BRANCH   6  22
ATOM     22  O   UNL     1     101.466 115.355 106.011  1.00  0.00    -0.507 OA
ATOM     23  H   UNL     1     100.586 115.250 105.524  1.00  0.00     0.293 HD
ENDBRANCH   6  22
BRANCH   8  24
ATOM     24  O   UNL     1     103.533 111.845 103.447  1.00  0.00    -0.508 OA
ATOM     25  H   UNL     1     104.371 111.574 102.946  1.00  0.00     0.293 HD
ENDBRANCH   8  24
TORSDOF 5
ENDMDL
MODEL 8
REMARK VINA RESULT:    -5.778      2.864      4.892
REMARK INTER + INTRA:          -7.351
REMARK INTER:                  -6.983
REMARK INTRA:                  -0.368
REMARK UNBOUND:                -0.391
REMARK SMILES COc1ccc([C@H]2CC(=O)c3c(O)cc(O)cc3O2)cc1O
REMARK SMILES IDX 7 1 8 2 9 3 10 4 11 5 12 6 14 7 15 8 17 9 18 10 19 11 6 12
REMARK SMILES IDX 3 13 21 14 4 15 20 16 5 17 2 18 1 19 22 20 13 22 16 24
REMARK H PARENT 22 21 13 23 16 25
REMARK Flexibility Score: inf
ROOT
ATOM      1  C   UNL     1     107.013 114.484 108.742  1.00  0.00     0.211 C 
ATOM      2  C   UNL     1     106.344 115.747 109.305  1.00  0.00     0.131 C 
ATOM      3  C   UNL     1     105.031 115.958 108.613  1.00  0.00     0.174 C 
ATOM      4  O   UNL     1     104.007 116.224 109.297  1.00  0.00    -0.294 OA
ATOM      5  C   UNL     1     104.965 115.787 107.140  1.00  0.00     0.102 A 
ATOM      6  C   UNL     1     103.939 116.329 106.322  1.00  0.00     0.133 A 
ATOM      7  C   UNL     1     103.935 116.054 104.950  1.00  0.00     0.093 A 
ATOM      8  C   UNL     1     104.960 115.301 104.367  1.00  0.00     0.123 A 
ATOM      9  C   UNL     1     105.993 114.805 105.163  1.00  0.00     0.093 A 
ATOM     10  C   UNL     1     105.998 115.038 106.540  1.00  0.00     0.138 A 
ATOM     11  O   UNL     1     107.050 114.524 107.312  1.00  0.00    -0.484 OA
ENDROOT
BRANCH   1  12
ATOM     12  C   UNL     1     108.412 114.332 109.288  1.00  0.00    -0.003 A 
ATOM     13  C   UNL     1     111.022 114.097 110.329  1.00  0.00     0.160 A 
ATOM     14  C   UNL     1     110.818 114.637 109.051  1.00  0.00     0.158 A 
ATOM     15  C   UNL     1     109.911 113.686 111.089  1.00  0.00     0.051 A 
ATOM     16  C   UNL     1     109.519 114.758 108.537  1.00  0.00     0.057 A 
ATOM     17  C   UNL     1     108.619 113.808 110.573  1.00  0.00     0.011 A 
BRANCH  13  18
ATOM     18  O   UNL     1     112.338 113.987 110.806  1.00  0.00    -0.493 OA
ATOM     19  C   UNL     1     113.139 112.815 110.693  1.00  0.00     0.278 C 
ENDBRANCH  13  18
BRANCH  14  20
ATOM     20  O   UNL     1     111.914 115.054 108.295  1.00  0.00    -0.504 OA
ATOM     21  H   UNL     1     112.757 115.406 108.732  1.00  0.00     0.293 HD
ENDBRANCH  14  20
ENDBRANCH   1  12
BRANCH   6  22
ATOM     22  O   UNL     1     102.934 117.166 106.812  1.00  0.00    -0.507 OA
ATOM     23  H   UNL     1     102.172 116.851 107.397  1.00  0.00     0.293 HD
ENDBRANCH   6  22
BRANCH   8  24
ATOM     24  O   UNL     1     104.968 115.051 102.997  1.00  0.00    -0.508 OA
ATOM     25  H   UNL     1     104.298 115.490 102.376  1.00  0.00     0.293 HD
ENDBRANCH   8  24
TORSDOF 5
ENDMDL
MODEL 9
REMARK VINA RESULT:    -5.734      3.010      8.657
REMARK INTER + INTRA:          -7.297
REMARK INTER:                  -6.936
REMARK INTRA:                  -0.361
REMARK UNBOUND:                -0.391
REMARK SMILES COc1ccc([C@H]2CC(=O)c3c(O)cc(O)cc3O2)cc1O
REMARK SMILES IDX 7 1 8 2 9 3 10 4 11 5 12 6 14 7 15 8 17 9 18 10 19 11 6 12
REMARK SMILES IDX 3 13 21 14 4 15 20 16 5 17 2 18 1 19 22 20 13 22 16 24
REMARK H PARENT 22 21 13 23 16 25
REMARK Flexibility Score: inf
ROOT
ATOM      1  C   UNL     1     107.050 114.421 108.120  1.00  0.00     0.211 C 
ATOM      2  C   UNL     1     107.948 115.258 107.197  1.00  0.00     0.131 C 
ATOM      3  C   UNL     1     109.375 114.839 107.386  1.00  0.00     0.174 C 
ATOM      4  O   UNL     1     110.097 114.630 106.375  1.00  0.00    -0.294 OA
ATOM      5  C   UNL     1     109.879 114.625 108.765  1.00  0.00     0.102 A 
ATOM      6  C   UNL     1     111.254 114.628 109.119  1.00  0.00     0.133 A 
ATOM      7  C   UNL     1     111.626 114.351 110.439  1.00  0.00     0.093 A 
ATOM      8  C   UNL     1     110.658 114.129 111.424  1.00  0.00     0.123 A 
ATOM      9  C   UNL     1     109.305 114.170 111.088  1.00  0.00     0.093 A 
ATOM     10  C   UNL     1     108.913 114.410 109.769  1.00  0.00     0.138 A 
ATOM     11  O   UNL     1     107.544 114.443 109.463  1.00  0.00    -0.484 OA
ENDROOT
BRANCH   1  12
ATOM     12  C   UNL     1     105.630 114.929 108.088  1.00  0.00    -0.003 A 
ATOM     13  C   UNL     1     102.965 115.853 108.072  1.00  0.00     0.160 A 
ATOM     14  C   UNL     1     103.301 114.656 107.424  1.00  0.00     0.158 A 
ATOM     15  C   UNL     1     103.969 116.581 108.739  1.00  0.00     0.051 A 
ATOM     16  C   UNL     1     104.625 114.195 107.437  1.00  0.00     0.057 A 
ATOM     17  C   UNL     1     105.287 116.119 108.749  1.00  0.00     0.011 A 
BRANCH  13  18
ATOM     18  O   UNL     1     101.630 116.284 108.031  1.00  0.00    -0.493 OA
ATOM     19  C   UNL     1     100.693 116.100 109.088  1.00  0.00     0.278 C 
ENDBRANCH  13  18
BRANCH  14  20
ATOM     20  O   UNL     1     102.310 113.926 106.767  1.00  0.00    -0.504 OA
ATOM     21  H   UNL     1     101.493 113.580 107.257  1.00  0.00     0.293 HD
ENDBRANCH  14  20
ENDBRANCH   1  12
BRANCH   6  22
ATOM     22  O   UNL     1     112.274 114.932 108.215  1.00  0.00    -0.507 OA
ATOM     23  H   UNL     1     113.094 114.358 108.074  1.00  0.00     0.293 HD
ENDBRANCH   6  22
BRANCH   8  24
ATOM     24  O   UNL     1     111.031 113.879 112.743  1.00  0.00    -0.508 OA
ATOM     25  H   UNL     1     110.845 114.549 113.481  1.00  0.00     0.293 HD
ENDBRANCH   8  24
TORSDOF 5
ENDMDL
