MODEL 1
REMARK VINA RESULT:    -3.072      0.000      0.000
REMARK INTER + INTRA:          -4.589
REMARK INTER:                  -4.329
REMARK INTRA:                  -0.260
REMARK UNBOUND:                -0.260
REMARK SMILES CCCCCCCCC(=O)[O-]
REMARK SMILES IDX 6 1 7 2 8 3 9 4 10 5 11 6 5 7 4 8 3 9 2 10 1 11
REMARK H PARENT
REMARK Flexibility Score: inf
ROOT
ATOM      1  C   UNL     1     -28.569   7.836  -1.285  1.00  0.00     0.000 C 
ENDROOT
BRANCH   1   2
ATOM      2  C   UNL     1     -29.840   7.154  -1.820  1.00  0.00     0.006 C 
BRANCH   2   3
ATOM      3  C   UNL     1     -30.532   6.298  -0.752  1.00  0.00     0.053 C 
BRANCH   3   4
ATOM      4  C   UNL     1     -31.219   7.143   0.277  1.00  0.00     0.041 C 
ATOM      5  O   UNL     1     -30.815   7.142   1.470  1.00  0.00    -0.550 OA
ATOM      6  O   UNL     1     -32.283   7.958  -0.089  1.00  0.00    -0.550 OA
ENDBRANCH   3   4
ENDBRANCH   2   3
ENDBRANCH   1   2
BRANCH   1   7
ATOM      7  C   UNL     1     -27.515   8.068  -2.379  1.00  0.00     0.000 C 
BRANCH   7   8
ATOM      8  C   UNL     1     -28.139   8.260  -3.770  1.00  0.00    -0.000 C 
BRANCH   8   9
ATOM      9  C   UNL     1     -27.150   7.856  -4.875  1.00  0.00    -0.000 C 
BRANCH   9  10
ATOM     10  C   UNL     1     -27.075   8.892  -6.007  1.00  0.00    -0.003 C 
ATOM     11  C   UNL     1     -25.942   8.611  -6.993  1.00  0.00     0.004 C 
ENDBRANCH   9  10
ENDBRANCH   8   9
ENDBRANCH   7   8
ENDBRANCH   1   7
TORSDOF 7
ENDMDL
MODEL 2
REMARK VINA RESULT:    -2.920      4.031      6.666
REMARK INTER + INTRA:          -4.375
REMARK INTER:                  -4.099
REMARK INTRA:                  -0.276
REMARK UNBOUND:                -0.260
REMARK SMILES CCCCCCCCC(=O)[O-]
REMARK SMILES IDX 6 1 7 2 8 3 9 4 10 5 11 6 5 7 4 8 3 9 2 10 1 11
REMARK H PARENT
REMARK Flexibility Score: inf
ROOT
ATOM      1  C   UNL     1     -28.603   7.812  -3.302  1.00  0.00     0.000 C 
ENDROOT
BRANCH   1   2
ATOM      2  C   UNL     1     -27.934   8.623  -4.426  1.00  0.00     0.006 C 
BRANCH   2   3
ATOM      3  C   UNL     1     -26.745   7.879  -5.048  1.00  0.00     0.053 C 
BRANCH   3   4
ATOM      4  C   UNL     1     -26.298   8.516  -6.328  1.00  0.00     0.041 C 
ATOM      5  O   UNL     1     -27.145   9.000  -7.124  1.00  0.00    -0.550 OA
ATOM      6  O   UNL     1     -24.944   8.609  -6.623  1.00  0.00    -0.550 OA
ENDBRANCH   3   4
ENDBRANCH   2   3
ENDBRANCH   1   2
BRANCH   1   7
ATOM      7  C   UNL     1     -27.892   7.976  -1.950  1.00  0.00     0.000 C 
BRANCH   7   8
ATOM      8  C   UNL     1     -28.757   7.516  -0.767  1.00  0.00    -0.000 C 
BRANCH   8   9
ATOM      9  C   UNL     1     -30.086   6.920  -1.258  1.00  0.00    -0.000 C 
BRANCH   9  10
ATOM     10  C   UNL     1     -31.153   6.869  -0.154  1.00  0.00    -0.003 C 
ATOM     11  C   UNL     1     -30.577   7.125   1.239  1.00  0.00     0.004 C 
ENDBRANCH   9  10
ENDBRANCH   8   9
ENDBRANCH   7   8
ENDBRANCH   1   7
TORSDOF 7
ENDMDL
MODEL 3
REMARK VINA RESULT:    -1.074      3.569      6.338
REMARK INTER + INTRA:          -1.774
REMARK INTER:                  -1.414
REMARK INTRA:                  -0.360
REMARK UNBOUND:                -0.260
REMARK SMILES CCCCCCCCC(=O)[O-]
REMARK SMILES IDX 6 1 7 2 8 3 9 4 10 5 11 6 5 7 4 8 3 9 2 10 1 11
REMARK H PARENT
REMARK Flexibility Score: inf
ROOT
ATOM      1  C   UNL     1     -28.243   7.633  -1.681  1.00  0.00     0.000 C 
ENDROOT
BRANCH   1   2
ATOM      2  C   UNL     1     -27.431   8.313  -2.798  1.00  0.00     0.006 C 
BRANCH   2   3
ATOM      3  C   UNL     1     -28.185   8.330  -4.133  1.00  0.00     0.053 C 
BRANCH   3   4
ATOM      4  C   UNL     1     -27.247   8.320  -5.302  1.00  0.00     0.041 C 
ATOM      5  O   UNL     1     -27.050   9.373  -5.964  1.00  0.00    -0.550 OA
ATOM      6  O   UNL     1     -26.563   7.158  -5.635  1.00  0.00    -0.550 OA
ENDBRANCH   3   4
ENDBRANCH   2   3
ENDBRANCH   1   2
BRANCH   1   7
ATOM      7  C   UNL     1     -29.663   7.255  -2.128  1.00  0.00     0.000 C 
BRANCH   7   8
ATOM      8  C   UNL     1     -30.429   6.460  -1.060  1.00  0.00    -0.000 C 
BRANCH   8   9
ATOM      9  C   UNL     1     -31.639   7.255  -0.547  1.00  0.00    -0.000 C 
BRANCH   9  10
ATOM     10  C   UNL     1     -31.590   7.491   0.970  1.00  0.00    -0.003 C 
ATOM     11  C   UNL     1     -30.235   7.136   1.582  1.00  0.00     0.004 C 
ENDBRANCH   9  10
ENDBRANCH   8   9
ENDBRANCH   7   8
ENDBRANCH   1   7
TORSDOF 7
ENDMDL
MODEL 4
REMARK VINA RESULT:    -0.358      3.204      6.201
REMARK INTER + INTRA:          -0.764
REMARK INTER:                  -0.502
REMARK INTRA:                  -0.262
REMARK UNBOUND:                -0.260
REMARK SMILES CCCCCCCCC(=O)[O-]
REMARK SMILES IDX 6 1 7 2 8 3 9 4 10 5 11 6 5 7 4 8 3 9 2 10 1 11
REMARK H PARENT
REMARK Flexibility Score: inf
ROOT
ATOM      1  C   UNL     1     -27.615   7.727  -0.750  1.00  0.00     0.000 C 
ENDROOT
BRANCH   1   2
ATOM      2  C   UNL     1     -28.081   7.880  -2.209  1.00  0.00     0.006 C 
BRANCH   2   3
ATOM      3  C   UNL     1     -26.906   8.078  -3.174  1.00  0.00     0.053 C 
BRANCH   3   4
ATOM      4  C   UNL     1     -27.371   8.262  -4.587  1.00  0.00     0.041 C 
ATOM      5  O   UNL     1     -26.768   7.689  -5.532  1.00  0.00    -0.550 OA
ATOM      6  O   UNL     1     -28.494   9.036  -4.854  1.00  0.00    -0.550 OA
ENDBRANCH   3   4
ENDBRANCH   2   3
ENDBRANCH   1   2
BRANCH   1   7
ATOM      7  C   UNL     1     -28.781   7.488   0.222  1.00  0.00     0.000 C 
BRANCH   7   8
ATOM      8  C   UNL     1     -30.045   6.976  -0.484  1.00  0.00    -0.000 C 
BRANCH   8   9
ATOM      9  C   UNL     1     -31.249   6.984   0.472  1.00  0.00    -0.000 C 
BRANCH   9  10
ATOM     10  C   UNL     1     -32.338   7.978   0.039  1.00  0.00    -0.003 C 
ATOM     11  C   UNL     1     -32.928   8.759   1.214  1.00  0.00     0.004 C 
ENDBRANCH   9  10
ENDBRANCH   8   9
ENDBRANCH   7   8
ENDBRANCH   1   7
TORSDOF 7
ENDMDL
