MODEL 1
REMARK VINA RESULT:    -5.904      0.000      0.000
REMARK INTER + INTRA:          -7.395
REMARK INTER:                  -7.112
REMARK INTRA:                  -0.283
REMARK UNBOUND:                -0.283
REMARK SMILES O=c1c(O)c(-c2ccc(O)c(O)c2)oc2cc(O)cc(O)c12
REMARK SMILES IDX 5 1 3 2 2 3 1 4 22 5 20 6 19 7 17 8 16 9 15 10 14 11 6 12
REMARK SMILES IDX 7 13 8 14 9 15 13 16 11 17 10 18 12 20 4 22 21 24 18 26
REMARK H PARENT 10 19 12 21 4 23 21 25 18 27
REMARK Flexibility Score: inf
ROOT
ATOM      1  C   UNL     1      29.007  20.412   4.785  1.00  0.00     0.180 A 
ATOM      2  C   UNL     1      29.439  19.080   4.909  1.00  0.00     0.208 A 
ATOM      3  C   UNL     1      30.805  18.790   4.760  1.00  0.00     0.238 A 
ATOM      4  O   UNL     1      31.178  17.590   4.817  1.00  0.00    -0.285 OA
ATOM      5  C   UNL     1      31.723  19.837   4.506  1.00  0.00     0.111 A 
ATOM      6  C   UNL     1      33.134  19.664   4.378  1.00  0.00     0.134 A 
ATOM      7  C   UNL     1      33.931  20.751   3.997  1.00  0.00     0.093 A 
ATOM      8  C   UNL     1      33.380  22.017   3.805  1.00  0.00     0.123 A 
ATOM      9  C   UNL     1      32.010  22.210   3.987  1.00  0.00     0.094 A 
ATOM     10  C   UNL     1      31.183  21.138   4.331  1.00  0.00     0.146 A 
ATOM     11  O   UNL     1      29.884  21.362   4.483  1.00  0.00    -0.452 OA
ENDROOT
BRANCH   1  12
ATOM     12  C   UNL     1      27.587  20.798   4.955  1.00  0.00     0.025 A 
ATOM     13  C   UNL     1      27.046  20.884   6.245  1.00  0.00     0.016 A 
ATOM     14  C   UNL     1      25.705  21.227   6.427  1.00  0.00     0.051 A 
ATOM     15  C   UNL     1      24.875  21.473   5.328  1.00  0.00     0.157 A 
ATOM     16  C   UNL     1      26.751  21.021   3.847  1.00  0.00     0.062 A 
ATOM     17  C   UNL     1      25.404  21.362   4.020  1.00  0.00     0.158 A 
BRANCH  15  18
ATOM     18  O   UNL     1      23.546  21.817   5.577  1.00  0.00    -0.504 OA
ATOM     19  H   UNL     1      23.175  22.751   5.475  1.00  0.00     0.293 HD
ENDBRANCH  15  18
BRANCH  17  20
ATOM     20  O   UNL     1      24.633  21.573   2.875  1.00  0.00    -0.504 OA
ATOM     21  H   UNL     1      24.027  22.369   2.741  1.00  0.00     0.293 HD
ENDBRANCH  17  20
ENDBRANCH   1  12
BRANCH   2  22
ATOM     22  O   UNL     1      28.512  18.059   5.138  1.00  0.00    -0.502 OA
ATOM     23  H   UNL     1      27.574  18.242   5.474  1.00  0.00     0.293 HD
ENDBRANCH   2  22
BRANCH   6  24
ATOM     24  O   UNL     1      33.800  18.462   4.637  1.00  0.00    -0.507 OA
ATOM     25  H   UNL     1      33.348  17.601   4.906  1.00  0.00     0.293 HD
ENDBRANCH   6  24
BRANCH   8  26
ATOM     26  O   UNL     1      34.206  23.078   3.442  1.00  0.00    -0.508 OA
ATOM     27  H   UNL     1      33.836  23.908   2.993  1.00  0.00     0.293 HD
ENDBRANCH   8  26
TORSDOF 6
ENDMDL
MODEL 2
REMARK VINA RESULT:    -5.862      1.255      2.961
REMARK INTER + INTRA:          -7.344
REMARK INTER:                  -7.028
REMARK INTRA:                  -0.315
REMARK UNBOUND:                -0.283
REMARK SMILES O=c1c(O)c(-c2ccc(O)c(O)c2)oc2cc(O)cc(O)c12
REMARK SMILES IDX 5 1 3 2 2 3 1 4 22 5 20 6 19 7 17 8 16 9 15 10 14 11 6 12
REMARK SMILES IDX 7 13 8 14 9 15 13 16 11 17 10 18 12 20 4 22 21 24 18 26
REMARK H PARENT 10 19 12 21 4 23 21 25 18 27
REMARK Flexibility Score: inf
ROOT
ATOM      1  C   UNL     1      28.964  20.566   4.687  1.00  0.00     0.180 A 
ATOM      2  C   UNL     1      29.887  21.555   4.303  1.00  0.00     0.208 A 
ATOM      3  C   UNL     1      31.204  21.176   3.996  1.00  0.00     0.238 A 
ATOM      4  O   UNL     1      32.038  22.071   3.707  1.00  0.00    -0.285 OA
ATOM      5  C   UNL     1      31.577  19.811   4.061  1.00  0.00     0.111 A 
ATOM      6  C   UNL     1      32.872  19.309   3.732  1.00  0.00     0.134 A 
ATOM      7  C   UNL     1      33.167  17.959   3.957  1.00  0.00     0.093 A 
ATOM      8  C   UNL     1      32.196  17.080   4.436  1.00  0.00     0.123 A 
ATOM      9  C   UNL     1      30.909  17.549   4.704  1.00  0.00     0.094 A 
ATOM     10  C   UNL     1      30.595  18.897   4.524  1.00  0.00     0.146 A 
ATOM     11  O   UNL     1      29.362  19.305   4.800  1.00  0.00    -0.452 OA
ENDROOT
BRANCH   1  12
ATOM     12  C   UNL     1      27.553  20.886   5.001  1.00  0.00     0.025 A 
ATOM     13  C   UNL     1      27.145  20.963   6.340  1.00  0.00     0.016 A 
ATOM     14  C   UNL     1      25.816  21.243   6.658  1.00  0.00     0.051 A 
ATOM     15  C   UNL     1      24.865  21.435   5.651  1.00  0.00     0.157 A 
ATOM     16  C   UNL     1      26.596  21.055   3.985  1.00  0.00     0.062 A 
ATOM     17  C   UNL     1      25.259  21.333   4.295  1.00  0.00     0.158 A 
BRANCH  15  18
ATOM     18  O   UNL     1      23.553  21.719   6.035  1.00  0.00    -0.504 OA
ATOM     19  H   UNL     1      22.908  22.264   5.482  1.00  0.00     0.293 HD
ENDBRANCH  15  18
BRANCH  17  20
ATOM     20  O   UNL     1      24.363  21.492   3.236  1.00  0.00    -0.504 OA
ATOM     21  H   UNL     1      23.470  21.955   3.316  1.00  0.00     0.293 HD
ENDBRANCH  17  20
ENDBRANCH   1  12
BRANCH   2  22
ATOM     22  O   UNL     1      29.502  22.898   4.267  1.00  0.00    -0.502 OA
ATOM     23  H   UNL     1      28.849  23.259   3.582  1.00  0.00     0.293 HD
ENDBRANCH   2  22
BRANCH   6  24
ATOM     24  O   UNL     1      33.888  20.083   3.161  1.00  0.00    -0.507 OA
ATOM     25  H   UNL     1      34.776  20.278   3.597  1.00  0.00     0.293 HD
ENDBRANCH   6  24
BRANCH   8  26
ATOM     26  O   UNL     1      32.520  15.740   4.633  1.00  0.00    -0.508 OA
ATOM     27  H   UNL     1      33.298  15.306   4.148  1.00  0.00     0.293 HD
ENDBRANCH   8  26
TORSDOF 6
ENDMDL
MODEL 3
REMARK VINA RESULT:    -5.556      1.388      3.168
REMARK INTER + INTRA:          -6.976
REMARK INTER:                  -6.688
REMARK INTRA:                  -0.287
REMARK UNBOUND:                -0.283
REMARK SMILES O=c1c(O)c(-c2ccc(O)c(O)c2)oc2cc(O)cc(O)c12
REMARK SMILES IDX 5 1 3 2 2 3 1 4 22 5 20 6 19 7 17 8 16 9 15 10 14 11 6 12
REMARK SMILES IDX 7 13 8 14 9 15 13 16 11 17 10 18 12 20 4 22 21 24 18 26
REMARK H PARENT 10 19 12 21 4 23 21 25 18 27
REMARK Flexibility Score: inf
ROOT
ATOM      1  C   UNL     1      29.151  20.799   4.316  1.00  0.00     0.180 A 
ATOM      2  C   UNL     1      30.013  21.908   4.388  1.00  0.00     0.208 A 
ATOM      3  C   UNL     1      31.400  21.693   4.370  1.00  0.00     0.238 A 
ATOM      4  O   UNL     1      32.166  22.684   4.490  1.00  0.00    -0.285 OA
ATOM      5  C   UNL     1      31.908  20.376   4.263  1.00  0.00     0.111 A 
ATOM      6  C   UNL     1      33.295  20.046   4.195  1.00  0.00     0.134 A 
ATOM      7  C   UNL     1      33.687  18.701   4.223  1.00  0.00     0.093 A 
ATOM      8  C   UNL     1      32.742  17.676   4.250  1.00  0.00     0.123 A 
ATOM      9  C   UNL     1      31.382  17.988   4.256  1.00  0.00     0.094 A 
ATOM     10  C   UNL     1      30.961  19.320   4.265  1.00  0.00     0.146 A 
ATOM     11  O   UNL     1      29.658  19.573   4.282  1.00  0.00    -0.452 OA
ENDROOT
BRANCH   1  12
ATOM     12  C   UNL     1      27.677  20.948   4.304  1.00  0.00     0.025 A 
ATOM     13  C   UNL     1      26.991  20.908   3.083  1.00  0.00     0.016 A 
ATOM     14  C   UNL     1      25.604  21.067   3.046  1.00  0.00     0.051 A 
ATOM     15  C   UNL     1      24.879  21.283   4.222  1.00  0.00     0.157 A 
ATOM     16  C   UNL     1      26.955  21.188   5.485  1.00  0.00     0.062 A 
ATOM     17  C   UNL     1      25.564  21.351   5.459  1.00  0.00     0.158 A 
BRANCH  15  18
ATOM     18  O   UNL     1      23.494  21.426   4.119  1.00  0.00    -0.504 OA
ATOM     19  H   UNL     1      22.846  21.203   4.860  1.00  0.00     0.293 HD
ENDBRANCH  15  18
BRANCH  17  20
ATOM     20  O   UNL     1      24.911  21.584   6.670  1.00  0.00    -0.504 OA
ATOM     21  H   UNL     1      24.622  22.497   6.990  1.00  0.00     0.293 HD
ENDBRANCH  17  20
ENDBRANCH   1  12
BRANCH   2  22
ATOM     22  O   UNL     1      29.489  23.197   4.514  1.00  0.00    -0.502 OA
ATOM     23  H   UNL     1      28.986  23.502   5.340  1.00  0.00     0.293 HD
ENDBRANCH   2  22
BRANCH   6  24
ATOM     24  O   UNL     1      34.318  20.991   4.073  1.00  0.00    -0.507 OA
ATOM     25  H   UNL     1      35.005  21.002   3.334  1.00  0.00     0.293 HD
ENDBRANCH   6  24
BRANCH   8  26
ATOM     26  O   UNL     1      33.168  16.350   4.261  1.00  0.00    -0.508 OA
ATOM     27  H   UNL     1      32.525  15.585   4.089  1.00  0.00     0.293 HD
ENDBRANCH   8  26
TORSDOF 6
ENDMDL
MODEL 4
REMARK VINA RESULT:    -5.447      0.853      1.429
REMARK INTER + INTRA:          -6.844
REMARK INTER:                  -6.660
REMARK INTRA:                  -0.184
REMARK UNBOUND:                -0.283
REMARK SMILES O=c1c(O)c(-c2ccc(O)c(O)c2)oc2cc(O)cc(O)c12
REMARK SMILES IDX 5 1 3 2 2 3 1 4 22 5 20 6 19 7 17 8 16 9 15 10 14 11 6 12
REMARK SMILES IDX 7 13 8 14 9 15 13 16 11 17 10 18 12 20 4 22 21 24 18 26
REMARK H PARENT 10 19 12 21 4 23 21 25 18 27
REMARK Flexibility Score: inf
ROOT
ATOM      1  C   UNL     1      29.436  20.315   4.548  1.00  0.00     0.180 A 
ATOM      2  C   UNL     1      29.877  19.004   4.802  1.00  0.00     0.208 A 
ATOM      3  C   UNL     1      31.253  18.728   4.757  1.00  0.00     0.238 A 
ATOM      4  O   UNL     1      31.637  17.543   4.931  1.00  0.00    -0.285 OA
ATOM      5  C   UNL     1      32.171  19.768   4.475  1.00  0.00     0.111 A 
ATOM      6  C   UNL     1      33.589  19.610   4.444  1.00  0.00     0.134 A 
ATOM      7  C   UNL     1      34.394  20.677   4.026  1.00  0.00     0.093 A 
ATOM      8  C   UNL     1      33.839  21.914   3.702  1.00  0.00     0.123 A 
ATOM      9  C   UNL     1      32.458  22.097   3.787  1.00  0.00     0.094 A 
ATOM     10  C   UNL     1      31.626  21.041   4.165  1.00  0.00     0.146 A 
ATOM     11  O   UNL     1      30.317  21.253   4.223  1.00  0.00    -0.452 OA
ENDROOT
BRANCH   1  12
ATOM     12  C   UNL     1      28.004  20.688   4.602  1.00  0.00     0.025 A 
ATOM     13  C   UNL     1      27.129  20.207   3.618  1.00  0.00     0.016 A 
ATOM     14  C   UNL     1      25.779  20.562   3.638  1.00  0.00     0.051 A 
ATOM     15  C   UNL     1      25.280  21.414   4.628  1.00  0.00     0.157 A 
ATOM     16  C   UNL     1      27.511  21.563   5.585  1.00  0.00     0.062 A 
ATOM     17  C   UNL     1      26.159  21.928   5.611  1.00  0.00     0.158 A 
BRANCH  15  18
ATOM     18  O   UNL     1      23.919  21.726   4.597  1.00  0.00    -0.504 OA
ATOM     19  H   UNL     1      23.475  22.383   5.222  1.00  0.00     0.293 HD
ENDBRANCH  15  18
BRANCH  17  20
ATOM     20  O   UNL     1      25.738  22.799   6.618  1.00  0.00    -0.504 OA
ATOM     21  H   UNL     1      24.846  22.733   7.085  1.00  0.00     0.293 HD
ENDBRANCH  17  20
ENDBRANCH   1  12
BRANCH   2  22
ATOM     22  O   UNL     1      28.951  17.989   5.057  1.00  0.00    -0.502 OA
ATOM     23  H   UNL     1      28.007  18.008   4.688  1.00  0.00     0.293 HD
ENDBRANCH   2  22
BRANCH   6  24
ATOM     24  O   UNL     1      34.254  18.444   4.838  1.00  0.00    -0.507 OA
ATOM     25  H   UNL     1      34.822  17.874   4.229  1.00  0.00     0.293 HD
ENDBRANCH   6  24
BRANCH   8  26
ATOM     26  O   UNL     1      34.671  22.958   3.305  1.00  0.00    -0.508 OA
ATOM     27  H   UNL     1      34.438  23.552   2.518  1.00  0.00     0.293 HD
ENDBRANCH   8  26
TORSDOF 6
ENDMDL
MODEL 5
REMARK VINA RESULT:    -5.273      2.343      4.054
REMARK INTER + INTRA:          -6.634
REMARK INTER:                  -6.423
REMARK INTRA:                  -0.211
REMARK UNBOUND:                -0.283
REMARK SMILES O=c1c(O)c(-c2ccc(O)c(O)c2)oc2cc(O)cc(O)c12
REMARK SMILES IDX 5 1 3 2 2 3 1 4 22 5 20 6 19 7 17 8 16 9 15 10 14 11 6 12
REMARK SMILES IDX 7 13 8 14 9 15 13 16 11 17 10 18 12 20 4 22 21 24 18 26
REMARK H PARENT 10 19 12 21 4 23 21 25 18 27
REMARK Flexibility Score: inf
ROOT
ATOM      1  C   UNL     1      30.587  18.884   4.280  1.00  0.00     0.180 A 
ATOM      2  C   UNL     1      31.535  19.906   4.461  1.00  0.00     0.208 A 
ATOM      3  C   UNL     1      32.892  19.624   4.233  1.00  0.00     0.238 A 
ATOM      4  O   UNL     1      33.741  20.527   4.450  1.00  0.00    -0.285 OA
ATOM      5  C   UNL     1      33.282  18.330   3.812  1.00  0.00     0.111 A 
ATOM      6  C   UNL     1      34.623  17.945   3.513  1.00  0.00     0.134 A 
ATOM      7  C   UNL     1      34.910  16.604   3.232  1.00  0.00     0.093 A 
ATOM      8  C   UNL     1      33.897  15.647   3.174  1.00  0.00     0.123 A 
ATOM      9  C   UNL     1      32.574  16.025   3.405  1.00  0.00     0.094 A 
ATOM     10  C   UNL     1      32.261  17.348   3.724  1.00  0.00     0.146 A 
ATOM     11  O   UNL     1      30.991  17.664   3.948  1.00  0.00    -0.452 OA
ENDROOT
BRANCH   1  12
ATOM     12  C   UNL     1      29.137  19.112   4.476  1.00  0.00     0.025 A 
ATOM     13  C   UNL     1      28.291  19.164   3.360  1.00  0.00     0.016 A 
ATOM     14  C   UNL     1      26.924  19.398   3.520  1.00  0.00     0.051 A 
ATOM     15  C   UNL     1      26.378  19.600   4.792  1.00  0.00     0.157 A 
ATOM     16  C   UNL     1      28.597  19.337   5.754  1.00  0.00     0.062 A 
ATOM     17  C   UNL     1      27.227  19.575   5.924  1.00  0.00     0.158 A 
BRANCH  15  18
ATOM     18  O   UNL     1      25.003  19.822   4.885  1.00  0.00    -0.504 OA
ATOM     19  H   UNL     1      24.531  20.090   5.736  1.00  0.00     0.293 HD
ENDBRANCH  15  18
BRANCH  17  20
ATOM     20  O   UNL     1      26.759  19.788   7.222  1.00  0.00    -0.504 OA
ATOM     21  H   UNL     1      26.565  19.049   7.881  1.00  0.00     0.293 HD
ENDBRANCH  17  20
ENDBRANCH   1  12
BRANCH   2  22
ATOM     22  O   UNL     1      31.130  21.170   4.898  1.00  0.00    -0.502 OA
ATOM     23  H   UNL     1      30.770  21.334   5.831  1.00  0.00     0.293 HD
ENDBRANCH   2  22
BRANCH   6  24
ATOM     24  O   UNL     1      35.697  18.839   3.454  1.00  0.00    -0.507 OA
ATOM     25  H   UNL     1      35.704  19.694   2.919  1.00  0.00     0.293 HD
ENDBRANCH   6  24
BRANCH   8  26
ATOM     26  O   UNL     1      34.218  14.325   2.875  1.00  0.00    -0.508 OA
ATOM     27  H   UNL     1      35.180  14.008   2.837  1.00  0.00     0.293 HD
ENDBRANCH   8  26
TORSDOF 6
ENDMDL
MODEL 6
REMARK VINA RESULT:    -5.199      2.105      3.203
REMARK INTER + INTRA:          -6.545
REMARK INTER:                  -6.215
REMARK INTRA:                  -0.331
REMARK UNBOUND:                -0.283
REMARK SMILES O=c1c(O)c(-c2ccc(O)c(O)c2)oc2cc(O)cc(O)c12
REMARK SMILES IDX 5 1 3 2 2 3 1 4 22 5 20 6 19 7 17 8 16 9 15 10 14 11 6 12
REMARK SMILES IDX 7 13 8 14 9 15 13 16 11 17 10 18 12 20 4 22 21 24 18 26
REMARK H PARENT 10 19 12 21 4 23 21 25 18 27
REMARK Flexibility Score: inf
ROOT
ATOM      1  C   UNL     1      31.247  20.173   4.458  1.00  0.00     0.180 A 
ATOM      2  C   UNL     1      32.335  19.317   4.703  1.00  0.00     0.208 A 
ATOM      3  C   UNL     1      33.639  19.832   4.624  1.00  0.00     0.238 A 
ATOM      4  O   UNL     1      34.609  19.048   4.791  1.00  0.00    -0.285 OA
ATOM      5  C   UNL     1      33.838  21.199   4.315  1.00  0.00     0.111 A 
ATOM      6  C   UNL     1      35.113  21.836   4.248  1.00  0.00     0.134 A 
ATOM      7  C   UNL     1      35.200  23.162   3.806  1.00  0.00     0.093 A 
ATOM      8  C   UNL     1      34.055  23.894   3.493  1.00  0.00     0.123 A 
ATOM      9  C   UNL     1      32.799  23.298   3.614  1.00  0.00     0.094 A 
ATOM     10  C   UNL     1      32.682  21.966   4.017  1.00  0.00     0.146 A 
ATOM     11  O   UNL     1      31.470  21.434   4.107  1.00  0.00    -0.452 OA
ENDROOT
BRANCH   1  12
ATOM     12  C   UNL     1      29.844  19.709   4.548  1.00  0.00     0.025 A 
ATOM     13  C   UNL     1      29.198  19.239   3.397  1.00  0.00     0.016 A 
ATOM     14  C   UNL     1      27.869  18.815   3.455  1.00  0.00     0.051 A 
ATOM     15  C   UNL     1      27.155  18.867   4.656  1.00  0.00     0.157 A 
ATOM     16  C   UNL     1      29.123  19.785   5.752  1.00  0.00     0.062 A 
ATOM     17  C   UNL     1      27.788  19.365   5.820  1.00  0.00     0.158 A 
BRANCH  15  18
ATOM     18  O   UNL     1      25.832  18.423   4.650  1.00  0.00    -0.504 OA
ATOM     19  H   UNL     1      25.032  19.030   4.539  1.00  0.00     0.293 HD
ENDBRANCH  15  18
BRANCH  17  20
ATOM     20  O   UNL     1      27.134  19.467   7.049  1.00  0.00    -0.504 OA
ATOM     21  H   UNL     1      26.467  18.791   7.391  1.00  0.00     0.293 HD
ENDBRANCH  17  20
ENDBRANCH   1  12
BRANCH   2  22
ATOM     22  O   UNL     1      32.115  17.965   4.985  1.00  0.00    -0.502 OA
ATOM     23  H   UNL     1      32.278  17.567   5.902  1.00  0.00     0.293 HD
ENDBRANCH   2  22
BRANCH   6  24
ATOM     24  O   UNL     1      36.313  21.225   4.627  1.00  0.00    -0.507 OA
ATOM     25  H   UNL     1      36.609  21.083   5.580  1.00  0.00     0.293 HD
ENDBRANCH   6  24
BRANCH   8  26
ATOM     26  O   UNL     1      34.178  25.216   3.073  1.00  0.00    -0.508 OA
ATOM     27  H   UNL     1      35.026  25.747   3.235  1.00  0.00     0.293 HD
ENDBRANCH   8  26
TORSDOF 6
ENDMDL
MODEL 7
REMARK VINA RESULT:    -4.960      2.752      4.378
REMARK INTER + INTRA:          -6.258
REMARK INTER:                  -5.962
REMARK INTRA:                  -0.296
REMARK UNBOUND:                -0.283
REMARK SMILES O=c1c(O)c(-c2ccc(O)c(O)c2)oc2cc(O)cc(O)c12
REMARK SMILES IDX 5 1 3 2 2 3 1 4 22 5 20 6 19 7 17 8 16 9 15 10 14 11 6 12
REMARK SMILES IDX 7 13 8 14 9 15 13 16 11 17 10 18 12 20 4 22 21 24 18 26
REMARK H PARENT 10 19 12 21 4 23 21 25 18 27
REMARK Flexibility Score: inf
ROOT
ATOM      1  C   UNL     1      29.826  22.168   3.949  1.00  0.00     0.180 A 
ATOM      2  C   UNL     1      31.111  21.817   3.500  1.00  0.00     0.208 A 
ATOM      3  C   UNL     1      32.072  22.826   3.329  1.00  0.00     0.238 A 
ATOM      4  O   UNL     1      33.203  22.512   2.875  1.00  0.00    -0.285 OA
ATOM      5  C   UNL     1      31.741  24.171   3.623  1.00  0.00     0.111 A 
ATOM      6  C   UNL     1      32.648  25.268   3.525  1.00  0.00     0.134 A 
ATOM      7  C   UNL     1      32.177  26.573   3.715  1.00  0.00     0.093 A 
ATOM      8  C   UNL     1      30.849  26.815   4.065  1.00  0.00     0.123 A 
ATOM      9  C   UNL     1      29.968  25.744   4.223  1.00  0.00     0.094 A 
ATOM     10  C   UNL     1      30.400  24.434   4.004  1.00  0.00     0.146 A 
ATOM     11  O   UNL     1      29.528  23.445   4.154  1.00  0.00    -0.452 OA
ENDROOT
BRANCH   1  12
ATOM     12  C   UNL     1      28.769  21.157   4.178  1.00  0.00     0.025 A 
ATOM     13  C   UNL     1      28.009  20.697   3.094  1.00  0.00     0.016 A 
ATOM     14  C   UNL     1      26.993  19.759   3.290  1.00  0.00     0.051 A 
ATOM     15  C   UNL     1      26.706  19.274   4.570  1.00  0.00     0.157 A 
ATOM     16  C   UNL     1      28.467  20.690   5.469  1.00  0.00     0.062 A 
ATOM     17  C   UNL     1      27.449  19.751   5.676  1.00  0.00     0.158 A 
BRANCH  15  18
ATOM     18  O   UNL     1      25.683  18.333   4.698  1.00  0.00    -0.504 OA
ATOM     19  H   UNL     1      24.748  18.553   5.008  1.00  0.00     0.293 HD
ENDBRANCH  15  18
BRANCH  17  20
ATOM     20  O   UNL     1      27.206  19.330   6.985  1.00  0.00    -0.504 OA
ATOM     21  H   UNL     1      27.522  18.448   7.362  1.00  0.00     0.293 HD
ENDBRANCH  17  20
ENDBRANCH   1  12
BRANCH   2  22
ATOM     22  O   UNL     1      31.409  20.486   3.195  1.00  0.00    -0.502 OA
ATOM     23  H   UNL     1      32.298  20.204   2.799  1.00  0.00     0.293 HD
ENDBRANCH   2  22
BRANCH   6  24
ATOM     24  O   UNL     1      34.017  25.130   3.270  1.00  0.00    -0.507 OA
ATOM     25  H   UNL     1      34.520  24.256   3.295  1.00  0.00     0.293 HD
ENDBRANCH   6  24
BRANCH   8  26
ATOM     26  O   UNL     1      30.419  28.125   4.262  1.00  0.00    -0.508 OA
ATOM     27  H   UNL     1      30.637  28.860   3.600  1.00  0.00     0.293 HD
ENDBRANCH   8  26
TORSDOF 6
ENDMDL
MODEL 8
REMARK VINA RESULT:    -4.942      2.862      6.087
REMARK INTER + INTRA:          -6.236
REMARK INTER:                  -6.353
REMARK INTRA:                   0.118
REMARK UNBOUND:                -0.283
REMARK SMILES O=c1c(O)c(-c2ccc(O)c(O)c2)oc2cc(O)cc(O)c12
REMARK SMILES IDX 5 1 3 2 2 3 1 4 22 5 20 6 19 7 17 8 16 9 15 10 14 11 6 12
REMARK SMILES IDX 7 13 8 14 9 15 13 16 11 17 10 18 12 20 4 22 21 24 18 26
REMARK H PARENT 10 19 12 21 4 23 21 25 18 27
REMARK Flexibility Score: inf
ROOT
ATOM      1  C   UNL     1      30.441  22.763   4.210  1.00  0.00     0.180 A 
ATOM      2  C   UNL     1      31.384  21.742   4.416  1.00  0.00     0.208 A 
ATOM      3  C   UNL     1      30.933  20.425   4.600  1.00  0.00     0.238 A 
ATOM      4  O   UNL     1      31.779  19.524   4.838  1.00  0.00    -0.285 OA
ATOM      5  C   UNL     1      29.546  20.143   4.560  1.00  0.00     0.111 A 
ATOM      6  C   UNL     1      28.980  18.840   4.694  1.00  0.00     0.134 A 
ATOM      7  C   UNL     1      27.589  18.696   4.770  1.00  0.00     0.093 A 
ATOM      8  C   UNL     1      26.743  19.798   4.651  1.00  0.00     0.123 A 
ATOM      9  C   UNL     1      27.285  21.070   4.459  1.00  0.00     0.094 A 
ATOM     10  C   UNL     1      28.670  21.250   4.416  1.00  0.00     0.146 A 
ATOM     11  O   UNL     1      29.145  22.477   4.243  1.00  0.00    -0.452 OA
ENDROOT
BRANCH   1  12
ATOM     12  C   UNL     1      30.841  24.171   3.983  1.00  0.00     0.025 A 
ATOM     13  C   UNL     1      31.915  24.452   3.127  1.00  0.00     0.016 A 
ATOM     14  C   UNL     1      32.323  25.770   2.915  1.00  0.00     0.051 A 
ATOM     15  C   UNL     1      31.680  26.830   3.562  1.00  0.00     0.157 A 
ATOM     16  C   UNL     1      30.207  25.231   4.653  1.00  0.00     0.062 A 
ATOM     17  C   UNL     1      30.611  26.556   4.449  1.00  0.00     0.158 A 
BRANCH  15  18
ATOM     18  O   UNL     1      32.131  28.125   3.301  1.00  0.00    -0.504 OA
ATOM     19  H   UNL     1      31.590  28.958   3.481  1.00  0.00     0.293 HD
ENDBRANCH  15  18
BRANCH  17  20
ATOM     20  O   UNL     1      29.935  27.559   5.146  1.00  0.00    -0.504 OA
ATOM     21  H   UNL     1      29.876  28.519   4.839  1.00  0.00     0.293 HD
ENDBRANCH  17  20
ENDBRANCH   1  12
BRANCH   2  22
ATOM     22  O   UNL     1      32.747  22.046   4.473  1.00  0.00    -0.502 OA
ATOM     23  H   UNL     1      33.111  22.814   5.025  1.00  0.00     0.293 HD
ENDBRANCH   2  22
BRANCH   6  24
ATOM     24  O   UNL     1      29.732  17.661   4.730  1.00  0.00    -0.507 OA
ATOM     25  H   UNL     1      30.131  17.260   5.565  1.00  0.00     0.293 HD
ENDBRANCH   6  24
BRANCH   8  26
ATOM     26  O   UNL     1      25.364  19.615   4.715  1.00  0.00    -0.508 OA
ATOM     27  H   UNL     1      24.828  19.904   5.525  1.00  0.00     0.293 HD
ENDBRANCH   8  26
TORSDOF 6
ENDMDL
MODEL 9
REMARK VINA RESULT:    -4.862      2.989      6.318
REMARK INTER + INTRA:          -6.140
REMARK INTER:                  -6.403
REMARK INTRA:                   0.263
REMARK UNBOUND:                -0.283
REMARK SMILES O=c1c(O)c(-c2ccc(O)c(O)c2)oc2cc(O)cc(O)c12
REMARK SMILES IDX 5 1 3 2 2 3 1 4 22 5 20 6 19 7 17 8 16 9 15 10 14 11 6 12
REMARK SMILES IDX 7 13 8 14 9 15 13 16 11 17 10 18 12 20 4 22 21 24 18 26
REMARK H PARENT 10 19 12 21 4 23 21 25 18 27
REMARK Flexibility Score: inf
ROOT
ATOM      1  C   UNL     1      29.635  22.985   4.424  1.00  0.00     0.180 A 
ATOM      2  C   UNL     1      30.434  21.829   4.465  1.00  0.00     0.208 A 
ATOM      3  C   UNL     1      29.813  20.575   4.580  1.00  0.00     0.238 A 
ATOM      4  O   UNL     1      30.535  19.549   4.672  1.00  0.00    -0.285 OA
ATOM      5  C   UNL     1      28.400  20.491   4.636  1.00  0.00     0.111 A 
ATOM      6  C   UNL     1      27.664  19.271   4.712  1.00  0.00     0.134 A 
ATOM      7  C   UNL     1      26.276  19.313   4.893  1.00  0.00     0.093 A 
ATOM      8  C   UNL     1      25.591  20.527   4.936  1.00  0.00     0.123 A 
ATOM      9  C   UNL     1      26.295  21.724   4.802  1.00  0.00     0.094 A 
ATOM     10  C   UNL     1      27.684  21.716   4.656  1.00  0.00     0.146 A 
ATOM     11  O   UNL     1      28.317  22.877   4.543  1.00  0.00    -0.452 OA
ENDROOT
BRANCH   1  12
ATOM     12  C   UNL     1      30.216  24.339   4.278  1.00  0.00     0.025 A 
ATOM     13  C   UNL     1      31.384  24.509   3.522  1.00  0.00     0.016 A 
ATOM     14  C   UNL     1      31.961  25.774   3.388  1.00  0.00     0.051 A 
ATOM     15  C   UNL     1      31.395  26.887   4.017  1.00  0.00     0.157 A 
ATOM     16  C   UNL     1      29.657  25.451   4.931  1.00  0.00     0.062 A 
ATOM     17  C   UNL     1      30.230  26.723   4.805  1.00  0.00     0.158 A 
BRANCH  15  18
ATOM     18  O   UNL     1      32.015  28.125   3.838  1.00  0.00    -0.504 OA
ATOM     19  H   UNL     1      32.890  28.386   4.270  1.00  0.00     0.293 HD
ENDBRANCH  15  18
BRANCH  17  20
ATOM     20  O   UNL     1      29.621  27.783   5.479  1.00  0.00    -0.504 OA
ATOM     21  H   UNL     1      29.610  27.882   6.483  1.00  0.00     0.293 HD
ENDBRANCH  17  20
ENDBRANCH   1  12
BRANCH   2  22
ATOM     22  O   UNL     1      31.827  21.937   4.431  1.00  0.00    -0.502 OA
ATOM     23  H   UNL     1      32.407  21.316   3.879  1.00  0.00     0.293 HD
ENDBRANCH   2  22
BRANCH   6  24
ATOM     24  O   UNL     1      28.239  18.002   4.588  1.00  0.00    -0.507 OA
ATOM     25  H   UNL     1      28.457  17.554   3.711  1.00  0.00     0.293 HD
ENDBRANCH   6  24
BRANCH   8  26
ATOM     26  O   UNL     1      24.208  20.529   5.102  1.00  0.00    -0.508 OA
ATOM     27  H   UNL     1      23.781  20.759   5.992  1.00  0.00     0.293 HD
ENDBRANCH   8  26
TORSDOF 6
ENDMDL
