MODEL 1
REMARK VINA RESULT:    -3.847      0.000      0.000
REMARK INTER + INTRA:          -8.310
REMARK INTER:                  -6.546
REMARK INTRA:                  -1.765
REMARK UNBOUND:                -1.765
REMARK SMILES CCCCCCCCCCCCCC(=O)[O-]
REMARK SMILES IDX 8 1 9 2 10 3 11 4 12 5 13 6 14 7 15 8 16 9 7 10 6 11 5 12
REMARK SMILES IDX 4 13 3 14 2 15 1 16
REMARK H PARENT
REMARK Flexibility Score: inf
ROOT
ATOM      1  C   UNL     1       0.481  17.379  27.392  1.00  0.00     0.000 C 
ENDROOT
BRANCH   1   2
ATOM      2  C   UNL     1       1.784  16.570  27.413  1.00  0.00     0.000 C 
BRANCH   2   3
ATOM      3  C   UNL     1       1.855  15.674  28.658  1.00  0.00     0.000 C 
BRANCH   3   4
ATOM      4  C   UNL     1       2.092  14.196  28.312  1.00  0.00     0.000 C 
BRANCH   4   5
ATOM      5  C   UNL     1       1.795  13.256  29.491  1.00  0.00     0.006 C 
BRANCH   5   6
ATOM      6  C   UNL     1       0.608  13.766  30.313  1.00  0.00     0.053 C 
BRANCH   6   7
ATOM      7  C   UNL     1      -0.672  13.189  29.799  1.00  0.00     0.041 C 
ATOM      8  O   UNL     1      -0.756  11.959  29.544  1.00  0.00    -0.550 OA
ATOM      9  O   UNL     1      -1.760  14.019  29.556  1.00  0.00    -0.550 OA
ENDBRANCH   6   7
ENDBRANCH   5   6
ENDBRANCH   4   5
ENDBRANCH   3   4
ENDBRANCH   2   3
ENDBRANCH   1   2
BRANCH   1  10
ATOM     10  C   UNL     1      -0.324  17.162  28.679  1.00  0.00     0.000 C 
BRANCH  10  11
ATOM     11  C   UNL     1      -0.978  18.471  29.145  1.00  0.00    -0.000 C 
BRANCH  11  12
ATOM     12  C   UNL     1      -0.022  19.354  29.965  1.00  0.00    -0.000 C 
BRANCH  12  13
ATOM     13  C   UNL     1       0.991  18.529  30.779  1.00  0.00    -0.000 C 
BRANCH  13  14
ATOM     14  C   UNL     1       2.451  18.927  30.495  1.00  0.00    -0.000 C 
BRANCH  14  15
ATOM     15  C   UNL     1       2.631  20.041  29.450  1.00  0.00    -0.003 C 
ATOM     16  C   UNL     1       3.437  19.596  28.231  1.00  0.00     0.004 C 
ENDBRANCH  14  15
ENDBRANCH  13  14
ENDBRANCH  12  13
ENDBRANCH  11  12
ENDBRANCH  10  11
ENDBRANCH   1  10
TORSDOF 12
ENDMDL
MODEL 2
REMARK VINA RESULT:    -3.731      1.746      2.173
REMARK INTER + INTRA:          -8.113
REMARK INTER:                  -6.843
REMARK INTRA:                  -1.270
REMARK UNBOUND:                -1.765
REMARK SMILES CCCCCCCCCCCCCC(=O)[O-]
REMARK SMILES IDX 8 1 9 2 10 3 11 4 12 5 13 6 14 7 15 8 16 9 7 10 6 11 5 12
REMARK SMILES IDX 4 13 3 14 2 15 1 16
REMARK H PARENT
REMARK Flexibility Score: inf
ROOT
ATOM      1  C   UNL     1      -0.352  17.913  28.567  1.00  0.00     0.000 C 
ENDROOT
BRANCH   1   2
ATOM      2  C   UNL     1      -0.477  16.424  28.915  1.00  0.00     0.000 C 
BRANCH   2   3
ATOM      3  C   UNL     1       0.596  16.005  29.930  1.00  0.00     0.000 C 
BRANCH   3   4
ATOM      4  C   UNL     1       0.408  14.565  30.432  1.00  0.00     0.000 C 
BRANCH   4   5
ATOM      5  C   UNL     1      -0.787  13.859  29.773  1.00  0.00     0.006 C 
BRANCH   5   6
ATOM      6  C   UNL     1      -0.755  12.353  30.048  1.00  0.00     0.053 C 
BRANCH   6   7
ATOM      7  C   UNL     1       0.481  11.741  29.469  1.00  0.00     0.041 C 
ATOM      8  O   UNL     1       0.621  11.655  28.221  1.00  0.00    -0.550 OA
ATOM      9  O   UNL     1       1.457  11.218  30.310  1.00  0.00    -0.550 OA
ENDBRANCH   6   7
ENDBRANCH   5   6
ENDBRANCH   4   5
ENDBRANCH   3   4
ENDBRANCH   2   3
ENDBRANCH   1   2
BRANCH   1  10
ATOM     10  C   UNL     1      -1.412  18.742  29.303  1.00  0.00     0.000 C 
BRANCH  10  11
ATOM     11  C   UNL     1      -0.779  19.969  29.976  1.00  0.00    -0.000 C 
BRANCH  11  12
ATOM     12  C   UNL     1       0.598  19.665  30.590  1.00  0.00    -0.000 C 
BRANCH  12  13
ATOM     13  C   UNL     1       1.688  20.636  30.103  1.00  0.00    -0.000 C 
BRANCH  13  14
ATOM     14  C   UNL     1       3.082  19.985  30.034  1.00  0.00    -0.000 C 
BRANCH  14  15
ATOM     15  C   UNL     1       3.157  18.695  29.198  1.00  0.00    -0.003 C 
ATOM     16  C   UNL     1       3.164  18.957  27.693  1.00  0.00     0.004 C 
ENDBRANCH  14  15
ENDBRANCH  13  14
ENDBRANCH  12  13
ENDBRANCH  11  12
ENDBRANCH  10  11
ENDBRANCH   1  10
TORSDOF 12
ENDMDL
MODEL 3
REMARK VINA RESULT:    -3.717      1.584      3.471
REMARK INTER + INTRA:          -8.089
REMARK INTER:                  -6.118
REMARK INTRA:                  -1.971
REMARK UNBOUND:                -1.765
REMARK SMILES CCCCCCCCCCCCCC(=O)[O-]
REMARK SMILES IDX 8 1 9 2 10 3 11 4 12 5 13 6 14 7 15 8 16 9 7 10 6 11 5 12
REMARK SMILES IDX 4 13 3 14 2 15 1 16
REMARK H PARENT
REMARK Flexibility Score: inf
ROOT
ATOM      1  C   UNL     1       3.856  14.614  29.139  1.00  0.00     0.000 C 
ENDROOT
BRANCH   1   2
ATOM      2  C   UNL     1       2.817  13.957  30.056  1.00  0.00     0.000 C 
BRANCH   2   3
ATOM      3  C   UNL     1       2.105  15.008  30.922  1.00  0.00     0.000 C 
BRANCH   3   4
ATOM      4  C   UNL     1       0.609  14.711  31.104  1.00  0.00     0.000 C 
BRANCH   4   5
ATOM      5  C   UNL     1      -0.155  14.678  29.771  1.00  0.00     0.006 C 
BRANCH   5   6
ATOM      6  C   UNL     1      -1.200  13.559  29.766  1.00  0.00     0.053 C 
BRANCH   6   7
ATOM      7  C   UNL     1      -0.535  12.220  29.735  1.00  0.00     0.041 C 
ATOM      8  O   UNL     1       0.147  11.874  28.735  1.00  0.00    -0.550 OA
ATOM      9  O   UNL     1      -0.710  11.333  30.790  1.00  0.00    -0.550 OA
ENDBRANCH   6   7
ENDBRANCH   5   6
ENDBRANCH   4   5
ENDBRANCH   3   4
ENDBRANCH   2   3
ENDBRANCH   1   2
BRANCH   1  10
ATOM     10  C   UNL     1       3.601  14.255  27.670  1.00  0.00     0.000 C 
BRANCH  10  11
ATOM     11  C   UNL     1       2.435  15.077  27.099  1.00  0.00    -0.000 C 
BRANCH  11  12
ATOM     12  C   UNL     1       2.626  16.591  27.292  1.00  0.00    -0.000 C 
BRANCH  12  13
ATOM     13  C   UNL     1       1.342  17.291  27.771  1.00  0.00    -0.000 C 
BRANCH  13  14
ATOM     14  C   UNL     1       1.561  18.141  29.036  1.00  0.00    -0.000 C 
BRANCH  14  15
ATOM     15  C   UNL     1       0.276  18.534  29.786  1.00  0.00    -0.003 C 
ATOM     16  C   UNL     1      -0.994  18.269  28.979  1.00  0.00     0.004 C 
ENDBRANCH  14  15
ENDBRANCH  13  14
ENDBRANCH  12  13
ENDBRANCH  11  12
ENDBRANCH  10  11
ENDBRANCH   1  10
TORSDOF 12
ENDMDL
MODEL 4
REMARK VINA RESULT:    -3.673      4.039      6.098
REMARK INTER + INTRA:          -8.015
REMARK INTER:                  -5.803
REMARK INTRA:                  -2.212
REMARK UNBOUND:                -1.765
REMARK SMILES CCCCCCCCCCCCCC(=O)[O-]
REMARK SMILES IDX 8 1 9 2 10 3 11 4 12 5 13 6 14 7 15 8 16 9 7 10 6 11 5 12
REMARK SMILES IDX 4 13 3 14 2 15 1 16
REMARK H PARENT
REMARK Flexibility Score: inf
ROOT
ATOM      1  C   UNL     1      -0.028  19.378  29.884  1.00  0.00     0.000 C 
ENDROOT
BRANCH   1   2
ATOM      2  C   UNL     1       0.989  18.596  30.724  1.00  0.00     0.000 C 
BRANCH   2   3
ATOM      3  C   UNL     1       2.400  19.183  30.566  1.00  0.00     0.000 C 
BRANCH   3   4
ATOM      4  C   UNL     1       2.528  20.098  29.337  1.00  0.00     0.000 C 
BRANCH   4   5
ATOM      5  C   UNL     1       3.422  19.497  28.242  1.00  0.00     0.006 C 
BRANCH   5   6
ATOM      6  C   UNL     1       4.830  19.219  28.776  1.00  0.00     0.053 C 
BRANCH   6   7
ATOM      7  C   UNL     1       5.579  20.499  28.971  1.00  0.00     0.041 C 
ATOM      8  O   UNL     1       5.851  20.904  30.131  1.00  0.00    -0.550 OA
ATOM      9  O   UNL     1       5.935  21.270  27.870  1.00  0.00    -0.550 OA
ENDBRANCH   6   7
ENDBRANCH   5   6
ENDBRANCH   4   5
ENDBRANCH   3   4
ENDBRANCH   2   3
ENDBRANCH   1   2
BRANCH   1  10
ATOM     10  C   UNL     1      -0.961  18.428  29.123  1.00  0.00     0.000 C 
BRANCH  10  11
ATOM     11  C   UNL     1      -0.218  17.152  28.699  1.00  0.00    -0.000 C 
BRANCH  11  12
ATOM     12  C   UNL     1       0.480  17.297  27.336  1.00  0.00    -0.000 C 
BRANCH  12  13
ATOM     13  C   UNL     1       1.803  16.515  27.265  1.00  0.00    -0.000 C 
BRANCH  13  14
ATOM     14  C   UNL     1       1.981  15.534  28.439  1.00  0.00    -0.000 C 
BRANCH  14  15
ATOM     15  C   UNL     1       3.235  15.770  29.300  1.00  0.00    -0.003 C 
ATOM     16  C   UNL     1       3.012  15.467  30.780  1.00  0.00     0.004 C 
ENDBRANCH  14  15
ENDBRANCH  13  14
ENDBRANCH  12  13
ENDBRANCH  11  12
ENDBRANCH  10  11
ENDBRANCH   1  10
TORSDOF 12
ENDMDL
MODEL 5
REMARK VINA RESULT:    -3.665      1.602      3.319
REMARK INTER + INTRA:          -8.002
REMARK INTER:                  -6.249
REMARK INTRA:                  -1.753
REMARK UNBOUND:                -1.765
REMARK SMILES CCCCCCCCCCCCCC(=O)[O-]
REMARK SMILES IDX 8 1 9 2 10 3 11 4 12 5 13 6 14 7 15 8 16 9 7 10 6 11 5 12
REMARK SMILES IDX 4 13 3 14 2 15 1 16
REMARK H PARENT
REMARK Flexibility Score: inf
ROOT
ATOM      1  C   UNL     1       1.373  18.214  30.314  1.00  0.00     0.000 C 
ENDROOT
BRANCH   1   2
ATOM      2  C   UNL     1       1.437  17.335  31.569  1.00  0.00     0.000 C 
BRANCH   2   3
ATOM      3  C   UNL     1       1.948  15.927  31.229  1.00  0.00     0.000 C 
BRANCH   3   4
ATOM      4  C   UNL     1       0.844  14.861  31.302  1.00  0.00     0.000 C 
BRANCH   4   5
ATOM      5  C   UNL     1       0.463  14.307  29.920  1.00  0.00     0.006 C 
BRANCH   5   6
ATOM      6  C   UNL     1      -1.045  14.064  29.824  1.00  0.00     0.053 C 
BRANCH   6   7
ATOM      7  C   UNL     1      -1.385  12.685  30.293  1.00  0.00     0.041 C 
ATOM      8  O   UNL     1      -1.029  11.681  29.622  1.00  0.00    -0.550 OA
ATOM      9  O   UNL     1      -2.139  12.510  31.448  1.00  0.00    -0.550 OA
ENDBRANCH   6   7
ENDBRANCH   5   6
ENDBRANCH   4   5
ENDBRANCH   3   4
ENDBRANCH   2   3
ENDBRANCH   1   2
BRANCH   1  10
ATOM     10  C   UNL     1      -0.038  18.217  29.714  1.00  0.00     0.000 C 
BRANCH  10  11
ATOM     11  C   UNL     1      -0.037  17.603  28.306  1.00  0.00    -0.000 C 
BRANCH  11  12
ATOM     12  C   UNL     1       1.355  17.620  27.652  1.00  0.00    -0.000 C 
BRANCH  12  13
ATOM     13  C   UNL     1       1.836  16.213  27.255  1.00  0.00    -0.000 C 
BRANCH  13  14
ATOM     14  C   UNL     1       3.236  15.883  27.806  1.00  0.00    -0.000 C 
BRANCH  14  15
ATOM     15  C   UNL     1       3.843  14.566  27.292  1.00  0.00    -0.003 C 
ATOM     16  C   UNL     1       4.378  14.669  25.865  1.00  0.00     0.004 C 
ENDBRANCH  14  15
ENDBRANCH  13  14
ENDBRANCH  12  13
ENDBRANCH  11  12
ENDBRANCH  10  11
ENDBRANCH   1  10
TORSDOF 12
ENDMDL
MODEL 6
REMARK VINA RESULT:    -3.651      1.364      2.815
REMARK INTER + INTRA:          -7.977
REMARK INTER:                  -6.285
REMARK INTRA:                  -1.692
REMARK UNBOUND:                -1.765
REMARK SMILES CCCCCCCCCCCCCC(=O)[O-]
REMARK SMILES IDX 8 1 9 2 10 3 11 4 12 5 13 6 14 7 15 8 16 9 7 10 6 11 5 12
REMARK SMILES IDX 4 13 3 14 2 15 1 16
REMARK H PARENT
REMARK Flexibility Score: inf
ROOT
ATOM      1  C   UNL     1       1.143  15.879  30.983  1.00  0.00     0.000 C 
ENDROOT
BRANCH   1   2
ATOM      2  C   UNL     1       2.407  15.068  30.669  1.00  0.00     0.000 C 
BRANCH   2   3
ATOM      3  C   UNL     1       2.304  13.647  31.244  1.00  0.00     0.000 C 
BRANCH   3   4
ATOM      4  C   UNL     1       2.444  12.560  30.166  1.00  0.00     0.000 C 
BRANCH   4   5
ATOM      5  C   UNL     1       1.617  12.863  28.907  1.00  0.00     0.006 C 
BRANCH   5   6
ATOM      6  C   UNL     1       0.474  11.857  28.747  1.00  0.00     0.053 C 
BRANCH   6   7
ATOM      7  C   UNL     1      -0.702  12.263  29.578  1.00  0.00     0.041 C 
ATOM      8  O   UNL     1      -1.076  13.465  29.603  1.00  0.00    -0.550 OA
ATOM      9  O   UNL     1      -1.356  11.322  30.364  1.00  0.00    -0.550 OA
ENDBRANCH   6   7
ENDBRANCH   5   6
ENDBRANCH   4   5
ENDBRANCH   3   4
ENDBRANCH   2   3
ENDBRANCH   1   2
BRANCH   1  10
ATOM     10  C   UNL     1       1.400  17.383  30.823  1.00  0.00     0.000 C 
BRANCH  10  11
ATOM     11  C   UNL     1       0.364  18.020  29.885  1.00  0.00    -0.000 C 
BRANCH  11  12
ATOM     12  C   UNL     1      -0.100  17.062  28.775  1.00  0.00    -0.000 C 
BRANCH  12  13
ATOM     13  C   UNL     1       0.630  17.305  27.443  1.00  0.00    -0.000 C 
BRANCH  13  14
ATOM     14  C   UNL     1       1.812  16.342  27.224  1.00  0.00    -0.000 C 
BRANCH  14  15
ATOM     15  C   UNL     1       3.198  16.931  27.540  1.00  0.00    -0.003 C 
ATOM     16  C   UNL     1       3.192  18.455  27.643  1.00  0.00     0.004 C 
ENDBRANCH  14  15
ENDBRANCH  13  14
ENDBRANCH  12  13
ENDBRANCH  11  12
ENDBRANCH  10  11
ENDBRANCH   1  10
TORSDOF 12
ENDMDL
MODEL 7
REMARK VINA RESULT:    -3.644      1.890      3.231
REMARK INTER + INTRA:          -7.966
REMARK INTER:                  -5.862
REMARK INTRA:                  -2.104
REMARK UNBOUND:                -1.765
REMARK SMILES CCCCCCCCCCCCCC(=O)[O-]
REMARK SMILES IDX 8 1 9 2 10 3 11 4 12 5 13 6 14 7 15 8 16 9 7 10 6 11 5 12
REMARK SMILES IDX 4 13 3 14 2 15 1 16
REMARK H PARENT
REMARK Flexibility Score: inf
ROOT
ATOM      1  C   UNL     1       2.626  16.750  31.262  1.00  0.00     0.000 C 
ENDROOT
BRANCH   1   2
ATOM      2  C   UNL     1       2.240  15.345  30.782  1.00  0.00     0.000 C 
BRANCH   2   3
ATOM      3  C   UNL     1       0.742  15.082  30.999  1.00  0.00     0.000 C 
BRANCH   3   4
ATOM      4  C   UNL     1       0.152  14.121  29.955  1.00  0.00     0.000 C 
BRANCH   4   5
ATOM      5  C   UNL     1       1.219  13.234  29.296  1.00  0.00     0.006 C 
BRANCH   5   6
ATOM      6  C   UNL     1       0.907  11.750  29.510  1.00  0.00     0.053 C 
BRANCH   6   7
ATOM      7  C   UNL     1       1.402  11.297  30.847  1.00  0.00     0.041 C 
ATOM      8  O   UNL     1       2.535  11.658  31.259  1.00  0.00    -0.550 OA
ATOM      9  O   UNL     1       0.630  10.436  31.618  1.00  0.00    -0.550 OA
ENDBRANCH   6   7
ENDBRANCH   5   6
ENDBRANCH   4   5
ENDBRANCH   3   4
ENDBRANCH   2   3
ENDBRANCH   1   2
BRANCH   1  10
ATOM     10  C   UNL     1       1.384  17.631  31.445  1.00  0.00     0.000 C 
BRANCH  10  11
ATOM     11  C   UNL     1       1.249  18.636  30.291  1.00  0.00    -0.000 C 
BRANCH  11  12
ATOM     12  C   UNL     1      -0.108  18.538  29.574  1.00  0.00    -0.000 C 
BRANCH  12  13
ATOM     13  C   UNL     1      -0.068  17.587  28.365  1.00  0.00    -0.000 C 
BRANCH  13  14
ATOM     14  C   UNL     1       1.280  17.621  27.622  1.00  0.00    -0.000 C 
BRANCH  14  15
ATOM     15  C   UNL     1       1.842  16.242  27.231  1.00  0.00    -0.003 C 
ATOM     16  C   UNL     1       3.368  16.192  27.241  1.00  0.00     0.004 C 
ENDBRANCH  14  15
ENDBRANCH  13  14
ENDBRANCH  12  13
ENDBRANCH  11  12
ENDBRANCH  10  11
ENDBRANCH   1  10
TORSDOF 12
ENDMDL
MODEL 8
REMARK VINA RESULT:    -3.633      1.350      2.004
REMARK INTER + INTRA:          -7.946
REMARK INTER:                  -6.256
REMARK INTRA:                  -1.690
REMARK UNBOUND:                -1.765
REMARK SMILES CCCCCCCCCCCCCC(=O)[O-]
REMARK SMILES IDX 8 1 9 2 10 3 11 4 12 5 13 6 14 7 15 8 16 9 7 10 6 11 5 12
REMARK SMILES IDX 4 13 3 14 2 15 1 16
REMARK H PARENT
REMARK Flexibility Score: inf
ROOT
ATOM      1  C   UNL     1      -0.162  17.316  28.516  1.00  0.00     0.000 C 
ENDROOT
BRANCH   1   2
ATOM      2  C   UNL     1      -0.538  15.965  29.139  1.00  0.00     0.000 C 
BRANCH   2   3
ATOM      3  C   UNL     1       0.718  15.157  29.500  1.00  0.00     0.000 C 
BRANCH   3   4
ATOM      4  C   UNL     1       0.838  14.890  31.008  1.00  0.00     0.000 C 
BRANCH   4   5
ATOM      5  C   UNL     1       0.586  13.418  31.371  1.00  0.00     0.006 C 
BRANCH   5   6
ATOM      6  C   UNL     1      -0.887  13.184  31.719  1.00  0.00     0.053 C 
BRANCH   6   7
ATOM      7  C   UNL     1      -1.501  12.205  30.769  1.00  0.00     0.041 C 
ATOM      8  O   UNL     1      -2.446  11.464  31.146  1.00  0.00    -0.550 OA
ATOM      9  O   UNL     1      -0.996  12.077  29.480  1.00  0.00    -0.550 OA
ENDBRANCH   6   7
ENDBRANCH   5   6
ENDBRANCH   4   5
ENDBRANCH   3   4
ENDBRANCH   2   3
ENDBRANCH   1   2
BRANCH   1  10
ATOM     10  C   UNL     1      -0.895  18.468  29.214  1.00  0.00     0.000 C 
BRANCH  10  11
ATOM     11  C   UNL     1       0.099  19.409  29.911  1.00  0.00    -0.000 C 
BRANCH  11  12
ATOM     12  C   UNL     1       1.056  18.666  30.858  1.00  0.00    -0.000 C 
BRANCH  12  13
ATOM     13  C   UNL     1       2.535  18.961  30.552  1.00  0.00    -0.000 C 
BRANCH  13  14
ATOM     14  C   UNL     1       3.286  17.738  29.994  1.00  0.00    -0.000 C 
BRANCH  14  15
ATOM     15  C   UNL     1       3.374  17.674  28.459  1.00  0.00    -0.003 C 
ATOM     16  C   UNL     1       3.215  19.039  27.792  1.00  0.00     0.004 C 
ENDBRANCH  14  15
ENDBRANCH  13  14
ENDBRANCH  12  13
ENDBRANCH  11  12
ENDBRANCH  10  11
ENDBRANCH   1  10
TORSDOF 12
ENDMDL
MODEL 9
REMARK VINA RESULT:    -3.609      1.409      3.696
REMARK INTER + INTRA:          -7.906
REMARK INTER:                  -5.957
REMARK INTRA:                  -1.948
REMARK UNBOUND:                -1.765
REMARK SMILES CCCCCCCCCCCCCC(=O)[O-]
REMARK SMILES IDX 8 1 9 2 10 3 11 4 12 5 13 6 14 7 15 8 16 9 7 10 6 11 5 12
REMARK SMILES IDX 4 13 3 14 2 15 1 16
REMARK H PARENT
REMARK Flexibility Score: inf
ROOT
ATOM      1  C   UNL     1       1.288  18.501  29.865  1.00  0.00     0.000 C 
ENDROOT
BRANCH   1   2
ATOM      2  C   UNL     1       0.221  17.931  28.923  1.00  0.00     0.000 C 
BRANCH   2   3
ATOM      3  C   UNL     1       0.012  16.429  29.174  1.00  0.00     0.000 C 
BRANCH   3   4
ATOM      4  C   UNL     1       1.007  15.854  30.194  1.00  0.00     0.000 C 
BRANCH   4   5
ATOM      5  C   UNL     1       0.536  14.520  30.793  1.00  0.00     0.006 C 
BRANCH   5   6
ATOM      6  C   UNL     1      -0.536  13.872  29.913  1.00  0.00     0.053 C 
BRANCH   6   7
ATOM      7  C   UNL     1      -0.314  12.396  29.817  1.00  0.00     0.041 C 
ATOM      8  O   UNL     1      -1.296  11.610  29.750  1.00  0.00    -0.550 OA
ATOM      9  O   UNL     1       0.977  11.883  29.852  1.00  0.00    -0.550 OA
ENDBRANCH   6   7
ENDBRANCH   5   6
ENDBRANCH   4   5
ENDBRANCH   3   4
ENDBRANCH   2   3
ENDBRANCH   1   2
BRANCH   1  10
ATOM     10  C   UNL     1       2.337  19.305  29.088  1.00  0.00     0.000 C 
BRANCH  10  11
ATOM     11  C   UNL     1       2.922  18.475  27.935  1.00  0.00    -0.000 C 
BRANCH  11  12
ATOM     12  C   UNL     1       3.961  17.446  28.412  1.00  0.00    -0.000 C 
BRANCH  12  13
ATOM     13  C   UNL     1       4.147  16.291  27.413  1.00  0.00    -0.000 C 
BRANCH  13  14
ATOM     14  C   UNL     1       2.810  15.702  26.924  1.00  0.00    -0.000 C 
BRANCH  14  15
ATOM     15  C   UNL     1       2.552  14.243  27.341  1.00  0.00    -0.003 C 
ATOM     16  C   UNL     1       3.553  13.728  28.373  1.00  0.00     0.004 C 
ENDBRANCH  14  15
ENDBRANCH  13  14
ENDBRANCH  12  13
ENDBRANCH  11  12
ENDBRANCH  10  11
ENDBRANCH   1  10
TORSDOF 12
ENDMDL
