MODEL 1
REMARK VINA RESULT:    -0.182      0.000      0.000
REMARK INTER + INTRA:          -0.463
REMARK INTER:                  -0.225
REMARK INTRA:                  -0.238
REMARK UNBOUND:                -0.238
REMARK SMILES CCCCCC(=O)[O-]
REMARK SMILES IDX 4 1 5 2 6 3 7 4 8 5 3 6 2 7 1 8
REMARK H PARENT
REMARK Flexibility Score: inf
ROOT
ATOM      1  C   UNL     1     159.957 182.685 179.030  1.00  0.00     0.006 C 
ENDROOT
BRANCH   1   2
ATOM      2  C   UNL     1     158.677 181.861 179.199  1.00  0.00     0.053 C 
BRANCH   2   3
ATOM      3  C   UNL     1     158.275 181.244 177.897  1.00  0.00     0.041 C 
ATOM      4  O   UNL     1     158.123 181.965 176.876  1.00  0.00    -0.550 OA
ATOM      5  O   UNL     1     158.019 179.881 177.823  1.00  0.00    -0.550 OA
ENDBRANCH   2   3
ENDBRANCH   1   2
BRANCH   1   6
ATOM      6  C   UNL     1     159.714 184.157 179.382  1.00  0.00     0.000 C 
BRANCH   6   7
ATOM      7  C   UNL     1     159.527 185.002 178.116  1.00  0.00    -0.003 C 
ATOM      8  C   UNL     1     160.495 184.570 177.018  1.00  0.00     0.004 C 
ENDBRANCH   6   7
ENDBRANCH   1   6
TORSDOF 4
ENDMDL
MODEL 2
REMARK VINA RESULT:    -0.156      2.074      3.684
REMARK INTER + INTRA:          -0.430
REMARK INTER:                  -0.164
REMARK INTRA:                  -0.266
REMARK UNBOUND:                -0.238
REMARK SMILES CCCCCC(=O)[O-]
REMARK SMILES IDX 4 1 5 2 6 3 7 4 8 5 3 6 2 7 1 8
REMARK H PARENT
REMARK Flexibility Score: inf
ROOT
ATOM      1  C   UNL     1     159.942 181.872 180.276  1.00  0.00     0.006 C 
ENDROOT
BRANCH   1   2
ATOM      2  C   UNL     1     159.899 182.871 179.116  1.00  0.00     0.053 C 
BRANCH   2   3
ATOM      3  C   UNL     1     158.573 183.561 179.066  1.00  0.00     0.041 C 
ATOM      4  O   UNL     1     157.878 183.521 178.017  1.00  0.00    -0.550 OA
ATOM      5  O   UNL     1     158.127 184.290 180.161  1.00  0.00    -0.550 OA
ENDBRANCH   2   3
ENDBRANCH   1   2
BRANCH   1   6
ATOM      6  C   UNL     1     158.882 180.779 180.100  1.00  0.00     0.000 C 
BRANCH   6   7
ATOM      7  C   UNL     1     159.183 179.913 178.871  1.00  0.00    -0.003 C 
ATOM      8  C   UNL     1     157.991 179.875 177.919  1.00  0.00     0.004 C 
ENDBRANCH   6   7
ENDBRANCH   1   6
TORSDOF 4
ENDMDL
MODEL 3
REMARK VINA RESULT:    -0.119     23.288     24.508
REMARK INTER + INTRA:          -0.384
REMARK INTER:                  -0.117
REMARK INTRA:                  -0.268
REMARK UNBOUND:                -0.238
REMARK SMILES CCCCCC(=O)[O-]
REMARK SMILES IDX 4 1 5 2 6 3 7 4 8 5 3 6 2 7 1 8
REMARK H PARENT
REMARK Flexibility Score: inf
ROOT
ATOM      1  C   UNL     1     175.295 198.267 181.955  1.00  0.00     0.006 C 
ENDROOT
BRANCH   1   2
ATOM      2  C   UNL     1     176.516 198.196 181.034  1.00  0.00     0.053 C 
BRANCH   2   3
ATOM      3  C   UNL     1     176.757 199.519 180.380  1.00  0.00     0.041 C 
ATOM      4  O   UNL     1     177.859 200.110 180.533  1.00  0.00    -0.550 OA
ATOM      5  O   UNL     1     175.748 200.125 179.643  1.00  0.00    -0.550 OA
ENDBRANCH   2   3
ENDBRANCH   1   2
BRANCH   1   6
ATOM      6  C   UNL     1     175.532 199.247 183.110  1.00  0.00     0.000 C 
BRANCH   6   7
ATOM      7  C   UNL     1     176.630 198.735 184.049  1.00  0.00    -0.003 C 
ATOM      8  C   UNL     1     177.716 199.788 184.253  1.00  0.00     0.004 C 
ENDBRANCH   6   7
ENDBRANCH   1   6
TORSDOF 4
ENDMDL
MODEL 4
REMARK VINA RESULT:    -0.114      3.030      4.066
REMARK INTER + INTRA:          -0.379
REMARK INTER:                  -0.233
REMARK INTRA:                  -0.146
REMARK UNBOUND:                -0.238
REMARK SMILES CCCCCC(=O)[O-]
REMARK SMILES IDX 4 1 5 2 6 3 7 4 8 5 3 6 2 7 1 8
REMARK H PARENT
REMARK Flexibility Score: inf
ROOT
ATOM      1  C   UNL     1     160.096 182.245 178.706  1.00  0.00     0.006 C 
ENDROOT
BRANCH   1   2
ATOM      2  C   UNL     1     159.557 181.640 180.005  1.00  0.00     0.053 C 
BRANCH   2   3
ATOM      3  C   UNL     1     159.625 182.639 181.116  1.00  0.00     0.041 C 
ATOM      4  O   UNL     1     159.403 182.282 182.303  1.00  0.00    -0.550 OA
ATOM      5  O   UNL     1     159.884 183.975 180.836  1.00  0.00    -0.550 OA
ENDBRANCH   2   3
ENDBRANCH   1   2
BRANCH   1   6
ATOM      6  C   UNL     1     159.147 181.966 177.534  1.00  0.00     0.000 C 
BRANCH   6   7
ATOM      7  C   UNL     1     158.049 180.975 177.938  1.00  0.00    -0.003 C 
ATOM      8  C   UNL     1     157.882 179.880 176.889  1.00  0.00     0.004 C 
ENDBRANCH   6   7
ENDBRANCH   1   6
TORSDOF 4
ENDMDL
MODEL 5
REMARK VINA RESULT:    -0.114      1.894      3.235
REMARK INTER + INTRA:          -0.378
REMARK INTER:                  -0.096
REMARK INTRA:                  -0.282
REMARK UNBOUND:                -0.238
REMARK SMILES CCCCCC(=O)[O-]
REMARK SMILES IDX 4 1 5 2 6 3 7 4 8 5 3 6 2 7 1 8
REMARK H PARENT
REMARK Flexibility Score: inf
ROOT
ATOM      1  C   UNL     1     160.752 183.646 178.869  1.00  0.00     0.006 C 
ENDROOT
BRANCH   1   2
ATOM      2  C   UNL     1     160.052 184.072 177.576  1.00  0.00     0.053 C 
BRANCH   2   3
ATOM      3  C   UNL     1     158.571 183.914 177.705  1.00  0.00     0.041 C 
ATOM      4  O   UNL     1     157.933 183.214 176.875  1.00  0.00    -0.550 OA
ATOM      5  O   UNL     1     157.885 184.582 178.712  1.00  0.00    -0.550 OA
ENDBRANCH   2   3
ENDBRANCH   1   2
BRANCH   1   6
ATOM      6  C   UNL     1     160.508 182.161 179.165  1.00  0.00     0.000 C 
BRANCH   6   7
ATOM      7  C   UNL     1     159.995 181.962 180.595  1.00  0.00    -0.003 C 
ATOM      8  C   UNL     1     159.932 183.287 181.348  1.00  0.00     0.004 C 
ENDBRANCH   6   7
ENDBRANCH   1   6
TORSDOF 4
ENDMDL
MODEL 6
REMARK VINA RESULT:    -0.102     23.266     24.079
REMARK INTER + INTRA:          -0.364
REMARK INTER:                  -0.081
REMARK INTRA:                  -0.282
REMARK UNBOUND:                -0.238
REMARK SMILES CCCCCC(=O)[O-]
REMARK SMILES IDX 4 1 5 2 6 3 7 4 8 5 3 6 2 7 1 8
REMARK H PARENT
REMARK Flexibility Score: inf
ROOT
ATOM      1  C   UNL     1     174.930 198.149 183.218  1.00  0.00     0.006 C 
ENDROOT
BRANCH   1   2
ATOM      2  C   UNL     1     175.315 199.421 183.980  1.00  0.00     0.053 C 
BRANCH   2   3
ATOM      3  C   UNL     1     176.752 199.760 183.740  1.00  0.00     0.041 C 
ATOM      4  O   UNL     1     177.539 199.904 184.713  1.00  0.00    -0.550 OA
ATOM      5  O   UNL     1     177.211 199.968 182.446  1.00  0.00    -0.550 OA
ENDBRANCH   2   3
ENDBRANCH   1   2
BRANCH   1   6
ATOM      6  C   UNL     1     175.738 196.945 183.713  1.00  0.00     0.000 C 
BRANCH   6   7
ATOM      7  C   UNL     1     176.403 196.210 182.544  1.00  0.00    -0.003 C 
ATOM      8  C   UNL     1     176.006 196.828 181.207  1.00  0.00     0.004 C 
ENDBRANCH   6   7
ENDBRANCH   1   6
TORSDOF 4
ENDMDL
MODEL 7
REMARK VINA RESULT:    -0.098     22.917     24.006
REMARK INTER + INTRA:          -0.359
REMARK INTER:                  -0.085
REMARK INTRA:                  -0.273
REMARK UNBOUND:                -0.238
REMARK SMILES CCCCCC(=O)[O-]
REMARK SMILES IDX 4 1 5 2 6 3 7 4 8 5 3 6 2 7 1 8
REMARK H PARENT
REMARK Flexibility Score: inf
ROOT
ATOM      1  C   UNL     1     175.635 199.154 182.706  1.00  0.00     0.006 C 
ENDROOT
BRANCH   1   2
ATOM      2  C   UNL     1     175.872 197.792 182.049  1.00  0.00     0.053 C 
BRANCH   2   3
ATOM      3  C   UNL     1     176.267 196.777 183.074  1.00  0.00     0.041 C 
ATOM      4  O   UNL     1     177.301 196.078 182.909  1.00  0.00    -0.550 OA
ATOM      5  O   UNL     1     175.465 196.566 184.189  1.00  0.00    -0.550 OA
ENDBRANCH   2   3
ENDBRANCH   1   2
BRANCH   1   6
ATOM      6  C   UNL     1     176.936 199.718 183.290  1.00  0.00     0.000 C 
BRANCH   6   7
ATOM      7  C   UNL     1     176.751 200.122 184.757  1.00  0.00    -0.003 C 
ATOM      8  C   UNL     1     177.547 199.210 185.685  1.00  0.00     0.004 C 
ENDBRANCH   6   7
ENDBRANCH   1   6
TORSDOF 4
ENDMDL
MODEL 8
REMARK VINA RESULT:    -0.097     23.234     24.127
REMARK INTER + INTRA:          -0.358
REMARK INTER:                  -0.086
REMARK INTRA:                  -0.271
REMARK UNBOUND:                -0.238
REMARK SMILES CCCCCC(=O)[O-]
REMARK SMILES IDX 4 1 5 2 6 3 7 4 8 5 3 6 2 7 1 8
REMARK H PARENT
REMARK Flexibility Score: inf
ROOT
ATOM      1  C   UNL     1     175.382 197.781 182.625  1.00  0.00     0.006 C 
ENDROOT
BRANCH   1   2
ATOM      2  C   UNL     1     175.533 199.286 182.860  1.00  0.00     0.053 C 
BRANCH   2   3
ATOM      3  C   UNL     1     176.909 199.606 183.349  1.00  0.00     0.041 C 
ATOM      4  O   UNL     1     177.910 199.368 182.624  1.00  0.00    -0.550 OA
ATOM      5  O   UNL     1     177.091 200.120 184.627  1.00  0.00    -0.550 OA
ENDBRANCH   2   3
ENDBRANCH   1   2
BRANCH   1   6
ATOM      6  C   UNL     1     175.431 197.009 183.948  1.00  0.00     0.000 C 
BRANCH   6   7
ATOM      7  C   UNL     1     174.277 197.421 184.869  1.00  0.00    -0.003 C 
ATOM      8  C   UNL     1     174.790 197.837 186.244  1.00  0.00     0.004 C 
ENDBRANCH   6   7
ENDBRANCH   1   6
TORSDOF 4
ENDMDL
MODEL 9
REMARK VINA RESULT:    -0.096     23.942     25.053
REMARK INTER + INTRA:          -0.356
REMARK INTER:                  -0.113
REMARK INTRA:                  -0.243
REMARK UNBOUND:                -0.238
REMARK SMILES CCCCCC(=O)[O-]
REMARK SMILES IDX 4 1 5 2 6 3 7 4 8 5 3 6 2 7 1 8
REMARK H PARENT
REMARK Flexibility Score: inf
ROOT
ATOM      1  C   UNL     1     177.900 198.641 185.120  1.00  0.00     0.006 C 
ENDROOT
BRANCH   1   2
ATOM      2  C   UNL     1     177.549 200.047 184.625  1.00  0.00     0.053 C 
BRANCH   2   3
ATOM      3  C   UNL     1     177.116 200.006 183.194  1.00  0.00     0.041 C 
ATOM      4  O   UNL     1     175.896 199.889 182.904  1.00  0.00    -0.550 OA
ATOM      5  O   UNL     1     178.064 200.045 182.179  1.00  0.00    -0.550 OA
ENDBRANCH   2   3
ENDBRANCH   1   2
BRANCH   1   6
ATOM      6  C   UNL     1     176.884 198.153 186.159  1.00  0.00     0.000 C 
BRANCH   6   7
ATOM      7  C   UNL     1     175.782 197.316 185.500  1.00  0.00    -0.003 C 
ATOM      8  C   UNL     1     174.431 198.023 185.580  1.00  0.00     0.004 C 
ENDBRANCH   6   7
ENDBRANCH   1   6
TORSDOF 4
ENDMDL
