MODEL 1
REMARK VINA RESULT:    -4.766      0.000      0.000
REMARK INTER + INTRA:          -7.585
REMARK INTER:                  -6.995
REMARK INTRA:                  -0.591
REMARK UNBOUND:                -0.591
REMARK SMILES O=C([O-])CCCCCCCC(=O)[O-]
REMARK SMILES IDX 7 1 6 2 5 3 4 4 2 5 1 6 3 7 8 8 9 9 10 10 11 11 12 12 13 13
REMARK H PARENT
REMARK Flexibility Score: inf
ROOT
ATOM      1  C   UNL     1      20.322   5.996  -9.537  1.00  0.00     0.000 C 
ENDROOT
BRANCH   1   2
ATOM      2  C   UNL     1      19.296   7.008 -10.068  1.00  0.00     0.000 C 
BRANCH   2   3
ATOM      3  C   UNL     1      18.127   6.296 -10.758  1.00  0.00     0.006 C 
BRANCH   3   4
ATOM      4  C   UNL     1      18.324   4.777 -10.747  1.00  0.00     0.053 C 
BRANCH   4   5
ATOM      5  C   UNL     1      17.001   4.077 -10.764  1.00  0.00     0.041 C 
ATOM      6  O   UNL     1      16.912   2.904 -11.213  1.00  0.00    -0.550 OA
ATOM      7  O   UNL     1      15.877   4.701 -10.239  1.00  0.00    -0.550 OA
ENDBRANCH   4   5
ENDBRANCH   3   4
ENDBRANCH   2   3
ENDBRANCH   1   2
BRANCH   1   8
ATOM      8  C   UNL     1      21.749   6.284 -10.031  1.00  0.00     0.000 C 
BRANCH   8   9
ATOM      9  C   UNL     1      21.794   6.679 -11.515  1.00  0.00     0.006 C 
BRANCH   9  10
ATOM     10  C   UNL     1      21.902   5.438 -12.408  1.00  0.00     0.053 C 
BRANCH  10  11
ATOM     11  C   UNL     1      20.664   5.277 -13.230  1.00  0.00     0.041 C 
ATOM     12  O   UNL     1      20.331   4.141 -13.660  1.00  0.00    -0.550 OA
ATOM     13  O   UNL     1      19.849   6.373 -13.484  1.00  0.00    -0.550 OA
ENDBRANCH  10  11
ENDBRANCH   9  10
ENDBRANCH   8   9
ENDBRANCH   1   8
TORSDOF 8
ENDMDL
MODEL 2
REMARK VINA RESULT:    -4.750      0.191      4.032
REMARK INTER + INTRA:          -7.562
REMARK INTER:                  -6.920
REMARK INTRA:                  -0.641
REMARK UNBOUND:                -0.591
REMARK SMILES O=C([O-])CCCCCCCC(=O)[O-]
REMARK SMILES IDX 7 1 6 2 5 3 4 4 2 5 1 6 3 7 8 8 9 9 10 10 11 11 12 12 13 13
REMARK H PARENT
REMARK Flexibility Score: inf
ROOT
ATOM      1  C   UNL     1      20.469   6.049  -9.713  1.00  0.00     0.000 C 
ENDROOT
BRANCH   1   2
ATOM      2  C   UNL     1      21.801   6.578 -10.267  1.00  0.00     0.000 C 
BRANCH   2   3
ATOM      3  C   UNL     1      21.729   6.763 -11.787  1.00  0.00     0.006 C 
BRANCH   3   4
ATOM      4  C   UNL     1      21.781   5.413 -12.509  1.00  0.00     0.053 C 
BRANCH   4   5
ATOM      5  C   UNL     1      20.525   5.188 -13.290  1.00  0.00     0.041 C 
ATOM      6  O   UNL     1      20.209   4.027 -13.659  1.00  0.00    -0.550 OA
ATOM      7  O   UNL     1      19.678   6.254 -13.567  1.00  0.00    -0.550 OA
ENDBRANCH   4   5
ENDBRANCH   3   4
ENDBRANCH   2   3
ENDBRANCH   1   2
BRANCH   1   8
ATOM      8  C   UNL     1      19.291   6.994  -9.999  1.00  0.00     0.000 C 
BRANCH   8   9
ATOM      9  C   UNL     1      18.111   6.282 -10.676  1.00  0.00     0.006 C 
BRANCH   9  10
ATOM     10  C   UNL     1      18.299   4.761 -10.648  1.00  0.00     0.053 C 
BRANCH  10  11
ATOM     11  C   UNL     1      16.974   4.069 -10.671  1.00  0.00     0.041 C 
ATOM     12  O   UNL     1      16.873   2.908 -11.146  1.00  0.00    -0.550 OA
ATOM     13  O   UNL     1      15.857   4.688 -10.124  1.00  0.00    -0.550 OA
ENDBRANCH  10  11
ENDBRANCH   9  10
ENDBRANCH   8   9
ENDBRANCH   1   8
TORSDOF 8
ENDMDL
MODEL 3
REMARK VINA RESULT:    -4.326      1.298      4.778
REMARK INTER + INTRA:          -6.939
REMARK INTER:                  -6.670
REMARK INTRA:                  -0.270
REMARK UNBOUND:                -0.591
REMARK SMILES O=C([O-])CCCCCCCC(=O)[O-]
REMARK SMILES IDX 7 1 6 2 5 3 4 4 2 5 1 6 3 7 8 8 9 9 10 10 11 11 12 12 13 13
REMARK H PARENT
REMARK Flexibility Score: inf
ROOT
ATOM      1  C   UNL     1      20.520   6.277  -9.539  1.00  0.00     0.000 C 
ENDROOT
BRANCH   1   2
ATOM      2  C   UNL     1      21.577   7.125 -10.263  1.00  0.00     0.000 C 
BRANCH   2   3
ATOM      3  C   UNL     1      21.363   7.091 -11.781  1.00  0.00     0.006 C 
BRANCH   3   4
ATOM      4  C   UNL     1      22.694   6.935 -12.522  1.00  0.00     0.053 C 
BRANCH   4   5
ATOM      5  C   UNL     1      22.845   5.538 -13.038  1.00  0.00     0.041 C 
ATOM      6  O   UNL     1      23.967   5.130 -13.438  1.00  0.00    -0.550 OA
ATOM      7  O   UNL     1      21.759   4.673 -13.031  1.00  0.00    -0.550 OA
ENDBRANCH   4   5
ENDBRANCH   3   4
ENDBRANCH   2   3
ENDBRANCH   1   2
BRANCH   1   8
ATOM      8  C   UNL     1      19.096   6.829  -9.715  1.00  0.00     0.000 C 
BRANCH   8   9
ATOM      9  C   UNL     1      18.325   6.131 -10.845  1.00  0.00     0.006 C 
BRANCH   9  10
ATOM     10  C   UNL     1      18.307   4.613 -10.638  1.00  0.00     0.053 C 
BRANCH  10  11
ATOM     11  C   UNL     1      16.907   4.092 -10.710  1.00  0.00     0.041 C 
ATOM     12  O   UNL     1      16.674   2.967 -11.226  1.00  0.00    -0.550 OA
ATOM     13  O   UNL     1      15.863   4.828 -10.164  1.00  0.00    -0.550 OA
ENDBRANCH  10  11
ENDBRANCH   9  10
ENDBRANCH   8   9
ENDBRANCH   1   8
TORSDOF 8
ENDMDL
MODEL 4
REMARK VINA RESULT:    -3.921      2.349      2.765
REMARK INTER + INTRA:          -6.346
REMARK INTER:                  -6.075
REMARK INTRA:                  -0.271
REMARK UNBOUND:                -0.591
REMARK SMILES O=C([O-])CCCCCCCC(=O)[O-]
REMARK SMILES IDX 7 1 6 2 5 3 4 4 2 5 1 6 3 7 8 8 9 9 10 10 11 11 12 12 13 13
REMARK H PARENT
REMARK Flexibility Score: inf
ROOT
ATOM      1  C   UNL     1      20.347   5.739 -12.334  1.00  0.00     0.000 C 
ENDROOT
BRANCH   1   2
ATOM      2  C   UNL     1      19.136   6.678 -12.224  1.00  0.00     0.000 C 
BRANCH   2   3
ATOM      3  C   UNL     1      18.236   6.281 -11.048  1.00  0.00     0.006 C 
BRANCH   3   4
ATOM      4  C   UNL     1      18.378   4.790 -10.726  1.00  0.00     0.053 C 
BRANCH   4   5
ATOM      5  C   UNL     1      17.044   4.115 -10.769  1.00  0.00     0.041 C 
ATOM      6  O   UNL     1      16.936   2.956 -11.247  1.00  0.00    -0.550 OA
ATOM      7  O   UNL     1      15.927   4.748 -10.238  1.00  0.00    -0.550 OA
ENDBRANCH   4   5
ENDBRANCH   3   4
ENDBRANCH   2   3
ENDBRANCH   1   2
BRANCH   1   8
ATOM      8  C   UNL     1      21.592   6.291 -11.623  1.00  0.00     0.000 C 
BRANCH   8   9
ATOM      9  C   UNL     1      22.757   6.556 -12.589  1.00  0.00     0.006 C 
BRANCH   9  10
ATOM     10  C   UNL     1      23.312   5.242 -13.150  1.00  0.00     0.053 C 
BRANCH  10  11
ATOM     11  C   UNL     1      24.600   5.484 -13.871  1.00  0.00     0.041 C 
ATOM     12  O   UNL     1      24.963   6.657 -14.145  1.00  0.00    -0.550 OA
ATOM     13  O   UNL     1      25.424   4.414 -14.199  1.00  0.00    -0.550 OA
ENDBRANCH  10  11
ENDBRANCH   9  10
ENDBRANCH   8   9
ENDBRANCH   1   8
TORSDOF 8
ENDMDL
MODEL 5
REMARK VINA RESULT:    -3.803      2.231      5.636
REMARK INTER + INTRA:          -6.172
REMARK INTER:                  -5.955
REMARK INTRA:                  -0.217
REMARK UNBOUND:                -0.591
REMARK SMILES O=C([O-])CCCCCCCC(=O)[O-]
REMARK SMILES IDX 7 1 6 2 5 3 4 4 2 5 1 6 3 7 8 8 9 9 10 10 11 11 12 12 13 13
REMARK H PARENT
REMARK Flexibility Score: inf
ROOT
ATOM      1  C   UNL     1      20.504   7.121 -11.532  1.00  0.00     0.000 C 
ENDROOT
BRANCH   1   2
ATOM      2  C   UNL     1      20.971   6.044 -12.524  1.00  0.00     0.000 C 
BRANCH   2   3
ATOM      3  C   UNL     1      22.395   5.578 -12.197  1.00  0.00     0.006 C 
BRANCH   3   4
ATOM      4  C   UNL     1      23.012   4.825 -13.379  1.00  0.00     0.053 C 
BRANCH   4   5
ATOM      5  C   UNL     1      24.338   5.416 -13.742  1.00  0.00     0.041 C 
ATOM      6  O   UNL     1      24.506   6.663 -13.703  1.00  0.00    -0.550 OA
ATOM      7  O   UNL     1      25.401   4.588 -14.076  1.00  0.00    -0.550 OA
ENDBRANCH   4   5
ENDBRANCH   3   4
ENDBRANCH   2   3
ENDBRANCH   1   2
BRANCH   1   8
ATOM      8  C   UNL     1      20.111   6.538 -10.166  1.00  0.00     0.000 C 
BRANCH   8   9
ATOM      9  C   UNL     1      19.241   5.278 -10.287  1.00  0.00     0.006 C 
BRANCH   9  10
ATOM     10  C   UNL     1      17.926   5.588 -11.010  1.00  0.00     0.053 C 
BRANCH  10  11
ATOM     11  C   UNL     1      16.910   4.529 -10.725  1.00  0.00     0.041 C 
ATOM     12  O   UNL     1      17.104   3.345 -11.105  1.00  0.00    -0.550 OA
ATOM     13  O   UNL     1      15.768   4.839  -9.997  1.00  0.00    -0.550 OA
ENDBRANCH  10  11
ENDBRANCH   9  10
ENDBRANCH   8   9
ENDBRANCH   1   8
TORSDOF 8
ENDMDL
MODEL 6
REMARK VINA RESULT:    -2.890      4.624      5.591
REMARK INTER + INTRA:          -4.832
REMARK INTER:                  -4.684
REMARK INTRA:                  -0.149
REMARK UNBOUND:                -0.591
REMARK SMILES O=C([O-])CCCCCCCC(=O)[O-]
REMARK SMILES IDX 7 1 6 2 5 3 4 4 2 5 1 6 3 7 8 8 9 9 10 10 11 11 12 12 13 13
REMARK H PARENT
REMARK Flexibility Score: inf
ROOT
ATOM      1  C   UNL     1      23.503   5.083 -13.117  1.00  0.00     0.000 C 
ENDROOT
BRANCH   1   2
ATOM      2  C   UNL     1      22.548   6.242 -12.794  1.00  0.00     0.000 C 
BRANCH   2   3
ATOM      3  C   UNL     1      21.628   5.886 -11.620  1.00  0.00     0.006 C 
BRANCH   3   4
ATOM      4  C   UNL     1      20.175   5.745 -12.081  1.00  0.00     0.053 C 
BRANCH   4   5
ATOM      5  C   UNL     1      19.240   6.241 -11.023  1.00  0.00     0.041 C 
ATOM      6  O   UNL     1      19.693   6.770  -9.975  1.00  0.00    -0.550 OA
ATOM      7  O   UNL     1      17.867   6.162 -11.217  1.00  0.00    -0.550 OA
ENDBRANCH   4   5
ENDBRANCH   3   4
ENDBRANCH   2   3
ENDBRANCH   1   2
BRANCH   1   8
ATOM      8  C   UNL     1      24.601   5.481 -14.115  1.00  0.00     0.000 C 
BRANCH   8   9
ATOM      9  C   UNL     1      25.734   4.447 -14.194  1.00  0.00     0.006 C 
BRANCH   9  10
ATOM     10  C   UNL     1      26.938   5.011 -14.955  1.00  0.00     0.053 C 
BRANCH  10  11
ATOM     11  C   UNL     1      28.103   4.078 -14.857  1.00  0.00     0.041 C 
ATOM     12  O   UNL     1      28.856   3.897 -15.849  1.00  0.00    -0.550 OA
ATOM     13  O   UNL     1      28.385   3.443 -13.654  1.00  0.00    -0.550 OA
ENDBRANCH  10  11
ENDBRANCH   9  10
ENDBRANCH   8   9
ENDBRANCH   1   8
TORSDOF 8
ENDMDL
MODEL 7
REMARK VINA RESULT:    -2.851     11.580     13.890
REMARK INTER + INTRA:          -4.775
REMARK INTER:                  -4.206
REMARK INTRA:                  -0.569
REMARK UNBOUND:                -0.591
REMARK SMILES O=C([O-])CCCCCCCC(=O)[O-]
REMARK SMILES IDX 7 1 6 2 5 3 4 4 2 5 1 6 3 7 8 8 9 9 10 10 11 11 12 12 13 13
REMARK H PARENT
REMARK Flexibility Score: inf
ROOT
ATOM      1  C   UNL     1      24.117  -3.657 -19.408  1.00  0.00     0.000 C 
ENDROOT
BRANCH   1   2
ATOM      2  C   UNL     1      24.902  -2.738 -20.358  1.00  0.00     0.000 C 
BRANCH   2   3
ATOM      3  C   UNL     1      26.244  -3.368 -20.748  1.00  0.00     0.006 C 
BRANCH   3   4
ATOM      4  C   UNL     1      26.084  -4.305 -21.949  1.00  0.00     0.053 C 
BRANCH   4   5
ATOM      5  C   UNL     1      26.538  -5.687 -21.600  1.00  0.00     0.041 C 
ATOM      6  O   UNL     1      27.598  -6.149 -22.098  1.00  0.00    -0.550 OA
ATOM      7  O   UNL     1      25.816  -6.446 -20.688  1.00  0.00    -0.550 OA
ENDBRANCH   4   5
ENDBRANCH   3   4
ENDBRANCH   2   3
ENDBRANCH   1   2
BRANCH   1   8
ATOM      8  C   UNL     1      24.953  -4.116 -18.203  1.00  0.00     0.000 C 
BRANCH   8   9
ATOM      9  C   UNL     1      25.423  -2.944 -17.327  1.00  0.00     0.006 C 
BRANCH   9  10
ATOM     10  C   UNL     1      24.249  -2.332 -16.557  1.00  0.00     0.053 C 
BRANCH  10  11
ATOM     11  C   UNL     1      24.146  -0.867 -16.838  1.00  0.00     0.041 C 
ATOM     12  O   UNL     1      24.545  -0.027 -15.989  1.00  0.00    -0.550 OA
ATOM     13  O   UNL     1      23.652  -0.426 -18.060  1.00  0.00    -0.550 OA
ENDBRANCH  10  11
ENDBRANCH   9  10
ENDBRANCH   8   9
ENDBRANCH   1   8
TORSDOF 8
ENDMDL
MODEL 8
REMARK VINA RESULT:    -2.844     11.620     13.597
REMARK INTER + INTRA:          -4.765
REMARK INTER:                  -4.197
REMARK INTRA:                  -0.569
REMARK UNBOUND:                -0.591
REMARK SMILES O=C([O-])CCCCCCCC(=O)[O-]
REMARK SMILES IDX 7 1 6 2 5 3 4 4 2 5 1 6 3 7 8 8 9 9 10 10 11 11 12 12 13 13
REMARK H PARENT
REMARK Flexibility Score: inf
ROOT
ATOM      1  C   UNL     1      24.114  -3.546 -19.514  1.00  0.00     0.000 C 
ENDROOT
BRANCH   1   2
ATOM      2  C   UNL     1      24.859  -4.117 -18.297  1.00  0.00     0.000 C 
BRANCH   2   3
ATOM      3  C   UNL     1      25.384  -2.992 -17.397  1.00  0.00     0.006 C 
BRANCH   3   4
ATOM      4  C   UNL     1      24.258  -2.394 -16.549  1.00  0.00     0.053 C 
BRANCH   4   5
ATOM      5  C   UNL     1      24.161  -0.918 -16.774  1.00  0.00     0.041 C 
ATOM      6  O   UNL     1      24.614  -0.116 -15.915  1.00  0.00    -0.550 OA
ATOM      7  O   UNL     1      23.613  -0.429 -17.952  1.00  0.00    -0.550 OA
ENDBRANCH   4   5
ENDBRANCH   3   4
ENDBRANCH   2   3
ENDBRANCH   1   2
BRANCH   1   8
ATOM      8  C   UNL     1      25.021  -2.697 -20.418  1.00  0.00     0.000 C 
BRANCH   8   9
ATOM      9  C   UNL     1      26.341  -3.402 -20.764  1.00  0.00     0.006 C 
BRANCH   9  10
ATOM     10  C   UNL     1      26.167  -4.330 -21.971  1.00  0.00     0.053 C 
BRANCH  10  11
ATOM     11  C   UNL     1      26.592  -5.721 -21.626  1.00  0.00     0.041 C 
ATOM     12  O   UNL     1      27.647  -6.202 -22.116  1.00  0.00    -0.550 OA
ATOM     13  O   UNL     1      25.847  -6.473 -20.726  1.00  0.00    -0.550 OA
ENDBRANCH  10  11
ENDBRANCH   9  10
ENDBRANCH   8   9
ENDBRANCH   1   8
TORSDOF 8
ENDMDL
MODEL 9
REMARK VINA RESULT:    -2.642      4.400      7.388
REMARK INTER + INTRA:          -4.469
REMARK INTER:                  -4.187
REMARK INTRA:                  -0.282
REMARK UNBOUND:                -0.591
REMARK SMILES O=C([O-])CCCCCCCC(=O)[O-]
REMARK SMILES IDX 7 1 6 2 5 3 4 4 2 5 1 6 3 7 8 8 9 9 10 10 11 11 12 12 13 13
REMARK H PARENT
REMARK Flexibility Score: inf
ROOT
ATOM      1  C   UNL     1      23.854   6.801 -13.289  1.00  0.00     0.000 C 
ENDROOT
BRANCH   1   2
ATOM      2  C   UNL     1      24.215   5.377 -13.738  1.00  0.00     0.000 C 
BRANCH   2   3
ATOM      3  C   UNL     1      25.543   5.362 -14.503  1.00  0.00     0.006 C 
BRANCH   3   4
ATOM      4  C   UNL     1      26.283   4.037 -14.296  1.00  0.00     0.053 C 
BRANCH   4   5
ATOM      5  C   UNL     1      27.680   4.129 -14.824  1.00  0.00     0.041 C 
ATOM      6  O   UNL     1      28.026   5.112 -15.530  1.00  0.00    -0.550 OA
ATOM      7  O   UNL     1      28.612   3.153 -14.497  1.00  0.00    -0.550 OA
ENDBRANCH   4   5
ENDBRANCH   3   4
ENDBRANCH   2   3
ENDBRANCH   1   2
BRANCH   1   8
ATOM      8  C   UNL     1      22.560   6.852 -12.462  1.00  0.00     0.000 C 
BRANCH   8   9
ATOM      9  C   UNL     1      21.872   5.483 -12.355  1.00  0.00     0.006 C 
BRANCH   9  10
ATOM     10  C   UNL     1      20.383   5.590 -12.702  1.00  0.00     0.053 C 
BRANCH  10  11
ATOM     11  C   UNL     1      19.587   5.943 -11.486  1.00  0.00     0.041 C 
ATOM     12  O   UNL     1      20.036   5.691 -10.338  1.00  0.00    -0.550 OA
ATOM     13  O   UNL     1      18.367   6.594 -11.619  1.00  0.00    -0.550 OA
ENDBRANCH  10  11
ENDBRANCH   9  10
ENDBRANCH   8   9
ENDBRANCH   1   8
TORSDOF 8
ENDMDL
