MODEL 1
REMARK VINA RESULT:    -4.129      0.000      0.000
REMARK INTER + INTRA:          -9.551
REMARK INTER:                  -7.991
REMARK INTRA:                  -1.560
REMARK UNBOUND:                -1.560
REMARK SMILES CCCCCCCCCCCCCCCCCC(=O)[O-]
REMARK SMILES IDX 10 1 11 2 12 3 13 4 14 5 15 6 16 7 17 8 18 9 19 10 20 11
REMARK SMILES IDX 9 12 8 13 7 14 6 15 5 16 4 17 3 18 2 19 1 20
REMARK H PARENT
REMARK Flexibility Score: inf
ROOT
ATOM      1  C   UNL     1      31.531   5.427  41.730  1.00  0.00     0.000 C 
ENDROOT
BRANCH   1   2
ATOM      2  C   UNL     1      30.673   6.649  41.358  1.00  0.00     0.000 C 
BRANCH   2   3
ATOM      3  C   UNL     1      29.202   6.276  41.089  1.00  0.00     0.000 C 
BRANCH   3   4
ATOM      4  C   UNL     1      29.022   4.777  40.783  1.00  0.00     0.000 C 
BRANCH   4   5
ATOM      5  C   UNL     1      27.688   4.222  41.329  1.00  0.00     0.000 C 
BRANCH   5   6
ATOM      6  C   UNL     1      26.604   5.297  41.521  1.00  0.00     0.000 C 
BRANCH   6   7
ATOM      7  C   UNL     1      25.216   4.851  41.037  1.00  0.00     0.006 C 
BRANCH   7   8
ATOM      8  C   UNL     1      25.341   3.756  39.968  1.00  0.00     0.053 C 
BRANCH   8   9
ATOM      9  C   UNL     1      24.496   2.561  40.298  1.00  0.00     0.041 C 
ATOM     10  O   UNL     1      24.101   1.792  39.383  1.00  0.00    -0.550 OA
ATOM     11  O   UNL     1      24.082   2.346  41.608  1.00  0.00    -0.550 OA
ENDBRANCH   8   9
ENDBRANCH   7   8
ENDBRANCH   6   7
ENDBRANCH   5   6
ENDBRANCH   4   5
ENDBRANCH   3   4
ENDBRANCH   2   3
ENDBRANCH   1   2
BRANCH   1  12
ATOM     12  C   UNL     1      31.922   5.440  43.216  1.00  0.00     0.000 C 
BRANCH  12  13
ATOM     13  C   UNL     1      30.957   4.594  44.065  1.00  0.00    -0.000 C 
BRANCH  13  14
ATOM     14  C   UNL     1      30.102   5.449  45.019  1.00  0.00    -0.000 C 
BRANCH  14  15
ATOM     15  C   UNL     1      30.763   6.807  45.289  1.00  0.00    -0.000 C 
BRANCH  15  16
ATOM     16  C   UNL     1      30.706   7.167  46.782  1.00  0.00    -0.000 C 
BRANCH  16  17
ATOM     17  C   UNL     1      31.660   6.291  47.627  1.00  0.00    -0.000 C 
BRANCH  17  18
ATOM     18  C   UNL     1      30.940   5.497  48.733  1.00  0.00    -0.000 C 
BRANCH  18  19
ATOM     19  C   UNL     1      31.881   4.724  49.673  1.00  0.00    -0.003 C 
ATOM     20  C   UNL     1      32.145   3.293  49.205  1.00  0.00     0.004 C 
ENDBRANCH  18  19
ENDBRANCH  17  18
ENDBRANCH  16  17
ENDBRANCH  15  16
ENDBRANCH  14  15
ENDBRANCH  13  14
ENDBRANCH  12  13
ENDBRANCH   1  12
TORSDOF 16
ENDMDL
MODEL 2
REMARK VINA RESULT:    -4.126      2.326      3.057
REMARK INTER + INTRA:          -9.546
REMARK INTER:                  -7.481
REMARK INTRA:                  -2.065
REMARK UNBOUND:                -1.560
REMARK SMILES CCCCCCCCCCCCCCCCCC(=O)[O-]
REMARK SMILES IDX 10 1 11 2 12 3 13 4 14 5 15 6 16 7 17 8 18 9 19 10 20 11
REMARK SMILES IDX 9 12 8 13 7 14 6 15 5 16 4 17 3 18 2 19 1 20
REMARK H PARENT
REMARK Flexibility Score: inf
ROOT
ATOM      1  C   UNL     1      33.425   5.387  41.511  1.00  0.00     0.000 C 
ENDROOT
BRANCH   1   2
ATOM      2  C   UNL     1      32.785   5.392  40.112  1.00  0.00     0.000 C 
BRANCH   2   3
ATOM      3  C   UNL     1      31.303   4.971  40.141  1.00  0.00     0.000 C 
BRANCH   3   4
ATOM      4  C   UNL     1      30.398   5.951  39.373  1.00  0.00     0.000 C 
BRANCH   4   5
ATOM      5  C   UNL     1      30.329   7.339  40.047  1.00  0.00     0.000 C 
BRANCH   5   6
ATOM      6  C   UNL     1      29.717   7.309  41.459  1.00  0.00     0.000 C 
BRANCH   6   7
ATOM      7  C   UNL     1      28.261   6.817  41.478  1.00  0.00     0.006 C 
BRANCH   7   8
ATOM      8  C   UNL     1      28.007   5.928  42.703  1.00  0.00     0.053 C 
BRANCH   8   9
ATOM      9  C   UNL     1      28.259   4.480  42.399  1.00  0.00     0.041 C 
ATOM     10  O   UNL     1      27.723   3.940  41.395  1.00  0.00    -0.550 OA
ATOM     11  O   UNL     1      29.023   3.713  43.270  1.00  0.00    -0.550 OA
ENDBRANCH   8   9
ENDBRANCH   7   8
ENDBRANCH   6   7
ENDBRANCH   5   6
ENDBRANCH   4   5
ENDBRANCH   3   4
ENDBRANCH   2   3
ENDBRANCH   1   2
BRANCH   1  12
ATOM     12  C   UNL     1      33.400   6.785  42.150  1.00  0.00     0.000 C 
BRANCH  12  13
ATOM     13  C   UNL     1      32.910   6.734  43.608  1.00  0.00    -0.000 C 
BRANCH  13  14
ATOM     14  C   UNL     1      31.971   5.543  43.875  1.00  0.00    -0.000 C 
BRANCH  14  15
ATOM     15  C   UNL     1      31.056   5.817  45.077  1.00  0.00    -0.000 C 
BRANCH  15  16
ATOM     16  C   UNL     1      31.597   5.149  46.350  1.00  0.00    -0.000 C 
BRANCH  16  17
ATOM     17  C   UNL     1      31.626   6.124  47.550  1.00  0.00    -0.000 C 
BRANCH  17  18
ATOM     18  C   UNL     1      30.869   5.596  48.784  1.00  0.00    -0.000 C 
BRANCH  18  19
ATOM     19  C   UNL     1      31.771   4.954  49.853  1.00  0.00    -0.003 C 
ATOM     20  C   UNL     1      31.624   3.434  49.919  1.00  0.00     0.004 C 
ENDBRANCH  18  19
ENDBRANCH  17  18
ENDBRANCH  16  17
ENDBRANCH  15  16
ENDBRANCH  14  15
ENDBRANCH  13  14
ENDBRANCH  12  13
ENDBRANCH   1  12
TORSDOF 16
ENDMDL
MODEL 3
REMARK VINA RESULT:    -4.104      3.993      5.419
REMARK INTER + INTRA:          -9.503
REMARK INTER:                  -8.010
REMARK INTRA:                  -1.493
REMARK UNBOUND:                -1.560
REMARK SMILES CCCCCCCCCCCCCCCCCC(=O)[O-]
REMARK SMILES IDX 10 1 11 2 12 3 13 4 14 5 15 6 16 7 17 8 18 9 19 10 20 11
REMARK SMILES IDX 9 12 8 13 7 14 6 15 5 16 4 17 3 18 2 19 1 20
REMARK H PARENT
REMARK Flexibility Score: inf
ROOT
ATOM      1  C   UNL     1      28.133   4.050  43.283  1.00  0.00     0.000 C 
ENDROOT
BRANCH   1   2
ATOM      2  C   UNL     1      27.952   4.401  41.796  1.00  0.00     0.000 C 
BRANCH   2   3
ATOM      3  C   UNL     1      28.124   5.908  41.522  1.00  0.00     0.000 C 
BRANCH   3   4
ATOM      4  C   UNL     1      29.357   6.209  40.649  1.00  0.00     0.000 C 
BRANCH   4   5
ATOM      5  C   UNL     1      29.959   4.932  40.022  1.00  0.00     0.000 C 
BRANCH   5   6
ATOM      6  C   UNL     1      31.405   5.111  39.528  1.00  0.00     0.000 C 
BRANCH   6   7
ATOM      7  C   UNL     1      32.260   5.985  40.459  1.00  0.00     0.006 C 
BRANCH   7   8
ATOM      8  C   UNL     1      33.097   5.113  41.405  1.00  0.00     0.053 C 
BRANCH   8   9
ATOM      9  C   UNL     1      34.560   5.186  41.077  1.00  0.00     0.041 C 
ATOM     10  O   UNL     1      35.114   6.302  40.898  1.00  0.00    -0.550 OA
ATOM     11  O   UNL     1      35.287   4.016  40.892  1.00  0.00    -0.550 OA
ENDBRANCH   8   9
ENDBRANCH   7   8
ENDBRANCH   6   7
ENDBRANCH   5   6
ENDBRANCH   4   5
ENDBRANCH   3   4
ENDBRANCH   2   3
ENDBRANCH   1   2
BRANCH   1  12
ATOM     12  C   UNL     1      29.043   5.063  43.997  1.00  0.00     0.000 C 
BRANCH  12  13
ATOM     13  C   UNL     1      30.512   4.604  43.997  1.00  0.00    -0.000 C 
BRANCH  13  14
ATOM     14  C   UNL     1      31.413   5.505  44.863  1.00  0.00    -0.000 C 
BRANCH  14  15
ATOM     15  C   UNL     1      30.747   5.825  46.208  1.00  0.00    -0.000 C 
BRANCH  15  16
ATOM     16  C   UNL     1      31.759   6.418  47.201  1.00  0.00    -0.000 C 
BRANCH  16  17
ATOM     17  C   UNL     1      31.662   5.754  48.595  1.00  0.00    -0.000 C 
BRANCH  17  18
ATOM     18  C   UNL     1      31.895   4.232  48.562  1.00  0.00    -0.000 C 
BRANCH  18  19
ATOM     19  C   UNL     1      31.524   3.507  49.868  1.00  0.00    -0.003 C 
ATOM     20  C   UNL     1      32.400   3.926  51.049  1.00  0.00     0.004 C 
ENDBRANCH  18  19
ENDBRANCH  17  18
ENDBRANCH  16  17
ENDBRANCH  15  16
ENDBRANCH  14  15
ENDBRANCH  13  14
ENDBRANCH  12  13
ENDBRANCH   1  12
TORSDOF 16
ENDMDL
MODEL 4
REMARK VINA RESULT:    -4.018      1.542      2.258
REMARK INTER + INTRA:          -9.337
REMARK INTER:                  -8.525
REMARK INTRA:                  -0.812
REMARK UNBOUND:                -1.560
REMARK SMILES CCCCCCCCCCCCCCCCCC(=O)[O-]
REMARK SMILES IDX 10 1 11 2 12 3 13 4 14 5 15 6 16 7 17 8 18 9 19 10 20 11
REMARK SMILES IDX 9 12 8 13 7 14 6 15 5 16 4 17 3 18 2 19 1 20
REMARK H PARENT
REMARK Flexibility Score: inf
ROOT
ATOM      1  C   UNL     1      29.311   6.865  42.162  1.00  0.00     0.000 C 
ENDROOT
BRANCH   1   2
ATOM      2  C   UNL     1      28.564   5.877  41.250  1.00  0.00     0.000 C 
BRANCH   2   3
ATOM      3  C   UNL     1      27.440   5.126  41.991  1.00  0.00     0.000 C 
BRANCH   3   4
ATOM      4  C   UNL     1      26.063   5.787  41.794  1.00  0.00     0.000 C 
BRANCH   4   5
ATOM      5  C   UNL     1      25.163   4.993  40.822  1.00  0.00     0.000 C 
BRANCH   5   6
ATOM      6  C   UNL     1      25.824   3.716  40.273  1.00  0.00     0.000 C 
BRANCH   6   7
ATOM      7  C   UNL     1      24.892   2.890  39.372  1.00  0.00     0.006 C 
BRANCH   7   8
ATOM      8  C   UNL     1      24.003   1.965  40.215  1.00  0.00     0.053 C 
BRANCH   8   9
ATOM      9  C   UNL     1      23.398   0.871  39.385  1.00  0.00     0.041 C 
ATOM     10  O   UNL     1      23.773  -0.321  39.537  1.00  0.00    -0.550 OA
ATOM     11  O   UNL     1      22.478   1.185  38.392  1.00  0.00    -0.550 OA
ENDBRANCH   8   9
ENDBRANCH   7   8
ENDBRANCH   6   7
ENDBRANCH   5   6
ENDBRANCH   4   5
ENDBRANCH   3   4
ENDBRANCH   2   3
ENDBRANCH   1   2
BRANCH   1  12
ATOM     12  C   UNL     1      29.623   6.244  43.534  1.00  0.00     0.000 C 
BRANCH  12  13
ATOM     13  C   UNL     1      30.025   7.316  44.563  1.00  0.00    -0.000 C 
BRANCH  13  14
ATOM     14  C   UNL     1      29.735   6.883  46.012  1.00  0.00    -0.000 C 
BRANCH  14  15
ATOM     15  C   UNL     1      30.725   7.526  46.992  1.00  0.00    -0.000 C 
BRANCH  15  16
ATOM     16  C   UNL     1      31.836   6.541  47.388  1.00  0.00    -0.000 C 
BRANCH  16  17
ATOM     17  C   UNL     1      31.268   5.165  47.810  1.00  0.00    -0.000 C 
BRANCH  17  18
ATOM     18  C   UNL     1      30.964   5.067  49.317  1.00  0.00    -0.000 C 
BRANCH  18  19
ATOM     19  C   UNL     1      31.633   3.874  50.022  1.00  0.00    -0.003 C 
ATOM     20  C   UNL     1      32.462   3.011  49.071  1.00  0.00     0.004 C 
ENDBRANCH  18  19
ENDBRANCH  17  18
ENDBRANCH  16  17
ENDBRANCH  15  16
ENDBRANCH  14  15
ENDBRANCH  13  14
ENDBRANCH  12  13
ENDBRANCH   1  12
TORSDOF 16
ENDMDL
MODEL 5
REMARK VINA RESULT:    -4.018      4.636      7.396
REMARK INTER + INTRA:          -9.337
REMARK INTER:                  -6.921
REMARK INTRA:                  -2.415
REMARK UNBOUND:                -1.560
REMARK SMILES CCCCCCCCCCCCCCCCCC(=O)[O-]
REMARK SMILES IDX 10 1 11 2 12 3 13 4 14 5 15 6 16 7 17 8 18 9 19 10 20 11
REMARK SMILES IDX 9 12 8 13 7 14 6 15 5 16 4 17 3 18 2 19 1 20
REMARK H PARENT
REMARK Flexibility Score: inf
ROOT
ATOM      1  C   UNL     1      28.607   7.613  43.831  1.00  0.00     0.000 C 
ENDROOT
BRANCH   1   2
ATOM      2  C   UNL     1      29.663   8.339  44.683  1.00  0.00     0.000 C 
BRANCH   2   3
ATOM      3  C   UNL     1      29.205   8.542  46.141  1.00  0.00     0.000 C 
BRANCH   3   4
ATOM      4  C   UNL     1      30.246   8.040  47.159  1.00  0.00     0.000 C 
BRANCH   4   5
ATOM      5  C   UNL     1      30.246   6.501  47.288  1.00  0.00     0.000 C 
BRANCH   5   6
ATOM      6  C   UNL     1      29.305   5.974  48.385  1.00  0.00     0.000 C 
BRANCH   6   7
ATOM      7  C   UNL     1      30.046   5.282  49.540  1.00  0.00     0.006 C 
BRANCH   7   8
ATOM      8  C   UNL     1      31.558   5.255  49.273  1.00  0.00     0.053 C 
BRANCH   8   9
ATOM      9  C   UNL     1      32.188   3.993  49.785  1.00  0.00     0.041 C 
ATOM     10  O   UNL     1      32.777   3.984  50.898  1.00  0.00    -0.550 OA
ATOM     11  O   UNL     1      32.189   2.850  48.994  1.00  0.00    -0.550 OA
ENDBRANCH   8   9
ENDBRANCH   7   8
ENDBRANCH   6   7
ENDBRANCH   5   6
ENDBRANCH   4   5
ENDBRANCH   3   4
ENDBRANCH   2   3
ENDBRANCH   1   2
BRANCH   1  12
ATOM     12  C   UNL     1      28.823   6.091  43.838  1.00  0.00     0.000 C 
BRANCH  12  13
ATOM     13  C   UNL     1      29.950   5.673  42.877  1.00  0.00    -0.000 C 
BRANCH  13  14
ATOM     14  C   UNL     1      31.148   5.039  43.608  1.00  0.00    -0.000 C 
BRANCH  14  15
ATOM     15  C   UNL     1      32.363   5.977  43.598  1.00  0.00    -0.000 C 
BRANCH  15  16
ATOM     16  C   UNL     1      32.874   6.240  45.023  1.00  0.00    -0.000 C 
BRANCH  16  17
ATOM     17  C   UNL     1      33.790   7.485  45.091  1.00  0.00    -0.000 C 
BRANCH  17  18
ATOM     18  C   UNL     1      33.727   8.215  46.446  1.00  0.00    -0.000 C 
BRANCH  18  19
ATOM     19  C   UNL     1      33.414   9.718  46.341  1.00  0.00    -0.003 C 
ATOM     20  C   UNL     1      32.830  10.110  44.984  1.00  0.00     0.004 C 
ENDBRANCH  18  19
ENDBRANCH  17  18
ENDBRANCH  16  17
ENDBRANCH  15  16
ENDBRANCH  14  15
ENDBRANCH  13  14
ENDBRANCH  12  13
ENDBRANCH   1  12
TORSDOF 16
ENDMDL
MODEL 6
REMARK VINA RESULT:    -4.011      6.778     10.331
REMARK INTER + INTRA:          -9.323
REMARK INTER:                  -7.643
REMARK INTRA:                  -1.680
REMARK UNBOUND:                -1.560
REMARK SMILES CCCCCCCCCCCCCCCCCC(=O)[O-]
REMARK SMILES IDX 10 1 11 2 12 3 13 4 14 5 15 6 16 7 17 8 18 9 19 10 20 11
REMARK SMILES IDX 9 12 8 13 7 14 6 15 5 16 4 17 3 18 2 19 1 20
REMARK H PARENT
REMARK Flexibility Score: inf
ROOT
ATOM      1  C   UNL     1      20.662   4.768  42.529  1.00  0.00     0.000 C 
ENDROOT
BRANCH   1   2
ATOM      2  C   UNL     1      19.133   4.611  42.493  1.00  0.00     0.000 C 
BRANCH   2   3
ATOM      3  C   UNL     1      18.681   3.448  41.588  1.00  0.00     0.000 C 
BRANCH   3   4
ATOM      4  C   UNL     1      17.708   2.491  42.301  1.00  0.00     0.000 C 
BRANCH   4   5
ATOM      5  C   UNL     1      18.435   1.514  43.251  1.00  0.00     0.000 C 
BRANCH   5   6
ATOM      6  C   UNL     1      17.512   0.444  43.860  1.00  0.00     0.000 C 
BRANCH   6   7
ATOM      7  C   UNL     1      17.967  -0.992  43.557  1.00  0.00     0.006 C 
BRANCH   7   8
ATOM      8  C   UNL     1      18.373  -1.716  44.849  1.00  0.00     0.053 C 
BRANCH   8   9
ATOM      9  C   UNL     1      19.860  -1.902  44.934  1.00  0.00     0.041 C 
ATOM     10  O   UNL     1      20.630  -0.912  44.825  1.00  0.00    -0.550 OA
ATOM     11  O   UNL     1      20.391  -3.181  45.056  1.00  0.00    -0.550 OA
ENDBRANCH   8   9
ENDBRANCH   7   8
ENDBRANCH   6   7
ENDBRANCH   5   6
ENDBRANCH   4   5
ENDBRANCH   3   4
ENDBRANCH   2   3
ENDBRANCH   1   2
BRANCH   1  12
ATOM     12  C   UNL     1      21.369   3.582  41.853  1.00  0.00     0.000 C 
BRANCH  12  13
ATOM     13  C   UNL     1      22.310   2.851  42.827  1.00  0.00    -0.000 C 
BRANCH  13  14
ATOM     14  C   UNL     1      23.731   2.677  42.259  1.00  0.00    -0.000 C 
BRANCH  14  15
ATOM     15  C   UNL     1      24.372   4.034  41.941  1.00  0.00    -0.000 C 
BRANCH  15  16
ATOM     16  C   UNL     1      24.975   4.046  40.528  1.00  0.00    -0.000 C 
BRANCH  16  17
ATOM     17  C   UNL     1      24.955   2.644  39.875  1.00  0.00    -0.000 C 
BRANCH  17  18
ATOM     18  C   UNL     1      23.877   2.496  38.784  1.00  0.00    -0.000 C 
BRANCH  18  19
ATOM     19  C   UNL     1      22.959   1.273  38.963  1.00  0.00    -0.003 C 
ATOM     20  C   UNL     1      23.683   0.071  39.569  1.00  0.00     0.004 C 
ENDBRANCH  18  19
ENDBRANCH  17  18
ENDBRANCH  16  17
ENDBRANCH  15  16
ENDBRANCH  14  15
ENDBRANCH  13  14
ENDBRANCH  12  13
ENDBRANCH   1  12
TORSDOF 16
ENDMDL
MODEL 7
REMARK VINA RESULT:    -4.006      4.667      6.585
REMARK INTER + INTRA:          -9.313
REMARK INTER:                  -6.906
REMARK INTRA:                  -2.407
REMARK UNBOUND:                -1.560
REMARK SMILES CCCCCCCCCCCCCCCCCC(=O)[O-]
REMARK SMILES IDX 10 1 11 2 12 3 13 4 14 5 15 6 16 7 17 8 18 9 19 10 20 11
REMARK SMILES IDX 9 12 8 13 7 14 6 15 5 16 4 17 3 18 2 19 1 20
REMARK H PARENT
REMARK Flexibility Score: inf
ROOT
ATOM      1  C   UNL     1      30.742   5.270  42.214  1.00  0.00     0.000 C 
ENDROOT
BRANCH   1   2
ATOM      2  C   UNL     1      30.137   5.433  40.809  1.00  0.00     0.000 C 
BRANCH   2   3
ATOM      3  C   UNL     1      31.178   5.228  39.692  1.00  0.00     0.000 C 
BRANCH   3   4
ATOM      4  C   UNL     1      31.410   6.505  38.863  1.00  0.00     0.000 C 
BRANCH   4   5
ATOM      5  C   UNL     1      32.576   7.358  39.412  1.00  0.00     0.000 C 
BRANCH   5   6
ATOM      6  C   UNL     1      33.962   6.883  38.941  1.00  0.00     0.000 C 
BRANCH   6   7
ATOM      7  C   UNL     1      34.943   6.637  40.098  1.00  0.00     0.006 C 
BRANCH   7   8
ATOM      8  C   UNL     1      36.176   5.866  39.607  1.00  0.00     0.053 C 
BRANCH   8   9
ATOM      9  C   UNL     1      35.964   4.382  39.675  1.00  0.00     0.041 C 
ATOM     10  O   UNL     1      35.506   3.854  40.722  1.00  0.00    -0.550 OA
ATOM     11  O   UNL     1      36.348   3.579  38.607  1.00  0.00    -0.550 OA
ENDBRANCH   8   9
ENDBRANCH   7   8
ENDBRANCH   6   7
ENDBRANCH   5   6
ENDBRANCH   4   5
ENDBRANCH   3   4
ENDBRANCH   2   3
ENDBRANCH   1   2
BRANCH   1  12
ATOM     12  C   UNL     1      32.261   5.038  42.153  1.00  0.00     0.000 C 
BRANCH  12  13
ATOM     13  C   UNL     1      33.011   5.923  43.164  1.00  0.00    -0.000 C 
BRANCH  13  14
ATOM     14  C   UNL     1      32.583   7.400  43.089  1.00  0.00    -0.000 C 
BRANCH  14  15
ATOM     15  C   UNL     1      33.617   8.312  43.763  1.00  0.00    -0.000 C 
BRANCH  15  16
ATOM     16  C   UNL     1      34.060   7.743  45.120  1.00  0.00    -0.000 C 
BRANCH  16  17
ATOM     17  C   UNL     1      33.274   8.369  46.296  1.00  0.00    -0.000 C 
BRANCH  17  18
ATOM     18  C   UNL     1      32.565   7.324  47.180  1.00  0.00    -0.000 C 
BRANCH  18  19
ATOM     19  C   UNL     1      31.388   6.609  46.494  1.00  0.00    -0.003 C 
ATOM     20  C   UNL     1      31.579   5.095  46.411  1.00  0.00     0.004 C 
ENDBRANCH  18  19
ENDBRANCH  17  18
ENDBRANCH  16  17
ENDBRANCH  15  16
ENDBRANCH  14  15
ENDBRANCH  13  14
ENDBRANCH  12  13
ENDBRANCH   1  12
TORSDOF 16
ENDMDL
MODEL 8
REMARK VINA RESULT:    -3.986      5.419      8.016
REMARK INTER + INTRA:          -9.275
REMARK INTER:                  -7.533
REMARK INTRA:                  -1.742
REMARK UNBOUND:                -1.560
REMARK SMILES CCCCCCCCCCCCCCCCCC(=O)[O-]
REMARK SMILES IDX 10 1 11 2 12 3 13 4 14 5 15 6 16 7 17 8 18 9 19 10 20 11
REMARK SMILES IDX 9 12 8 13 7 14 6 15 5 16 4 17 3 18 2 19 1 20
REMARK H PARENT
REMARK Flexibility Score: inf
ROOT
ATOM      1  C   UNL     1      31.376   9.691  45.148  1.00  0.00     0.000 C 
ENDROOT
BRANCH   1   2
ATOM      2  C   UNL     1      30.392  10.093  46.259  1.00  0.00     0.000 C 
BRANCH   2   3
ATOM      3  C   UNL     1      29.737   8.872  46.936  1.00  0.00     0.000 C 
BRANCH   3   4
ATOM      4  C   UNL     1      29.325   7.789  45.922  1.00  0.00     0.000 C 
BRANCH   4   5
ATOM      5  C   UNL     1      30.206   6.524  46.023  1.00  0.00     0.000 C 
BRANCH   5   6
ATOM      6  C   UNL     1      30.224   5.895  47.427  1.00  0.00     0.000 C 
BRANCH   6   7
ATOM      7  C   UNL     1      31.642   5.608  47.945  1.00  0.00     0.006 C 
BRANCH   7   8
ATOM      8  C   UNL     1      31.635   5.425  49.469  1.00  0.00     0.053 C 
BRANCH   8   9
ATOM      9  C   UNL     1      32.189   4.088  49.869  1.00  0.00     0.041 C 
ATOM     10  O   UNL     1      32.744   3.942  50.990  1.00  0.00    -0.550 OA
ATOM     11  O   UNL     1      32.160   3.030  48.968  1.00  0.00    -0.550 OA
ENDBRANCH   8   9
ENDBRANCH   7   8
ENDBRANCH   6   7
ENDBRANCH   5   6
ENDBRANCH   4   5
ENDBRANCH   3   4
ENDBRANCH   2   3
ENDBRANCH   1   2
BRANCH   1  12
ATOM     12  C   UNL     1      32.837   9.883  45.588  1.00  0.00     0.000 C 
BRANCH  12  13
ATOM     13  C   UNL     1      33.313   8.733  46.493  1.00  0.00    -0.000 C 
BRANCH  13  14
ATOM     14  C   UNL     1      34.193   7.716  45.744  1.00  0.00    -0.000 C 
BRANCH  14  15
ATOM     15  C   UNL     1      33.829   7.659  44.254  1.00  0.00    -0.000 C 
BRANCH  15  16
ATOM     16  C   UNL     1      33.122   6.339  43.905  1.00  0.00    -0.000 C 
BRANCH  16  17
ATOM     17  C   UNL     1      32.538   6.354  42.473  1.00  0.00    -0.000 C 
BRANCH  17  18
ATOM     18  C   UNL     1      32.991   5.155  41.618  1.00  0.00    -0.000 C 
BRANCH  18  19
ATOM     19  C   UNL     1      34.262   5.413  40.790  1.00  0.00    -0.003 C 
ATOM     20  C   UNL     1      35.247   4.244  40.834  1.00  0.00     0.004 C 
ENDBRANCH  18  19
ENDBRANCH  17  18
ENDBRANCH  16  17
ENDBRANCH  15  16
ENDBRANCH  14  15
ENDBRANCH  13  14
ENDBRANCH  12  13
ENDBRANCH   1  12
TORSDOF 16
ENDMDL
MODEL 9
REMARK VINA RESULT:    -3.984      4.864      6.842
REMARK INTER + INTRA:          -9.271
REMARK INTER:                  -7.257
REMARK INTRA:                  -2.014
REMARK UNBOUND:                -1.560
REMARK SMILES CCCCCCCCCCCCCCCCCC(=O)[O-]
REMARK SMILES IDX 10 1 11 2 12 3 13 4 14 5 15 6 16 7 17 8 18 9 19 10 20 11
REMARK SMILES IDX 9 12 8 13 7 14 6 15 5 16 4 17 3 18 2 19 1 20
REMARK H PARENT
REMARK Flexibility Score: inf
ROOT
ATOM      1  C   UNL     1      30.793   6.120  39.859  1.00  0.00     0.000 C 
ENDROOT
BRANCH   1   2
ATOM      2  C   UNL     1      30.703   6.500  38.371  1.00  0.00     0.000 C 
BRANCH   2   3
ATOM      3  C   UNL     1      31.716   7.593  37.980  1.00  0.00     0.000 C 
BRANCH   3   4
ATOM      4  C   UNL     1      32.105   8.488  39.171  1.00  0.00     0.000 C 
BRANCH   4   5
ATOM      5  C   UNL     1      33.625   8.475  39.445  1.00  0.00     0.000 C 
BRANCH   5   6
ATOM      6  C   UNL     1      34.370   7.332  38.733  1.00  0.00     0.000 C 
BRANCH   6   7
ATOM      7  C   UNL     1      35.270   6.516  39.674  1.00  0.00     0.006 C 
BRANCH   7   8
ATOM      8  C   UNL     1      36.280   5.685  38.872  1.00  0.00     0.053 C 
BRANCH   8   9
ATOM      9  C   UNL     1      36.222   4.232  39.244  1.00  0.00     0.041 C 
ATOM     10  O   UNL     1      36.554   3.350  38.409  1.00  0.00    -0.550 OA
ATOM     11  O   UNL     1      35.725   3.856  40.486  1.00  0.00    -0.550 OA
ENDBRANCH   8   9
ENDBRANCH   7   8
ENDBRANCH   6   7
ENDBRANCH   5   6
ENDBRANCH   4   5
ENDBRANCH   3   4
ENDBRANCH   2   3
ENDBRANCH   1   2
BRANCH   1  12
ATOM     12  C   UNL     1      31.793   4.976  40.092  1.00  0.00     0.000 C 
BRANCH  12  13
ATOM     13  C   UNL     1      32.540   5.138  41.428  1.00  0.00    -0.000 C 
BRANCH  13  14
ATOM     14  C   UNL     1      32.049   6.354  42.236  1.00  0.00    -0.000 C 
BRANCH  14  15
ATOM     15  C   UNL     1      33.143   6.868  43.182  1.00  0.00    -0.000 C 
BRANCH  15  16
ATOM     16  C   UNL     1      32.751   6.657  44.652  1.00  0.00    -0.000 C 
BRANCH  16  17
ATOM     17  C   UNL     1      31.799   5.451  44.832  1.00  0.00    -0.000 C 
BRANCH  17  18
ATOM     18  C   UNL     1      31.568   5.071  46.307  1.00  0.00    -0.000 C 
BRANCH  18  19
ATOM     19  C   UNL     1      31.696   6.248  47.291  1.00  0.00    -0.003 C 
ATOM     20  C   UNL     1      31.800   5.795  48.748  1.00  0.00     0.004 C 
ENDBRANCH  18  19
ENDBRANCH  17  18
ENDBRANCH  16  17
ENDBRANCH  15  16
ENDBRANCH  14  15
ENDBRANCH  13  14
ENDBRANCH  12  13
ENDBRANCH   1  12
TORSDOF 16
ENDMDL
