MODEL 1
REMARK VINA RESULT:    -3.917      0.000      0.000
REMARK INTER + INTRA:          -5.642
REMARK INTER:                  -5.290
REMARK INTRA:                  -0.351
REMARK UNBOUND:                -0.351
REMARK SMILES CCCCCCCC(=O)[O-]
REMARK SMILES IDX 5 1 6 2 7 3 8 4 9 5 10 6 4 7 3 8 2 9 1 10
REMARK H PARENT
REMARK Flexibility Score: inf
ROOT
ATOM      1  C   UNL     1       2.692  28.469  54.706  1.00  0.00     0.000 C 
ENDROOT
BRANCH   1   2
ATOM      2  C   UNL     1       3.867  28.326  55.698  1.00  0.00     0.006 C 
BRANCH   2   3
ATOM      3  C   UNL     1       3.389  28.231  57.152  1.00  0.00     0.053 C 
BRANCH   3   4
ATOM      4  C   UNL     1       4.239  27.271  57.922  1.00  0.00     0.041 C 
ATOM      5  O   UNL     1       3.782  26.696  58.944  1.00  0.00    -0.550 OA
ATOM      6  O   UNL     1       5.556  27.048  57.537  1.00  0.00    -0.550 OA
ENDBRANCH   3   4
ENDBRANCH   2   3
ENDBRANCH   1   2
BRANCH   1   7
ATOM      7  C   UNL     1       1.319  28.149  55.323  1.00  0.00     0.000 C 
BRANCH   7   8
ATOM      8  C   UNL     1       0.223  29.133  54.881  1.00  0.00    -0.000 C 
BRANCH   8   9
ATOM      9  C   UNL     1      -0.458  29.828  56.070  1.00  0.00    -0.003 C 
ATOM     10  C   UNL     1       0.011  29.286  57.421  1.00  0.00     0.004 C 
ENDBRANCH   8   9
ENDBRANCH   7   8
ENDBRANCH   1   7
TORSDOF 6
ENDMDL
MODEL 2
REMARK VINA RESULT:    -3.803      2.822      4.608
REMARK INTER + INTRA:          -5.488
REMARK INTER:                  -5.033
REMARK INTRA:                  -0.455
REMARK UNBOUND:                -0.351
REMARK SMILES CCCCCCCC(=O)[O-]
REMARK SMILES IDX 5 1 6 2 7 3 8 4 9 5 10 6 4 7 3 8 2 9 1 10
REMARK H PARENT
REMARK Flexibility Score: inf
ROOT
ATOM      1  C   UNL     1       2.479  27.979  57.632  1.00  0.00     0.000 C 
ENDROOT
BRANCH   1   2
ATOM      2  C   UNL     1       1.574  29.222  57.489  1.00  0.00     0.006 C 
BRANCH   2   3
ATOM      3  C   UNL     1       0.193  28.870  56.919  1.00  0.00     0.053 C 
BRANCH   3   4
ATOM      4  C   UNL     1       0.250  28.780  55.427  1.00  0.00     0.041 C 
ATOM      5  O   UNL     1       0.508  27.683  54.867  1.00  0.00    -0.550 OA
ATOM      6  O   UNL     1       0.066  29.921  54.656  1.00  0.00    -0.550 OA
ENDBRANCH   3   4
ENDBRANCH   2   3
ENDBRANCH   1   2
BRANCH   1   7
ATOM      7  C   UNL     1       3.953  28.244  57.278  1.00  0.00     0.000 C 
BRANCH   7   8
ATOM      8  C   UNL     1       4.324  27.758  55.867  1.00  0.00    -0.000 C 
BRANCH   8   9
ATOM      9  C   UNL     1       4.564  28.918  54.889  1.00  0.00    -0.003 C 
ATOM     10  C   UNL     1       3.555  28.944  53.741  1.00  0.00     0.004 C 
ENDBRANCH   8   9
ENDBRANCH   7   8
ENDBRANCH   1   7
TORSDOF 6
ENDMDL
MODEL 3
REMARK VINA RESULT:    -3.787      2.558      4.560
REMARK INTER + INTRA:          -5.466
REMARK INTER:                  -5.117
REMARK INTRA:                  -0.349
REMARK UNBOUND:                -0.351
REMARK SMILES CCCCCCCC(=O)[O-]
REMARK SMILES IDX 5 1 6 2 7 3 8 4 9 5 10 6 4 7 3 8 2 9 1 10
REMARK H PARENT
REMARK Flexibility Score: inf
ROOT
ATOM      1  C   UNL     1       3.885  28.089  55.215  1.00  0.00     0.000 C 
ENDROOT
BRANCH   1   2
ATOM      2  C   UNL     1       2.613  28.741  54.631  1.00  0.00     0.006 C 
BRANCH   2   3
ATOM      3  C   UNL     1       1.331  28.151  55.234  1.00  0.00     0.053 C 
BRANCH   3   4
ATOM      4  C   UNL     1       0.564  29.206  55.967  1.00  0.00     0.041 C 
ATOM      5  O   UNL     1      -0.242  29.949  55.350  1.00  0.00    -0.550 OA
ATOM      6  O   UNL     1       0.779  29.400  57.327  1.00  0.00    -0.550 OA
ENDBRANCH   3   4
ENDBRANCH   2   3
ENDBRANCH   1   2
BRANCH   1   7
ATOM      7  C   UNL     1       4.125  28.422  56.697  1.00  0.00     0.000 C 
BRANCH   7   8
ATOM      8  C   UNL     1       5.279  27.611  57.311  1.00  0.00    -0.000 C 
BRANCH   8   9
ATOM      9  C   UNL     1       4.875  26.909  58.616  1.00  0.00    -0.003 C 
ATOM     10  C   UNL     1       3.361  26.847  58.812  1.00  0.00     0.004 C 
ENDBRANCH   8   9
ENDBRANCH   7   8
ENDBRANCH   1   7
TORSDOF 6
ENDMDL
MODEL 4
REMARK VINA RESULT:    -3.774      2.835      4.809
REMARK INTER + INTRA:          -5.449
REMARK INTER:                  -5.102
REMARK INTRA:                  -0.347
REMARK UNBOUND:                -0.351
REMARK SMILES CCCCCCCC(=O)[O-]
REMARK SMILES IDX 5 1 6 2 7 3 8 4 9 5 10 6 4 7 3 8 2 9 1 10
REMARK H PARENT
REMARK Flexibility Score: inf
ROOT
ATOM      1  C   UNL     1       1.740  28.913  57.516  1.00  0.00     0.000 C 
ENDROOT
BRANCH   1   2
ATOM      2  C   UNL     1       0.525  28.357  56.741  1.00  0.00     0.006 C 
BRANCH   2   3
ATOM      3  C   UNL     1       0.830  28.158  55.251  1.00  0.00     0.053 C 
BRANCH   3   4
ATOM      4  C   UNL     1       1.370  29.418  54.654  1.00  0.00     0.041 C 
ATOM      5  O   UNL     1       0.636  30.435  54.546  1.00  0.00    -0.550 OA
ATOM      6  O   UNL     1       2.673  29.454  54.170  1.00  0.00    -0.550 OA
ENDBRANCH   3   4
ENDBRANCH   2   3
ENDBRANCH   1   2
BRANCH   1   7
ATOM      7  C   UNL     1       2.891  27.904  57.666  1.00  0.00     0.000 C 
BRANCH   7   8
ATOM      8  C   UNL     1       4.229  28.442  57.131  1.00  0.00    -0.000 C 
BRANCH   8   9
ATOM      9  C   UNL     1       5.395  27.474  57.382  1.00  0.00    -0.003 C 
ATOM     10  C   UNL     1       5.398  26.907  58.802  1.00  0.00     0.004 C 
ENDBRANCH   8   9
ENDBRANCH   7   8
ENDBRANCH   1   7
TORSDOF 6
ENDMDL
MODEL 5
REMARK VINA RESULT:    -3.722      2.393      3.259
REMARK INTER + INTRA:          -5.379
REMARK INTER:                  -5.009
REMARK INTRA:                  -0.370
REMARK UNBOUND:                -0.351
REMARK SMILES CCCCCCCC(=O)[O-]
REMARK SMILES IDX 5 1 6 2 7 3 8 4 9 5 10 6 4 7 3 8 2 9 1 10
REMARK H PARENT
REMARK Flexibility Score: inf
ROOT
ATOM      1  C   UNL     1       2.708  28.108  57.501  1.00  0.00     0.000 C 
ENDROOT
BRANCH   1   2
ATOM      2  C   UNL     1       3.837  28.411  56.492  1.00  0.00     0.006 C 
BRANCH   2   3
ATOM      3  C   UNL     1       3.406  28.146  55.044  1.00  0.00     0.053 C 
BRANCH   3   4
ATOM      4  C   UNL     1       4.318  28.848  54.089  1.00  0.00     0.041 C 
ATOM      5  O   UNL     1       5.191  29.648  54.517  1.00  0.00    -0.550 OA
ATOM      6  O   UNL     1       4.171  28.656  52.720  1.00  0.00    -0.550 OA
ENDBRANCH   3   4
ENDBRANCH   2   3
ENDBRANCH   1   2
BRANCH   1   7
ATOM      7  C   UNL     1       1.583  29.158  57.505  1.00  0.00     0.000 C 
BRANCH   7   8
ATOM      8  C   UNL     1       0.216  28.568  57.120  1.00  0.00    -0.000 C 
BRANCH   8   9
ATOM      9  C   UNL     1      -0.631  29.543  56.288  1.00  0.00    -0.003 C 
ATOM     10  C   UNL     1      -0.054  29.787  54.893  1.00  0.00     0.004 C 
ENDBRANCH   8   9
ENDBRANCH   7   8
ENDBRANCH   1   7
TORSDOF 6
ENDMDL
MODEL 6
REMARK VINA RESULT:    -3.678      1.423      1.895
REMARK INTER + INTRA:          -5.319
REMARK INTER:                  -4.947
REMARK INTRA:                  -0.372
REMARK UNBOUND:                -0.351
REMARK SMILES CCCCCCCC(=O)[O-]
REMARK SMILES IDX 5 1 6 2 7 3 8 4 9 5 10 6 4 7 3 8 2 9 1 10
REMARK H PARENT
REMARK Flexibility Score: inf
ROOT
ATOM      1  C   UNL     1       2.534  28.961  54.642  1.00  0.00     0.000 C 
ENDROOT
BRANCH   1   2
ATOM      2  C   UNL     1       3.912  28.283  54.480  1.00  0.00     0.006 C 
BRANCH   2   3
ATOM      3  C   UNL     1       5.025  29.058  55.196  1.00  0.00     0.053 C 
BRANCH   3   4
ATOM      4  C   UNL     1       5.246  28.509  56.570  1.00  0.00     0.041 C 
ATOM      5  O   UNL     1       4.924  27.322  56.838  1.00  0.00    -0.550 OA
ATOM      6  O   UNL     1       5.761  29.325  57.569  1.00  0.00    -0.550 OA
ENDBRANCH   3   4
ENDBRANCH   2   3
ENDBRANCH   1   2
BRANCH   1   7
ATOM      7  C   UNL     1       1.595  28.228  55.616  1.00  0.00     0.000 C 
BRANCH   7   8
ATOM      8  C   UNL     1       1.583  28.858  57.019  1.00  0.00    -0.000 C 
BRANCH   8   9
ATOM      9  C   UNL     1       0.182  29.328  57.440  1.00  0.00    -0.003 C 
ATOM     10  C   UNL     1      -0.717  29.655  56.247  1.00  0.00     0.004 C 
ENDBRANCH   8   9
ENDBRANCH   7   8
ENDBRANCH   1   7
TORSDOF 6
ENDMDL
MODEL 7
REMARK VINA RESULT:    -3.477      3.324      4.253
REMARK INTER + INTRA:          -5.047
REMARK INTER:                  -4.831
REMARK INTRA:                  -0.216
REMARK UNBOUND:                -0.351
REMARK SMILES CCCCCCCC(=O)[O-]
REMARK SMILES IDX 5 1 6 2 7 3 8 4 9 5 10 6 4 7 3 8 2 9 1 10
REMARK H PARENT
REMARK Flexibility Score: inf
ROOT
ATOM      1  C   UNL     1       2.717  28.220  55.150  1.00  0.00     0.000 C 
ENDROOT
BRANCH   1   2
ATOM      2  C   UNL     1       4.034  28.373  54.359  1.00  0.00     0.006 C 
BRANCH   2   3
ATOM      3  C   UNL     1       3.967  29.516  53.338  1.00  0.00     0.053 C 
BRANCH   3   4
ATOM      4  C   UNL     1       4.332  29.022  51.974  1.00  0.00     0.041 C 
ATOM      5  O   UNL     1       4.784  27.858  51.821  1.00  0.00    -0.550 OA
ATOM      6  O   UNL     1       4.219  29.867  50.876  1.00  0.00    -0.550 OA
ENDBRANCH   3   4
ENDBRANCH   2   3
ENDBRANCH   1   2
BRANCH   1   7
ATOM      7  C   UNL     1       2.903  28.269  56.676  1.00  0.00     0.000 C 
BRANCH   7   8
ATOM      8  C   UNL     1       1.728  28.951  57.398  1.00  0.00    -0.000 C 
BRANCH   8   9
ATOM      9  C   UNL     1       0.366  28.550  56.811  1.00  0.00    -0.003 C 
ATOM     10  C   UNL     1      -0.727  29.581  57.094  1.00  0.00     0.004 C 
ENDBRANCH   8   9
ENDBRANCH   7   8
ENDBRANCH   1   7
TORSDOF 6
ENDMDL
MODEL 8
REMARK VINA RESULT:    -3.314      8.941     10.170
REMARK INTER + INTRA:          -4.828
REMARK INTER:                  -4.514
REMARK INTRA:                  -0.314
REMARK UNBOUND:                -0.351
REMARK SMILES CCCCCCCC(=O)[O-]
REMARK SMILES IDX 5 1 6 2 7 3 8 4 9 5 10 6 4 7 3 8 2 9 1 10
REMARK H PARENT
REMARK Flexibility Score: inf
ROOT
ATOM      1  C   UNL     1      -7.509  30.049  56.719  1.00  0.00     0.000 C 
ENDROOT
BRANCH   1   2
ATOM      2  C   UNL     1      -6.831  28.753  57.214  1.00  0.00     0.006 C 
BRANCH   2   3
ATOM      3  C   UNL     1      -7.723  27.520  57.017  1.00  0.00     0.053 C 
BRANCH   3   4
ATOM      4  C   UNL     1      -7.358  26.807  55.754  1.00  0.00     0.041 C 
ATOM      5  O   UNL     1      -8.015  25.801  55.381  1.00  0.00    -0.550 OA
ATOM      6  O   UNL     1      -6.258  27.225  55.014  1.00  0.00    -0.550 OA
ENDBRANCH   3   4
ENDBRANCH   2   3
ENDBRANCH   1   2
BRANCH   1   7
ATOM      7  C   UNL     1      -7.873  31.027  57.849  1.00  0.00     0.000 C 
BRANCH   7   8
ATOM      8  C   UNL     1      -6.682  31.893  58.293  1.00  0.00    -0.000 C 
BRANCH   8   9
ATOM      9  C   UNL     1      -6.158  31.503  59.684  1.00  0.00    -0.003 C 
ATOM     10  C   UNL     1      -4.683  31.102  59.669  1.00  0.00     0.004 C 
ENDBRANCH   8   9
ENDBRANCH   7   8
ENDBRANCH   1   7
TORSDOF 6
ENDMDL
