MODEL 1
REMARK VINA RESULT:     5.330      0.000      0.000
REMARK INTER + INTRA:           9.293
REMARK INTER:                  10.004
REMARK INTRA:                  -0.712
REMARK UNBOUND:                -0.712
REMARK SMILES O=C([O-])CCCCCCCCCCCCCCC(=O)[O-]
REMARK SMILES IDX 10 1 9 2 8 3 7 4 6 5 5 6 4 7 2 8 1 9 3 10 11 11 12 12 13 13
REMARK SMILES IDX 14 14 15 15 16 16 17 17 18 18 19 19 20 20
REMARK H PARENT
REMARK Flexibility Score: inf
ROOT
ATOM      1  C   UNL     1      12.115  13.859  -0.514  1.00  0.00     0.000 C 
ENDROOT
BRANCH   1   2
ATOM      2  C   UNL     1      12.354  13.044   0.770  1.00  0.00     0.000 C 
BRANCH   2   3
ATOM      3  C   UNL     1      12.242  13.844   2.084  1.00  0.00     0.000 C 
BRANCH   3   4
ATOM      4  C   UNL     1      11.103  14.879   2.125  1.00  0.00     0.000 C 
BRANCH   4   5
ATOM      5  C   UNL     1      11.586  16.308   1.843  1.00  0.00     0.000 C 
BRANCH   5   6
ATOM      6  C   UNL     1      10.469  17.328   2.113  1.00  0.00     0.006 C 
BRANCH   6   7
ATOM      7  C   UNL     1       9.316  17.207   1.107  1.00  0.00     0.053 C 
BRANCH   7   8
ATOM      8  C   UNL     1       7.989  17.101   1.792  1.00  0.00     0.041 C 
ATOM      9  O   UNL     1       7.534  15.973   2.121  1.00  0.00    -0.550 OA
ATOM     10  O   UNL     1       7.237  18.243   2.036  1.00  0.00    -0.550 OA
ENDBRANCH   7   8
ENDBRANCH   6   7
ENDBRANCH   5   6
ENDBRANCH   4   5
ENDBRANCH   3   4
ENDBRANCH   2   3
ENDBRANCH   1   2
BRANCH   1  11
ATOM     11  C   UNL     1      10.642  13.864  -0.952  1.00  0.00     0.000 C 
BRANCH  11  12
ATOM     12  C   UNL     1      10.483  14.512  -2.335  1.00  0.00     0.000 C 
BRANCH  12  13
ATOM     13  C   UNL     1      10.270  13.476  -3.450  1.00  0.00     0.000 C 
BRANCH  13  14
ATOM     14  C   UNL     1      11.017  13.839  -4.745  1.00  0.00     0.000 C 
BRANCH  14  15
ATOM     15  C   UNL     1      10.765  15.302  -5.174  1.00  0.00     0.000 C 
BRANCH  15  16
ATOM     16  C   UNL     1      11.934  15.919  -5.965  1.00  0.00     0.006 C 
BRANCH  16  17
ATOM     17  C   UNL     1      11.995  17.452  -5.894  1.00  0.00     0.053 C 
BRANCH  17  18
ATOM     18  C   UNL     1      13.360  17.973  -6.227  1.00  0.00     0.041 C 
ATOM     19  O   UNL     1      13.568  19.214  -6.274  1.00  0.00    -0.550 OA
ATOM     20  O   UNL     1      14.407  17.092  -6.464  1.00  0.00    -0.550 OA
ENDBRANCH  17  18
ENDBRANCH  16  17
ENDBRANCH  15  16
ENDBRANCH  14  15
ENDBRANCH  13  14
ENDBRANCH  12  13
ENDBRANCH  11  12
ENDBRANCH   1  11
TORSDOF 15
ENDMDL
MODEL 2
REMARK VINA RESULT:     5.678      1.147      7.626
REMARK INTER + INTRA:           9.945
REMARK INTER:                  10.888
REMARK INTRA:                  -0.944
REMARK UNBOUND:                -0.712
REMARK SMILES O=C([O-])CCCCCCCCCCCCCCC(=O)[O-]
REMARK SMILES IDX 10 1 9 2 8 3 7 4 6 5 5 6 4 7 2 8 1 9 3 10 11 11 12 12 13 13
REMARK SMILES IDX 14 14 15 15 16 16 17 17 18 18 19 19 20 20
REMARK H PARENT
REMARK Flexibility Score: inf
ROOT
ATOM      1  C   UNL     1      11.993  14.420  -1.052  1.00  0.00     0.000 C 
ENDROOT
BRANCH   1   2
ATOM      2  C   UNL     1      10.615  14.560  -1.725  1.00  0.00     0.000 C 
BRANCH   2   3
ATOM      3  C   UNL     1      10.293  13.490  -2.787  1.00  0.00     0.000 C 
BRANCH   3   4
ATOM      4  C   UNL     1      11.026  13.659  -4.130  1.00  0.00     0.000 C 
BRANCH   4   5
ATOM      5  C   UNL     1      10.702  14.990  -4.823  1.00  0.00     0.000 C 
BRANCH   5   6
ATOM      6  C   UNL     1      11.952  15.878  -4.916  1.00  0.00     0.006 C 
BRANCH   6   7
ATOM      7  C   UNL     1      11.826  16.946  -6.012  1.00  0.00     0.053 C 
BRANCH   7   8
ATOM      8  C   UNL     1      13.167  17.395  -6.508  1.00  0.00     0.041 C 
ATOM      9  O   UNL     1      13.766  16.736  -7.399  1.00  0.00    -0.550 OA
ATOM     10  O   UNL     1      13.770  18.520  -5.962  1.00  0.00    -0.550 OA
ENDBRANCH   7   8
ENDBRANCH   6   7
ENDBRANCH   5   6
ENDBRANCH   4   5
ENDBRANCH   3   4
ENDBRANCH   2   3
ENDBRANCH   1   2
BRANCH   1  11
ATOM     11  C   UNL     1      12.322  12.971  -0.664  1.00  0.00     0.000 C 
BRANCH  11  12
ATOM     12  C   UNL     1      13.122  12.923   0.647  1.00  0.00     0.000 C 
BRANCH  12  13
ATOM     13  C   UNL     1      12.216  12.884   1.888  1.00  0.00     0.000 C 
BRANCH  13  14
ATOM     14  C   UNL     1      11.358  14.153   2.034  1.00  0.00     0.000 C 
BRANCH  14  15
ATOM     15  C   UNL     1       9.850  13.830   2.120  1.00  0.00     0.000 C 
BRANCH  15  16
ATOM     16  C   UNL     1       8.978  14.732   1.224  1.00  0.00     0.006 C 
BRANCH  16  17
ATOM     17  C   UNL     1       8.046  15.672   2.003  1.00  0.00     0.053 C 
BRANCH  17  18
ATOM     18  C   UNL     1       8.479  17.102   1.897  1.00  0.00     0.041 C 
ATOM     19  O   UNL     1       9.666  17.381   1.580  1.00  0.00    -0.550 OA
ATOM     20  O   UNL     1       7.570  18.127   2.125  1.00  0.00    -0.550 OA
ENDBRANCH  17  18
ENDBRANCH  16  17
ENDBRANCH  15  16
ENDBRANCH  14  15
ENDBRANCH  13  14
ENDBRANCH  12  13
ENDBRANCH  11  12
ENDBRANCH   1  11
TORSDOF 15
ENDMDL
MODEL 3
REMARK VINA RESULT:     6.452      1.720      2.267
REMARK INTER + INTRA:          11.399
REMARK INTER:                  11.966
REMARK INTRA:                  -0.567
REMARK UNBOUND:                -0.712
REMARK SMILES O=C([O-])CCCCCCCCCCCCCCC(=O)[O-]
REMARK SMILES IDX 10 1 9 2 8 3 7 4 6 5 5 6 4 7 2 8 1 9 3 10 11 11 12 12 13 13
REMARK SMILES IDX 14 14 15 15 16 16 17 17 18 18 19 19 20 20
REMARK H PARENT
REMARK Flexibility Score: inf
ROOT
ATOM      1  C   UNL     1      11.779  14.337  -1.176  1.00  0.00     0.000 C 
ENDROOT
BRANCH   1   2
ATOM      2  C   UNL     1      12.091  13.085  -0.335  1.00  0.00     0.000 C 
BRANCH   2   3
ATOM      3  C   UNL     1      12.328  13.346   1.166  1.00  0.00     0.000 C 
BRANCH   3   4
ATOM      4  C   UNL     1      11.089  13.174   2.063  1.00  0.00     0.000 C 
BRANCH   4   5
ATOM      5  C   UNL     1       9.849  13.894   1.513  1.00  0.00     0.000 C 
BRANCH   5   6
ATOM      6  C   UNL     1       9.712  15.296   2.125  1.00  0.00     0.006 C 
BRANCH   6   7
ATOM      7  C   UNL     1      10.290  16.388   1.213  1.00  0.00     0.053 C 
BRANCH   7   8
ATOM      8  C   UNL     1      11.480  17.056   1.831  1.00  0.00     0.041 C 
ATOM      9  O   UNL     1      11.456  18.292   2.075  1.00  0.00    -0.550 OA
ATOM     10  O   UNL     1      12.626  16.322   2.106  1.00  0.00    -0.550 OA
ENDBRANCH   7   8
ENDBRANCH   6   7
ENDBRANCH   5   6
ENDBRANCH   4   5
ENDBRANCH   3   4
ENDBRANCH   2   3
ENDBRANCH   1   2
BRANCH   1  11
ATOM     11  C   UNL     1      10.318  14.390  -1.647  1.00  0.00     0.000 C 
BRANCH  11  12
ATOM     12  C   UNL     1      10.034  13.288  -2.678  1.00  0.00     0.000 C 
BRANCH  12  13
ATOM     13  C   UNL     1      11.163  13.142  -3.711  1.00  0.00     0.000 C 
BRANCH  13  14
ATOM     14  C   UNL     1      10.896  13.946  -4.996  1.00  0.00     0.000 C 
BRANCH  14  15
ATOM     15  C   UNL     1      11.062  15.466  -4.779  1.00  0.00     0.000 C 
BRANCH  15  16
ATOM     16  C   UNL     1      11.653  16.199  -5.999  1.00  0.00     0.006 C 
BRANCH  16  17
ATOM     17  C   UNL     1      12.445  17.465  -5.643  1.00  0.00     0.053 C 
BRANCH  17  18
ATOM     18  C   UNL     1      13.644  17.641  -6.525  1.00  0.00     0.041 C 
ATOM     19  O   UNL     1      14.129  16.651  -7.134  1.00  0.00    -0.550 OA
ATOM     20  O   UNL     1      14.212  18.897  -6.693  1.00  0.00    -0.550 OA
ENDBRANCH  17  18
ENDBRANCH  16  17
ENDBRANCH  15  16
ENDBRANCH  14  15
ENDBRANCH  13  14
ENDBRANCH  12  13
ENDBRANCH  11  12
ENDBRANCH   1  11
TORSDOF 15
ENDMDL
MODEL 4
REMARK VINA RESULT:     8.136      6.631     10.920
REMARK INTER + INTRA:          14.558
REMARK INTER:                  15.679
REMARK INTRA:                  -1.120
REMARK UNBOUND:                -0.712
REMARK SMILES O=C([O-])CCCCCCCCCCCCCCC(=O)[O-]
REMARK SMILES IDX 10 1 9 2 8 3 7 4 6 5 5 6 4 7 2 8 1 9 3 10 11 11 12 12 13 13
REMARK SMILES IDX 14 14 15 15 16 16 17 17 18 18 19 19 20 20
REMARK H PARENT
REMARK Flexibility Score: inf
ROOT
ATOM      1  C   UNL     1      15.473  15.047 -12.836  1.00  0.00     0.000 C 
ENDROOT
BRANCH   1   2
ATOM      2  C   UNL     1      14.871  14.431 -11.560  1.00  0.00     0.000 C 
BRANCH   2   3
ATOM      3  C   UNL     1      14.375  15.449 -10.512  1.00  0.00     0.000 C 
BRANCH   3   4
ATOM      4  C   UNL     1      15.462  15.999  -9.570  1.00  0.00     0.000 C 
BRANCH   4   5
ATOM      5  C   UNL     1      15.279  15.541  -8.116  1.00  0.00     0.000 C 
BRANCH   5   6
ATOM      6  C   UNL     1      13.951  16.057  -7.542  1.00  0.00     0.006 C 
BRANCH   6   7
ATOM      7  C   UNL     1      14.162  17.120  -6.455  1.00  0.00     0.053 C 
BRANCH   7   8
ATOM      8  C   UNL     1      12.871  17.757  -6.042  1.00  0.00     0.041 C 
ATOM      9  O   UNL     1      11.899  17.043  -5.678  1.00  0.00    -0.550 OA
ATOM     10  O   UNL     1      12.729  19.138  -6.090  1.00  0.00    -0.550 OA
ENDBRANCH   7   8
ENDBRANCH   6   7
ENDBRANCH   5   6
ENDBRANCH   4   5
ENDBRANCH   3   4
ENDBRANCH   2   3
ENDBRANCH   1   2
BRANCH   1  11
ATOM     11  C   UNL     1      16.701  14.278 -13.347  1.00  0.00     0.000 C 
BRANCH  11  12
ATOM     12  C   UNL     1      17.914  15.210 -13.482  1.00  0.00     0.000 C 
BRANCH  12  13
ATOM     13  C   UNL     1      17.579  16.669 -13.132  1.00  0.00     0.000 C 
BRANCH  13  14
ATOM     14  C   UNL     1      18.689  17.350 -12.312  1.00  0.00     0.000 C 
BRANCH  14  15
ATOM     15  C   UNL     1      18.123  18.150 -11.117  1.00  0.00     0.000 C 
BRANCH  15  16
ATOM     16  C   UNL     1      17.603  19.547 -11.507  1.00  0.00     0.006 C 
BRANCH  16  17
ATOM     17  C   UNL     1      18.223  20.107 -12.795  1.00  0.00     0.053 C 
BRANCH  17  18
ATOM     18  C   UNL     1      19.403  20.986 -12.511  1.00  0.00     0.041 C 
ATOM     19  O   UNL     1      19.229  22.185 -12.171  1.00  0.00    -0.550 OA
ATOM     20  O   UNL     1      20.692  20.477 -12.602  1.00  0.00    -0.550 OA
ENDBRANCH  17  18
ENDBRANCH  16  17
ENDBRANCH  15  16
ENDBRANCH  14  15
ENDBRANCH  13  14
ENDBRANCH  12  13
ENDBRANCH  11  12
ENDBRANCH   1  11
TORSDOF 15
ENDMDL
