MODEL 1
REMARK VINA RESULT:    -4.605      0.000      0.000
REMARK INTER + INTRA:          -5.717
REMARK INTER:                  -5.547
REMARK INTRA:                  -0.170
REMARK UNBOUND:                -0.170
REMARK SMILES [NH3+][C@@H](Cc1cnc[nH]1)C(=O)[O-]
REMARK SMILES IDX 3 1 2 2 1 3 9 7 10 8 11 9 4 10 5 11 8 12 6 13 7 14
REMARK H PARENT 1 4 1 5 1 6 8 15
REMARK Flexibility Score: inf
ROOT
ATOM      1  C   UNL     1     -20.344  -7.588  44.137  1.00  0.00     0.127 C 
ENDROOT
BRANCH   1   2
ATOM      2  C   UNL     1     -21.601  -7.427  43.259  1.00  0.00     0.233 C 
BRANCH   2   3
ATOM      3  N   UNL     1     -22.179  -6.083  43.389  1.00  0.00    -0.350 N 
ATOM      4  H   UNL     1     -22.116  -5.579  42.475  1.00  0.00     0.345 HD
ATOM      5  H   UNL     1     -23.182  -6.137  43.682  1.00  0.00     0.345 HD
ATOM      6  H   UNL     1     -21.644  -5.529  44.096  1.00  0.00     0.345 HD
ENDBRANCH   2   3
BRANCH   2   7
ATOM      7  C   UNL     1     -22.620  -8.467  43.640  1.00  0.00     0.099 C 
ATOM      8  O   UNL     1     -22.343  -9.692  43.542  1.00  0.00    -0.544 OA
ATOM      9  O   UNL     1     -23.868  -8.083  44.119  1.00  0.00    -0.544 OA
ENDBRANCH   2   7
ENDBRANCH   1   2
BRANCH   1  10
ATOM     10  C   UNL     1     -19.159  -8.032  43.331  1.00  0.00     0.041 A 
ATOM     11  C   UNL     1     -18.924  -9.299  42.847  1.00  0.00     0.134 A 
ATOM     12  N   UNL     1     -18.115  -7.250  43.018  1.00  0.00    -0.348 N 
ATOM     13  N   UNL     1     -17.731  -9.315  42.218  1.00  0.00    -0.245 NA
ATOM     14  C   UNL     1     -17.271  -8.051  42.342  1.00  0.00     0.196 A 
ATOM     15  H   UNL     1     -17.979  -6.242  43.253  1.00  0.00     0.167 HD
ENDBRANCH   1  10
TORSDOF 4
ENDMDL
MODEL 2
REMARK VINA RESULT:    -4.551      5.824      7.484
REMARK INTER + INTRA:          -5.652
REMARK INTER:                  -5.461
REMARK INTRA:                  -0.191
REMARK UNBOUND:                -0.170
REMARK SMILES [NH3+][C@@H](Cc1cnc[nH]1)C(=O)[O-]
REMARK SMILES IDX 3 1 2 2 1 3 9 7 10 8 11 9 4 10 5 11 8 12 6 13 7 14
REMARK H PARENT 1 4 1 5 1 6 8 15
REMARK Flexibility Score: inf
ROOT
ATOM      1  C   UNL     1     -18.480 -14.355  44.231  1.00  0.00     0.127 C 
ENDROOT
BRANCH   1   2
ATOM      2  C   UNL     1     -18.338 -13.633  42.876  1.00  0.00     0.233 C 
BRANCH   2   3
ATOM      3  N   UNL     1     -17.135 -14.072  42.157  1.00  0.00    -0.350 N 
ATOM      4  H   UNL     1     -16.645 -13.243  41.747  1.00  0.00     0.345 HD
ATOM      5  H   UNL     1     -16.480 -14.574  42.800  1.00  0.00     0.345 HD
ATOM      6  H   UNL     1     -17.399 -14.707  41.370  1.00  0.00     0.345 HD
ENDBRANCH   2   3
BRANCH   2   7
ATOM      7  C   UNL     1     -18.294 -12.145  43.100  1.00  0.00     0.099 C 
ATOM      8  O   UNL     1     -19.310 -11.539  43.531  1.00  0.00    -0.544 OA
ATOM      9  O   UNL     1     -17.127 -11.434  42.848  1.00  0.00    -0.544 OA
ENDBRANCH   2   7
ENDBRANCH   1   2
BRANCH   1  10
ATOM     10  C   UNL     1     -19.799 -15.062  44.347  1.00  0.00     0.041 A 
ATOM     11  C   UNL     1     -20.844 -14.999  43.454  1.00  0.00     0.134 A 
ATOM     12  N   UNL     1     -20.168 -15.819  45.391  1.00  0.00    -0.348 N 
ATOM     13  N   UNL     1     -21.874 -15.727  43.930  1.00  0.00    -0.245 NA
ATOM     14  C   UNL     1     -21.425 -16.210  45.109  1.00  0.00     0.196 A 
ATOM     15  H   UNL     1     -19.609 -16.048  46.243  1.00  0.00     0.167 HD
ENDBRANCH   1  10
TORSDOF 4
ENDMDL
MODEL 3
REMARK VINA RESULT:    -4.541      1.534      1.885
REMARK INTER + INTRA:          -5.640
REMARK INTER:                  -5.503
REMARK INTRA:                  -0.137
REMARK UNBOUND:                -0.170
REMARK SMILES [NH3+][C@@H](Cc1cnc[nH]1)C(=O)[O-]
REMARK SMILES IDX 3 1 2 2 1 3 9 7 10 8 11 9 4 10 5 11 8 12 6 13 7 14
REMARK H PARENT 1 4 1 5 1 6 8 15
REMARK Flexibility Score: inf
ROOT
ATOM      1  C   UNL     1     -18.734  -8.455  43.663  1.00  0.00     0.127 C 
ENDROOT
BRANCH   1   2
ATOM      2  C   UNL     1     -20.022  -7.645  43.409  1.00  0.00     0.233 C 
BRANCH   2   3
ATOM      3  N   UNL     1     -20.342  -6.774  44.547  1.00  0.00    -0.350 N 
ATOM      4  H   UNL     1     -21.146  -7.174  45.085  1.00  0.00     0.345 HD
ATOM      5  H   UNL     1     -19.517  -6.677  45.184  1.00  0.00     0.345 HD
ATOM      6  H   UNL     1     -20.626  -5.828  44.206  1.00  0.00     0.345 HD
ENDBRANCH   2   3
BRANCH   2   7
ATOM      7  C   UNL     1     -21.165  -8.586  43.140  1.00  0.00     0.099 C 
ATOM      8  O   UNL     1     -21.049  -9.814  43.396  1.00  0.00    -0.544 OA
ATOM      9  O   UNL     1     -22.362  -8.104  42.623  1.00  0.00    -0.544 OA
ENDBRANCH   2   7
ENDBRANCH   1   2
BRANCH   1  10
ATOM     10  C   UNL     1     -17.590  -7.949  42.835  1.00  0.00     0.041 A 
ATOM     11  C   UNL     1     -16.997  -8.594  41.773  1.00  0.00     0.134 A 
ATOM     12  N   UNL     1     -16.935  -6.801  43.062  1.00  0.00    -0.348 N 
ATOM     13  N   UNL     1     -15.970  -7.846  41.322  1.00  0.00    -0.245 NA
ATOM     14  C   UNL     1     -15.964  -6.764  42.130  1.00  0.00     0.196 A 
ATOM     15  H   UNL     1     -17.126  -6.093  43.805  1.00  0.00     0.167 HD
ENDBRANCH   1  10
TORSDOF 4
ENDMDL
MODEL 4
REMARK VINA RESULT:    -4.521      3.797      5.528
REMARK INTER + INTRA:          -5.616
REMARK INTER:                  -5.456
REMARK INTRA:                  -0.160
REMARK UNBOUND:                -0.170
REMARK SMILES [NH3+][C@@H](Cc1cnc[nH]1)C(=O)[O-]
REMARK SMILES IDX 3 1 2 2 1 3 9 7 10 8 11 9 4 10 5 11 8 12 6 13 7 14
REMARK H PARENT 1 4 1 5 1 6 8 15
REMARK Flexibility Score: inf
ROOT
ATOM      1  C   UNL     1     -16.971  -9.250  43.881  1.00  0.00     0.127 C 
ENDROOT
BRANCH   1   2
ATOM      2  C   UNL     1     -16.484 -10.167  42.742  1.00  0.00     0.233 C 
BRANCH   2   3
ATOM      3  N   UNL     1     -15.948 -11.432  43.261  1.00  0.00    -0.350 N 
ATOM      4  H   UNL     1     -14.942 -11.530  42.990  1.00  0.00     0.345 HD
ATOM      5  H   UNL     1     -16.027 -11.468  44.304  1.00  0.00     0.345 HD
ATOM      6  H   UNL     1     -16.470 -12.239  42.849  1.00  0.00     0.345 HD
ENDBRANCH   2   3
BRANCH   2   7
ATOM      7  C   UNL     1     -15.433  -9.454  41.934  1.00  0.00     0.099 C 
ATOM      8  O   UNL     1     -14.235  -9.839  41.972  1.00  0.00    -0.544 OA
ATOM      9  O   UNL     1     -15.781  -8.376  41.128  1.00  0.00    -0.544 OA
ENDBRANCH   2   7
ENDBRANCH   1   2
BRANCH   1  10
ATOM     10  C   UNL     1     -18.402  -8.841  43.690  1.00  0.00     0.041 A 
ATOM     11  C   UNL     1     -19.441  -9.652  43.294  1.00  0.00     0.134 A 
ATOM     12  N   UNL     1     -18.859  -7.588  43.823  1.00  0.00    -0.348 N 
ATOM     13  N   UNL     1     -20.562  -8.910  43.187  1.00  0.00    -0.245 NA
ATOM     14  C   UNL     1     -20.168  -7.661  43.517  1.00  0.00     0.196 A 
ATOM     15  H   UNL     1     -18.320  -6.736  44.095  1.00  0.00     0.167 HD
ENDBRANCH   1  10
TORSDOF 4
ENDMDL
MODEL 5
REMARK VINA RESULT:    -4.503      2.881      4.093
REMARK INTER + INTRA:          -5.594
REMARK INTER:                  -5.425
REMARK INTRA:                  -0.169
REMARK UNBOUND:                -0.170
REMARK SMILES [NH3+][C@@H](Cc1cnc[nH]1)C(=O)[O-]
REMARK SMILES IDX 3 1 2 2 1 3 9 7 10 8 11 9 4 10 5 11 8 12 6 13 7 14
REMARK H PARENT 1 4 1 5 1 6 8 15
REMARK Flexibility Score: inf
ROOT
ATOM      1  C   UNL     1     -17.992 -10.282  43.615  1.00  0.00     0.127 C 
ENDROOT
BRANCH   1   2
ATOM      2  C   UNL     1     -18.895  -9.513  42.630  1.00  0.00     0.233 C 
BRANCH   2   3
ATOM      3  N   UNL     1     -18.145  -8.474  41.912  1.00  0.00    -0.350 N 
ATOM      4  H   UNL     1     -17.266  -8.881  41.516  1.00  0.00     0.345 HD
ATOM      5  H   UNL     1     -18.719  -8.075  41.133  1.00  0.00     0.345 HD
ATOM      6  H   UNL     1     -17.875  -7.707  42.568  1.00  0.00     0.345 HD
ENDBRANCH   2   3
BRANCH   2   7
ATOM      7  C   UNL     1     -20.047  -8.896  43.378  1.00  0.00     0.099 C 
ATOM      8  O   UNL     1     -21.140  -9.513  43.480  1.00  0.00    -0.544 OA
ATOM      9  O   UNL     1     -19.905  -7.649  43.977  1.00  0.00    -0.544 OA
ENDBRANCH   2   7
ENDBRANCH   1   2
BRANCH   1  10
ATOM     10  C   UNL     1     -18.015 -11.758  43.350  1.00  0.00     0.041 A 
ATOM     11  C   UNL     1     -19.103 -12.595  43.461  1.00  0.00     0.134 A 
ATOM     12  N   UNL     1     -16.940 -12.490  43.021  1.00  0.00    -0.348 N 
ATOM     13  N   UNL     1     -18.716 -13.858  43.191  1.00  0.00    -0.245 NA
ATOM     14  C   UNL     1     -17.395 -13.754  42.927  1.00  0.00     0.196 A 
ATOM     15  H   UNL     1     -15.961 -12.158  42.877  1.00  0.00     0.167 HD
ENDBRANCH   1  10
TORSDOF 4
ENDMDL
MODEL 6
REMARK VINA RESULT:    -4.499      3.190      4.851
REMARK INTER + INTRA:          -5.590
REMARK INTER:                  -5.446
REMARK INTRA:                  -0.144
REMARK UNBOUND:                -0.170
REMARK SMILES [NH3+][C@@H](Cc1cnc[nH]1)C(=O)[O-]
REMARK SMILES IDX 3 1 2 2 1 3 9 7 10 8 11 9 4 10 5 11 8 12 6 13 7 14
REMARK H PARENT 1 4 1 5 1 6 8 15
REMARK Flexibility Score: inf
ROOT
ATOM      1  C   UNL     1     -18.827  -8.834  43.379  1.00  0.00     0.127 C 
ENDROOT
BRANCH   1   2
ATOM      2  C   UNL     1     -17.658  -7.929  42.942  1.00  0.00     0.233 C 
BRANCH   2   3
ATOM      3  N   UNL     1     -17.152  -8.306  41.616  1.00  0.00    -0.350 N 
ATOM      4  H   UNL     1     -16.146  -8.032  41.528  1.00  0.00     0.345 HD
ATOM      5  H   UNL     1     -17.240  -9.338  41.465  1.00  0.00     0.345 HD
ATOM      6  H   UNL     1     -17.686  -7.804  40.872  1.00  0.00     0.345 HD
ENDBRANCH   2   3
BRANCH   2   7
ATOM      7  C   UNL     1     -16.551  -8.008  43.960  1.00  0.00     0.099 C 
ATOM      8  O   UNL     1     -15.922  -6.970  44.294  1.00  0.00    -0.544 OA
ATOM      9  O   UNL     1     -16.228  -9.225  44.550  1.00  0.00    -0.544 OA
ENDBRANCH   2   7
ENDBRANCH   1   2
BRANCH   1  10
ATOM     10  C   UNL     1     -20.137  -8.103  43.340  1.00  0.00     0.041 A 
ATOM     11  C   UNL     1     -21.392  -8.668  43.343  1.00  0.00     0.134 A 
ATOM     12  N   UNL     1     -20.264  -6.772  43.233  1.00  0.00    -0.348 N 
ATOM     13  N   UNL     1     -22.315  -7.690  43.248  1.00  0.00    -0.245 NA
ATOM     14  C   UNL     1     -21.591  -6.551  43.184  1.00  0.00     0.196 A 
ATOM     15  H   UNL     1     -19.502  -6.059  43.188  1.00  0.00     0.167 HD
ENDBRANCH   1  10
TORSDOF 4
ENDMDL
MODEL 7
REMARK VINA RESULT:    -4.435      4.519      5.394
REMARK INTER + INTRA:          -5.512
REMARK INTER:                  -5.336
REMARK INTRA:                  -0.176
REMARK UNBOUND:                -0.170
REMARK SMILES [NH3+][C@@H](Cc1cnc[nH]1)C(=O)[O-]
REMARK SMILES IDX 3 1 2 2 1 3 9 7 10 8 11 9 4 10 5 11 8 12 6 13 7 14
REMARK H PARENT 1 4 1 5 1 6 8 15
REMARK Flexibility Score: inf
ROOT
ATOM      1  C   UNL     1     -15.969  -9.701  42.377  1.00  0.00     0.127 C 
ENDROOT
BRANCH   1   2
ATOM      2  C   UNL     1     -16.626  -8.425  41.813  1.00  0.00     0.233 C 
BRANCH   2   3
ATOM      3  N   UNL     1     -16.050  -8.054  40.514  1.00  0.00    -0.350 N 
ATOM      4  H   UNL     1     -15.169  -8.594  40.348  1.00  0.00     0.345 HD
ATOM      5  H   UNL     1     -16.724  -8.252  39.738  1.00  0.00     0.345 HD
ATOM      6  H   UNL     1     -15.807  -7.037  40.506  1.00  0.00     0.345 HD
ENDBRANCH   2   3
BRANCH   2   7
ATOM      7  C   UNL     1     -16.461  -7.296  42.794  1.00  0.00     0.099 C 
ATOM      8  O   UNL     1     -16.331  -6.113  42.382  1.00  0.00    -0.544 OA
ATOM      9  O   UNL     1     -16.469  -7.549  44.161  1.00  0.00    -0.544 OA
ENDBRANCH   2   7
ENDBRANCH   1   2
BRANCH   1  10
ATOM     10  C   UNL     1     -16.989 -10.755  42.694  1.00  0.00     0.041 A 
ATOM     11  C   UNL     1     -18.261 -10.547  43.177  1.00  0.00     0.134 A 
ATOM     12  N   UNL     1     -16.772 -12.076  42.605  1.00  0.00    -0.348 N 
ATOM     13  N   UNL     1     -18.853 -11.741  43.384  1.00  0.00    -0.245 NA
ATOM     14  C   UNL     1     -17.917 -12.646  43.024  1.00  0.00     0.196 A 
ATOM     15  H   UNL     1     -15.902 -12.560  42.289  1.00  0.00     0.167 HD
ENDBRANCH   1  10
TORSDOF 4
ENDMDL
MODEL 8
REMARK VINA RESULT:    -4.422      4.576      6.213
REMARK INTER + INTRA:          -5.496
REMARK INTER:                  -5.370
REMARK INTRA:                  -0.127
REMARK UNBOUND:                -0.170
REMARK SMILES [NH3+][C@@H](Cc1cnc[nH]1)C(=O)[O-]
REMARK SMILES IDX 3 1 2 2 1 3 9 7 10 8 11 9 4 10 5 11 8 12 6 13 7 14
REMARK H PARENT 1 4 1 5 1 6 8 15
REMARK Flexibility Score: inf
ROOT
ATOM      1  C   UNL     1     -18.855 -13.283  42.760  1.00  0.00     0.127 C 
ENDROOT
BRANCH   1   2
ATOM      2  C   UNL     1     -18.636 -14.505  43.674  1.00  0.00     0.233 C 
BRANCH   2   3
ATOM      3  N   UNL     1     -17.774 -15.508  43.035  1.00  0.00    -0.350 N 
ATOM      4  H   UNL     1     -18.042 -16.466  43.360  1.00  0.00     0.345 HD
ATOM      5  H   UNL     1     -17.861 -15.462  41.993  1.00  0.00     0.345 HD
ATOM      6  H   UNL     1     -16.777 -15.348  43.305  1.00  0.00     0.345 HD
ENDBRANCH   2   3
BRANCH   2   7
ATOM      7  C   UNL     1     -19.966 -15.116  44.027  1.00  0.00     0.099 C 
ATOM      8  O   UNL     1     -20.654 -14.637  44.967  1.00  0.00    -0.544 OA
ATOM      9  O   UNL     1     -20.452 -16.201  43.306  1.00  0.00    -0.544 OA
ENDBRANCH   2   7
ENDBRANCH   1   2
BRANCH   1  10
ATOM     10  C   UNL     1     -17.961 -12.140  43.140  1.00  0.00     0.041 A 
ATOM     11  C   UNL     1     -18.357 -10.921  43.643  1.00  0.00     0.134 A 
ATOM     12  N   UNL     1     -16.629 -12.129  42.981  1.00  0.00    -0.348 N 
ATOM     13  N   UNL     1     -17.270 -10.141  43.811  1.00  0.00    -0.245 NA
ATOM     14  C   UNL     1     -16.239 -10.910  43.399  1.00  0.00     0.196 A 
ATOM     15  H   UNL     1     -16.024 -12.893  42.607  1.00  0.00     0.167 HD
ENDBRANCH   1  10
TORSDOF 4
ENDMDL
MODEL 9
REMARK VINA RESULT:    -4.399      4.110      5.602
REMARK INTER + INTRA:          -5.469
REMARK INTER:                  -5.308
REMARK INTRA:                  -0.161
REMARK UNBOUND:                -0.170
REMARK SMILES [NH3+][C@@H](Cc1cnc[nH]1)C(=O)[O-]
REMARK SMILES IDX 3 1 2 2 1 3 9 7 10 8 11 9 4 10 5 11 8 12 6 13 7 14
REMARK H PARENT 1 4 1 5 1 6 8 15
REMARK Flexibility Score: inf
ROOT
ATOM      1  C   UNL     1     -16.813 -10.960  42.637  1.00  0.00     0.127 C 
ENDROOT
BRANCH   1   2
ATOM      2  C   UNL     1     -17.636  -9.786  43.201  1.00  0.00     0.233 C 
BRANCH   2   3
ATOM      3  N   UNL     1     -18.200  -8.959  42.125  1.00  0.00    -0.350 N 
ATOM      4  H   UNL     1     -18.805  -9.547  41.506  1.00  0.00     0.345 HD
ATOM      5  H   UNL     1     -18.773  -8.177  42.520  1.00  0.00     0.345 HD
ATOM      6  H   UNL     1     -17.433  -8.562  41.538  1.00  0.00     0.345 HD
ENDBRANCH   2   3
BRANCH   2   7
ATOM      7  C   UNL     1     -16.768  -8.945  44.099  1.00  0.00     0.099 C 
ATOM      8  O   UNL     1     -16.861  -7.690  44.074  1.00  0.00    -0.544 OA
ATOM      9  O   UNL     1     -15.872  -9.550  44.972  1.00  0.00    -0.544 OA
ENDBRANCH   2   7
ENDBRANCH   1   2
BRANCH   1  10
ATOM     10  C   UNL     1     -17.450 -12.283  42.945  1.00  0.00     0.041 A 
ATOM     11  C   UNL     1     -18.758 -12.496  43.319  1.00  0.00     0.134 A 
ATOM     12  N   UNL     1     -16.802 -13.457  42.957  1.00  0.00    -0.348 N 
ATOM     13  N   UNL     1     -18.939 -13.811  43.559  1.00  0.00    -0.245 NA
ATOM     14  C   UNL     1     -17.727 -14.362  43.327  1.00  0.00     0.196 A 
ATOM     15  H   UNL     1     -15.796 -13.634  42.737  1.00  0.00     0.167 HD
ENDBRANCH   1  10
TORSDOF 4
ENDMDL
