MODEL 1
REMARK VINA RESULT:    -4.252      0.000      0.000
REMARK INTER + INTRA:         -10.758
REMARK INTER:                  -8.229
REMARK INTRA:                  -2.529
REMARK UNBOUND:                -2.529
REMARK SMILES CCCCCCCCCCCCCCCCCC(=O)[O-]
REMARK SMILES IDX 10 1 11 2 12 3 13 4 14 5 15 6 16 7 17 8 18 9 19 10 20 11
REMARK SMILES IDX 9 12 8 13 7 14 6 15 5 16 4 17 3 18 2 19 1 20
REMARK H PARENT
REMARK Flexibility Score: inf
ROOT
ATOM      1  C   UNL     1     -26.509  67.524  85.105  1.00  0.00     0.000 C 
ENDROOT
BRANCH   1   2
ATOM      2  C   UNL     1     -27.515  66.504  84.544  1.00  0.00     0.000 C 
BRANCH   2   3
ATOM      3  C   UNL     1     -28.488  67.060  83.485  1.00  0.00     0.000 C 
BRANCH   3   4
ATOM      4  C   UNL     1     -28.210  66.602  82.042  1.00  0.00     0.000 C 
BRANCH   4   5
ATOM      5  C   UNL     1     -28.232  65.071  81.886  1.00  0.00     0.000 C 
BRANCH   5   6
ATOM      6  C   UNL     1     -29.593  64.467  82.292  1.00  0.00     0.000 C 
BRANCH   6   7
ATOM      7  C   UNL     1     -29.479  63.085  82.959  1.00  0.00     0.006 C 
BRANCH   7   8
ATOM      8  C   UNL     1     -28.314  62.997  83.952  1.00  0.00     0.053 C 
BRANCH   8   9
ATOM      9  C   UNL     1     -27.720  61.623  83.939  1.00  0.00     0.041 C 
ATOM     10  O   UNL     1     -26.777  61.333  84.721  1.00  0.00    -0.550 OA
ATOM     11  O   UNL     1     -28.176  60.677  83.029  1.00  0.00    -0.550 OA
ENDBRANCH   8   9
ENDBRANCH   7   8
ENDBRANCH   6   7
ENDBRANCH   5   6
ENDBRANCH   4   5
ENDBRANCH   3   4
ENDBRANCH   2   3
ENDBRANCH   1   2
BRANCH   1  12
ATOM     12  C   UNL     1     -27.185  68.690  85.841  1.00  0.00     0.000 C 
BRANCH  12  13
ATOM     13  C   UNL     1     -28.073  68.175  86.984  1.00  0.00    -0.000 C 
BRANCH  13  14
ATOM     14  C   UNL     1     -29.331  69.034  87.190  1.00  0.00    -0.000 C 
BRANCH  14  15
ATOM     15  C   UNL     1     -30.442  68.715  86.178  1.00  0.00    -0.000 C 
BRANCH  15  16
ATOM     16  C   UNL     1     -31.706  68.216  86.888  1.00  0.00    -0.000 C 
BRANCH  16  17
ATOM     17  C   UNL     1     -32.259  66.958  86.209  1.00  0.00    -0.000 C 
BRANCH  17  18
ATOM     18  C   UNL     1     -31.202  66.311  85.305  1.00  0.00    -0.000 C 
BRANCH  18  19
ATOM     19  C   UNL     1     -30.838  64.908  85.802  1.00  0.00    -0.003 C 
ATOM     20  C   UNL     1     -29.621  64.947  86.721  1.00  0.00     0.004 C 
ENDBRANCH  18  19
ENDBRANCH  17  18
ENDBRANCH  16  17
ENDBRANCH  15  16
ENDBRANCH  14  15
ENDBRANCH  13  14
ENDBRANCH  12  13
ENDBRANCH   1  12
TORSDOF 16
ENDMDL
MODEL 2
REMARK VINA RESULT:    -4.201      0.859      2.492
REMARK INTER + INTRA:         -10.660
REMARK INTER:                  -8.155
REMARK INTRA:                  -2.505
REMARK UNBOUND:                -2.529
REMARK SMILES CCCCCCCCCCCCCCCCCC(=O)[O-]
REMARK SMILES IDX 10 1 11 2 12 3 13 4 14 5 15 6 16 7 17 8 18 9 19 10 20 11
REMARK SMILES IDX 9 12 8 13 7 14 6 15 5 16 4 17 3 18 2 19 1 20
REMARK H PARENT
REMARK Flexibility Score: inf
ROOT
ATOM      1  C   UNL     1     -26.997  66.818  84.918  1.00  0.00     0.000 C 
ENDROOT
BRANCH   1   2
ATOM      2  C   UNL     1     -28.137  67.729  84.429  1.00  0.00     0.000 C 
BRANCH   2   3
ATOM      3  C   UNL     1     -28.856  67.248  83.152  1.00  0.00     0.000 C 
BRANCH   3   4
ATOM      4  C   UNL     1     -27.933  66.670  82.064  1.00  0.00     0.000 C 
BRANCH   4   5
ATOM      5  C   UNL     1     -28.288  65.221  81.688  1.00  0.00     0.000 C 
BRANCH   5   6
ATOM      6  C   UNL     1     -29.295  64.595  82.677  1.00  0.00     0.000 C 
BRANCH   6   7
ATOM      7  C   UNL     1     -29.170  63.066  82.797  1.00  0.00     0.006 C 
BRANCH   7   8
ATOM      8  C   UNL     1     -28.586  62.620  84.142  1.00  0.00     0.053 C 
BRANCH   8   9
ATOM      9  C   UNL     1     -27.668  61.453  83.951  1.00  0.00     0.041 C 
ATOM     10  O   UNL     1     -27.946  60.561  83.108  1.00  0.00    -0.550 OA
ATOM     11  O   UNL     1     -26.531  61.327  84.740  1.00  0.00    -0.550 OA
ENDBRANCH   8   9
ENDBRANCH   7   8
ENDBRANCH   6   7
ENDBRANCH   5   6
ENDBRANCH   4   5
ENDBRANCH   3   4
ENDBRANCH   2   3
ENDBRANCH   1   2
BRANCH   1  12
ATOM     12  C   UNL     1     -27.500  65.607  85.718  1.00  0.00     0.000 C 
BRANCH  12  13
ATOM     13  C   UNL     1     -28.752  65.971  86.531  1.00  0.00    -0.000 C 
BRANCH  13  14
ATOM     14  C   UNL     1     -29.757  64.811  86.623  1.00  0.00    -0.000 C 
BRANCH  14  15
ATOM     15  C   UNL     1     -31.012  65.042  85.768  1.00  0.00    -0.000 C 
BRANCH  15  16
ATOM     16  C   UNL     1     -31.220  66.536  85.491  1.00  0.00    -0.000 C 
BRANCH  16  17
ATOM     17  C   UNL     1     -32.365  67.099  86.342  1.00  0.00    -0.000 C 
BRANCH  17  18
ATOM     18  C   UNL     1     -31.911  68.338  87.123  1.00  0.00    -0.000 C 
BRANCH  18  19
ATOM     19  C   UNL     1     -30.685  68.983  86.469  1.00  0.00    -0.003 C 
ATOM     20  C   UNL     1     -30.950  70.444  86.119  1.00  0.00     0.004 C 
ENDBRANCH  18  19
ENDBRANCH  17  18
ENDBRANCH  16  17
ENDBRANCH  15  16
ENDBRANCH  14  15
ENDBRANCH  13  14
ENDBRANCH  12  13
ENDBRANCH   1  12
TORSDOF 16
ENDMDL
MODEL 3
REMARK VINA RESULT:    -4.090      1.665      4.299
REMARK INTER + INTRA:         -10.444
REMARK INTER:                  -8.317
REMARK INTRA:                  -2.127
REMARK UNBOUND:                -2.529
REMARK SMILES CCCCCCCCCCCCCCCCCC(=O)[O-]
REMARK SMILES IDX 10 1 11 2 12 3 13 4 14 5 15 6 16 7 17 8 18 9 19 10 20 11
REMARK SMILES IDX 9 12 8 13 7 14 6 15 5 16 4 17 3 18 2 19 1 20
REMARK H PARENT
REMARK Flexibility Score: inf
ROOT
ATOM      1  C   UNL     1     -30.600  68.773  85.938  1.00  0.00     0.000 C 
ENDROOT
BRANCH   1   2
ATOM      2  C   UNL     1     -29.455  69.181  86.881  1.00  0.00     0.000 C 
BRANCH   2   3
ATOM      3  C   UNL     1     -28.237  68.234  86.877  1.00  0.00     0.000 C 
BRANCH   3   4
ATOM      4  C   UNL     1     -27.084  68.661  85.951  1.00  0.00     0.000 C 
BRANCH   4   5
ATOM      5  C   UNL     1     -26.411  67.471  85.247  1.00  0.00     0.000 C 
BRANCH   5   6
ATOM      6  C   UNL     1     -27.443  66.495  84.643  1.00  0.00     0.000 C 
BRANCH   6   7
ATOM      7  C   UNL     1     -28.172  67.056  83.409  1.00  0.00     0.006 C 
BRANCH   7   8
ATOM      8  C   UNL     1     -29.386  66.214  83.000  1.00  0.00     0.053 C 
BRANCH   8   9
ATOM      9  C   UNL     1     -28.997  65.210  81.960  1.00  0.00     0.041 C 
ATOM     10  O   UNL     1     -27.922  65.346  81.319  1.00  0.00    -0.550 OA
ATOM     11  O   UNL     1     -29.847  64.152  81.663  1.00  0.00    -0.550 OA
ENDBRANCH   8   9
ENDBRANCH   7   8
ENDBRANCH   6   7
ENDBRANCH   5   6
ENDBRANCH   4   5
ENDBRANCH   3   4
ENDBRANCH   2   3
ENDBRANCH   1   2
BRANCH   1  12
ATOM     12  C   UNL     1     -31.883  68.382  86.686  1.00  0.00     0.000 C 
BRANCH  12  13
ATOM     13  C   UNL     1     -31.975  66.858  86.855  1.00  0.00    -0.000 C 
BRANCH  13  14
ATOM     14  C   UNL     1     -31.083  66.096  85.862  1.00  0.00    -0.000 C 
BRANCH  14  15
ATOM     15  C   UNL     1     -29.994  65.265  86.557  1.00  0.00    -0.000 C 
BRANCH  15  16
ATOM     16  C   UNL     1     -30.310  63.767  86.477  1.00  0.00    -0.000 C 
BRANCH  16  17
ATOM     17  C   UNL     1     -30.081  63.231  85.059  1.00  0.00    -0.000 C 
BRANCH  17  18
ATOM     18  C   UNL     1     -28.586  63.051  84.773  1.00  0.00    -0.000 C 
BRANCH  18  19
ATOM     19  C   UNL     1     -28.331  61.782  83.953  1.00  0.00    -0.003 C 
ATOM     20  C   UNL     1     -27.018  61.118  84.356  1.00  0.00     0.004 C 
ENDBRANCH  18  19
ENDBRANCH  17  18
ENDBRANCH  16  17
ENDBRANCH  15  16
ENDBRANCH  14  15
ENDBRANCH  13  14
ENDBRANCH  12  13
ENDBRANCH   1  12
TORSDOF 16
ENDMDL
MODEL 4
REMARK VINA RESULT:    -4.032      0.745      3.813
REMARK INTER + INTRA:         -10.332
REMARK INTER:                  -8.292
REMARK INTRA:                  -2.040
REMARK UNBOUND:                -2.529
REMARK SMILES CCCCCCCCCCCCCCCCCC(=O)[O-]
REMARK SMILES IDX 10 1 11 2 12 3 13 4 14 5 15 6 16 7 17 8 18 9 19 10 20 11
REMARK SMILES IDX 9 12 8 13 7 14 6 15 5 16 4 17 3 18 2 19 1 20
REMARK H PARENT
REMARK Flexibility Score: inf
ROOT
ATOM      1  C   UNL     1     -30.116  68.553  86.173  1.00  0.00     0.000 C 
ENDROOT
BRANCH   1   2
ATOM      2  C   UNL     1     -31.322  67.902  86.872  1.00  0.00     0.000 C 
BRANCH   2   3
ATOM      3  C   UNL     1     -31.945  66.706  86.123  1.00  0.00     0.000 C 
BRANCH   3   4
ATOM      4  C   UNL     1     -30.950  65.859  85.309  1.00  0.00     0.000 C 
BRANCH   4   5
ATOM      5  C   UNL     1     -30.233  64.796  86.159  1.00  0.00     0.000 C 
BRANCH   5   6
ATOM      6  C   UNL     1     -30.114  63.446  85.421  1.00  0.00     0.000 C 
BRANCH   6   7
ATOM      7  C   UNL     1     -28.676  63.099  85.000  1.00  0.00     0.006 C 
BRANCH   7   8
ATOM      8  C   UNL     1     -28.618  62.207  83.755  1.00  0.00     0.053 C 
BRANCH   8   9
ATOM      9  C   UNL     1     -27.531  61.188  83.893  1.00  0.00     0.041 C 
ATOM     10  O   UNL     1     -27.522  60.168  83.156  1.00  0.00    -0.550 OA
ATOM     11  O   UNL     1     -26.554  61.341  84.870  1.00  0.00    -0.550 OA
ENDBRANCH   8   9
ENDBRANCH   7   8
ENDBRANCH   6   7
ENDBRANCH   5   6
ENDBRANCH   4   5
ENDBRANCH   3   4
ENDBRANCH   2   3
ENDBRANCH   1   2
BRANCH   1  12
ATOM     12  C   UNL     1     -28.768  68.074  86.733  1.00  0.00     0.000 C 
BRANCH  12  13
ATOM     13  C   UNL     1     -27.614  68.476  85.802  1.00  0.00    -0.000 C 
BRANCH  13  14
ATOM     14  C   UNL     1     -26.750  67.278  85.376  1.00  0.00    -0.000 C 
BRANCH  14  15
ATOM     15  C   UNL     1     -27.462  66.357  84.375  1.00  0.00    -0.000 C 
BRANCH  15  16
ATOM     16  C   UNL     1     -28.312  67.169  83.389  1.00  0.00    -0.000 C 
BRANCH  16  17
ATOM     17  C   UNL     1     -28.067  66.713  81.946  1.00  0.00    -0.000 C 
BRANCH  17  18
ATOM     18  C   UNL     1     -28.415  65.230  81.771  1.00  0.00    -0.000 C 
BRANCH  18  19
ATOM     19  C   UNL     1     -29.909  64.985  82.009  1.00  0.00    -0.003 C 
ATOM     20  C   UNL     1     -30.408  63.789  81.202  1.00  0.00     0.004 C 
ENDBRANCH  18  19
ENDBRANCH  17  18
ENDBRANCH  16  17
ENDBRANCH  15  16
ENDBRANCH  14  15
ENDBRANCH  13  14
ENDBRANCH  12  13
ENDBRANCH   1  12
TORSDOF 16
ENDMDL
MODEL 5
REMARK VINA RESULT:    -4.001      1.656      4.934
REMARK INTER + INTRA:         -10.272
REMARK INTER:                  -8.287
REMARK INTRA:                  -1.985
REMARK UNBOUND:                -2.529
REMARK SMILES CCCCCCCCCCCCCCCCCC(=O)[O-]
REMARK SMILES IDX 10 1 11 2 12 3 13 4 14 5 15 6 16 7 17 8 18 9 19 10 20 11
REMARK SMILES IDX 9 12 8 13 7 14 6 15 5 16 4 17 3 18 2 19 1 20
REMARK H PARENT
REMARK Flexibility Score: inf
ROOT
ATOM      1  C   UNL     1     -26.520  67.426  85.083  1.00  0.00     0.000 C 
ENDROOT
BRANCH   1   2
ATOM      2  C   UNL     1     -27.229  68.600  85.781  1.00  0.00     0.000 C 
BRANCH   2   3
ATOM      3  C   UNL     1     -28.149  68.204  86.953  1.00  0.00     0.000 C 
BRANCH   3   4
ATOM      4  C   UNL     1     -29.428  69.049  87.092  1.00  0.00     0.000 C 
BRANCH   4   5
ATOM      5  C   UNL     1     -30.527  68.639  86.096  1.00  0.00     0.000 C 
BRANCH   5   6
ATOM      6  C   UNL     1     -31.719  67.954  86.798  1.00  0.00     0.000 C 
BRANCH   6   7
ATOM      7  C   UNL     1     -32.161  66.644  86.124  1.00  0.00     0.006 C 
BRANCH   7   8
ATOM      8  C   UNL     1     -31.033  65.971  85.333  1.00  0.00     0.053 C 
BRANCH   8   9
ATOM      9  C   UNL     1     -30.406  64.880  86.145  1.00  0.00     0.041 C 
ATOM     10  O   UNL     1     -30.897  63.721  86.134  1.00  0.00    -0.550 OA
ATOM     11  O   UNL     1     -29.310  65.157  86.952  1.00  0.00    -0.550 OA
ENDBRANCH   8   9
ENDBRANCH   7   8
ENDBRANCH   6   7
ENDBRANCH   5   6
ENDBRANCH   4   5
ENDBRANCH   3   4
ENDBRANCH   2   3
ENDBRANCH   1   2
BRANCH   1  12
ATOM     12  C   UNL     1     -27.493  66.479  84.367  1.00  0.00     0.000 C 
BRANCH  12  13
ATOM     13  C   UNL     1     -28.416  67.258  83.417  1.00  0.00    -0.000 C 
BRANCH  13  14
ATOM     14  C   UNL     1     -28.233  66.852  81.946  1.00  0.00    -0.000 C 
BRANCH  14  15
ATOM     15  C   UNL     1     -27.975  65.348  81.771  1.00  0.00    -0.000 C 
BRANCH  15  16
ATOM     16  C   UNL     1     -29.285  64.593  81.512  1.00  0.00    -0.000 C 
BRANCH  16  17
ATOM     17  C   UNL     1     -29.697  63.770  82.738  1.00  0.00    -0.000 C 
BRANCH  17  18
ATOM     18  C   UNL     1     -28.483  63.443  83.615  1.00  0.00    -0.000 C 
BRANCH  18  19
ATOM     19  C   UNL     1     -28.608  62.044  84.227  1.00  0.00    -0.003 C 
ATOM     20  C   UNL     1     -27.435  61.157  83.819  1.00  0.00     0.004 C 
ENDBRANCH  18  19
ENDBRANCH  17  18
ENDBRANCH  16  17
ENDBRANCH  15  16
ENDBRANCH  14  15
ENDBRANCH  13  14
ENDBRANCH  12  13
ENDBRANCH   1  12
TORSDOF 16
ENDMDL
MODEL 6
REMARK VINA RESULT:    -3.907      2.993      6.257
REMARK INTER + INTRA:         -10.091
REMARK INTER:                  -7.499
REMARK INTRA:                  -2.592
REMARK UNBOUND:                -2.529
REMARK SMILES CCCCCCCCCCCCCCCCCC(=O)[O-]
REMARK SMILES IDX 10 1 11 2 12 3 13 4 14 5 15 6 16 7 17 8 18 9 19 10 20 11
REMARK SMILES IDX 9 12 8 13 7 14 6 15 5 16 4 17 3 18 2 19 1 20
REMARK H PARENT
REMARK Flexibility Score: inf
ROOT
ATOM      1  C   UNL     1     -30.185  63.817  86.672  1.00  0.00     0.000 C 
ENDROOT
BRANCH   1   2
ATOM      2  C   UNL     1     -30.160  65.341  86.454  1.00  0.00     0.000 C 
BRANCH   2   3
ATOM      3  C   UNL     1     -31.209  65.876  85.458  1.00  0.00     0.000 C 
BRANCH   3   4
ATOM      4  C   UNL     1     -32.253  66.832  86.062  1.00  0.00     0.000 C 
BRANCH   4   5
ATOM      5  C   UNL     1     -31.622  67.931  86.935  1.00  0.00     0.000 C 
BRANCH   5   6
ATOM      6  C   UNL     1     -30.816  68.946  86.097  1.00  0.00     0.000 C 
BRANCH   6   7
ATOM      7  C   UNL     1     -29.509  69.399  86.769  1.00  0.00     0.006 C 
BRANCH   7   8
ATOM      8  C   UNL     1     -28.891  68.317  87.661  1.00  0.00     0.053 C 
BRANCH   8   9
ATOM      9  C   UNL     1     -27.604  68.801  88.254  1.00  0.00     0.041 C 
ATOM     10  O   UNL     1     -27.475  68.888  89.503  1.00  0.00    -0.550 OA
ATOM     11  O   UNL     1     -26.565  69.203  87.424  1.00  0.00    -0.550 OA
ENDBRANCH   8   9
ENDBRANCH   7   8
ENDBRANCH   6   7
ENDBRANCH   5   6
ENDBRANCH   4   5
ENDBRANCH   3   4
ENDBRANCH   2   3
ENDBRANCH   1   2
BRANCH   1  12
ATOM     12  C   UNL     1     -30.178  63.025  85.357  1.00  0.00     0.000 C 
BRANCH  12  13
ATOM     13  C   UNL     1     -28.842  63.201  84.618  1.00  0.00    -0.000 C 
BRANCH  13  14
ATOM     14  C   UNL     1     -29.014  63.290  83.093  1.00  0.00    -0.000 C 
BRANCH  14  15
ATOM     15  C   UNL     1     -29.436  64.690  82.623  1.00  0.00    -0.000 C 
BRANCH  15  16
ATOM     16  C   UNL     1     -28.360  65.316  81.727  1.00  0.00    -0.000 C 
BRANCH  16  17
ATOM     17  C   UNL     1     -28.216  66.816  82.007  1.00  0.00    -0.000 C 
BRANCH  17  18
ATOM     18  C   UNL     1     -28.708  67.163  83.418  1.00  0.00    -0.000 C 
BRANCH  18  19
ATOM     19  C   UNL     1     -27.534  67.526  84.335  1.00  0.00    -0.003 C 
ATOM     20  C   UNL     1     -27.163  66.359  85.245  1.00  0.00     0.004 C 
ENDBRANCH  18  19
ENDBRANCH  17  18
ENDBRANCH  16  17
ENDBRANCH  15  16
ENDBRANCH  14  15
ENDBRANCH  13  14
ENDBRANCH  12  13
ENDBRANCH   1  12
TORSDOF 16
ENDMDL
MODEL 7
REMARK VINA RESULT:    -3.837      3.115      5.776
REMARK INTER + INTRA:          -9.955
REMARK INTER:                  -7.399
REMARK INTRA:                  -2.556
REMARK UNBOUND:                -2.529
REMARK SMILES CCCCCCCCCCCCCCCCCC(=O)[O-]
REMARK SMILES IDX 10 1 11 2 12 3 13 4 14 5 15 6 16 7 17 8 18 9 19 10 20 11
REMARK SMILES IDX 9 12 8 13 7 14 6 15 5 16 4 17 3 18 2 19 1 20
REMARK H PARENT
REMARK Flexibility Score: inf
ROOT
ATOM      1  C   UNL     1     -27.597  65.628  85.598  1.00  0.00     0.000 C 
ENDROOT
BRANCH   1   2
ATOM      2  C   UNL     1     -28.685  65.958  86.636  1.00  0.00     0.000 C 
BRANCH   2   3
ATOM      3  C   UNL     1     -29.745  64.857  86.844  1.00  0.00     0.000 C 
BRANCH   3   4
ATOM      4  C   UNL     1     -30.764  64.710  85.701  1.00  0.00     0.000 C 
BRANCH   4   5
ATOM      5  C   UNL     1     -31.395  66.051  85.286  1.00  0.00     0.000 C 
BRANCH   5   6
ATOM      6  C   UNL     1     -32.364  66.592  86.360  1.00  0.00     0.000 C 
BRANCH   6   7
ATOM      7  C   UNL     1     -31.995  67.995  86.871  1.00  0.00     0.006 C 
BRANCH   7   8
ATOM      8  C   UNL     1     -31.119  68.777  85.886  1.00  0.00     0.053 C 
BRANCH   8   9
ATOM      9  C   UNL     1     -30.241  69.741  86.622  1.00  0.00     0.041 C 
ATOM     10  O   UNL     1     -30.420  70.981  86.498  1.00  0.00    -0.550 OA
ATOM     11  O   UNL     1     -29.193  69.270  87.404  1.00  0.00    -0.550 OA
ENDBRANCH   8   9
ENDBRANCH   7   8
ENDBRANCH   6   7
ENDBRANCH   5   6
ENDBRANCH   4   5
ENDBRANCH   3   4
ENDBRANCH   2   3
ENDBRANCH   1   2
BRANCH   1  12
ATOM     12  C   UNL     1     -27.042  66.875  84.894  1.00  0.00     0.000 C 
BRANCH  12  13
ATOM     13  C   UNL     1     -28.182  67.748  84.349  1.00  0.00    -0.000 C 
BRANCH  13  14
ATOM     14  C   UNL     1     -28.880  67.122  83.132  1.00  0.00    -0.000 C 
BRANCH  14  15
ATOM     15  C   UNL     1     -27.890  66.574  82.094  1.00  0.00    -0.000 C 
BRANCH  15  16
ATOM     16  C   UNL     1     -28.277  65.155  81.661  1.00  0.00    -0.000 C 
BRANCH  16  17
ATOM     17  C   UNL     1     -29.522  64.671  82.413  1.00  0.00    -0.000 C 
BRANCH  17  18
ATOM     18  C   UNL     1     -29.402  63.186  82.779  1.00  0.00    -0.000 C 
BRANCH  18  19
ATOM     19  C   UNL     1     -28.395  62.981  83.916  1.00  0.00    -0.003 C 
ATOM     20  C   UNL     1     -27.862  61.551  83.929  1.00  0.00     0.004 C 
ENDBRANCH  18  19
ENDBRANCH  17  18
ENDBRANCH  16  17
ENDBRANCH  15  16
ENDBRANCH  14  15
ENDBRANCH  13  14
ENDBRANCH  12  13
ENDBRANCH   1  12
TORSDOF 16
ENDMDL
MODEL 8
REMARK VINA RESULT:    -3.786      3.078      5.923
REMARK INTER + INTRA:          -9.856
REMARK INTER:                  -7.224
REMARK INTRA:                  -2.632
REMARK UNBOUND:                -2.529
REMARK SMILES CCCCCCCCCCCCCCCCCC(=O)[O-]
REMARK SMILES IDX 10 1 11 2 12 3 13 4 14 5 15 6 16 7 17 8 18 9 19 10 20 11
REMARK SMILES IDX 9 12 8 13 7 14 6 15 5 16 4 17 3 18 2 19 1 20
REMARK H PARENT
REMARK Flexibility Score: inf
ROOT
ATOM      1  C   UNL     1     -27.888  67.821  84.323  1.00  0.00     0.000 C 
ENDROOT
BRANCH   1   2
ATOM      2  C   UNL     1     -26.996  66.776  85.015  1.00  0.00     0.000 C 
BRANCH   2   3
ATOM      3  C   UNL     1     -27.720  65.488  85.457  1.00  0.00     0.000 C 
BRANCH   3   4
ATOM      4  C   UNL     1     -28.762  65.678  86.574  1.00  0.00     0.000 C 
BRANCH   4   5
ATOM      5  C   UNL     1     -30.074  64.921  86.301  1.00  0.00     0.000 C 
BRANCH   5   6
ATOM      6  C   UNL     1     -31.158  65.839  85.695  1.00  0.00     0.000 C 
BRANCH   6   7
ATOM      7  C   UNL     1     -31.373  67.142  86.485  1.00  0.00     0.006 C 
BRANCH   7   8
ATOM      8  C   UNL     1     -31.081  68.397  85.655  1.00  0.00     0.053 C 
BRANCH   8   9
ATOM      9  C   UNL     1     -30.320  69.395  86.470  1.00  0.00     0.041 C 
ATOM     10  O   UNL     1     -30.594  70.621  86.387  1.00  0.00    -0.550 OA
ATOM     11  O   UNL     1     -29.274  68.977  87.283  1.00  0.00    -0.550 OA
ENDBRANCH   8   9
ENDBRANCH   7   8
ENDBRANCH   6   7
ENDBRANCH   5   6
ENDBRANCH   4   5
ENDBRANCH   3   4
ENDBRANCH   2   3
ENDBRANCH   1   2
BRANCH   1  12
ATOM     12  C   UNL     1     -28.761  67.222  83.211  1.00  0.00     0.000 C 
BRANCH  12  13
ATOM     13  C   UNL     1     -27.893  66.551  82.136  1.00  0.00    -0.000 C 
BRANCH  13  14
ATOM     14  C   UNL     1     -28.367  65.130  81.792  1.00  0.00    -0.000 C 
BRANCH  14  15
ATOM     15  C   UNL     1     -29.787  64.836  82.300  1.00  0.00    -0.000 C 
BRANCH  15  16
ATOM     16  C   UNL     1     -29.825  63.527  83.098  1.00  0.00    -0.000 C 
BRANCH  16  17
ATOM     17  C   UNL     1     -28.437  62.878  83.156  1.00  0.00    -0.000 C 
BRANCH  17  18
ATOM     18  C   UNL     1     -28.258  62.076  84.450  1.00  0.00    -0.000 C 
BRANCH  18  19
ATOM     19  C   UNL     1     -27.165  61.013  84.292  1.00  0.00    -0.003 C 
ATOM     20  C   UNL     1     -27.498  60.044  83.161  1.00  0.00     0.004 C 
ENDBRANCH  18  19
ENDBRANCH  17  18
ENDBRANCH  16  17
ENDBRANCH  15  16
ENDBRANCH  14  15
ENDBRANCH  13  14
ENDBRANCH  12  13
ENDBRANCH   1  12
TORSDOF 16
ENDMDL
MODEL 9
REMARK VINA RESULT:    -3.716      2.986      5.857
REMARK INTER + INTRA:          -9.721
REMARK INTER:                  -6.992
REMARK INTRA:                  -2.728
REMARK UNBOUND:                -2.529
REMARK SMILES CCCCCCCCCCCCCCCCCC(=O)[O-]
REMARK SMILES IDX 10 1 11 2 12 3 13 4 14 5 15 6 16 7 17 8 18 9 19 10 20 11
REMARK SMILES IDX 9 12 8 13 7 14 6 15 5 16 4 17 3 18 2 19 1 20
REMARK H PARENT
REMARK Flexibility Score: inf
ROOT
ATOM      1  C   UNL     1     -29.836  63.811  85.509  1.00  0.00     0.000 C 
ENDROOT
BRANCH   1   2
ATOM      2  C   UNL     1     -30.513  64.977  86.252  1.00  0.00     0.000 C 
BRANCH   2   3
ATOM      3  C   UNL     1     -31.278  65.968  85.351  1.00  0.00     0.000 C 
BRANCH   3   4
ATOM      4  C   UNL     1     -32.410  66.742  86.050  1.00  0.00     0.000 C 
BRANCH   4   5
ATOM      5  C   UNL     1     -31.894  67.912  86.906  1.00  0.00     0.000 C 
BRANCH   5   6
ATOM      6  C   UNL     1     -31.050  68.906  86.081  1.00  0.00     0.000 C 
BRANCH   6   7
ATOM      7  C   UNL     1     -29.783  69.389  86.808  1.00  0.00     0.006 C 
BRANCH   7   8
ATOM      8  C   UNL     1     -29.012  68.249  87.483  1.00  0.00     0.053 C 
BRANCH   8   9
ATOM      9  C   UNL     1     -27.711  68.750  88.028  1.00  0.00     0.041 C 
ATOM     10  O   UNL     1     -27.580  68.959  89.262  1.00  0.00    -0.550 OA
ATOM     11  O   UNL     1     -26.659  69.034  87.165  1.00  0.00    -0.550 OA
ENDBRANCH   8   9
ENDBRANCH   7   8
ENDBRANCH   6   7
ENDBRANCH   5   6
ENDBRANCH   4   5
ENDBRANCH   3   4
ENDBRANCH   2   3
ENDBRANCH   1   2
BRANCH   1  12
ATOM     12  C   UNL     1     -28.384  64.116  85.112  1.00  0.00     0.000 C 
BRANCH  12  13
ATOM     13  C   UNL     1     -27.897  65.414  85.775  1.00  0.00    -0.000 C 
BRANCH  13  14
ATOM     14  C   UNL     1     -27.168  66.345  84.793  1.00  0.00    -0.000 C 
BRANCH  14  15
ATOM     15  C   UNL     1     -28.033  67.532  84.344  1.00  0.00    -0.000 C 
BRANCH  15  16
ATOM     16  C   UNL     1     -28.808  67.193  83.065  1.00  0.00    -0.000 C 
BRANCH  16  17
ATOM     17  C   UNL     1     -27.879  66.605  81.997  1.00  0.00    -0.000 C 
BRANCH  17  18
ATOM     18  C   UNL     1     -28.393  65.245  81.508  1.00  0.00    -0.000 C 
BRANCH  18  19
ATOM     19  C   UNL     1     -29.792  64.955  82.062  1.00  0.00    -0.003 C 
ATOM     20  C   UNL     1     -30.198  63.507  81.806  1.00  0.00     0.004 C 
ENDBRANCH  18  19
ENDBRANCH  17  18
ENDBRANCH  16  17
ENDBRANCH  15  16
ENDBRANCH  14  15
ENDBRANCH  13  14
ENDBRANCH  12  13
ENDBRANCH   1  12
TORSDOF 16
ENDMDL
