MODEL 1
REMARK VINA RESULT:    -3.351      0.000      0.000
REMARK INTER + INTRA:          -8.119
REMARK INTER:                  -5.898
REMARK INTRA:                  -2.221
REMARK UNBOUND:                -2.221
REMARK SMILES CCCCCCCCCCCCCCC(=O)[O-]
REMARK SMILES IDX 9 1 10 2 11 3 12 4 13 5 14 6 15 7 16 8 17 9 8 10 7 11 6 12
REMARK SMILES IDX 5 13 4 14 3 15 2 16 1 17
REMARK H PARENT
REMARK Flexibility Score: inf
ROOT
ATOM      1  C   UNL     1      64.881  31.952  59.268  1.00  0.00     0.000 C 
ENDROOT
BRANCH   1   2
ATOM      2  C   UNL     1      64.567  33.433  59.526  1.00  0.00     0.000 C 
BRANCH   2   3
ATOM      3  C   UNL     1      64.283  33.683  61.011  1.00  0.00     0.000 C 
BRANCH   3   4
ATOM      4  C   UNL     1      64.538  35.150  61.383  1.00  0.00     0.000 C 
BRANCH   4   5
ATOM      5  C   UNL     1      63.582  36.128  60.675  1.00  0.00     0.006 C 
BRANCH   5   6
ATOM      6  C   UNL     1      62.097  35.906  61.013  1.00  0.00     0.053 C 
BRANCH   6   7
ATOM      7  C   UNL     1      61.251  35.691  59.796  1.00  0.00     0.041 C 
ATOM      8  O   UNL     1      61.788  35.467  58.679  1.00  0.00    -0.550 OA
ATOM      9  O   UNL     1      59.866  35.711  59.899  1.00  0.00    -0.550 OA
ENDBRANCH   6   7
ENDBRANCH   5   6
ENDBRANCH   4   5
ENDBRANCH   3   4
ENDBRANCH   2   3
ENDBRANCH   1   2
BRANCH   1  10
ATOM     10  C   UNL     1      64.593  31.063  60.487  1.00  0.00     0.000 C 
BRANCH  10  11
ATOM     11  C   UNL     1      64.161  29.639  60.095  1.00  0.00    -0.000 C 
BRANCH  11  12
ATOM     12  C   UNL     1      62.744  29.298  60.603  1.00  0.00    -0.000 C 
BRANCH  12  13
ATOM     13  C   UNL     1      62.292  30.156  61.802  1.00  0.00    -0.000 C 
BRANCH  13  14
ATOM     14  C   UNL     1      60.954  30.887  61.605  1.00  0.00    -0.000 C 
BRANCH  14  15
ATOM     15  C   UNL     1      61.080  32.127  60.708  1.00  0.00    -0.000 C 
BRANCH  15  16
ATOM     16  C   UNL     1      60.345  31.919  59.380  1.00  0.00    -0.003 C 
ATOM     17  C   UNL     1      61.305  32.013  58.197  1.00  0.00     0.004 C 
ENDBRANCH  15  16
ENDBRANCH  14  15
ENDBRANCH  13  14
ENDBRANCH  12  13
ENDBRANCH  11  12
ENDBRANCH  10  11
ENDBRANCH   1  10
TORSDOF 13
ENDMDL
MODEL 2
REMARK VINA RESULT:    -3.130      3.855      6.317
REMARK INTER + INTRA:          -7.730
REMARK INTER:                  -6.601
REMARK INTRA:                  -1.129
REMARK UNBOUND:                -2.221
REMARK SMILES CCCCCCCCCCCCCCC(=O)[O-]
REMARK SMILES IDX 9 1 10 2 11 3 12 4 13 5 14 6 15 7 16 8 17 9 8 10 7 11 6 12
REMARK SMILES IDX 5 13 4 14 3 15 2 16 1 17
REMARK H PARENT
REMARK Flexibility Score: inf
ROOT
ATOM      1  C   UNL     1      62.313  29.768  61.672  1.00  0.00     0.000 C 
ENDROOT
BRANCH   1   2
ATOM      2  C   UNL     1      61.228  30.855  61.644  1.00  0.00     0.000 C 
BRANCH   2   3
ATOM      3  C   UNL     1      59.960  30.347  60.947  1.00  0.00     0.000 C 
BRANCH   3   4
ATOM      4  C   UNL     1      60.201  28.980  60.292  1.00  0.00     0.000 C 
BRANCH   4   5
ATOM      5  C   UNL     1      59.156  27.923  60.695  1.00  0.00     0.006 C 
BRANCH   5   6
ATOM      6  C   UNL     1      57.751  28.499  60.950  1.00  0.00     0.053 C 
BRANCH   6   7
ATOM      7  C   UNL     1      56.929  27.641  61.860  1.00  0.00     0.041 C 
ATOM      8  O   UNL     1      57.211  26.423  62.013  1.00  0.00    -0.550 OA
ATOM      9  O   UNL     1      55.865  28.191  62.564  1.00  0.00    -0.550 OA
ENDBRANCH   6   7
ENDBRANCH   5   6
ENDBRANCH   4   5
ENDBRANCH   3   4
ENDBRANCH   2   3
ENDBRANCH   1   2
BRANCH   1  10
ATOM     10  C   UNL     1      63.718  30.326  61.403  1.00  0.00     0.000 C 
BRANCH  10  11
ATOM     11  C   UNL     1      63.778  31.202  60.138  1.00  0.00    -0.000 C 
BRANCH  11  12
ATOM     12  C   UNL     1      64.571  32.506  60.368  1.00  0.00    -0.000 C 
BRANCH  12  13
ATOM     13  C   UNL     1      63.881  33.760  59.794  1.00  0.00    -0.000 C 
BRANCH  13  14
ATOM     14  C   UNL     1      62.938  34.482  60.771  1.00  0.00    -0.000 C 
BRANCH  14  15
ATOM     15  C   UNL     1      61.469  34.432  60.326  1.00  0.00    -0.000 C 
BRANCH  15  16
ATOM     16  C   UNL     1      60.785  35.786  60.544  1.00  0.00    -0.003 C 
ATOM     17  C   UNL     1      61.780  36.833  61.038  1.00  0.00     0.004 C 
ENDBRANCH  15  16
ENDBRANCH  14  15
ENDBRANCH  13  14
ENDBRANCH  12  13
ENDBRANCH  11  12
ENDBRANCH  10  11
ENDBRANCH   1  10
TORSDOF 13
ENDMDL
MODEL 3
REMARK VINA RESULT:    -3.083      2.649      5.381
REMARK INTER + INTRA:          -7.646
REMARK INTER:                  -5.633
REMARK INTRA:                  -2.013
REMARK UNBOUND:                -2.221
REMARK SMILES CCCCCCCCCCCCCCC(=O)[O-]
REMARK SMILES IDX 9 1 10 2 11 3 12 4 13 5 14 6 15 7 16 8 17 9 8 10 7 11 6 12
REMARK SMILES IDX 5 13 4 14 3 15 2 16 1 17
REMARK H PARENT
REMARK Flexibility Score: inf
ROOT
ATOM      1  C   UNL     1      60.974  32.466  58.281  1.00  0.00     0.000 C 
ENDROOT
BRANCH   1   2
ATOM      2  C   UNL     1      60.331  31.871  59.542  1.00  0.00     0.000 C 
BRANCH   2   3
ATOM      3  C   UNL     1      61.283  31.963  60.739  1.00  0.00     0.000 C 
BRANCH   3   4
ATOM      4  C   UNL     1      61.121  30.751  61.667  1.00  0.00     0.000 C 
BRANCH   4   5
ATOM      5  C   UNL     1      62.363  29.841  61.696  1.00  0.00     0.006 C 
BRANCH   5   6
ATOM      6  C   UNL     1      63.673  30.559  61.329  1.00  0.00     0.053 C 
BRANCH   6   7
ATOM      7  C   UNL     1      64.494  29.798  60.334  1.00  0.00     0.041 C 
ATOM      8  O   UNL     1      63.938  29.022  59.513  1.00  0.00    -0.550 OA
ATOM      9  O   UNL     1      65.872  29.967  60.294  1.00  0.00    -0.550 OA
ENDBRANCH   6   7
ENDBRANCH   5   6
ENDBRANCH   4   5
ENDBRANCH   3   4
ENDBRANCH   2   3
ENDBRANCH   1   2
BRANCH   1  10
ATOM     10  C   UNL     1      62.427  32.007  58.083  1.00  0.00     0.000 C 
BRANCH  10  11
ATOM     11  C   UNL     1      63.391  33.180  57.832  1.00  0.00    -0.000 C 
BRANCH  11  12
ATOM     12  C   UNL     1      64.558  33.203  58.842  1.00  0.00    -0.000 C 
BRANCH  12  13
ATOM     13  C   UNL     1      65.133  34.611  59.094  1.00  0.00    -0.000 C 
BRANCH  13  14
ATOM     14  C   UNL     1      64.919  35.150  60.518  1.00  0.00    -0.000 C 
BRANCH  14  15
ATOM     15  C   UNL     1      63.532  34.807  61.082  1.00  0.00    -0.000 C 
BRANCH  15  16
ATOM     16  C   UNL     1      62.589  36.010  60.984  1.00  0.00    -0.003 C 
ATOM     17  C   UNL     1      61.206  35.590  60.494  1.00  0.00     0.004 C 
ENDBRANCH  15  16
ENDBRANCH  14  15
ENDBRANCH  13  14
ENDBRANCH  12  13
ENDBRANCH  11  12
ENDBRANCH  10  11
ENDBRANCH   1  10
TORSDOF 13
ENDMDL
MODEL 4
REMARK VINA RESULT:    -3.002     10.860     12.841
REMARK INTER + INTRA:          -7.505
REMARK INTER:                  -5.363
REMARK INTRA:                  -2.142
REMARK UNBOUND:                -2.221
REMARK SMILES CCCCCCCCCCCCCCC(=O)[O-]
REMARK SMILES IDX 9 1 10 2 11 3 12 4 13 5 14 6 15 7 16 8 17 9 8 10 7 11 6 12
REMARK SMILES IDX 5 13 4 14 3 15 2 16 1 17
REMARK H PARENT
REMARK Flexibility Score: inf
ROOT
ATOM      1  C   UNL     1      57.884  28.602  52.587  1.00  0.00     0.000 C 
ENDROOT
BRANCH   1   2
ATOM      2  C   UNL     1      57.466  29.564  51.465  1.00  0.00     0.000 C 
BRANCH   2   3
ATOM      3  C   UNL     1      57.791  28.975  50.088  1.00  0.00     0.000 C 
BRANCH   3   4
ATOM      4  C   UNL     1      59.274  29.169  49.740  1.00  0.00     0.000 C 
BRANCH   4   5
ATOM      5  C   UNL     1      60.031  27.840  49.559  1.00  0.00     0.006 C 
BRANCH   5   6
ATOM      6  C   UNL     1      59.142  26.591  49.693  1.00  0.00     0.053 C 
BRANCH   6   7
ATOM      7  C   UNL     1      59.864  25.428  50.302  1.00  0.00     0.041 C 
ATOM      8  O   UNL     1      59.229  24.396  50.647  1.00  0.00    -0.550 OA
ATOM      9  O   UNL     1      61.242  25.472  50.464  1.00  0.00    -0.550 OA
ENDBRANCH   6   7
ENDBRANCH   5   6
ENDBRANCH   4   5
ENDBRANCH   3   4
ENDBRANCH   2   3
ENDBRANCH   1   2
BRANCH   1  10
ATOM     10  C   UNL     1      56.730  27.707  53.062  1.00  0.00     0.000 C 
BRANCH  10  11
ATOM     11  C   UNL     1      56.818  26.276  52.502  1.00  0.00    -0.000 C 
BRANCH  11  12
ATOM     12  C   UNL     1      55.476  25.799  51.907  1.00  0.00    -0.000 C 
BRANCH  12  13
ATOM     13  C   UNL     1      55.316  26.113  50.406  1.00  0.00    -0.000 C 
BRANCH  13  14
ATOM     14  C   UNL     1      54.068  26.937  50.049  1.00  0.00    -0.000 C 
BRANCH  14  15
ATOM     15  C   UNL     1      54.273  28.446  50.254  1.00  0.00    -0.000 C 
BRANCH  15  16
ATOM     16  C   UNL     1      53.533  28.932  51.505  1.00  0.00    -0.003 C 
ATOM     17  C   UNL     1      53.799  30.413  51.763  1.00  0.00     0.004 C 
ENDBRANCH  15  16
ENDBRANCH  14  15
ENDBRANCH  13  14
ENDBRANCH  12  13
ENDBRANCH  11  12
ENDBRANCH  10  11
ENDBRANCH   1  10
TORSDOF 13
ENDMDL
MODEL 5
REMARK VINA RESULT:    -2.999      3.411      5.796
REMARK INTER + INTRA:          -7.499
REMARK INTER:                  -5.499
REMARK INTRA:                  -2.000
REMARK UNBOUND:                -2.221
REMARK SMILES CCCCCCCCCCCCCCC(=O)[O-]
REMARK SMILES IDX 9 1 10 2 11 3 12 4 13 5 14 6 15 7 16 8 17 9 8 10 7 11 6 12
REMARK SMILES IDX 5 13 4 14 3 15 2 16 1 17
REMARK H PARENT
REMARK Flexibility Score: inf
ROOT
ATOM      1  C   UNL     1      63.010  30.095  60.778  1.00  0.00     0.000 C 
ENDROOT
BRANCH   1   2
ATOM      2  C   UNL     1      61.956  30.300  61.876  1.00  0.00     0.000 C 
BRANCH   2   3
ATOM      3  C   UNL     1      60.760  31.100  61.347  1.00  0.00     0.000 C 
BRANCH   3   4
ATOM      4  C   UNL     1      60.076  30.367  60.185  1.00  0.00     0.000 C 
BRANCH   4   5
ATOM      5  C   UNL     1      59.158  29.222  60.650  1.00  0.00     0.006 C 
BRANCH   5   6
ATOM      6  C   UNL     1      59.332  27.918  59.852  1.00  0.00     0.053 C 
BRANCH   6   7
ATOM      7  C   UNL     1      60.683  27.298  60.041  1.00  0.00     0.041 C 
ATOM      8  O   UNL     1      61.486  27.216  59.074  1.00  0.00    -0.550 OA
ATOM      9  O   UNL     1      61.067  26.835  61.293  1.00  0.00    -0.550 OA
ENDBRANCH   6   7
ENDBRANCH   5   6
ENDBRANCH   4   5
ENDBRANCH   3   4
ENDBRANCH   2   3
ENDBRANCH   1   2
BRANCH   1  10
ATOM     10  C   UNL     1      64.294  30.899  61.032  1.00  0.00     0.000 C 
BRANCH  10  11
ATOM     11  C   UNL     1      64.894  31.482  59.740  1.00  0.00    -0.000 C 
BRANCH  11  12
ATOM     12  C   UNL     1      63.816  31.762  58.671  1.00  0.00    -0.000 C 
BRANCH  12  13
ATOM     13  C   UNL     1      63.562  33.263  58.426  1.00  0.00    -0.000 C 
BRANCH  13  14
ATOM     14  C   UNL     1      62.288  33.818  59.085  1.00  0.00    -0.000 C 
BRANCH  14  15
ATOM     15  C   UNL     1      62.479  34.131  60.576  1.00  0.00    -0.000 C 
BRANCH  15  16
ATOM     16  C   UNL     1      63.408  35.334  60.768  1.00  0.00    -0.003 C 
ATOM     17  C   UNL     1      64.670  34.941  61.530  1.00  0.00     0.004 C 
ENDBRANCH  15  16
ENDBRANCH  14  15
ENDBRANCH  13  14
ENDBRANCH  12  13
ENDBRANCH  11  12
ENDBRANCH  10  11
ENDBRANCH   1  10
TORSDOF 13
ENDMDL
MODEL 6
REMARK VINA RESULT:    -2.997      3.007      6.110
REMARK INTER + INTRA:          -7.495
REMARK INTER:                  -5.760
REMARK INTRA:                  -1.735
REMARK UNBOUND:                -2.221
REMARK SMILES CCCCCCCCCCCCCCC(=O)[O-]
REMARK SMILES IDX 9 1 10 2 11 3 12 4 13 5 14 6 15 7 16 8 17 9 8 10 7 11 6 12
REMARK SMILES IDX 5 13 4 14 3 15 2 16 1 17
REMARK H PARENT
REMARK Flexibility Score: inf
ROOT
ATOM      1  C   UNL     1      60.904  34.831  60.247  1.00  0.00     0.000 C 
ENDROOT
BRANCH   1   2
ATOM      2  C   UNL     1      60.806  33.501  59.485  1.00  0.00     0.000 C 
BRANCH   2   3
ATOM      3  C   UNL     1      61.605  32.402  60.194  1.00  0.00     0.000 C 
BRANCH   3   4
ATOM      4  C   UNL     1      60.672  31.348  60.806  1.00  0.00     0.000 C 
BRANCH   4   5
ATOM      5  C   UNL     1      61.321  30.563  61.961  1.00  0.00     0.006 C 
BRANCH   5   6
ATOM      6  C   UNL     1      62.722  30.015  61.635  1.00  0.00     0.053 C 
BRANCH   6   7
ATOM      7  C   UNL     1      62.680  28.659  61.001  1.00  0.00     0.041 C 
ATOM      8  O   UNL     1      61.837  27.804  61.381  1.00  0.00    -0.550 OA
ATOM      9  O   UNL     1      63.555  28.346  59.968  1.00  0.00    -0.550 OA
ENDBRANCH   6   7
ENDBRANCH   5   6
ENDBRANCH   4   5
ENDBRANCH   3   4
ENDBRANCH   2   3
ENDBRANCH   1   2
BRANCH   1  10
ATOM     10  C   UNL     1      61.194  36.024  59.324  1.00  0.00     0.000 C 
BRANCH  10  11
ATOM     11  C   UNL     1      62.089  37.085  59.988  1.00  0.00    -0.000 C 
BRANCH  11  12
ATOM     12  C   UNL     1      62.662  36.602  61.338  1.00  0.00    -0.000 C 
BRANCH  12  13
ATOM     13  C   UNL     1      64.196  36.724  61.439  1.00  0.00    -0.000 C 
BRANCH  13  14
ATOM     14  C   UNL     1      64.926  35.414  61.778  1.00  0.00    -0.000 C 
BRANCH  14  15
ATOM     15  C   UNL     1      64.605  34.282  60.792  1.00  0.00    -0.000 C 
BRANCH  15  16
ATOM     16  C   UNL     1      65.230  34.557  59.421  1.00  0.00    -0.003 C 
ATOM     17  C   UNL     1      64.217  34.347  58.299  1.00  0.00     0.004 C 
ENDBRANCH  15  16
ENDBRANCH  14  15
ENDBRANCH  13  14
ENDBRANCH  12  13
ENDBRANCH  11  12
ENDBRANCH  10  11
ENDBRANCH   1  10
TORSDOF 13
ENDMDL
MODEL 7
REMARK VINA RESULT:    -2.975     11.096     13.631
REMARK INTER + INTRA:          -7.457
REMARK INTER:                  -5.612
REMARK INTRA:                  -1.845
REMARK UNBOUND:                -2.221
REMARK SMILES CCCCCCCCCCCCCCC(=O)[O-]
REMARK SMILES IDX 9 1 10 2 11 3 12 4 13 5 14 6 15 7 16 8 17 9 8 10 7 11 6 12
REMARK SMILES IDX 5 13 4 14 3 15 2 16 1 17
REMARK H PARENT
REMARK Flexibility Score: inf
ROOT
ATOM      1  C   UNL     1      52.959  28.468  50.799  1.00  0.00     0.000 C 
ENDROOT
BRANCH   1   2
ATOM      2  C   UNL     1      53.360  27.015  51.095  1.00  0.00     0.000 C 
BRANCH   2   3
ATOM      3  C   UNL     1      53.431  26.192  49.804  1.00  0.00     0.000 C 
BRANCH   3   4
ATOM      4  C   UNL     1      54.828  25.582  49.616  1.00  0.00     0.000 C 
BRANCH   4   5
ATOM      5  C   UNL     1      55.624  25.479  50.930  1.00  0.00     0.006 C 
BRANCH   5   6
ATOM      6  C   UNL     1      57.148  25.591  50.747  1.00  0.00     0.053 C 
BRANCH   6   7
ATOM      7  C   UNL     1      57.871  25.832  52.037  1.00  0.00     0.041 C 
ATOM      8  O   UNL     1      59.059  25.440  52.183  1.00  0.00    -0.550 OA
ATOM      9  O   UNL     1      57.242  26.514  53.071  1.00  0.00    -0.550 OA
ENDBRANCH   6   7
ENDBRANCH   5   6
ENDBRANCH   4   5
ENDBRANCH   3   4
ENDBRANCH   2   3
ENDBRANCH   1   2
BRANCH   1  10
ATOM     10  C   UNL     1      54.154  29.341  50.389  1.00  0.00     0.000 C 
BRANCH  10  11
ATOM     11  C   UNL     1      55.394  29.102  51.269  1.00  0.00    -0.000 C 
BRANCH  11  12
ATOM     12  C   UNL     1      56.711  29.281  50.483  1.00  0.00    -0.000 C 
BRANCH  12  13
ATOM     13  C   UNL     1      57.934  29.560  51.379  1.00  0.00    -0.000 C 
BRANCH  13  14
ATOM     14  C   UNL     1      59.295  29.394  50.683  1.00  0.00    -0.000 C 
BRANCH  14  15
ATOM     15  C   UNL     1      59.218  28.510  49.430  1.00  0.00    -0.000 C 
BRANCH  15  16
ATOM     16  C   UNL     1      60.252  27.381  49.493  1.00  0.00    -0.003 C 
ATOM     17  C   UNL     1      61.594  27.890  50.013  1.00  0.00     0.004 C 
ENDBRANCH  15  16
ENDBRANCH  14  15
ENDBRANCH  13  14
ENDBRANCH  12  13
ENDBRANCH  11  12
ENDBRANCH  10  11
ENDBRANCH   1  10
TORSDOF 13
ENDMDL
MODEL 8
REMARK VINA RESULT:    -2.947      3.148      5.086
REMARK INTER + INTRA:          -7.409
REMARK INTER:                  -5.173
REMARK INTRA:                  -2.235
REMARK UNBOUND:                -2.221
REMARK SMILES CCCCCCCCCCCCCCC(=O)[O-]
REMARK SMILES IDX 9 1 10 2 11 3 12 4 13 5 14 6 15 7 16 8 17 9 8 10 7 11 6 12
REMARK SMILES IDX 5 13 4 14 3 15 2 16 1 17
REMARK H PARENT
REMARK Flexibility Score: inf
ROOT
ATOM      1  C   UNL     1      64.005  30.574  59.783  1.00  0.00     0.000 C 
ENDROOT
BRANCH   1   2
ATOM      2  C   UNL     1      63.862  30.442  61.307  1.00  0.00     0.000 C 
BRANCH   2   3
ATOM      3  C   UNL     1      62.455  29.967  61.687  1.00  0.00     0.000 C 
BRANCH   3   4
ATOM      4  C   UNL     1      61.416  31.068  61.437  1.00  0.00     0.000 C 
BRANCH   4   5
ATOM      5  C   UNL     1      60.000  30.517  61.186  1.00  0.00     0.006 C 
BRANCH   5   6
ATOM      6  C   UNL     1      59.920  29.500  60.034  1.00  0.00     0.053 C 
BRANCH   6   7
ATOM      7  C   UNL     1      59.437  28.154  60.479  1.00  0.00     0.041 C 
ATOM      8  O   UNL     1      60.180  27.143  60.370  1.00  0.00    -0.550 OA
ATOM      9  O   UNL     1      58.175  28.019  61.043  1.00  0.00    -0.550 OA
ENDBRANCH   6   7
ENDBRANCH   5   6
ENDBRANCH   4   5
ENDBRANCH   3   4
ENDBRANCH   2   3
ENDBRANCH   1   2
BRANCH   1  10
ATOM     10  C   UNL     1      64.511  31.960  59.353  1.00  0.00     0.000 C 
BRANCH  10  11
ATOM     11  C   UNL     1      64.413  33.004  60.480  1.00  0.00    -0.000 C 
BRANCH  11  12
ATOM     12  C   UNL     1      63.830  34.345  59.984  1.00  0.00    -0.000 C 
BRANCH  12  13
ATOM     13  C   UNL     1      62.644  34.854  60.826  1.00  0.00    -0.000 C 
BRANCH  13  14
ATOM     14  C   UNL     1      61.257  34.563  60.229  1.00  0.00    -0.000 C 
BRANCH  14  15
ATOM     15  C   UNL     1      61.312  34.231  58.730  1.00  0.00    -0.000 C 
BRANCH  15  16
ATOM     16  C   UNL     1      60.487  32.980  58.417  1.00  0.00    -0.003 C 
ATOM     17  C   UNL     1      61.281  31.994  57.564  1.00  0.00     0.004 C 
ENDBRANCH  15  16
ENDBRANCH  14  15
ENDBRANCH  13  14
ENDBRANCH  12  13
ENDBRANCH  11  12
ENDBRANCH  10  11
ENDBRANCH   1  10
TORSDOF 13
ENDMDL
MODEL 9
REMARK VINA RESULT:    -2.933      1.274      2.086
REMARK INTER + INTRA:          -7.384
REMARK INTER:                  -5.915
REMARK INTRA:                  -1.469
REMARK UNBOUND:                -2.221
REMARK SMILES CCCCCCCCCCCCCCC(=O)[O-]
REMARK SMILES IDX 9 1 10 2 11 3 12 4 13 5 14 6 15 7 16 8 17 9 8 10 7 11 6 12
REMARK SMILES IDX 5 13 4 14 3 15 2 16 1 17
REMARK H PARENT
REMARK Flexibility Score: inf
ROOT
ATOM      1  C   UNL     1      64.500  34.266  61.313  1.00  0.00     0.000 C 
ENDROOT
BRANCH   1   2
ATOM      2  C   UNL     1      65.175  35.513  60.723  1.00  0.00     0.000 C 
BRANCH   2   3
ATOM      3  C   UNL     1      64.131  36.554  60.302  1.00  0.00     0.000 C 
BRANCH   3   4
ATOM      4  C   UNL     1      62.955  36.586  61.287  1.00  0.00     0.000 C 
BRANCH   4   5
ATOM      5  C   UNL     1      61.582  36.570  60.590  1.00  0.00     0.006 C 
BRANCH   5   6
ATOM      6  C   UNL     1      60.945  35.173  60.497  1.00  0.00     0.053 C 
BRANCH   6   7
ATOM      7  C   UNL     1      60.839  34.676  59.088  1.00  0.00     0.041 C 
ATOM      8  O   UNL     1      61.790  34.849  58.280  1.00  0.00    -0.550 OA
ATOM      9  O   UNL     1      59.702  33.996  58.672  1.00  0.00    -0.550 OA
ENDBRANCH   6   7
ENDBRANCH   5   6
ENDBRANCH   4   5
ENDBRANCH   3   4
ENDBRANCH   2   3
ENDBRANCH   1   2
BRANCH   1  10
ATOM     10  C   UNL     1      64.423  33.104  60.312  1.00  0.00     0.000 C 
BRANCH  10  11
ATOM     11  C   UNL     1      63.177  32.224  60.518  1.00  0.00    -0.000 C 
BRANCH  11  12
ATOM     12  C   UNL     1      63.538  30.813  61.030  1.00  0.00    -0.000 C 
BRANCH  12  13
ATOM     13  C   UNL     1      62.361  30.080  61.705  1.00  0.00    -0.000 C 
BRANCH  13  14
ATOM     14  C   UNL     1      61.032  30.854  61.704  1.00  0.00    -0.000 C 
BRANCH  14  15
ATOM     15  C   UNL     1      59.953  30.181  60.842  1.00  0.00    -0.000 C 
BRANCH  15  16
ATOM     16  C   UNL     1      60.126  30.548  59.365  1.00  0.00    -0.003 C 
ATOM     17  C   UNL     1      58.951  30.046  58.530  1.00  0.00     0.004 C 
ENDBRANCH  15  16
ENDBRANCH  14  15
ENDBRANCH  13  14
ENDBRANCH  12  13
ENDBRANCH  11  12
ENDBRANCH  10  11
ENDBRANCH   1  10
TORSDOF 13
ENDMDL
