MODEL 1
REMARK VINA RESULT:    -3.928      0.000      0.000
REMARK INTER + INTRA:          -4.594
REMARK INTER:                  -4.387
REMARK INTRA:                  -0.207
REMARK UNBOUND:                -0.207
REMARK SMILES CC(C)c1ccc(C(=O)[O-])cc1
REMARK SMILES IDX 7 1 6 2 11 3 5 4 12 5 4 6 8 7 9 8 10 9 2 10 1 11 3 12
REMARK H PARENT
REMARK Flexibility Score: inf
ROOT
ATOM      1  C   UNL     1       4.958 -36.448  19.889  1.00  0.00    -0.003 A 
ATOM      2  C   UNL     1       4.129 -37.512  19.495  1.00  0.00     0.010 A 
ATOM      3  C   UNL     1       5.159 -35.377  19.002  1.00  0.00     0.010 A 
ATOM      4  C   UNL     1       3.514 -37.504  18.240  1.00  0.00     0.004 A 
ATOM      5  C   UNL     1       4.543 -35.370  17.746  1.00  0.00     0.004 A 
ATOM      6  C   UNL     1       3.715 -36.433  17.351  1.00  0.00    -0.045 A 
ENDROOT
BRANCH   1   7
ATOM      7  C   UNL     1       5.611 -36.451  21.216  1.00  0.00     0.071 C 
ATOM      8  O   UNL     1       6.068 -35.384  21.708  1.00  0.00    -0.545 OA
ATOM      9  O   UNL     1       5.732 -37.631  21.940  1.00  0.00    -0.545 OA
ENDBRANCH   1   7
BRANCH   6  10
ATOM     10  C   UNL     1       3.054 -36.413  15.985  1.00  0.00     0.013 C 
ATOM     11  C   UNL     1       3.550 -37.572  15.113  1.00  0.00     0.012 C 
ATOM     12  C   UNL     1       1.526 -36.431  16.111  1.00  0.00     0.012 C 
ENDBRANCH   6  10
TORSDOF 2
ENDMDL
MODEL 2
REMARK VINA RESULT:    -3.923      0.038      1.398
REMARK INTER + INTRA:          -4.589
REMARK INTER:                  -4.379
REMARK INTRA:                  -0.210
REMARK UNBOUND:                -0.207
REMARK SMILES CC(C)c1ccc(C(=O)[O-])cc1
REMARK SMILES IDX 7 1 6 2 11 3 5 4 12 5 4 6 8 7 9 8 10 9 2 10 1 11 3 12
REMARK H PARENT
REMARK Flexibility Score: inf
ROOT
ATOM      1  C   UNL     1       4.954 -36.453  19.896  1.00  0.00    -0.003 A 
ATOM      2  C   UNL     1       5.174 -35.383  19.011  1.00  0.00     0.010 A 
ATOM      3  C   UNL     1       4.112 -37.504  19.497  1.00  0.00     0.010 A 
ATOM      4  C   UNL     1       4.564 -35.367  17.754  1.00  0.00     0.004 A 
ATOM      5  C   UNL     1       3.502 -37.487  18.239  1.00  0.00     0.004 A 
ATOM      6  C   UNL     1       3.721 -36.419  17.353  1.00  0.00    -0.045 A 
ENDROOT
BRANCH   1   7
ATOM      7  C   UNL     1       5.597 -36.475  21.228  1.00  0.00     0.071 C 
ATOM      8  O   UNL     1       6.018 -35.411  21.755  1.00  0.00    -0.545 OA
ATOM      9  O   UNL     1       5.747 -37.672  21.918  1.00  0.00    -0.545 OA
ENDBRANCH   1   7
BRANCH   6  10
ATOM     10  C   UNL     1       3.052 -36.413  15.991  1.00  0.00     0.013 C 
ATOM     11  C   UNL     1       3.509 -37.608  15.145  1.00  0.00     0.012 C 
ATOM     12  C   UNL     1       1.526 -36.384  16.125  1.00  0.00     0.012 C 
ENDBRANCH   6  10
TORSDOF 2
ENDMDL
MODEL 3
REMARK VINA RESULT:    -3.363      3.047      5.248
REMARK INTER + INTRA:          -3.964
REMARK INTER:                  -3.757
REMARK INTRA:                  -0.206
REMARK UNBOUND:                -0.207
REMARK SMILES CC(C)c1ccc(C(=O)[O-])cc1
REMARK SMILES IDX 7 1 6 2 11 3 5 4 12 5 4 6 8 7 9 8 10 9 2 10 1 11 3 12
REMARK H PARENT
REMARK Flexibility Score: inf
ROOT
ATOM      1  C   UNL     1       3.591 -36.468  17.398  1.00  0.00    -0.003 A 
ATOM      2  C   UNL     1       4.430 -35.391  17.734  1.00  0.00     0.010 A 
ATOM      3  C   UNL     1       3.433 -37.520  18.316  1.00  0.00     0.010 A 
ATOM      4  C   UNL     1       5.096 -35.369  18.962  1.00  0.00     0.004 A 
ATOM      5  C   UNL     1       4.100 -37.496  19.545  1.00  0.00     0.004 A 
ATOM      6  C   UNL     1       4.939 -36.421  19.882  1.00  0.00    -0.045 A 
ENDROOT
BRANCH   1   7
ATOM      7  C   UNL     1       2.883 -36.498  16.100  1.00  0.00     0.071 C 
ATOM      8  O   UNL     1       1.660 -36.202  16.030  1.00  0.00    -0.545 OA
ATOM      9  O   UNL     1       3.556 -36.854  14.938  1.00  0.00    -0.545 OA
ENDBRANCH   1   7
BRANCH   6  10
ATOM     10  C   UNL     1       5.658 -36.409  21.218  1.00  0.00     0.013 C 
ATOM     11  C   UNL     1       5.072 -35.342  22.151  1.00  0.00     0.012 C 
ATOM     12  C   UNL     1       5.626 -37.793  21.875  1.00  0.00     0.012 C 
ENDBRANCH   6  10
TORSDOF 2
ENDMDL
MODEL 4
REMARK VINA RESULT:    -2.706      1.564      2.428
REMARK INTER + INTRA:          -3.229
REMARK INTER:                  -3.018
REMARK INTRA:                  -0.211
REMARK UNBOUND:                -0.207
REMARK SMILES CC(C)c1ccc(C(=O)[O-])cc1
REMARK SMILES IDX 7 1 6 2 11 3 5 4 12 5 4 6 8 7 9 8 10 9 2 10 1 11 3 12
REMARK H PARENT
REMARK Flexibility Score: inf
ROOT
ATOM      1  C   UNL     1       5.288 -36.214  21.955  1.00  0.00    -0.003 A 
ATOM      2  C   UNL     1       5.326 -37.572  21.592  1.00  0.00     0.010 A 
ATOM      3  C   UNL     1       4.699 -35.291  21.076  1.00  0.00     0.010 A 
ATOM      4  C   UNL     1       4.785 -37.995  20.375  1.00  0.00     0.004 A 
ATOM      5  C   UNL     1       4.157 -35.716  19.858  1.00  0.00     0.004 A 
ATOM      6  C   UNL     1       4.194 -37.072  19.494  1.00  0.00    -0.045 A 
ENDROOT
BRANCH   1   7
ATOM      7  C   UNL     1       5.859 -35.760  23.242  1.00  0.00     0.071 C 
ATOM      8  O   UNL     1       6.114 -34.542  23.436  1.00  0.00    -0.545 OA
ATOM      9  O   UNL     1       6.125 -36.673  24.256  1.00  0.00    -0.545 OA
ENDBRANCH   1   7
BRANCH   6  10
ATOM     10  C   UNL     1       3.604 -37.518  18.169  1.00  0.00     0.013 C 
ATOM     11  C   UNL     1       2.126 -37.897  18.322  1.00  0.00     0.012 C 
ATOM     12  C   UNL     1       3.790 -36.444  17.092  1.00  0.00     0.012 C 
ENDBRANCH   6  10
TORSDOF 2
ENDMDL
MODEL 5
REMARK VINA RESULT:    -2.699      2.757      5.638
REMARK INTER + INTRA:          -3.221
REMARK INTER:                  -3.009
REMARK INTRA:                  -0.212
REMARK UNBOUND:                -0.207
REMARK SMILES CC(C)c1ccc(C(=O)[O-])cc1
REMARK SMILES IDX 7 1 6 2 11 3 5 4 12 5 4 6 8 7 9 8 10 9 2 10 1 11 3 12
REMARK H PARENT
REMARK Flexibility Score: inf
ROOT
ATOM      1  C   UNL     1       4.153 -37.002  19.871  1.00  0.00    -0.003 A 
ATOM      2  C   UNL     1       4.737 -37.995  20.678  1.00  0.00     0.010 A 
ATOM      3  C   UNL     1       4.219 -35.662  20.285  1.00  0.00     0.010 A 
ATOM      4  C   UNL     1       5.372 -37.651  21.874  1.00  0.00     0.004 A 
ATOM      5  C   UNL     1       4.855 -35.320  21.483  1.00  0.00     0.004 A 
ATOM      6  C   UNL     1       5.438 -36.309  22.290  1.00  0.00    -0.045 A 
ENDROOT
BRANCH   1   7
ATOM      7  C   UNL     1       3.479 -37.360  18.603  1.00  0.00     0.071 C 
ATOM      8  O   UNL     1       2.665 -38.321  18.559  1.00  0.00    -0.545 OA
ATOM      9  O   UNL     1       3.735 -36.641  17.442  1.00  0.00    -0.545 OA
ENDBRANCH   1   7
BRANCH   6  10
ATOM     10  C   UNL     1       6.125 -35.924  23.588  1.00  0.00     0.013 C 
ATOM     11  C   UNL     1       6.119 -34.403  23.786  1.00  0.00     0.012 C 
ATOM     12  C   UNL     1       5.487 -36.639  24.784  1.00  0.00     0.012 C 
ENDBRANCH   6  10
TORSDOF 2
ENDMDL
MODEL 6
REMARK VINA RESULT:    -2.067      2.538      4.175
REMARK INTER + INTRA:          -2.516
REMARK INTER:                  -2.310
REMARK INTRA:                  -0.206
REMARK UNBOUND:                -0.207
REMARK SMILES CC(C)c1ccc(C(=O)[O-])cc1
REMARK SMILES IDX 7 1 6 2 11 3 5 4 12 5 4 6 8 7 9 8 10 9 2 10 1 11 3 12
REMARK H PARENT
REMARK Flexibility Score: inf
ROOT
ATOM      1  C   UNL     1       5.461 -36.385  23.683  1.00  0.00    -0.003 A 
ATOM      2  C   UNL     1       5.001 -35.252  22.990  1.00  0.00     0.010 A 
ATOM      3  C   UNL     1       5.830 -37.526  22.952  1.00  0.00     0.010 A 
ATOM      4  C   UNL     1       4.913 -35.261  21.595  1.00  0.00     0.004 A 
ATOM      5  C   UNL     1       5.743 -37.534  21.556  1.00  0.00     0.004 A 
ATOM      6  C   UNL     1       5.284 -36.403  20.862  1.00  0.00    -0.045 A 
ENDROOT
BRANCH   1   7
ATOM      7  C   UNL     1       5.555 -36.381  25.159  1.00  0.00     0.071 C 
ATOM      8  O   UNL     1       6.125 -35.432  25.762  1.00  0.00    -0.545 OA
ATOM      9  O   UNL     1       5.018 -37.425  25.903  1.00  0.00    -0.545 OA
ENDBRANCH   1   7
BRANCH   6  10
ATOM     10  C   UNL     1       5.193 -36.426  19.348  1.00  0.00     0.013 C 
ATOM     11  C   UNL     1       3.897 -37.101  18.882  1.00  0.00     0.012 C 
ATOM     12  C   UNL     1       5.320 -35.014  18.766  1.00  0.00     0.012 C 
ENDBRANCH   6  10
TORSDOF 2
ENDMDL
MODEL 7
REMARK VINA RESULT:    -1.492      2.828      5.587
REMARK INTER + INTRA:          -1.874
REMARK INTER:                  -1.653
REMARK INTRA:                  -0.220
REMARK UNBOUND:                -0.207
REMARK SMILES CC(C)c1ccc(C(=O)[O-])cc1
REMARK SMILES IDX 7 1 6 2 11 3 5 4 12 5 4 6 8 7 9 8 10 9 2 10 1 11 3 12
REMARK H PARENT
REMARK Flexibility Score: inf
ROOT
ATOM      1  C   UNL     1       5.166 -36.037  19.770  1.00  0.00    -0.003 A 
ATOM      2  C   UNL     1       5.015 -37.418  19.986  1.00  0.00     0.010 A 
ATOM      3  C   UNL     1       5.627 -35.231  20.823  1.00  0.00     0.010 A 
ATOM      4  C   UNL     1       5.319 -37.978  21.229  1.00  0.00     0.004 A 
ATOM      5  C   UNL     1       5.932 -35.792  22.067  1.00  0.00     0.004 A 
ATOM      6  C   UNL     1       5.781 -37.172  22.285  1.00  0.00    -0.045 A 
ENDROOT
BRANCH   1   7
ATOM      7  C   UNL     1       4.845 -35.438  18.456  1.00  0.00     0.071 C 
ATOM      8  O   UNL     1       4.149 -36.070  17.617  1.00  0.00    -0.545 OA
ATOM      9  O   UNL     1       5.309 -34.170  18.127  1.00  0.00    -0.545 OA
ENDBRANCH   1   7
BRANCH   6  10
ATOM     10  C   UNL     1       6.114 -37.768  23.640  1.00  0.00     0.013 C 
ATOM     11  C   UNL     1       5.786 -36.786  24.772  1.00  0.00     0.012 C 
ATOM     12  C   UNL     1       5.398 -39.107  23.845  1.00  0.00     0.012 C 
ENDBRANCH   6  10
TORSDOF 2
ENDMDL
