MODEL 1
REMARK VINA RESULT:    13.279      0.000      0.000
REMARK INTER + INTRA:          34.498
REMARK INTER:                  33.461
REMARK INTRA:                   1.037
REMARK UNBOUND:                 1.037
REMARK SMILES CCCCCCCCCCCCCCCCCCCCCCCCCCCC(=O)[O-]
REMARK SMILES IDX 15 1 16 2 17 3 18 4 19 5 20 6 21 7 22 8 23 9 24 10 25 11
REMARK SMILES IDX 26 12 27 13 28 14 29 15 30 16 14 17 13 18 12 19 11 20 10 21
REMARK SMILES IDX 9 22 8 23 7 24 6 25 5 26 4 27 3 28 2 29 1 30
REMARK H PARENT
REMARK Flexibility Score: inf
ROOT
ATOM      1  C   UNL     1      17.359 -18.483  25.634  1.00  0.00     0.000 C 
ENDROOT
BRANCH   1   2
ATOM      2  C   UNL     1      16.540 -19.515  26.429  1.00  0.00     0.000 C 
BRANCH   2   3
ATOM      3  C   UNL     1      16.524 -19.217  27.938  1.00  0.00     0.000 C 
BRANCH   3   4
ATOM      4  C   UNL     1      17.873 -18.684  28.454  1.00  0.00     0.000 C 
BRANCH   4   5
ATOM      5  C   UNL     1      19.040 -19.639  28.159  1.00  0.00     0.000 C 
BRANCH   5   6
ATOM      6  C   UNL     1      19.331 -19.769  26.654  1.00  0.00     0.000 C 
BRANCH   6   7
ATOM      7  C   UNL     1      20.838 -19.805  26.349  1.00  0.00     0.000 C 
BRANCH   7   8
ATOM      8  C   UNL     1      21.198 -20.875  25.303  1.00  0.00     0.000 C 
BRANCH   8   9
ATOM      9  C   UNL     1      22.715 -21.010  25.092  1.00  0.00     0.000 C 
BRANCH   9  10
ATOM     10  C   UNL     1      23.138 -20.762  23.637  1.00  0.00     0.000 C 
BRANCH  10  11
ATOM     11  C   UNL     1      24.331 -21.651  23.252  1.00  0.00     0.000 C 
BRANCH  11  12
ATOM     12  C   UNL     1      24.637 -22.730  24.307  1.00  0.00     0.006 C 
BRANCH  12  13
ATOM     13  C   UNL     1      26.131 -22.901  24.624  1.00  0.00     0.053 C 
BRANCH  13  14
ATOM     14  C   UNL     1      26.394 -22.909  26.099  1.00  0.00     0.041 C 
ATOM     15  O   UNL     1      27.444 -23.436  26.552  1.00  0.00    -0.550 OA
ATOM     16  O   UNL     1      25.459 -22.373  26.975  1.00  0.00    -0.550 OA
ENDBRANCH  13  14
ENDBRANCH  12  13
ENDBRANCH  11  12
ENDBRANCH  10  11
ENDBRANCH   9  10
ENDBRANCH   8   9
ENDBRANCH   7   8
ENDBRANCH   6   7
ENDBRANCH   5   6
ENDBRANCH   4   5
ENDBRANCH   3   4
ENDBRANCH   2   3
ENDBRANCH   1   2
BRANCH   1  17
ATOM     17  C   UNL     1      17.922 -19.052  24.319  1.00  0.00     0.000 C 
BRANCH  17  18
ATOM     18  C   UNL     1      16.873 -19.363  23.231  1.00  0.00     0.000 C 
BRANCH  18  19
ATOM     19  C   UNL     1      17.168 -20.599  22.363  1.00  0.00     0.000 C 
BRANCH  19  20
ATOM     20  C   UNL     1      16.231 -21.781  22.668  1.00  0.00     0.000 C 
BRANCH  20  21
ATOM     21  C   UNL     1      16.272 -22.872  21.582  1.00  0.00     0.000 C 
BRANCH  21  22
ATOM     22  C   UNL     1      17.662 -23.486  21.316  1.00  0.00    -0.000 C 
BRANCH  22  23
ATOM     23  C   UNL     1      17.705 -24.533  20.188  1.00  0.00    -0.000 C 
BRANCH  23  24
ATOM     24  C   UNL     1      18.127 -23.930  18.837  1.00  0.00    -0.000 C 
BRANCH  24  25
ATOM     25  C   UNL     1      18.798 -22.556  18.988  1.00  0.00    -0.000 C 
BRANCH  25  26
ATOM     26  C   UNL     1      18.039 -21.442  18.245  1.00  0.00    -0.000 C 
BRANCH  26  27
ATOM     27  C   UNL     1      18.316 -21.459  16.726  1.00  0.00    -0.000 C 
BRANCH  27  28
ATOM     28  C   UNL     1      17.776 -20.221  15.984  1.00  0.00    -0.000 C 
BRANCH  28  29
ATOM     29  C   UNL     1      17.836 -20.313  14.451  1.00  0.00    -0.003 C 
ATOM     30  C   UNL     1      17.533 -18.982  13.762  1.00  0.00     0.004 C 
ENDBRANCH  28  29
ENDBRANCH  27  28
ENDBRANCH  26  27
ENDBRANCH  25  26
ENDBRANCH  24  25
ENDBRANCH  23  24
ENDBRANCH  22  23
ENDBRANCH  21  22
ENDBRANCH  20  21
ENDBRANCH  19  20
ENDBRANCH  18  19
ENDBRANCH  17  18
ENDBRANCH   1  17
TORSDOF 26
ENDMDL
MODEL 2
REMARK VINA RESULT:    13.701      3.694      8.268
REMARK INTER + INTRA:          35.564
REMARK INTER:                  35.867
REMARK INTRA:                  -0.303
REMARK UNBOUND:                 1.037
REMARK SMILES CCCCCCCCCCCCCCCCCCCCCCCCCCCC(=O)[O-]
REMARK SMILES IDX 15 1 16 2 17 3 18 4 19 5 20 6 21 7 22 8 23 9 24 10 25 11
REMARK SMILES IDX 26 12 27 13 28 14 29 15 30 16 14 17 13 18 12 19 11 20 10 21
REMARK SMILES IDX 9 22 8 23 7 24 6 25 5 26 4 27 3 28 2 29 1 30
REMARK H PARENT
REMARK Flexibility Score: inf
ROOT
ATOM      1  C   UNL     1      18.464 -19.067  29.606  1.00  0.00     0.000 C 
ENDROOT
BRANCH   1   2
ATOM      2  C   UNL     1      17.126 -18.328  29.789  1.00  0.00     0.000 C 
BRANCH   2   3
ATOM      3  C   UNL     1      16.232 -18.411  28.541  1.00  0.00     0.000 C 
BRANCH   3   4
ATOM      4  C   UNL     1      15.927 -19.861  28.123  1.00  0.00     0.000 C 
BRANCH   4   5
ATOM      5  C   UNL     1      16.341 -20.160  26.674  1.00  0.00     0.000 C 
BRANCH   5   6
ATOM      6  C   UNL     1      16.629 -18.882  25.866  1.00  0.00     0.000 C 
BRANCH   6   7
ATOM      7  C   UNL     1      18.049 -18.869  25.276  1.00  0.00     0.000 C 
BRANCH   7   8
ATOM      8  C   UNL     1      18.057 -19.152  23.764  1.00  0.00     0.000 C 
BRANCH   8   9
ATOM      9  C   UNL     1      16.648 -19.397  23.200  1.00  0.00     0.000 C 
BRANCH   9  10
ATOM     10  C   UNL     1      16.303 -20.889  23.087  1.00  0.00     0.000 C 
BRANCH  10  11
ATOM     11  C   UNL     1      17.239 -21.596  22.094  1.00  0.00     0.000 C 
BRANCH  11  12
ATOM     12  C   UNL     1      16.630 -22.884  21.510  1.00  0.00     0.006 C 
BRANCH  12  13
ATOM     13  C   UNL     1      17.665 -23.930  21.068  1.00  0.00     0.053 C 
BRANCH  13  14
ATOM     14  C   UNL     1      18.075 -23.745  19.638  1.00  0.00     0.041 C 
ATOM     15  O   UNL     1      18.203 -24.743  18.882  1.00  0.00    -0.550 OA
ATOM     16  O   UNL     1      18.356 -22.474  19.155  1.00  0.00    -0.550 OA
ENDBRANCH  13  14
ENDBRANCH  12  13
ENDBRANCH  11  12
ENDBRANCH  10  11
ENDBRANCH   9  10
ENDBRANCH   8   9
ENDBRANCH   7   8
ENDBRANCH   6   7
ENDBRANCH   5   6
ENDBRANCH   4   5
ENDBRANCH   3   4
ENDBRANCH   2   3
ENDBRANCH   1   2
BRANCH   1  17
ATOM     17  C   UNL     1      19.117 -18.791  28.240  1.00  0.00     0.000 C 
BRANCH  17  18
ATOM     18  C   UNL     1      19.656 -20.034  27.502  1.00  0.00     0.000 C 
BRANCH  18  19
ATOM     19  C   UNL     1      20.889 -19.792  26.614  1.00  0.00     0.000 C 
BRANCH  19  20
ATOM     20  C   UNL     1      20.969 -20.761  25.422  1.00  0.00     0.000 C 
BRANCH  20  21
ATOM     21  C   UNL     1      22.336 -21.461  25.310  1.00  0.00     0.000 C 
BRANCH  21  22
ATOM     22  C   UNL     1      23.509 -20.551  24.890  1.00  0.00    -0.000 C 
BRANCH  22  23
ATOM     23  C   UNL     1      23.712 -20.413  23.371  1.00  0.00    -0.000 C 
BRANCH  23  24
ATOM     24  C   UNL     1      23.741 -21.773  22.651  1.00  0.00    -0.000 C 
BRANCH  24  25
ATOM     25  C   UNL     1      24.299 -22.897  23.537  1.00  0.00    -0.000 C 
BRANCH  25  26
ATOM     26  C   UNL     1      25.814 -22.768  23.772  1.00  0.00    -0.000 C 
BRANCH  26  27
ATOM     27  C   UNL     1      26.352 -23.851  24.732  1.00  0.00    -0.000 C 
BRANCH  27  28
ATOM     28  C   UNL     1      27.217 -23.289  25.877  1.00  0.00    -0.000 C 
BRANCH  28  29
ATOM     29  C   UNL     1      26.498 -23.179  27.232  1.00  0.00    -0.003 C 
ATOM     30  C   UNL     1      25.347 -22.173  27.216  1.00  0.00     0.004 C 
ENDBRANCH  28  29
ENDBRANCH  27  28
ENDBRANCH  26  27
ENDBRANCH  25  26
ENDBRANCH  24  25
ENDBRANCH  23  24
ENDBRANCH  22  23
ENDBRANCH  21  22
ENDBRANCH  20  21
ENDBRANCH  19  20
ENDBRANCH  18  19
ENDBRANCH  17  18
ENDBRANCH   1  17
TORSDOF 26
ENDMDL
MODEL 3
REMARK VINA RESULT:    13.766      1.777      3.908
REMARK INTER + INTRA:          35.728
REMARK INTER:                  35.121
REMARK INTRA:                   0.607
REMARK UNBOUND:                 1.037
REMARK SMILES CCCCCCCCCCCCCCCCCCCCCCCCCCCC(=O)[O-]
REMARK SMILES IDX 15 1 16 2 17 3 18 4 19 5 20 6 21 7 22 8 23 9 24 10 25 11
REMARK SMILES IDX 26 12 27 13 28 14 29 15 30 16 14 17 13 18 12 19 11 20 10 21
REMARK SMILES IDX 9 22 8 23 7 24 6 25 5 26 4 27 3 28 2 29 1 30
REMARK H PARENT
REMARK Flexibility Score: inf
ROOT
ATOM      1  C   UNL     1      16.888 -20.585  28.266  1.00  0.00     0.000 C 
ENDROOT
BRANCH   1   2
ATOM      2  C   UNL     1      18.341 -20.106  28.439  1.00  0.00     0.000 C 
BRANCH   2   3
ATOM      3  C   UNL     1      19.176 -20.283  27.160  1.00  0.00     0.000 C 
BRANCH   3   4
ATOM      4  C   UNL     1      20.360 -19.302  27.082  1.00  0.00     0.000 C 
BRANCH   4   5
ATOM      5  C   UNL     1      21.588 -19.910  26.387  1.00  0.00     0.000 C 
BRANCH   5   6
ATOM      6  C   UNL     1      21.290 -21.282  25.755  1.00  0.00     0.000 C 
BRANCH   6   7
ATOM      7  C   UNL     1      21.700 -21.346  24.274  1.00  0.00     0.000 C 
BRANCH   7   8
ATOM      8  C   UNL     1      22.542 -20.131  23.846  1.00  0.00     0.000 C 
BRANCH   8   9
ATOM      9  C   UNL     1      23.927 -20.530  23.313  1.00  0.00     0.000 C 
BRANCH   9  10
ATOM     10  C   UNL     1      24.091 -22.049  23.158  1.00  0.00     0.000 C 
BRANCH  10  11
ATOM     11  C   UNL     1      24.963 -22.625  24.284  1.00  0.00     0.000 C 
BRANCH  11  12
ATOM     12  C   UNL     1      24.879 -21.806  25.585  1.00  0.00     0.006 C 
BRANCH  12  13
ATOM     13  C   UNL     1      25.707 -22.377  26.748  1.00  0.00     0.053 C 
BRANCH  13  14
ATOM     14  C   UNL     1      26.848 -23.219  26.264  1.00  0.00     0.041 C 
ATOM     15  O   UNL     1      26.699 -23.975  25.268  1.00  0.00    -0.550 OA
ATOM     16  O   UNL     1      28.061 -23.200  26.939  1.00  0.00    -0.550 OA
ENDBRANCH  13  14
ENDBRANCH  12  13
ENDBRANCH  11  12
ENDBRANCH  10  11
ENDBRANCH   9  10
ENDBRANCH   8   9
ENDBRANCH   7   8
ENDBRANCH   6   7
ENDBRANCH   5   6
ENDBRANCH   4   5
ENDBRANCH   3   4
ENDBRANCH   2   3
ENDBRANCH   1   2
BRANCH   1  17
ATOM     17  C   UNL     1      15.877 -19.425  28.232  1.00  0.00     0.000 C 
BRANCH  17  18
ATOM     18  C   UNL     1      16.493 -18.010  28.257  1.00  0.00     0.000 C 
BRANCH  18  19
ATOM     19  C   UNL     1      17.180 -17.566  26.954  1.00  0.00     0.000 C 
BRANCH  19  20
ATOM     20  C   UNL     1      16.990 -18.570  25.805  1.00  0.00     0.000 C 
BRANCH  20  21
ATOM     21  C   UNL     1      18.241 -18.708  24.917  1.00  0.00     0.000 C 
BRANCH  21  22
ATOM     22  C   UNL     1      18.018 -19.428  23.571  1.00  0.00    -0.000 C 
BRANCH  22  23
ATOM     23  C   UNL     1      16.550 -19.522  23.120  1.00  0.00    -0.000 C 
BRANCH  23  24
ATOM     24  C   UNL     1      16.321 -20.624  22.071  1.00  0.00    -0.000 C 
BRANCH  24  25
ATOM     25  C   UNL     1      17.329 -21.777  22.198  1.00  0.00    -0.000 C 
BRANCH  25  26
ATOM     26  C   UNL     1      16.705 -23.145  21.874  1.00  0.00    -0.000 C 
BRANCH  26  27
ATOM     27  C   UNL     1      17.721 -24.115  21.232  1.00  0.00    -0.000 C 
BRANCH  27  28
ATOM     28  C   UNL     1      17.642 -24.166  19.694  1.00  0.00    -0.000 C 
BRANCH  28  29
ATOM     29  C   UNL     1      18.837 -23.530  18.966  1.00  0.00    -0.003 C 
ATOM     30  C   UNL     1      18.595 -22.068  18.589  1.00  0.00     0.004 C 
ENDBRANCH  28  29
ENDBRANCH  27  28
ENDBRANCH  26  27
ENDBRANCH  25  26
ENDBRANCH  24  25
ENDBRANCH  23  24
ENDBRANCH  22  23
ENDBRANCH  21  22
ENDBRANCH  20  21
ENDBRANCH  19  20
ENDBRANCH  18  19
ENDBRANCH  17  18
ENDBRANCH   1  17
TORSDOF 26
ENDMDL
MODEL 4
REMARK VINA RESULT:    14.294      3.640      7.917
REMARK INTER + INTRA:          37.057
REMARK INTER:                  36.767
REMARK INTRA:                   0.290
REMARK UNBOUND:                 1.037
REMARK SMILES CCCCCCCCCCCCCCCCCCCCCCCCCCCC(=O)[O-]
REMARK SMILES IDX 15 1 16 2 17 3 18 4 19 5 20 6 21 7 22 8 23 9 24 10 25 11
REMARK SMILES IDX 26 12 27 13 28 14 29 15 30 16 14 17 13 18 12 19 11 20 10 21
REMARK SMILES IDX 9 22 8 23 7 24 6 25 5 26 4 27 3 28 2 29 1 30
REMARK H PARENT
REMARK Flexibility Score: inf
ROOT
ATOM      1  C   UNL     1      18.506 -19.115  29.565  1.00  0.00     0.000 C 
ENDROOT
BRANCH   1   2
ATOM      2  C   UNL     1      17.187 -18.354  29.786  1.00  0.00     0.000 C 
BRANCH   2   3
ATOM      3  C   UNL     1      16.299 -18.337  28.531  1.00  0.00     0.000 C 
BRANCH   3   4
ATOM      4  C   UNL     1      15.990 -19.749  28.001  1.00  0.00     0.000 C 
BRANCH   4   5
ATOM      5  C   UNL     1      16.338 -19.913  26.513  1.00  0.00     0.000 C 
BRANCH   5   6
ATOM      6  C   UNL     1      17.253 -18.790  25.994  1.00  0.00     0.000 C 
BRANCH   6   7
ATOM      7  C   UNL     1      17.241 -18.688  24.459  1.00  0.00     0.000 C 
BRANCH   7   8
ATOM      8  C   UNL     1      18.085 -19.788  23.792  1.00  0.00     0.000 C 
BRANCH   8   9
ATOM      9  C   UNL     1      17.458 -20.308  22.489  1.00  0.00     0.000 C 
BRANCH   9  10
ATOM     10  C   UNL     1      16.179 -21.124  22.728  1.00  0.00     0.000 C 
BRANCH  10  11
ATOM     11  C   UNL     1      16.298 -22.525  22.109  1.00  0.00     0.000 C 
BRANCH  11  12
ATOM     12  C   UNL     1      17.715 -22.833  21.593  1.00  0.00     0.006 C 
BRANCH  12  13
ATOM     13  C   UNL     1      17.835 -24.157  20.821  1.00  0.00     0.053 C 
BRANCH  13  14
ATOM     14  C   UNL     1      18.066 -23.933  19.357  1.00  0.00     0.041 C 
ATOM     15  O   UNL     1      18.800 -22.986  18.969  1.00  0.00    -0.550 OA
ATOM     16  O   UNL     1      17.437 -24.745  18.422  1.00  0.00    -0.550 OA
ENDBRANCH  13  14
ENDBRANCH  12  13
ENDBRANCH  11  12
ENDBRANCH  10  11
ENDBRANCH   9  10
ENDBRANCH   8   9
ENDBRANCH   7   8
ENDBRANCH   6   7
ENDBRANCH   5   6
ENDBRANCH   4   5
ENDBRANCH   3   4
ENDBRANCH   2   3
ENDBRANCH   1   2
BRANCH   1  17
ATOM     17  C   UNL     1      19.161 -18.793  28.209  1.00  0.00     0.000 C 
BRANCH  17  18
ATOM     18  C   UNL     1      19.626 -20.017  27.393  1.00  0.00     0.000 C 
BRANCH  18  19
ATOM     19  C   UNL     1      20.797 -19.760  26.428  1.00  0.00     0.000 C 
BRANCH  19  20
ATOM     20  C   UNL     1      21.012 -20.909  25.429  1.00  0.00     0.000 C 
BRANCH  20  21
ATOM     21  C   UNL     1      21.977 -21.988  25.955  1.00  0.00     0.000 C 
BRANCH  21  22
ATOM     22  C   UNL     1      22.901 -21.540  27.107  1.00  0.00    -0.000 C 
BRANCH  22  23
ATOM     23  C   UNL     1      23.731 -22.666  27.749  1.00  0.00    -0.000 C 
BRANCH  23  24
ATOM     24  C   UNL     1      25.240 -22.363  27.749  1.00  0.00    -0.000 C 
BRANCH  24  25
ATOM     25  C   UNL     1      25.915 -22.732  26.419  1.00  0.00    -0.000 C 
BRANCH  25  26
ATOM     26  C   UNL     1      25.439 -21.852  25.250  1.00  0.00    -0.000 C 
BRANCH  26  27
ATOM     27  C   UNL     1      25.468 -22.604  23.902  1.00  0.00    -0.000 C 
BRANCH  27  28
ATOM     28  C   UNL     1      24.187 -22.425  23.064  1.00  0.00    -0.000 C 
BRANCH  28  29
ATOM     29  C   UNL     1      23.322 -21.219  23.463  1.00  0.00    -0.003 C 
ATOM     30  C   UNL     1      24.137 -19.942  23.665  1.00  0.00     0.004 C 
ENDBRANCH  28  29
ENDBRANCH  27  28
ENDBRANCH  26  27
ENDBRANCH  25  26
ENDBRANCH  24  25
ENDBRANCH  23  24
ENDBRANCH  22  23
ENDBRANCH  21  22
ENDBRANCH  20  21
ENDBRANCH  19  20
ENDBRANCH  18  19
ENDBRANCH  17  18
ENDBRANCH   1  17
TORSDOF 26
ENDMDL
MODEL 5
REMARK VINA RESULT:    14.499      0.928      1.539
REMARK INTER + INTRA:          37.574
REMARK INTER:                  37.471
REMARK INTRA:                   0.103
REMARK UNBOUND:                 1.037
REMARK SMILES CCCCCCCCCCCCCCCCCCCCCCCCCCCC(=O)[O-]
REMARK SMILES IDX 15 1 16 2 17 3 18 4 19 5 20 6 21 7 22 8 23 9 24 10 25 11
REMARK SMILES IDX 26 12 27 13 28 14 29 15 30 16 14 17 13 18 12 19 11 20 10 21
REMARK SMILES IDX 9 22 8 23 7 24 6 25 5 26 4 27 3 28 2 29 1 30
REMARK H PARENT
REMARK Flexibility Score: inf
ROOT
ATOM      1  C   UNL     1      17.776 -18.743  24.229  1.00  0.00     0.000 C 
ENDROOT
BRANCH   1   2
ATOM      2  C   UNL     1      16.984 -19.167  25.478  1.00  0.00     0.000 C 
BRANCH   2   3
ATOM      3  C   UNL     1      17.074 -18.132  26.612  1.00  0.00     0.000 C 
BRANCH   3   4
ATOM      4  C   UNL     1      16.504 -18.656  27.943  1.00  0.00     0.000 C 
BRANCH   4   5
ATOM      5  C   UNL     1      17.321 -19.824  28.518  1.00  0.00     0.000 C 
BRANCH   5   6
ATOM      6  C   UNL     1      18.835 -19.552  28.495  1.00  0.00     0.000 C 
BRANCH   6   7
ATOM      7  C   UNL     1      19.348 -19.212  27.085  1.00  0.00     0.000 C 
BRANCH   7   8
ATOM      8  C   UNL     1      20.730 -19.826  26.801  1.00  0.00     0.000 C 
BRANCH   8   9
ATOM      9  C   UNL     1      20.763 -20.627  25.489  1.00  0.00     0.000 C 
BRANCH   9  10
ATOM     10  C   UNL     1      22.032 -21.481  25.345  1.00  0.00     0.000 C 
BRANCH  10  11
ATOM     11  C   UNL     1      22.619 -21.358  23.931  1.00  0.00     0.000 C 
BRANCH  11  12
ATOM     12  C   UNL     1      24.139 -21.113  23.933  1.00  0.00     0.006 C 
BRANCH  12  13
ATOM     13  C   UNL     1      24.793 -21.199  25.320  1.00  0.00     0.053 C 
BRANCH  13  14
ATOM     14  C   UNL     1      25.650 -22.421  25.462  1.00  0.00     0.041 C 
ATOM     15  O   UNL     1      25.652 -23.300  24.561  1.00  0.00    -0.550 OA
ATOM     16  O   UNL     1      26.412 -22.607  26.608  1.00  0.00    -0.550 OA
ENDBRANCH  13  14
ENDBRANCH  12  13
ENDBRANCH  11  12
ENDBRANCH  10  11
ENDBRANCH   9  10
ENDBRANCH   8   9
ENDBRANCH   7   8
ENDBRANCH   6   7
ENDBRANCH   5   6
ENDBRANCH   4   5
ENDBRANCH   3   4
ENDBRANCH   2   3
ENDBRANCH   1   2
BRANCH   1  17
ATOM     17  C   UNL     1      17.941 -19.885  23.210  1.00  0.00     0.000 C 
BRANCH  17  18
ATOM     18  C   UNL     1      16.635 -20.370  22.545  1.00  0.00     0.000 C 
BRANCH  18  19
ATOM     19  C   UNL     1      16.191 -21.794  22.923  1.00  0.00     0.000 C 
BRANCH  19  20
ATOM     20  C   UNL     1      16.262 -22.777  21.743  1.00  0.00     0.000 C 
BRANCH  20  21
ATOM     21  C   UNL     1      17.625 -23.485  21.635  1.00  0.00     0.000 C 
BRANCH  21  22
ATOM     22  C   UNL     1      17.638 -24.761  20.767  1.00  0.00    -0.000 C 
BRANCH  22  23
ATOM     23  C   UNL     1      17.964 -24.532  19.280  1.00  0.00    -0.000 C 
BRANCH  23  24
ATOM     24  C   UNL     1      18.780 -23.249  19.044  1.00  0.00    -0.000 C 
BRANCH  24  25
ATOM     25  C   UNL     1      17.933 -22.115  18.446  1.00  0.00    -0.000 C 
BRANCH  25  26
ATOM     26  C   UNL     1      18.785 -21.068  17.707  1.00  0.00    -0.000 C 
BRANCH  26  27
ATOM     27  C   UNL     1      17.929 -20.139  16.818  1.00  0.00    -0.000 C 
BRANCH  27  28
ATOM     28  C   UNL     1      17.414 -20.813  15.532  1.00  0.00    -0.000 C 
BRANCH  28  29
ATOM     29  C   UNL     1      18.050 -20.291  14.233  1.00  0.00    -0.003 C 
ATOM     30  C   UNL     1      17.501 -18.930  13.807  1.00  0.00     0.004 C 
ENDBRANCH  28  29
ENDBRANCH  27  28
ENDBRANCH  26  27
ENDBRANCH  25  26
ENDBRANCH  24  25
ENDBRANCH  23  24
ENDBRANCH  22  23
ENDBRANCH  21  22
ENDBRANCH  20  21
ENDBRANCH  19  20
ENDBRANCH  18  19
ENDBRANCH  17  18
ENDBRANCH   1  17
TORSDOF 26
ENDMDL
MODEL 6
REMARK VINA RESULT:    14.523      1.603      3.225
REMARK INTER + INTRA:          37.635
REMARK INTER:                  39.295
REMARK INTRA:                  -1.660
REMARK UNBOUND:                 1.037
REMARK SMILES CCCCCCCCCCCCCCCCCCCCCCCCCCCC(=O)[O-]
REMARK SMILES IDX 15 1 16 2 17 3 18 4 19 5 20 6 21 7 22 8 23 9 24 10 25 11
REMARK SMILES IDX 26 12 27 13 28 14 29 15 30 16 14 17 13 18 12 19 11 20 10 21
REMARK SMILES IDX 9 22 8 23 7 24 6 25 5 26 4 27 3 28 2 29 1 30
REMARK H PARENT
REMARK Flexibility Score: inf
ROOT
ATOM      1  C   UNL     1      18.015 -20.436  22.379  1.00  0.00     0.000 C 
ENDROOT
BRANCH   1   2
ATOM      2  C   UNL     1      18.098 -19.086  23.112  1.00  0.00     0.000 C 
BRANCH   2   3
ATOM      3  C   UNL     1      17.339 -19.095  24.449  1.00  0.00     0.000 C 
BRANCH   3   4
ATOM      4  C   UNL     1      17.741 -17.927  25.369  1.00  0.00     0.000 C 
BRANCH   4   5
ATOM      5  C   UNL     1      16.962 -17.923  26.694  1.00  0.00     0.000 C 
BRANCH   5   6
ATOM      6  C   UNL     1      17.062 -19.264  27.443  1.00  0.00     0.000 C 
BRANCH   6   7
ATOM      7  C   UNL     1      18.503 -19.586  27.876  1.00  0.00     0.000 C 
BRANCH   7   8
ATOM      8  C   UNL     1      19.270 -20.387  26.809  1.00  0.00     0.000 C 
BRANCH   8   9
ATOM      9  C   UNL     1      20.688 -19.846  26.569  1.00  0.00     0.000 C 
BRANCH   9  10
ATOM     10  C   UNL     1      21.355 -20.457  25.327  1.00  0.00     0.000 C 
BRANCH  10  11
ATOM     11  C   UNL     1      22.039 -21.789  25.670  1.00  0.00     0.000 C 
BRANCH  11  12
ATOM     12  C   UNL     1      23.506 -21.615  26.103  1.00  0.00     0.006 C 
BRANCH  12  13
ATOM     13  C   UNL     1      24.531 -21.879  24.989  1.00  0.00     0.053 C 
BRANCH  13  14
ATOM     14  C   UNL     1      24.106 -21.281  23.682  1.00  0.00     0.041 C 
ATOM     15  O   UNL     1      23.868 -22.024  22.694  1.00  0.00    -0.550 OA
ATOM     16  O   UNL     1      24.014 -19.902  23.545  1.00  0.00    -0.550 OA
ENDBRANCH  13  14
ENDBRANCH  12  13
ENDBRANCH  11  12
ENDBRANCH  10  11
ENDBRANCH   9  10
ENDBRANCH   8   9
ENDBRANCH   7   8
ENDBRANCH   6   7
ENDBRANCH   5   6
ENDBRANCH   4   5
ENDBRANCH   3   4
ENDBRANCH   2   3
ENDBRANCH   1   2
BRANCH   1  17
ATOM     17  C   UNL     1      16.569 -20.940  22.216  1.00  0.00     0.000 C 
BRANCH  17  18
ATOM     18  C   UNL     1      16.372 -22.458  22.410  1.00  0.00     0.000 C 
BRANCH  18  19
ATOM     19  C   UNL     1      16.485 -23.307  21.131  1.00  0.00     0.000 C 
BRANCH  19  20
ATOM     20  C   UNL     1      17.710 -24.236  21.137  1.00  0.00     0.000 C 
BRANCH  20  21
ATOM     21  C   UNL     1      18.413 -24.308  19.769  1.00  0.00     0.000 C 
BRANCH  21  22
ATOM     22  C   UNL     1      17.900 -23.309  18.711  1.00  0.00    -0.000 C 
BRANCH  22  23
ATOM     23  C   UNL     1      18.809 -22.090  18.474  1.00  0.00    -0.000 C 
BRANCH  23  24
ATOM     24  C   UNL     1      18.040 -20.874  17.929  1.00  0.00    -0.000 C 
BRANCH  24  25
ATOM     25  C   UNL     1      18.114 -20.767  16.398  1.00  0.00    -0.000 C 
BRANCH  25  26
ATOM     26  C   UNL     1      17.388 -19.523  15.856  1.00  0.00    -0.000 C 
BRANCH  26  27
ATOM     27  C   UNL     1      17.403 -19.462  14.313  1.00  0.00    -0.000 C 
BRANCH  27  28
ATOM     28  C   UNL     1      18.309 -20.525  13.660  1.00  0.00    -0.000 C 
BRANCH  28  29
ATOM     29  C   UNL     1      17.744 -21.148  12.373  1.00  0.00    -0.003 C 
ATOM     30  C   UNL     1      17.292 -22.596  12.561  1.00  0.00     0.004 C 
ENDBRANCH  28  29
ENDBRANCH  27  28
ENDBRANCH  26  27
ENDBRANCH  25  26
ENDBRANCH  24  25
ENDBRANCH  23  24
ENDBRANCH  22  23
ENDBRANCH  21  22
ENDBRANCH  20  21
ENDBRANCH  19  20
ENDBRANCH  18  19
ENDBRANCH  17  18
ENDBRANCH   1  17
TORSDOF 26
ENDMDL
MODEL 7
REMARK VINA RESULT:    14.647      1.758      3.088
REMARK INTER + INTRA:          37.946
REMARK INTER:                  37.649
REMARK INTRA:                   0.297
REMARK UNBOUND:                 1.037
REMARK SMILES CCCCCCCCCCCCCCCCCCCCCCCCCCCC(=O)[O-]
REMARK SMILES IDX 15 1 16 2 17 3 18 4 19 5 20 6 21 7 22 8 23 9 24 10 25 11
REMARK SMILES IDX 26 12 27 13 28 14 29 15 30 16 14 17 13 18 12 19 11 20 10 21
REMARK SMILES IDX 9 22 8 23 7 24 6 25 5 26 4 27 3 28 2 29 1 30
REMARK H PARENT
REMARK Flexibility Score: inf
ROOT
ATOM      1  C   UNL     1      18.147 -19.408  23.215  1.00  0.00     0.000 C 
ENDROOT
BRANCH   1   2
ATOM      2  C   UNL     1      17.006 -19.156  24.216  1.00  0.00     0.000 C 
BRANCH   2   3
ATOM      3  C   UNL     1      17.477 -18.398  25.468  1.00  0.00     0.000 C 
BRANCH   3   4
ATOM      4  C   UNL     1      16.596 -18.676  26.699  1.00  0.00     0.000 C 
BRANCH   4   5
ATOM      5  C   UNL     1      16.674 -17.556  27.749  1.00  0.00     0.000 C 
BRANCH   5   6
ATOM      6  C   UNL     1      16.624 -18.094  29.190  1.00  0.00     0.000 C 
BRANCH   6   7
ATOM      7  C   UNL     1      17.723 -19.136  29.465  1.00  0.00     0.000 C 
BRANCH   7   8
ATOM      8  C   UNL     1      18.170 -19.866  28.187  1.00  0.00     0.000 C 
BRANCH   8   9
ATOM      9  C   UNL     1      19.618 -19.534  27.791  1.00  0.00     0.000 C 
BRANCH   9  10
ATOM     10  C   UNL     1      19.942 -19.922  26.341  1.00  0.00     0.000 C 
BRANCH  10  11
ATOM     11  C   UNL     1      21.070 -20.964  26.289  1.00  0.00     0.000 C 
BRANCH  11  12
ATOM     12  C   UNL     1      22.224 -20.551  25.357  1.00  0.00     0.006 C 
BRANCH  12  13
ATOM     13  C   UNL     1      22.776 -21.692  24.489  1.00  0.00     0.053 C 
BRANCH  13  14
ATOM     14  C   UNL     1      23.747 -21.195  23.461  1.00  0.00     0.041 C 
ATOM     15  O   UNL     1      24.024 -19.969  23.392  1.00  0.00    -0.550 OA
ATOM     16  O   UNL     1      24.311 -22.081  22.553  1.00  0.00    -0.550 OA
ENDBRANCH  13  14
ENDBRANCH  12  13
ENDBRANCH  11  12
ENDBRANCH  10  11
ENDBRANCH   9  10
ENDBRANCH   8   9
ENDBRANCH   7   8
ENDBRANCH   6   7
ENDBRANCH   5   6
ENDBRANCH   4   5
ENDBRANCH   3   4
ENDBRANCH   2   3
ENDBRANCH   1   2
BRANCH   1  17
ATOM     17  C   UNL     1      17.786 -20.460  22.150  1.00  0.00     0.000 C 
BRANCH  17  18
ATOM     18  C   UNL     1      16.336 -20.985  22.205  1.00  0.00     0.000 C 
BRANCH  18  19
ATOM     19  C   UNL     1      16.184 -22.464  22.602  1.00  0.00     0.000 C 
BRANCH  19  20
ATOM     20  C   UNL     1      16.313 -23.422  21.406  1.00  0.00     0.000 C 
BRANCH  20  21
ATOM     21  C   UNL     1      17.692 -24.102  21.329  1.00  0.00     0.000 C 
BRANCH  21  22
ATOM     22  C   UNL     1      18.051 -24.710  19.957  1.00  0.00    -0.000 C 
BRANCH  22  23
ATOM     23  C   UNL     1      18.131 -23.700  18.799  1.00  0.00    -0.000 C 
BRANCH  23  24
ATOM     24  C   UNL     1      18.863 -22.405  19.191  1.00  0.00    -0.000 C 
BRANCH  24  25
ATOM     25  C   UNL     1      18.338 -21.177  18.431  1.00  0.00    -0.000 C 
BRANCH  25  26
ATOM     26  C   UNL     1      18.164 -21.444  16.926  1.00  0.00    -0.000 C 
BRANCH  26  27
ATOM     27  C   UNL     1      17.857 -20.153  16.135  1.00  0.00    -0.000 C 
BRANCH  27  28
ATOM     28  C   UNL     1      17.211 -20.408  14.760  1.00  0.00    -0.000 C 
BRANCH  28  29
ATOM     29  C   UNL     1      17.882 -19.674  13.588  1.00  0.00    -0.003 C 
ATOM     30  C   UNL     1      17.542 -18.184  13.544  1.00  0.00     0.004 C 
ENDBRANCH  28  29
ENDBRANCH  27  28
ENDBRANCH  26  27
ENDBRANCH  25  26
ENDBRANCH  24  25
ENDBRANCH  23  24
ENDBRANCH  22  23
ENDBRANCH  21  22
ENDBRANCH  20  21
ENDBRANCH  19  20
ENDBRANCH  18  19
ENDBRANCH  17  18
ENDBRANCH   1  17
TORSDOF 26
ENDMDL
MODEL 8
REMARK VINA RESULT:    14.852      2.332      4.675
REMARK INTER + INTRA:          38.465
REMARK INTER:                  39.684
REMARK INTRA:                  -1.219
REMARK UNBOUND:                 1.037
REMARK SMILES CCCCCCCCCCCCCCCCCCCCCCCCCCCC(=O)[O-]
REMARK SMILES IDX 15 1 16 2 17 3 18 4 19 5 20 6 21 7 22 8 23 9 24 10 25 11
REMARK SMILES IDX 26 12 27 13 28 14 29 15 30 16 14 17 13 18 12 19 11 20 10 21
REMARK SMILES IDX 9 22 8 23 7 24 6 25 5 26 4 27 3 28 2 29 1 30
REMARK H PARENT
REMARK Flexibility Score: inf
ROOT
ATOM      1  C   UNL     1      18.055 -19.602  29.666  1.00  0.00     0.000 C 
ENDROOT
BRANCH   1   2
ATOM      2  C   UNL     1      19.343 -19.203  28.924  1.00  0.00     0.000 C 
BRANCH   2   3
ATOM      3  C   UNL     1      19.443 -19.844  27.530  1.00  0.00     0.000 C 
BRANCH   3   4
ATOM      4  C   UNL     1      20.418 -19.098  26.601  1.00  0.00     0.000 C 
BRANCH   4   5
ATOM      5  C   UNL     1      21.645 -19.945  26.228  1.00  0.00     0.000 C 
BRANCH   5   6
ATOM      6  C   UNL     1      21.277 -21.400  25.887  1.00  0.00     0.000 C 
BRANCH   6   7
ATOM      7  C   UNL     1      22.306 -22.407  26.431  1.00  0.00     0.000 C 
BRANCH   7   8
ATOM      8  C   UNL     1      23.058 -21.869  27.661  1.00  0.00     0.000 C 
BRANCH   8   9
ATOM      9  C   UNL     1      24.349 -22.649  27.954  1.00  0.00     0.000 C 
BRANCH   9  10
ATOM     10  C   UNL     1      25.578 -22.051  27.251  1.00  0.00     0.000 C 
BRANCH  10  11
ATOM     11  C   UNL     1      26.049 -22.958  26.103  1.00  0.00     0.000 C 
BRANCH  11  12
ATOM     12  C   UNL     1      25.715 -22.385  24.714  1.00  0.00     0.006 C 
BRANCH  12  13
ATOM     13  C   UNL     1      24.714 -21.220  24.732  1.00  0.00     0.053 C 
BRANCH  13  14
ATOM     14  C   UNL     1      23.897 -21.162  23.477  1.00  0.00     0.041 C 
ATOM     15  O   UNL     1      23.611 -20.051  22.959  1.00  0.00    -0.550 OA
ATOM     16  O   UNL     1      23.417 -22.333  22.906  1.00  0.00    -0.550 OA
ENDBRANCH  13  14
ENDBRANCH  12  13
ENDBRANCH  11  12
ENDBRANCH  10  11
ENDBRANCH   9  10
ENDBRANCH   8   9
ENDBRANCH   7   8
ENDBRANCH   6   7
ENDBRANCH   5   6
ENDBRANCH   4   5
ENDBRANCH   3   4
ENDBRANCH   2   3
ENDBRANCH   1   2
BRANCH   1  17
ATOM     17  C   UNL     1      17.193 -18.389  30.059  1.00  0.00     0.000 C 
BRANCH  17  18
ATOM     18  C   UNL     1      16.378 -17.757  28.911  1.00  0.00     0.000 C 
BRANCH  18  19
ATOM     19  C   UNL     1      16.210 -18.636  27.659  1.00  0.00     0.000 C 
BRANCH  19  20
ATOM     20  C   UNL     1      17.123 -18.205  26.499  1.00  0.00     0.000 C 
BRANCH  20  21
ATOM     21  C   UNL     1      17.022 -19.139  25.279  1.00  0.00     0.000 C 
BRANCH  21  22
ATOM     22  C   UNL     1      18.140 -18.974  24.228  1.00  0.00    -0.000 C 
BRANCH  22  23
ATOM     23  C   UNL     1      17.701 -19.202  22.771  1.00  0.00    -0.000 C 
BRANCH  23  24
ATOM     24  C   UNL     1      16.601 -20.271  22.644  1.00  0.00    -0.000 C 
BRANCH  24  25
ATOM     25  C   UNL     1      17.087 -21.532  21.912  1.00  0.00    -0.000 C 
BRANCH  25  26
ATOM     26  C   UNL     1      16.119 -22.717  22.072  1.00  0.00    -0.000 C 
BRANCH  26  27
ATOM     27  C   UNL     1      16.497 -23.907  21.163  1.00  0.00    -0.000 C 
BRANCH  27  28
ATOM     28  C   UNL     1      18.015 -24.141  21.047  1.00  0.00    -0.000 C 
BRANCH  28  29
ATOM     29  C   UNL     1      18.558 -24.145  19.609  1.00  0.00    -0.003 C 
ATOM     30  C   UNL     1      18.303 -22.830  18.872  1.00  0.00     0.004 C 
ENDBRANCH  28  29
ENDBRANCH  27  28
ENDBRANCH  26  27
ENDBRANCH  25  26
ENDBRANCH  24  25
ENDBRANCH  23  24
ENDBRANCH  22  23
ENDBRANCH  21  22
ENDBRANCH  20  21
ENDBRANCH  19  20
ENDBRANCH  18  19
ENDBRANCH  17  18
ENDBRANCH   1  17
TORSDOF 26
ENDMDL
MODEL 9
REMARK VINA RESULT:    15.012      1.971      4.565
REMARK INTER + INTRA:          38.867
REMARK INTER:                  38.541
REMARK INTRA:                   0.326
REMARK UNBOUND:                 1.037
REMARK SMILES CCCCCCCCCCCCCCCCCCCCCCCCCCCC(=O)[O-]
REMARK SMILES IDX 15 1 16 2 17 3 18 4 19 5 20 6 21 7 22 8 23 9 24 10 25 11
REMARK SMILES IDX 26 12 27 13 28 14 29 15 30 16 14 17 13 18 12 19 11 20 10 21
REMARK SMILES IDX 9 22 8 23 7 24 6 25 5 26 4 27 3 28 2 29 1 30
REMARK H PARENT
REMARK Flexibility Score: inf
ROOT
ATOM      1  C   UNL     1      18.713 -19.419  29.092  1.00  0.00     0.000 C 
ENDROOT
BRANCH   1   2
ATOM      2  C   UNL     1      19.329 -18.916  27.774  1.00  0.00     0.000 C 
BRANCH   2   3
ATOM      3  C   UNL     1      19.699 -20.064  26.821  1.00  0.00     0.000 C 
BRANCH   3   4
ATOM      4  C   UNL     1      21.216 -20.320  26.758  1.00  0.00     0.000 C 
BRANCH   4   5
ATOM      5  C   UNL     1      21.834 -19.894  25.417  1.00  0.00     0.000 C 
BRANCH   5   6
ATOM      6  C   UNL     1      22.177 -21.095  24.518  1.00  0.00     0.000 C 
BRANCH   6   7
ATOM      7  C   UNL     1      23.626 -21.046  24.003  1.00  0.00     0.000 C 
BRANCH   7   8
ATOM      8  C   UNL     1      23.940 -22.194  23.028  1.00  0.00     0.000 C 
BRANCH   8   9
ATOM      9  C   UNL     1      25.440 -22.521  22.961  1.00  0.00     0.000 C 
BRANCH   9  10
ATOM     10  C   UNL     1      25.955 -23.216  24.231  1.00  0.00     0.000 C 
BRANCH  10  11
ATOM     11  C   UNL     1      25.300 -22.622  25.487  1.00  0.00     0.000 C 
BRANCH  11  12
ATOM     12  C   UNL     1      26.138 -22.840  26.759  1.00  0.00     0.006 C 
BRANCH  12  13
ATOM     13  C   UNL     1      25.753 -21.930  27.936  1.00  0.00     0.053 C 
BRANCH  13  14
ATOM     14  C   UNL     1      24.352 -22.183  28.406  1.00  0.00     0.041 C 
ATOM     15  O   UNL     1      23.979 -21.768  29.534  1.00  0.00    -0.550 OA
ATOM     16  O   UNL     1      23.475 -22.913  27.615  1.00  0.00    -0.550 OA
ENDBRANCH  13  14
ENDBRANCH  12  13
ENDBRANCH  11  12
ENDBRANCH  10  11
ENDBRANCH   9  10
ENDBRANCH   8   9
ENDBRANCH   7   8
ENDBRANCH   6   7
ENDBRANCH   5   6
ENDBRANCH   4   5
ENDBRANCH   3   4
ENDBRANCH   2   3
ENDBRANCH   1   2
BRANCH   1  17
ATOM     17  C   UNL     1      17.502 -18.582  29.543  1.00  0.00     0.000 C 
BRANCH  17  18
ATOM     18  C   UNL     1      16.295 -18.594  28.581  1.00  0.00     0.000 C 
BRANCH  18  19
ATOM     19  C   UNL     1      15.922 -19.972  28.007  1.00  0.00     0.000 C 
BRANCH  19  20
ATOM     20  C   UNL     1      16.134 -20.066  26.487  1.00  0.00     0.000 C 
BRANCH  20  21
ATOM     21  C   UNL     1      16.964 -18.896  25.925  1.00  0.00     0.000 C 
BRANCH  21  22
ATOM     22  C   UNL     1      17.696 -19.185  24.598  1.00  0.00    -0.000 C 
BRANCH  22  23
ATOM     23  C   UNL     1      16.804 -19.155  23.344  1.00  0.00    -0.000 C 
BRANCH  23  24
ATOM     24  C   UNL     1      17.085 -20.328  22.389  1.00  0.00    -0.000 C 
BRANCH  24  25
ATOM     25  C   UNL     1      16.512 -21.657  22.904  1.00  0.00    -0.000 C 
BRANCH  25  26
ATOM     26  C   UNL     1      16.337 -22.699  21.785  1.00  0.00    -0.000 C 
BRANCH  26  27
ATOM     27  C   UNL     1      17.598 -23.570  21.594  1.00  0.00    -0.000 C 
BRANCH  27  28
ATOM     28  C   UNL     1      17.574 -24.421  20.310  1.00  0.00    -0.000 C 
BRANCH  28  29
ATOM     29  C   UNL     1      18.601 -24.006  19.244  1.00  0.00    -0.003 C 
ATOM     30  C   UNL     1      18.411 -22.569  18.761  1.00  0.00     0.004 C 
ENDBRANCH  28  29
ENDBRANCH  27  28
ENDBRANCH  26  27
ENDBRANCH  25  26
ENDBRANCH  24  25
ENDBRANCH  23  24
ENDBRANCH  22  23
ENDBRANCH  21  22
ENDBRANCH  20  21
ENDBRANCH  19  20
ENDBRANCH  18  19
ENDBRANCH  17  18
ENDBRANCH   1  17
TORSDOF 26
ENDMDL
