MODEL 1
REMARK VINA RESULT:    -3.512      0.000      0.000
REMARK INTER + INTRA:          -4.652
REMARK INTER:                  -4.539
REMARK INTRA:                  -0.113
REMARK UNBOUND:                -0.113
REMARK SMILES CCCCCCC(=O)[O-]
REMARK SMILES IDX 5 1 6 2 7 3 8 4 9 5 4 6 3 7 2 8 1 9
REMARK H PARENT
REMARK Flexibility Score: inf
ROOT
ATOM      1  C   UNL     1       6.778   5.912  34.902  1.00  0.00     0.006 C 
ENDROOT
BRANCH   1   2
ATOM      2  C   UNL     1       7.876   5.919  35.974  1.00  0.00     0.053 C 
BRANCH   2   3
ATOM      3  C   UNL     1       8.795   4.743  35.834  1.00  0.00     0.041 C 
ATOM      4  O   UNL     1       8.395   3.588  36.134  1.00  0.00    -0.550 OA
ATOM      5  O   UNL     1      10.082   4.920  35.343  1.00  0.00    -0.550 OA
ENDBRANCH   2   3
ENDBRANCH   1   2
BRANCH   1   6
ATOM      6  C   UNL     1       7.104   6.850  33.728  1.00  0.00     0.000 C 
BRANCH   6   7
ATOM      7  C   UNL     1       6.600   8.288  33.974  1.00  0.00    -0.000 C 
BRANCH   7   8
ATOM      8  C   UNL     1       7.144   9.312  32.964  1.00  0.00    -0.003 C 
ATOM      9  C   UNL     1       6.337  10.608  32.933  1.00  0.00     0.004 C 
ENDBRANCH   7   8
ENDBRANCH   6   7
ENDBRANCH   1   6
TORSDOF 5
ENDMDL
MODEL 2
REMARK VINA RESULT:    -3.448      1.172      1.826
REMARK INTER + INTRA:          -4.570
REMARK INTER:                  -4.411
REMARK INTRA:                  -0.159
REMARK UNBOUND:                -0.113
REMARK SMILES CCCCCCC(=O)[O-]
REMARK SMILES IDX 5 1 6 2 7 3 8 4 9 5 4 6 3 7 2 8 1 9
REMARK H PARENT
REMARK Flexibility Score: inf
ROOT
ATOM      1  C   UNL     1       7.558   4.698  35.671  1.00  0.00     0.006 C 
ENDROOT
BRANCH   1   2
ATOM      2  C   UNL     1       8.871   5.414  36.018  1.00  0.00     0.053 C 
BRANCH   2   3
ATOM      3  C   UNL     1      10.054   4.508  35.861  1.00  0.00     0.041 C 
ATOM      4  O   UNL     1      10.772   4.578  34.829  1.00  0.00    -0.550 OA
ATOM      5  O   UNL     1      10.382   3.609  36.867  1.00  0.00    -0.550 OA
ENDBRANCH   2   3
ENDBRANCH   1   2
BRANCH   1   6
ATOM      6  C   UNL     1       6.633   5.568  34.804  1.00  0.00     0.000 C 
BRANCH   6   7
ATOM      7  C   UNL     1       7.225   6.971  34.548  1.00  0.00    -0.000 C 
BRANCH   7   8
ATOM      8  C   UNL     1       6.661   7.657  33.293  1.00  0.00    -0.003 C 
ATOM      9  C   UNL     1       7.294   9.020  33.020  1.00  0.00     0.004 C 
ENDBRANCH   7   8
ENDBRANCH   6   7
ENDBRANCH   1   6
TORSDOF 5
ENDMDL
MODEL 3
REMARK VINA RESULT:    -3.389      3.247      5.150
REMARK INTER + INTRA:          -4.493
REMARK INTER:                  -4.297
REMARK INTRA:                  -0.196
REMARK UNBOUND:                -0.113
REMARK SMILES CCCCCCC(=O)[O-]
REMARK SMILES IDX 5 1 6 2 7 3 8 4 9 5 4 6 3 7 2 8 1 9
REMARK H PARENT
REMARK Flexibility Score: inf
ROOT
ATOM      1  C   UNL     1       6.354   7.102  34.185  1.00  0.00     0.006 C 
ENDROOT
BRANCH   1   2
ATOM      2  C   UNL     1       6.994   8.127  33.238  1.00  0.00     0.053 C 
BRANCH   2   3
ATOM      3  C   UNL     1       6.620   9.531  33.606  1.00  0.00     0.041 C 
ATOM      4  O   UNL     1       6.498   9.857  34.815  1.00  0.00    -0.550 OA
ATOM      5  O   UNL     1       6.436  10.484  32.613  1.00  0.00    -0.550 OA
ENDBRANCH   2   3
ENDBRANCH   1   2
BRANCH   1   6
ATOM      6  C   UNL     1       7.386   6.115  34.756  1.00  0.00     0.000 C 
BRANCH   6   7
ATOM      7  C   UNL     1       7.811   6.485  36.193  1.00  0.00    -0.000 C 
BRANCH   7   8
ATOM      8  C   UNL     1       8.910   5.573  36.763  1.00  0.00    -0.003 C 
ATOM      9  C   UNL     1       9.773   4.926  35.681  1.00  0.00     0.004 C 
ENDBRANCH   7   8
ENDBRANCH   6   7
ENDBRANCH   1   6
TORSDOF 5
ENDMDL
MODEL 4
REMARK VINA RESULT:    -2.940      2.157      3.172
REMARK INTER + INTRA:          -3.912
REMARK INTER:                  -3.867
REMARK INTRA:                  -0.046
REMARK UNBOUND:                -0.113
REMARK SMILES CCCCCCC(=O)[O-]
REMARK SMILES IDX 5 1 6 2 7 3 8 4 9 5 4 6 3 7 2 8 1 9
REMARK H PARENT
REMARK Flexibility Score: inf
ROOT
ATOM      1  C   UNL     1       7.057   8.729  33.406  1.00  0.00     0.006 C 
ENDROOT
BRANCH   1   2
ATOM      2  C   UNL     1       6.691   7.263  33.670  1.00  0.00     0.053 C 
BRANCH   2   3
ATOM      3  C   UNL     1       6.997   6.860  35.080  1.00  0.00     0.041 C 
ATOM      4  O   UNL     1       7.335   5.676  35.341  1.00  0.00    -0.550 OA
ATOM      5  O   UNL     1       6.937   7.799  36.101  1.00  0.00    -0.550 OA
ENDBRANCH   2   3
ENDBRANCH   1   2
BRANCH   1   6
ATOM      6  C   UNL     1       5.889   9.684  33.707  1.00  0.00     0.000 C 
BRANCH   6   7
ATOM      7  C   UNL     1       6.147  11.107  33.168  1.00  0.00    -0.000 C 
BRANCH   7   8
ATOM      8  C   UNL     1       5.877  12.214  34.201  1.00  0.00    -0.003 C 
ATOM      9  C   UNL     1       5.876  11.703  35.640  1.00  0.00     0.004 C 
ENDBRANCH   7   8
ENDBRANCH   6   7
ENDBRANCH   1   6
TORSDOF 5
ENDMDL
MODEL 5
REMARK VINA RESULT:    -2.854     22.368     23.239
REMARK INTER + INTRA:          -3.802
REMARK INTER:                  -3.635
REMARK INTRA:                  -0.167
REMARK UNBOUND:                -0.113
REMARK SMILES CCCCCCC(=O)[O-]
REMARK SMILES IDX 5 1 6 2 7 3 8 4 9 5 4 6 3 7 2 8 1 9
REMARK H PARENT
REMARK Flexibility Score: inf
ROOT
ATOM      1  C   UNL     1      18.075  19.781  19.725  1.00  0.00     0.006 C 
ENDROOT
BRANCH   1   2
ATOM      2  C   UNL     1      19.476  20.305  19.380  1.00  0.00     0.053 C 
BRANCH   2   3
ATOM      3  C   UNL     1      20.227  20.728  20.606  1.00  0.00     0.041 C 
ATOM      4  O   UNL     1      19.604  21.135  21.621  1.00  0.00    -0.550 OA
ATOM      5  O   UNL     1      21.613  20.643  20.637  1.00  0.00    -0.550 OA
ENDBRANCH   2   3
ENDBRANCH   1   2
BRANCH   1   6
ATOM      6  C   UNL     1      17.760  18.454  19.014  1.00  0.00     0.000 C 
BRANCH   6   7
ATOM      7  C   UNL     1      18.505  18.323  17.669  1.00  0.00    -0.000 C 
BRANCH   7   8
ATOM      8  C   UNL     1      18.281  16.971  16.971  1.00  0.00    -0.003 C 
ATOM      9  C   UNL     1      19.049  15.824  17.626  1.00  0.00     0.004 C 
ENDBRANCH   7   8
ENDBRANCH   6   7
ENDBRANCH   1   6
TORSDOF 5
ENDMDL
MODEL 6
REMARK VINA RESULT:    -2.791     12.250     13.750
REMARK INTER + INTRA:          -3.720
REMARK INTER:                  -3.622
REMARK INTRA:                  -0.099
REMARK UNBOUND:                -0.113
REMARK SMILES CCCCCCC(=O)[O-]
REMARK SMILES IDX 5 1 6 2 7 3 8 4 9 5 4 6 3 7 2 8 1 9
REMARK H PARENT
REMARK Flexibility Score: inf
ROOT
ATOM      1  C   UNL     1       7.056  19.697  33.245  1.00  0.00     0.006 C 
ENDROOT
BRANCH   1   2
ATOM      2  C   UNL     1       6.166  18.755  34.066  1.00  0.00     0.053 C 
BRANCH   2   3
ATOM      3  C   UNL     1       6.421  18.891  35.536  1.00  0.00     0.041 C 
ATOM      4  O   UNL     1       6.161  17.937  36.315  1.00  0.00    -0.550 OA
ATOM      5  O   UNL     1       6.976  20.059  36.041  1.00  0.00    -0.550 OA
ENDBRANCH   2   3
ENDBRANCH   1   2
BRANCH   1   6
ATOM      6  C   UNL     1       6.315  20.292  32.036  1.00  0.00     0.000 C 
BRANCH   6   7
ATOM      7  C   UNL     1       6.630  21.791  31.840  1.00  0.00    -0.000 C 
BRANCH   7   8
ATOM      8  C   UNL     1       7.189  22.124  30.448  1.00  0.00    -0.003 C 
ATOM      9  C   UNL     1       6.192  21.857  29.322  1.00  0.00     0.004 C 
ENDBRANCH   7   8
ENDBRANCH   6   7
ENDBRANCH   1   6
TORSDOF 5
ENDMDL
MODEL 7
REMARK VINA RESULT:    -2.616     20.460     21.075
REMARK INTER + INTRA:          -3.494
REMARK INTER:                  -3.061
REMARK INTRA:                  -0.433
REMARK UNBOUND:                -0.113
REMARK SMILES CCCCCCC(=O)[O-]
REMARK SMILES IDX 5 1 6 2 7 3 8 4 9 5 4 6 3 7 2 8 1 9
REMARK H PARENT
REMARK Flexibility Score: inf
ROOT
ATOM      1  C   UNL     1      22.249   4.866  20.337  1.00  0.00     0.006 C 
ENDROOT
BRANCH   1   2
ATOM      2  C   UNL     1      21.466   3.602  20.717  1.00  0.00     0.053 C 
BRANCH   2   3
ATOM      3  C   UNL     1      20.441   3.253  19.681  1.00  0.00     0.041 C 
ATOM      4  O   UNL     1      19.357   3.889  19.624  1.00  0.00    -0.550 OA
ATOM      5  O   UNL     1      20.698   2.247  18.759  1.00  0.00    -0.550 OA
ENDBRANCH   2   3
ENDBRANCH   1   2
BRANCH   1   6
ATOM      6  C   UNL     1      23.298   4.594  19.245  1.00  0.00     0.000 C 
BRANCH   6   7
ATOM      7  C   UNL     1      23.023   5.405  17.960  1.00  0.00    -0.000 C 
BRANCH   7   8
ATOM      8  C   UNL     1      21.869   6.411  18.103  1.00  0.00    -0.003 C 
ATOM      9  C   UNL     1      20.745   6.180  17.094  1.00  0.00     0.004 C 
ENDBRANCH   7   8
ENDBRANCH   6   7
ENDBRANCH   1   6
TORSDOF 5
ENDMDL
MODEL 8
REMARK VINA RESULT:    -2.538     22.290     23.027
REMARK INTER + INTRA:          -3.393
REMARK INTER:                  -3.239
REMARK INTRA:                  -0.154
REMARK UNBOUND:                -0.113
REMARK SMILES CCCCCCC(=O)[O-]
REMARK SMILES IDX 5 1 6 2 7 3 8 4 9 5 4 6 3 7 2 8 1 9
REMARK H PARENT
REMARK Flexibility Score: inf
ROOT
ATOM      1  C   UNL     1      18.467  18.397  17.288  1.00  0.00     0.006 C 
ENDROOT
BRANCH   1   2
ATOM      2  C   UNL     1      18.337  17.142  18.161  1.00  0.00     0.053 C 
BRANCH   2   3
ATOM      3  C   UNL     1      18.814  15.916  17.444  1.00  0.00     0.041 C 
ATOM      4  O   UNL     1      18.027  14.955  17.241  1.00  0.00    -0.550 OA
ATOM      5  O   UNL     1      20.119  15.848  16.975  1.00  0.00    -0.550 OA
ENDBRANCH   2   3
ENDBRANCH   1   2
BRANCH   1   6
ATOM      6  C   UNL     1      19.062  19.586  18.062  1.00  0.00     0.000 C 
BRANCH   6   7
ATOM      7  C   UNL     1      18.587  19.620  19.530  1.00  0.00    -0.000 C 
BRANCH   7   8
ATOM      8  C   UNL     1      19.060  20.864  20.301  1.00  0.00    -0.003 C 
ATOM      9  C   UNL     1      20.492  20.740  20.817  1.00  0.00     0.004 C 
ENDBRANCH   7   8
ENDBRANCH   6   7
ENDBRANCH   1   6
TORSDOF 5
ENDMDL
MODEL 9
REMARK VINA RESULT:    -2.469     22.868     23.482
REMARK INTER + INTRA:          -3.305
REMARK INTER:                  -3.044
REMARK INTRA:                  -0.261
REMARK UNBOUND:                -0.113
REMARK SMILES CCCCCCC(=O)[O-]
REMARK SMILES IDX 5 1 6 2 7 3 8 4 9 5 4 6 3 7 2 8 1 9
REMARK H PARENT
REMARK Flexibility Score: inf
ROOT
ATOM      1  C   UNL     1      19.581  20.268  18.478  1.00  0.00     0.006 C 
ENDROOT
BRANCH   1   2
ATOM      2  C   UNL     1      19.108  20.201  19.936  1.00  0.00     0.053 C 
BRANCH   2   3
ATOM      3  C   UNL     1      20.105  20.817  20.870  1.00  0.00     0.041 C 
ATOM      4  O   UNL     1      19.713  21.495  21.856  1.00  0.00    -0.550 OA
ATOM      5  O   UNL     1      21.464  20.616  20.670  1.00  0.00    -0.550 OA
ENDBRANCH   2   3
ENDBRANCH   1   2
BRANCH   1   6
ATOM      6  C   UNL     1      18.916  19.193  17.601  1.00  0.00     0.000 C 
BRANCH   6   7
ATOM      7  C   UNL     1      17.595  18.678  18.212  1.00  0.00    -0.000 C 
BRANCH   7   8
ATOM      8  C   UNL     1      16.348  19.075  17.405  1.00  0.00    -0.003 C 
ATOM      9  C   UNL     1      16.006  20.559  17.522  1.00  0.00     0.004 C 
ENDBRANCH   7   8
ENDBRANCH   6   7
ENDBRANCH   1   6
TORSDOF 5
ENDMDL
