MODEL 1
REMARK VINA RESULT:    -4.948      0.000      0.000
REMARK INTER + INTRA:          -5.564
REMARK INTER:                  -5.527
REMARK INTRA:                  -0.038
REMARK UNBOUND:                -0.038
REMARK SMILES O=C([O-])c1ccc(O)c(O)c1
REMARK SMILES IDX 4 1 11 2 5 3 9 4 6 5 7 6 2 7 1 8 3 9 10 10 8 12
REMARK H PARENT 10 11 8 13
REMARK Flexibility Score: inf
ROOT
ATOM      1  C   UNL     1       9.232  -6.849  -7.875  1.00  0.00     0.001 A 
ATOM      2  C   UNL     1      10.181  -6.091  -7.166  1.00  0.00     0.060 A 
ATOM      3  C   UNL     1       7.893  -6.836  -7.446  1.00  0.00     0.014 A 
ATOM      4  C   UNL     1       9.800  -5.333  -6.049  1.00  0.00     0.158 A 
ATOM      5  C   UNL     1       7.513  -6.081  -6.334  1.00  0.00     0.051 A 
ATOM      6  C   UNL     1       8.459  -5.329  -5.632  1.00  0.00     0.157 A 
ENDROOT
BRANCH   1   7
ATOM      7  C   UNL     1       9.640  -7.647  -9.052  1.00  0.00     0.072 C 
ATOM      8  O   UNL     1      10.476  -8.582  -8.933  1.00  0.00    -0.545 OA
ATOM      9  O   UNL     1       9.106  -7.375 -10.306  1.00  0.00    -0.545 OA
ENDBRANCH   1   7
BRANCH   4  10
ATOM     10  O   UNL     1      10.749  -4.584  -5.354  1.00  0.00    -0.504 OA
ATOM     11  H   UNL     1      10.642  -4.375  -4.368  1.00  0.00     0.293 HD
ENDBRANCH   4  10
BRANCH   6  12
ATOM     12  O   UNL     1       8.049  -4.585  -4.526  1.00  0.00    -0.504 OA
ATOM     13  H   UNL     1       7.086  -4.574  -4.212  1.00  0.00     0.293 HD
ENDBRANCH   6  12
TORSDOF 3
ENDMDL
MODEL 2
REMARK VINA RESULT:    -4.670      1.760      2.211
REMARK INTER + INTRA:          -5.254
REMARK INTER:                  -5.209
REMARK INTRA:                  -0.044
REMARK UNBOUND:                -0.038
REMARK SMILES O=C([O-])c1ccc(O)c(O)c1
REMARK SMILES IDX 4 1 11 2 5 3 9 4 6 5 7 6 2 7 1 8 3 9 10 10 8 12
REMARK H PARENT 10 11 8 13
REMARK Flexibility Score: inf
ROOT
ATOM      1  C   UNL     1       8.014  -6.546  -7.762  1.00  0.00     0.001 A 
ATOM      2  C   UNL     1       8.025  -5.440  -6.893  1.00  0.00     0.060 A 
ATOM      3  C   UNL     1       7.937  -7.840  -7.216  1.00  0.00     0.014 A 
ATOM      4  C   UNL     1       7.961  -5.623  -5.504  1.00  0.00     0.158 A 
ATOM      5  C   UNL     1       7.872  -8.022  -5.832  1.00  0.00     0.051 A 
ATOM      6  C   UNL     1       7.883  -6.920  -4.972  1.00  0.00     0.157 A 
ENDROOT
BRANCH   1   7
ATOM      7  C   UNL     1       8.084  -6.348  -9.226  1.00  0.00     0.072 C 
ATOM      8  O   UNL     1       8.070  -7.336 -10.008  1.00  0.00    -0.545 OA
ATOM      9  O   UNL     1       8.165  -5.067  -9.760  1.00  0.00    -0.545 OA
ENDBRANCH   1   7
BRANCH   4  10
ATOM     10  O   UNL     1       7.971  -4.519  -4.651  1.00  0.00    -0.504 OA
ATOM     11  H   UNL     1       7.963  -3.571  -5.010  1.00  0.00     0.293 HD
ENDBRANCH   4  10
BRANCH   6  12
ATOM     12  O   UNL     1       7.817  -7.134  -3.596  1.00  0.00    -0.504 OA
ATOM     13  H   UNL     1       7.212  -7.837  -3.189  1.00  0.00     0.293 HD
ENDBRANCH   6  12
TORSDOF 3
ENDMDL
MODEL 3
REMARK VINA RESULT:    -4.585      1.834      2.712
REMARK INTER + INTRA:          -5.159
REMARK INTER:                  -5.122
REMARK INTRA:                  -0.037
REMARK UNBOUND:                -0.038
REMARK SMILES O=C([O-])c1ccc(O)c(O)c1
REMARK SMILES IDX 4 1 11 2 5 3 9 4 6 5 7 6 2 7 1 8 3 9 10 10 8 12
REMARK H PARENT 10 11 8 13
REMARK Flexibility Score: inf
ROOT
ATOM      1  C   UNL     1       8.534  -7.572  -9.222  1.00  0.00     0.001 A 
ATOM      2  C   UNL     1       7.921  -6.433  -8.670  1.00  0.00     0.060 A 
ATOM      3  C   UNL     1       9.832  -7.917  -8.804  1.00  0.00     0.014 A 
ATOM      4  C   UNL     1       8.591  -5.653  -7.717  1.00  0.00     0.158 A 
ATOM      5  C   UNL     1      10.499  -7.140  -7.854  1.00  0.00     0.051 A 
ATOM      6  C   UNL     1       9.886  -6.009  -7.307  1.00  0.00     0.157 A 
ENDROOT
BRANCH   1   7
ATOM      7  C   UNL     1       7.823  -8.391 -10.228  1.00  0.00     0.072 C 
ATOM      8  O   UNL     1       7.419  -9.550  -9.941  1.00  0.00    -0.545 OA
ATOM      9  O   UNL     1       7.590  -7.893 -11.505  1.00  0.00    -0.545 OA
ENDBRANCH   1   7
BRANCH   4  10
ATOM     10  O   UNL     1       7.973  -4.526  -7.175  1.00  0.00    -0.504 OA
ATOM     11  H   UNL     1       7.498  -3.848  -7.759  1.00  0.00     0.293 HD
ENDBRANCH   4  10
BRANCH   6  12
ATOM     12  O   UNL     1      10.578  -5.253  -6.361  1.00  0.00    -0.504 OA
ATOM     13  H   UNL     1      10.882  -5.645  -5.478  1.00  0.00     0.293 HD
ENDBRANCH   6  12
TORSDOF 3
ENDMDL
MODEL 4
REMARK VINA RESULT:    -4.536     17.391     18.645
REMARK INTER + INTRA:          -5.104
REMARK INTER:                  -5.066
REMARK INTRA:                  -0.038
REMARK UNBOUND:                -0.038
REMARK SMILES O=C([O-])c1ccc(O)c(O)c1
REMARK SMILES IDX 4 1 11 2 5 3 9 4 6 5 7 6 2 7 1 8 3 9 10 10 8 12
REMARK H PARENT 10 11 8 13
REMARK Flexibility Score: inf
ROOT
ATOM      1  C   UNL     1      21.114   0.825 -20.587  1.00  0.00     0.001 A 
ATOM      2  C   UNL     1      19.976   0.001 -20.642  1.00  0.00     0.060 A 
ATOM      3  C   UNL     1      21.640   1.178 -19.331  1.00  0.00     0.014 A 
ATOM      4  C   UNL     1      19.373  -0.464 -19.464  1.00  0.00     0.158 A 
ATOM      5  C   UNL     1      21.040   0.713 -18.157  1.00  0.00     0.051 A 
ATOM      6  C   UNL     1      19.909  -0.106 -18.217  1.00  0.00     0.157 A 
ENDROOT
BRANCH   1   7
ATOM      7  C   UNL     1      21.744   1.314 -21.833  1.00  0.00     0.072 C 
ATOM      8  O   UNL     1      21.829   2.549 -22.066  1.00  0.00    -0.545 OA
ATOM      9  O   UNL     1      22.253   0.416 -22.764  1.00  0.00    -0.545 OA
ENDBRANCH   1   7
BRANCH   4  10
ATOM     10  O   UNL     1      18.246  -1.282 -19.530  1.00  0.00    -0.504 OA
ATOM     11  H   UNL     1      18.211  -2.177 -19.056  1.00  0.00     0.293 HD
ENDBRANCH   4  10
BRANCH   6  12
ATOM     12  O   UNL     1      19.333  -0.553 -17.027  1.00  0.00    -0.504 OA
ATOM     13  H   UNL     1      18.502  -0.126 -16.639  1.00  0.00     0.293 HD
ENDBRANCH   6  12
TORSDOF 3
ENDMDL
MODEL 5
REMARK VINA RESULT:    -4.534     17.984     19.407
REMARK INTER + INTRA:          -5.102
REMARK INTER:                  -5.064
REMARK INTRA:                  -0.038
REMARK UNBOUND:                -0.038
REMARK SMILES O=C([O-])c1ccc(O)c(O)c1
REMARK SMILES IDX 4 1 11 2 5 3 9 4 6 5 7 6 2 7 1 8 3 9 10 10 8 12
REMARK H PARENT 10 11 8 13
REMARK Flexibility Score: inf
ROOT
ATOM      1  C   UNL     1      20.368  -0.524 -20.433  1.00  0.00     0.001 A 
ATOM      2  C   UNL     1      20.733   0.784 -20.066  1.00  0.00     0.060 A 
ATOM      3  C   UNL     1      20.732  -1.001 -21.705  1.00  0.00     0.014 A 
ATOM      4  C   UNL     1      21.449   1.601 -20.952  1.00  0.00     0.158 A 
ATOM      5  C   UNL     1      21.446  -0.187 -22.588  1.00  0.00     0.051 A 
ATOM      6  C   UNL     1      21.807   1.112 -22.219  1.00  0.00     0.157 A 
ENDROOT
BRANCH   1   7
ATOM      7  C   UNL     1      19.611  -1.381 -19.493  1.00  0.00     0.072 C 
ATOM      8  O   UNL     1      18.508  -0.996 -19.022  1.00  0.00    -0.545 OA
ATOM      9  O   UNL     1      20.108  -2.624 -19.118  1.00  0.00    -0.545 OA
ENDBRANCH   1   7
BRANCH   4  10
ATOM     10  O   UNL     1      21.807   2.895 -20.578  1.00  0.00    -0.504 OA
ATOM     11  H   UNL     1      22.453   3.069 -19.817  1.00  0.00     0.293 HD
ENDBRANCH   4  10
BRANCH   6  12
ATOM     12  O   UNL     1      22.520   1.899 -23.123  1.00  0.00    -0.504 OA
ATOM     13  H   UNL     1      22.702   2.881 -22.954  1.00  0.00     0.293 HD
ENDBRANCH   6  12
TORSDOF 3
ENDMDL
MODEL 6
REMARK VINA RESULT:    -4.534      1.778      2.726
REMARK INTER + INTRA:          -5.102
REMARK INTER:                  -5.063
REMARK INTRA:                  -0.039
REMARK UNBOUND:                -0.038
REMARK SMILES O=C([O-])c1ccc(O)c(O)c1
REMARK SMILES IDX 4 1 11 2 5 3 9 4 6 5 7 6 2 7 1 8 3 9 10 10 8 12
REMARK H PARENT 10 11 8 13
REMARK Flexibility Score: inf
ROOT
ATOM      1  C   UNL     1       8.473  -7.311  -9.456  1.00  0.00     0.001 A 
ATOM      2  C   UNL     1       9.840  -7.023  -9.610  1.00  0.00     0.060 A 
ATOM      3  C   UNL     1       7.821  -6.913  -8.275  1.00  0.00     0.014 A 
ATOM      4  C   UNL     1      10.545  -6.348  -8.602  1.00  0.00     0.158 A 
ATOM      5  C   UNL     1       8.523  -6.239  -7.272  1.00  0.00     0.051 A 
ATOM      6  C   UNL     1       9.882  -5.954  -7.429  1.00  0.00     0.157 A 
ENDROOT
BRANCH   1   7
ATOM      7  C   UNL     1       7.734  -8.025 -10.521  1.00  0.00     0.072 C 
ATOM      8  O   UNL     1       7.752  -7.600 -11.707  1.00  0.00    -0.545 OA
ATOM      9  O   UNL     1       7.011  -9.175 -10.228  1.00  0.00    -0.545 OA
ENDBRANCH   1   7
BRANCH   4  10
ATOM     10  O   UNL     1      11.901  -6.065  -8.765  1.00  0.00    -0.504 OA
ATOM     11  H   UNL     1      12.223  -5.374  -9.433  1.00  0.00     0.293 HD
ENDBRANCH   4  10
BRANCH   6  12
ATOM     12  O   UNL     1      10.555  -5.281  -6.409  1.00  0.00    -0.504 OA
ATOM     13  H   UNL     1      10.246  -4.381  -6.064  1.00  0.00     0.293 HD
ENDBRANCH   6  12
TORSDOF 3
ENDMDL
MODEL 7
REMARK VINA RESULT:    -4.486     17.030     18.476
REMARK INTER + INTRA:          -5.048
REMARK INTER:                  -5.010
REMARK INTRA:                  -0.037
REMARK UNBOUND:                -0.038
REMARK SMILES O=C([O-])c1ccc(O)c(O)c1
REMARK SMILES IDX 4 1 11 2 5 3 9 4 6 5 7 6 2 7 1 8 3 9 10 10 8 12
REMARK H PARENT 10 11 8 13
REMARK Flexibility Score: inf
ROOT
ATOM      1  C   UNL     1      20.757   0.220 -18.380  1.00  0.00     0.001 A 
ATOM      2  C   UNL     1      21.235   1.062 -19.400  1.00  0.00     0.060 A 
ATOM      3  C   UNL     1      20.264  -1.052 -18.722  1.00  0.00     0.014 A 
ATOM      4  C   UNL     1      21.222   0.641 -20.738  1.00  0.00     0.158 A 
ATOM      5  C   UNL     1      20.252  -1.472 -20.055  1.00  0.00     0.051 A 
ATOM      6  C   UNL     1      20.728  -0.632 -21.066  1.00  0.00     0.157 A 
ENDROOT
BRANCH   1   7
ATOM      7  C   UNL     1      20.771   0.670 -16.971  1.00  0.00     0.072 C 
ATOM      8  O   UNL     1      21.863   0.876 -16.376  1.00  0.00    -0.545 OA
ATOM      9  O   UNL     1      19.580   0.871 -16.283  1.00  0.00    -0.545 OA
ENDBRANCH   1   7
BRANCH   4  10
ATOM     10  O   UNL     1      21.700   1.484 -21.742  1.00  0.00    -0.504 OA
ATOM     11  H   UNL     1      21.177   1.643 -22.594  1.00  0.00     0.293 HD
ENDBRANCH   4  10
BRANCH   6  12
ATOM     12  O   UNL     1      20.703  -1.079 -22.387  1.00  0.00    -0.504 OA
ATOM     13  H   UNL     1      20.418  -0.480 -23.152  1.00  0.00     0.293 HD
ENDBRANCH   6  12
TORSDOF 3
ENDMDL
MODEL 8
REMARK VINA RESULT:    -4.473      2.092      2.878
REMARK INTER + INTRA:          -5.033
REMARK INTER:                  -4.991
REMARK INTRA:                  -0.042
REMARK UNBOUND:                -0.038
REMARK SMILES O=C([O-])c1ccc(O)c(O)c1
REMARK SMILES IDX 4 1 11 2 5 3 9 4 6 5 7 6 2 7 1 8 3 9 10 10 8 12
REMARK H PARENT 10 11 8 13
REMARK Flexibility Score: inf
ROOT
ATOM      1  C   UNL     1       9.205  -5.889  -9.435  1.00  0.00     0.001 A 
ATOM      2  C   UNL     1       7.923  -5.321  -9.333  1.00  0.00     0.060 A 
ATOM      3  C   UNL     1       9.909  -6.199  -8.257  1.00  0.00     0.014 A 
ATOM      4  C   UNL     1       7.352  -5.068  -8.077  1.00  0.00     0.158 A 
ATOM      5  C   UNL     1       9.340  -5.948  -7.006  1.00  0.00     0.051 A 
ATOM      6  C   UNL     1       8.064  -5.384  -6.909  1.00  0.00     0.157 A 
ENDROOT
BRANCH   1   7
ATOM      7  C   UNL     1       9.803  -6.152 -10.762  1.00  0.00     0.072 C 
ATOM      8  O   UNL     1       9.078  -6.492 -11.735  1.00  0.00    -0.545 OA
ATOM      9  O   UNL     1      11.174  -6.027 -10.955  1.00  0.00    -0.545 OA
ENDBRANCH   1   7
BRANCH   4  10
ATOM     10  O   UNL     1       6.079  -4.507  -7.986  1.00  0.00    -0.504 OA
ATOM     11  H   UNL     1       5.243  -5.080  -7.998  1.00  0.00     0.293 HD
ENDBRANCH   4  10
BRANCH   6  12
ATOM     12  O   UNL     1       7.523  -5.146  -5.645  1.00  0.00    -0.504 OA
ATOM     13  H   UNL     1       6.628  -4.689  -5.521  1.00  0.00     0.293 HD
ENDBRANCH   6  12
TORSDOF 3
ENDMDL
MODEL 9
REMARK VINA RESULT:    -4.429     16.937     18.067
REMARK INTER + INTRA:          -4.984
REMARK INTER:                  -4.944
REMARK INTRA:                  -0.040
REMARK UNBOUND:                -0.038
REMARK SMILES O=C([O-])c1ccc(O)c(O)c1
REMARK SMILES IDX 4 1 11 2 5 3 9 4 6 5 7 6 2 7 1 8 3 9 10 10 8 12
REMARK H PARENT 10 11 8 13
REMARK Flexibility Score: inf
ROOT
ATOM      1  C   UNL     1      20.732   0.309 -20.408  1.00  0.00     0.001 A 
ATOM      2  C   UNL     1      21.125   0.705 -19.117  1.00  0.00     0.060 A 
ATOM      3  C   UNL     1      19.685  -0.620 -20.546  1.00  0.00     0.014 A 
ATOM      4  C   UNL     1      20.484   0.184 -17.984  1.00  0.00     0.158 A 
ATOM      5  C   UNL     1      19.045  -1.139 -19.417  1.00  0.00     0.051 A 
ATOM      6  C   UNL     1      19.439  -0.742 -18.136  1.00  0.00     0.157 A 
ENDROOT
BRANCH   1   7
ATOM      7  C   UNL     1      21.413   0.861 -21.599  1.00  0.00     0.072 C 
ATOM      8  O   UNL     1      21.683   2.090 -21.670  1.00  0.00    -0.545 OA
ATOM      9  O   UNL     1      21.765   0.031 -22.657  1.00  0.00    -0.545 OA
ENDBRANCH   1   7
BRANCH   4  10
ATOM     10  O   UNL     1      20.880   0.585 -16.708  1.00  0.00    -0.504 OA
ATOM     11  H   UNL     1      21.780   0.322 -16.325  1.00  0.00     0.293 HD
ENDBRANCH   4  10
BRANCH   6  12
ATOM     12  O   UNL     1      18.781  -1.277 -17.028  1.00  0.00    -0.504 OA
ATOM     13  H   UNL     1      18.327  -2.182 -17.058  1.00  0.00     0.293 HD
ENDBRANCH   6  12
TORSDOF 3
ENDMDL
