MODEL 1
REMARK VINA RESULT:    12.162      0.000      0.000
REMARK INTER + INTRA:          15.930
REMARK INTER:                  15.361
REMARK INTRA:                   0.569
REMARK UNBOUND:                 0.569
REMARK SMILES CC(C)[C@@H](C)C=C[C@H](C)[C@H]1CC[C@H]2C3=CC=C4C[C@@H](O)CC[C@]4(C)[C@H]3CC[C@]12C
REMARK SMILES IDX 8 1 9 2 7 3 6 4 4 5 5 6 2 7 1 8 3 9 10 10 11 11 28 12 12 13
REMARK SMILES IDX 13 14 27 15 29 16 14 17 26 18 25 19 15 20 23 21 16 22 17 23
REMARK SMILES IDX 22 24 24 25 18 26 21 27 19 28 20 29
REMARK H PARENT 20 30
REMARK Flexibility Score: inf
ROOT
ATOM      1  C   UNL     1     134.348 134.773 138.034  1.00  0.00     0.012 C 
ATOM      2  C   UNL     1     133.291 135.762 138.545  1.00  0.00     0.012 C 
ENDROOT
BRANCH   1   3
ATOM      3  C   UNL     1     135.053 134.163 139.228  1.00  0.00    -0.028 C 
ATOM      4  C   UNL     1     136.395 134.130 139.313  1.00  0.00    -0.028 C 
BRANCH   4   5
ATOM      5  C   UNL     1     137.101 133.509 140.500  1.00  0.00     0.011 C 
ATOM      6  C   UNL     1     136.720 134.243 141.798  1.00  0.00     0.012 C 
BRANCH   5   7
ATOM      7  C   UNL     1     138.641 133.437 140.262  1.00  0.00    -0.011 C 
ATOM      8  C   UNL     1     139.168 131.995 140.357  1.00  0.00     0.008 C 
ATOM      9  C   UNL     1     139.454 134.359 141.188  1.00  0.00     0.008 C 
ENDBRANCH   5   7
ENDBRANCH   4   5
ENDBRANCH   1   3
BRANCH   1  10
ATOM     10  C   UNL     1     133.813 133.649 137.072  1.00  0.00     0.002 C 
ATOM     11  C   UNL     1     134.776 133.076 135.995  1.00  0.00     0.005 C 
ATOM     12  C   UNL     1     133.235 132.391 137.765  1.00  0.00    -0.023 C 
ATOM     13  C   UNL     1     134.352 131.611 135.767  1.00  0.00     0.009 C 
ATOM     14  C   UNL     1     133.056 131.461 136.562  1.00  0.00     0.021 C 
ATOM     15  C   UNL     1     131.838 132.599 138.392  1.00  0.00     0.008 C 
ATOM     16  C   UNL     1     134.239 131.813 138.812  1.00  0.00     0.012 C 
ATOM     17  C   UNL     1     132.548 130.103 136.978  1.00  0.00    -0.063 C 
ATOM     18  C   UNL     1     131.244 131.265 138.904  1.00  0.00     0.009 C 
ATOM     19  C   UNL     1     131.299 130.080 137.871  1.00  0.00     0.025 C 
ATOM     20  C   UNL     1     132.898 128.999 136.296  1.00  0.00    -0.000 C 
ATOM     21  C   UNL     1     131.092 128.655 138.521  1.00  0.00    -0.005 C 
ATOM     22  C   UNL     1     132.153 127.741 136.456  1.00  0.00    -0.000 C 
ATOM     23  C   UNL     1     131.242 127.596 137.428  1.00  0.00    -0.061 C 
ATOM     24  C   UNL     1     129.678 128.516 139.176  1.00  0.00     0.014 C 
ATOM     25  C   UNL     1     132.172 128.347 139.591  1.00  0.00     0.017 C 
ATOM     26  C   UNL     1     130.320 126.405 137.450  1.00  0.00     0.063 C 
ATOM     27  C   UNL     1     128.582 128.195 138.143  1.00  0.00     0.033 C 
ATOM     28  C   UNL     1     128.848 126.869 137.380  1.00  0.00     0.118 C 
BRANCH  28  29
ATOM     29  O   UNL     1     128.003 125.861 137.880  1.00  0.00    -0.393 OA
ATOM     30  H   UNL     1     127.970 125.146 137.194  1.00  0.00     0.210 HD
ENDBRANCH  28  29
ENDBRANCH   1  10
TORSDOF 5
ENDMDL
MODEL 2
REMARK VINA RESULT:    13.798      3.437      8.558
REMARK INTER + INTRA:          17.997
REMARK INTER:                  17.696
REMARK INTRA:                   0.301
REMARK UNBOUND:                 0.569
REMARK SMILES CC(C)[C@@H](C)C=C[C@H](C)[C@H]1CC[C@H]2C3=CC=C4C[C@@H](O)CC[C@]4(C)[C@H]3CC[C@]12C
REMARK SMILES IDX 8 1 9 2 7 3 6 4 4 5 5 6 2 7 1 8 3 9 10 10 11 11 28 12 12 13
REMARK SMILES IDX 13 14 27 15 29 16 14 17 26 18 25 19 15 20 23 21 16 22 17 23
REMARK SMILES IDX 22 24 24 25 18 26 21 27 19 28 20 29
REMARK H PARENT 20 30
REMARK Flexibility Score: inf
ROOT
ATOM      1  C   UNL     1     133.053 132.928 136.256  1.00  0.00     0.012 C 
ATOM      2  C   UNL     1     134.063 132.011 135.554  1.00  0.00     0.012 C 
ENDROOT
BRANCH   1   3
ATOM      3  C   UNL     1     131.944 132.072 136.830  1.00  0.00    -0.028 C 
ATOM      4  C   UNL     1     132.190 130.859 137.358  1.00  0.00    -0.028 C 
BRANCH   4   5
ATOM      5  C   UNL     1     131.079 129.997 137.921  1.00  0.00     0.011 C 
ATOM      6  C   UNL     1     130.446 130.670 139.152  1.00  0.00     0.012 C 
BRANCH   5   7
ATOM      7  C   UNL     1     131.582 128.547 138.202  1.00  0.00    -0.011 C 
ATOM      8  C   UNL     1     131.522 127.667 136.942  1.00  0.00     0.008 C 
ATOM      9  C   UNL     1     130.854 127.854 139.366  1.00  0.00     0.008 C 
ENDBRANCH   5   7
ENDBRANCH   4   5
ENDBRANCH   1   3
BRANCH   1  10
ATOM     10  C   UNL     1     133.652 133.875 137.360  1.00  0.00     0.002 C 
ATOM     11  C   UNL     1     132.722 134.358 138.507  1.00  0.00     0.005 C 
ATOM     12  C   UNL     1     134.905 133.338 138.096  1.00  0.00    -0.023 C 
ATOM     13  C   UNL     1     133.620 134.555 139.744  1.00  0.00     0.009 C 
ATOM     14  C   UNL     1     135.042 134.373 139.215  1.00  0.00     0.021 C 
ATOM     15  C   UNL     1     136.203 133.396 137.260  1.00  0.00     0.008 C 
ATOM     16  C   UNL     1     134.659 131.899 138.652  1.00  0.00     0.012 C 
ATOM     17  C   UNL     1     136.184 134.043 140.143  1.00  0.00    -0.063 C 
ATOM     18  C   UNL     1     137.439 133.018 138.110  1.00  0.00     0.009 C 
ATOM     19  C   UNL     1     137.545 133.769 139.488  1.00  0.00     0.025 C 
ATOM     20  C   UNL     1     136.126 134.364 141.447  1.00  0.00    -0.000 C 
ATOM     21  C   UNL     1     138.542 133.092 140.511  1.00  0.00    -0.005 C 
ATOM     22  C   UNL     1     137.339 134.377 142.279  1.00  0.00    -0.000 C 
ATOM     23  C   UNL     1     138.495 133.873 141.824  1.00  0.00    -0.061 C 
ATOM     24  C   UNL     1     140.011 133.087 139.973  1.00  0.00     0.014 C 
ATOM     25  C   UNL     1     138.125 131.636 140.843  1.00  0.00     0.017 C 
ATOM     26  C   UNL     1     139.781 134.093 142.577  1.00  0.00     0.063 C 
ATOM     27  C   UNL     1     140.719 134.438 140.188  1.00  0.00     0.033 C 
ATOM     28  C   UNL     1     140.799 134.840 141.686  1.00  0.00     0.118 C 
BRANCH  28  29
ATOM     29  O   UNL     1     142.105 134.622 142.162  1.00  0.00    -0.393 OA
ATOM     30  H   UNL     1     142.515 133.935 141.576  1.00  0.00     0.210 HD
ENDBRANCH  28  29
ENDBRANCH   1  10
TORSDOF 5
ENDMDL
MODEL 3
REMARK VINA RESULT:    14.937      3.111      7.822
REMARK INTER + INTRA:          19.435
REMARK INTER:                  20.408
REMARK INTRA:                  -0.973
REMARK UNBOUND:                 0.569
REMARK SMILES CC(C)[C@@H](C)C=C[C@H](C)[C@H]1CC[C@H]2C3=CC=C4C[C@@H](O)CC[C@]4(C)[C@H]3CC[C@]12C
REMARK SMILES IDX 8 1 9 2 7 3 6 4 4 5 5 6 2 7 1 8 3 9 10 10 11 11 28 12 12 13
REMARK SMILES IDX 13 14 27 15 29 16 14 17 26 18 25 19 15 20 23 21 16 22 17 23
REMARK SMILES IDX 22 24 24 25 18 26 21 27 19 28 20 29
REMARK H PARENT 20 30
REMARK Flexibility Score: inf
ROOT
ATOM      1  C   UNL     1     130.884 131.269 136.104  1.00  0.00     0.012 C 
ATOM      2  C   UNL     1     130.204 130.873 134.786  1.00  0.00     0.012 C 
ENDROOT
BRANCH   1   3
ATOM      3  C   UNL     1     130.381 130.353 137.199  1.00  0.00    -0.028 C 
ATOM      4  C   UNL     1     130.965 129.167 137.450  1.00  0.00    -0.028 C 
BRANCH   4   5
ATOM      5  C   UNL     1     130.456 128.244 138.537  1.00  0.00     0.011 C 
ATOM      6  C   UNL     1     130.882 128.758 139.924  1.00  0.00     0.012 C 
BRANCH   5   7
ATOM      7  C   UNL     1     130.886 126.769 138.268  1.00  0.00    -0.011 C 
ATOM      8  C   UNL     1     131.530 126.126 139.508  1.00  0.00     0.008 C 
ATOM      9  C   UNL     1     131.809 126.606 137.048  1.00  0.00     0.008 C 
ENDBRANCH   5   7
ENDBRANCH   4   5
ENDBRANCH   1   3
BRANCH   1  10
ATOM     10  C   UNL     1     132.457 131.290 136.074  1.00  0.00     0.002 C 
ATOM     11  C   UNL     1     133.169 131.606 134.730  1.00  0.00     0.005 C 
ATOM     12  C   UNL     1     133.134 132.243 137.090  1.00  0.00    -0.023 C 
ATOM     13  C   UNL     1     134.496 132.301 135.092  1.00  0.00     0.009 C 
ATOM     14  C   UNL     1     134.587 132.179 136.612  1.00  0.00     0.021 C 
ATOM     15  C   UNL     1     133.111 131.733 138.548  1.00  0.00     0.008 C 
ATOM     16  C   UNL     1     132.544 133.685 136.989  1.00  0.00     0.012 C 
ATOM     17  C   UNL     1     135.479 133.092 137.417  1.00  0.00    -0.063 C 
ATOM     18  C   UNL     1     133.957 132.638 139.475  1.00  0.00     0.009 C 
ATOM     19  C   UNL     1     135.403 132.956 138.944  1.00  0.00     0.025 C 
ATOM     20  C   UNL     1     136.547 133.681 136.854  1.00  0.00    -0.000 C 
ATOM     21  C   UNL     1     136.091 134.186 139.659  1.00  0.00    -0.005 C 
ATOM     22  C   UNL     1     137.609 134.274 137.681  1.00  0.00    -0.000 C 
ATOM     23  C   UNL     1     137.450 134.431 139.002  1.00  0.00    -0.061 C 
ATOM     24  C   UNL     1     136.302 133.926 141.187  1.00  0.00     0.014 C 
ATOM     25  C   UNL     1     135.269 135.489 139.482  1.00  0.00     0.017 C 
ATOM     26  C   UNL     1     138.612 134.819 139.878  1.00  0.00     0.063 C 
ATOM     27  C   UNL     1     137.553 133.072 141.470  1.00  0.00     0.033 C 
ATOM     28  C   UNL     1     138.858 133.732 140.949  1.00  0.00     0.118 C 
BRANCH  28  29
ATOM     29  O   UNL     1     139.573 134.278 142.032  1.00  0.00    -0.393 OA
ATOM     30  H   UNL     1     140.142 135.003 141.666  1.00  0.00     0.210 HD
ENDBRANCH  28  29
ENDBRANCH   1  10
TORSDOF 5
ENDMDL
