MODEL 1
REMARK VINA RESULT:    -4.371      0.000      0.000
REMARK INTER + INTRA:          -4.806
REMARK INTER:                  -4.754
REMARK INTRA:                  -0.052
REMARK UNBOUND:                -0.052
REMARK SMILES CCc1cccc(O)c1
REMARK SMILES IDX 3 1 9 2 7 3 6 4 5 5 4 6 2 7 1 8 8 9
REMARK H PARENT 8 10
REMARK Flexibility Score: inf
ROOT
ATOM      1  C   UNL     1      32.643  28.373  78.130  1.00  0.00    -0.045 A 
ATOM      2  C   UNL     1      31.264  28.251  78.367  1.00  0.00     0.049 A 
ATOM      3  C   UNL     1      30.382  28.020  77.306  1.00  0.00     0.115 A 
ATOM      4  C   UNL     1      30.878  27.901  76.000  1.00  0.00     0.046 A 
ATOM      5  C   UNL     1      32.251  28.008  75.760  1.00  0.00     0.004 A 
ATOM      6  C   UNL     1      33.132  28.239  76.820  1.00  0.00     0.004 A 
ENDROOT
BRANCH   1   7
ATOM      7  C   UNL     1      33.594  28.589  79.276  1.00  0.00     0.032 C 
ATOM      8  C   UNL     1      32.991  28.082  80.581  1.00  0.00     0.009 C 
ENDBRANCH   1   7
BRANCH   3   9
ATOM      9  O   UNL     1      29.016  27.908  77.558  1.00  0.00    -0.508 OA
ATOM     10  H   UNL     1      28.371  28.653  77.323  1.00  0.00     0.293 HD
ENDBRANCH   3   9
TORSDOF 2
ENDMDL
MODEL 2
REMARK VINA RESULT:    -3.782      6.093      7.052
REMARK INTER + INTRA:          -4.166
REMARK INTER:                  -4.091
REMARK INTRA:                  -0.075
REMARK UNBOUND:                -0.052
REMARK SMILES CCc1cccc(O)c1
REMARK SMILES IDX 3 1 9 2 7 3 6 4 5 5 4 6 2 7 1 8 8 9
REMARK H PARENT 8 10
REMARK Flexibility Score: inf
ROOT
ATOM      1  C   UNL     1      28.713  30.253  73.214  1.00  0.00    -0.045 A 
ATOM      2  C   UNL     1      29.979  30.734  72.842  1.00  0.00     0.049 A 
ATOM      3  C   UNL     1      30.161  32.087  72.534  1.00  0.00     0.115 A 
ATOM      4  C   UNL     1      29.074  32.970  72.607  1.00  0.00     0.046 A 
ATOM      5  C   UNL     1      27.814  32.499  72.990  1.00  0.00     0.004 A 
ATOM      6  C   UNL     1      27.634  31.148  73.297  1.00  0.00     0.004 A 
ENDROOT
BRANCH   1   7
ATOM      7  C   UNL     1      28.528  28.804  73.576  1.00  0.00     0.032 C 
ATOM      8  C   UNL     1      27.210  28.596  74.314  1.00  0.00     0.009 C 
ENDBRANCH   1   7
BRANCH   3   9
ATOM      9  O   UNL     1      31.422  32.545  72.161  1.00  0.00    -0.508 OA
ATOM     10  H   UNL     1      31.729  32.523  71.195  1.00  0.00     0.293 HD
ENDBRANCH   3   9
TORSDOF 2
ENDMDL
MODEL 3
REMARK VINA RESULT:    -3.738      5.361      6.767
REMARK INTER + INTRA:          -4.117
REMARK INTER:                  -4.044
REMARK INTRA:                  -0.072
REMARK UNBOUND:                -0.052
REMARK SMILES CCc1cccc(O)c1
REMARK SMILES IDX 3 1 9 2 7 3 6 4 5 5 4 6 2 7 1 8 8 9
REMARK H PARENT 8 10
REMARK Flexibility Score: inf
ROOT
ATOM      1  C   UNL     1      28.473  30.186  73.279  1.00  0.00    -0.045 A 
ATOM      2  C   UNL     1      27.494  31.191  73.223  1.00  0.00     0.049 A 
ATOM      3  C   UNL     1      27.852  32.513  72.935  1.00  0.00     0.115 A 
ATOM      4  C   UNL     1      29.195  32.834  72.692  1.00  0.00     0.046 A 
ATOM      5  C   UNL     1      30.172  31.835  72.733  1.00  0.00     0.004 A 
ATOM      6  C   UNL     1      29.813  30.515  73.021  1.00  0.00     0.004 A 
ENDROOT
BRANCH   1   7
ATOM      7  C   UNL     1      28.081  28.759  73.556  1.00  0.00     0.032 C 
ATOM      8  C   UNL     1      29.248  27.986  74.160  1.00  0.00     0.009 C 
ENDBRANCH   1   7
BRANCH   3   9
ATOM      9  O   UNL     1      26.868  33.499  72.890  1.00  0.00    -0.508 OA
ATOM     10  H   UNL     1      26.105  33.455  72.225  1.00  0.00     0.293 HD
ENDBRANCH   3   9
TORSDOF 2
ENDMDL
MODEL 4
REMARK VINA RESULT:    -3.715     18.427     19.141
REMARK INTER + INTRA:          -4.092
REMARK INTER:                  -4.018
REMARK INTRA:                  -0.074
REMARK UNBOUND:                -0.052
REMARK SMILES CCc1cccc(O)c1
REMARK SMILES IDX 3 1 9 2 7 3 6 4 5 5 4 6 2 7 1 8 8 9
REMARK H PARENT 8 10
REMARK Flexibility Score: inf
ROOT
ATOM      1  C   UNL     1      29.324  45.048  84.226  1.00  0.00    -0.045 A 
ATOM      2  C   UNL     1      29.149  44.318  85.413  1.00  0.00     0.049 A 
ATOM      3  C   UNL     1      28.760  44.965  86.592  1.00  0.00     0.115 A 
ATOM      4  C   UNL     1      28.536  46.348  86.585  1.00  0.00     0.046 A 
ATOM      5  C   UNL     1      28.695  47.078  85.404  1.00  0.00     0.004 A 
ATOM      6  C   UNL     1      29.084  46.431  84.227  1.00  0.00     0.004 A 
ENDROOT
BRANCH   1   7
ATOM      7  C   UNL     1      29.710  44.345  82.952  1.00  0.00     0.032 C 
ATOM      8  C   UNL     1      29.250  45.141  81.736  1.00  0.00     0.009 C 
ENDBRANCH   1   7
BRANCH   3   9
ATOM      9  O   UNL     1      28.598  44.225  87.761  1.00  0.00    -0.508 OA
ATOM     10  H   UNL     1      27.986  44.540  88.506  1.00  0.00     0.293 HD
ENDBRANCH   3   9
TORSDOF 2
ENDMDL
MODEL 5
REMARK VINA RESULT:    -3.710      3.995      5.392
REMARK INTER + INTRA:          -4.087
REMARK INTER:                  -4.037
REMARK INTRA:                  -0.051
REMARK UNBOUND:                -0.052
REMARK SMILES CCc1cccc(O)c1
REMARK SMILES IDX 3 1 9 2 7 3 6 4 5 5 4 6 2 7 1 8 8 9
REMARK H PARENT 8 10
REMARK Flexibility Score: inf
ROOT
ATOM      1  C   UNL     1      30.055  29.105  74.236  1.00  0.00    -0.045 A 
ATOM      2  C   UNL     1      30.855  30.157  73.760  1.00  0.00     0.049 A 
ATOM      3  C   UNL     1      30.364  31.035  72.787  1.00  0.00     0.115 A 
ATOM      4  C   UNL     1      29.063  30.870  72.292  1.00  0.00     0.046 A 
ATOM      5  C   UNL     1      28.258  29.833  72.772  1.00  0.00     0.004 A 
ATOM      6  C   UNL     1      28.749  28.956  73.743  1.00  0.00     0.004 A 
ENDROOT
BRANCH   1   7
ATOM      7  C   UNL     1      30.573  28.182  75.306  1.00  0.00     0.032 C 
ATOM      8  C   UNL     1      32.080  28.339  75.472  1.00  0.00     0.009 C 
ENDBRANCH   1   7
BRANCH   3   9
ATOM      9  O   UNL     1      31.174  32.069  72.322  1.00  0.00    -0.508 OA
ATOM     10  H   UNL     1      30.885  33.038  72.388  1.00  0.00     0.293 HD
ENDBRANCH   3   9
TORSDOF 2
ENDMDL
MODEL 6
REMARK VINA RESULT:    -3.678     17.690     18.105
REMARK INTER + INTRA:          -4.052
REMARK INTER:                  -4.001
REMARK INTRA:                  -0.051
REMARK UNBOUND:                -0.052
REMARK SMILES CCc1cccc(O)c1
REMARK SMILES IDX 3 1 9 2 7 3 6 4 5 5 4 6 2 7 1 8 8 9
REMARK H PARENT 8 10
REMARK Flexibility Score: inf
ROOT
ATOM      1  C   UNL     1      29.174  45.184  83.211  1.00  0.00    -0.045 A 
ATOM      2  C   UNL     1      29.393  44.489  82.010  1.00  0.00     0.049 A 
ATOM      3  C   UNL     1      29.488  45.183  80.798  1.00  0.00     0.115 A 
ATOM      4  C   UNL     1      29.373  46.580  80.784  1.00  0.00     0.046 A 
ATOM      5  C   UNL     1      29.168  47.278  81.978  1.00  0.00     0.004 A 
ATOM      6  C   UNL     1      29.073  46.585  83.187  1.00  0.00     0.004 A 
ENDROOT
BRANCH   1   7
ATOM      7  C   UNL     1      29.105  44.440  84.517  1.00  0.00     0.032 C 
ATOM      8  C   UNL     1      30.484  43.936  84.925  1.00  0.00     0.009 C 
ENDBRANCH   1   7
BRANCH   3   9
ATOM      9  O   UNL     1      29.699  44.477  79.616  1.00  0.00    -0.508 OA
ATOM     10  H   UNL     1      29.550  44.905  78.710  1.00  0.00     0.293 HD
ENDBRANCH   3   9
TORSDOF 2
ENDMDL
MODEL 7
REMARK VINA RESULT:    -3.594     14.095     15.290
REMARK INTER + INTRA:          -3.960
REMARK INTER:                  -3.907
REMARK INTRA:                  -0.053
REMARK UNBOUND:                -0.052
REMARK SMILES CCc1cccc(O)c1
REMARK SMILES IDX 3 1 9 2 7 3 6 4 5 5 4 6 2 7 1 8 8 9
REMARK H PARENT 8 10
REMARK Flexibility Score: inf
ROOT
ATOM      1  C   UNL     1      23.351  35.220  86.550  1.00  0.00    -0.045 A 
ATOM      2  C   UNL     1      23.829  36.509  86.837  1.00  0.00     0.049 A 
ATOM      3  C   UNL     1      23.929  36.949  88.162  1.00  0.00     0.115 A 
ATOM      4  C   UNL     1      23.558  36.094  89.209  1.00  0.00     0.046 A 
ATOM      5  C   UNL     1      23.094  34.806  88.930  1.00  0.00     0.004 A 
ATOM      6  C   UNL     1      22.994  34.367  87.607  1.00  0.00     0.004 A 
ENDROOT
BRANCH   1   7
ATOM      7  C   UNL     1      23.275  34.738  85.126  1.00  0.00     0.032 C 
ATOM      8  C   UNL     1      21.839  34.780  84.617  1.00  0.00     0.009 C 
ENDBRANCH   1   7
BRANCH   3   9
ATOM      9  O   UNL     1      24.400  38.233  88.427  1.00  0.00    -0.508 OA
ATOM     10  H   UNL     1      25.357  38.499  88.224  1.00  0.00     0.293 HD
ENDBRANCH   3   9
TORSDOF 2
ENDMDL
MODEL 8
REMARK VINA RESULT:    -3.578     11.612     12.245
REMARK INTER + INTRA:          -3.943
REMARK INTER:                  -3.895
REMARK INTRA:                  -0.048
REMARK UNBOUND:                -0.052
REMARK SMILES CCc1cccc(O)c1
REMARK SMILES IDX 3 1 9 2 7 3 6 4 5 5 4 6 2 7 1 8 8 9
REMARK H PARENT 8 10
REMARK Flexibility Score: inf
ROOT
ATOM      1  C   UNL     1      30.826  38.853  73.815  1.00  0.00    -0.045 A 
ATOM      2  C   UNL     1      31.529  38.263  72.751  1.00  0.00     0.049 A 
ATOM      3  C   UNL     1      32.841  38.656  72.465  1.00  0.00     0.115 A 
ATOM      4  C   UNL     1      33.461  39.638  73.250  1.00  0.00     0.046 A 
ATOM      5  C   UNL     1      32.771  40.219  74.318  1.00  0.00     0.004 A 
ATOM      6  C   UNL     1      31.461  39.826  74.603  1.00  0.00     0.004 A 
ENDROOT
BRANCH   1   7
ATOM      7  C   UNL     1      29.427  38.405  74.141  1.00  0.00     0.032 C 
ATOM      8  C   UNL     1      28.412  39.108  73.246  1.00  0.00     0.009 C 
ENDBRANCH   1   7
BRANCH   3   9
ATOM      9  O   UNL     1      33.521  38.064  71.403  1.00  0.00    -0.508 OA
ATOM     10  H   UNL     1      33.557  37.058  71.292  1.00  0.00     0.293 HD
ENDBRANCH   3   9
TORSDOF 2
ENDMDL
MODEL 9
REMARK VINA RESULT:    -3.569      5.891      6.630
REMARK INTER + INTRA:          -3.934
REMARK INTER:                  -3.866
REMARK INTRA:                  -0.068
REMARK UNBOUND:                -0.052
REMARK SMILES CCc1cccc(O)c1
REMARK SMILES IDX 3 1 9 2 7 3 6 4 5 5 4 6 2 7 1 8 8 9
REMARK H PARENT 8 10
REMARK Flexibility Score: inf
ROOT
ATOM      1  C   UNL     1      28.083  30.112  73.012  1.00  0.00    -0.045 A 
ATOM      2  C   UNL     1      26.825  30.576  73.431  1.00  0.00     0.049 A 
ATOM      3  C   UNL     1      25.991  29.761  74.203  1.00  0.00     0.115 A 
ATOM      4  C   UNL     1      26.416  28.476  74.569  1.00  0.00     0.046 A 
ATOM      5  C   UNL     1      27.672  28.014  74.166  1.00  0.00     0.004 A 
ATOM      6  C   UNL     1      28.505  28.829  73.394  1.00  0.00     0.004 A 
ENDROOT
BRANCH   1   7
ATOM      7  C   UNL     1      28.992  31.003  72.209  1.00  0.00     0.032 C 
ATOM      8  C   UNL     1      30.366  31.101  72.862  1.00  0.00     0.009 C 
ENDBRANCH   1   7
BRANCH   3   9
ATOM      9  O   UNL     1      24.744  30.235  74.605  1.00  0.00    -0.508 OA
ATOM     10  H   UNL     1      24.514  30.358  75.584  1.00  0.00     0.293 HD
ENDBRANCH   3   9
TORSDOF 2
ENDMDL
