MODEL 1
REMARK VINA RESULT:    -3.660      0.000      0.000
REMARK INTER + INTRA:          -8.619
REMARK INTER:                  -6.656
REMARK INTRA:                  -1.963
REMARK UNBOUND:                -1.963
REMARK SMILES CCCCCCCCCCCCCCCC(=O)[O-]
REMARK SMILES IDX 9 1 10 2 11 3 12 4 13 5 14 6 15 7 16 8 17 9 18 10 8 11 7 12
REMARK SMILES IDX 6 13 5 14 4 15 3 16 2 17 1 18
REMARK H PARENT
REMARK Flexibility Score: inf
ROOT
ATOM      1  C   UNL     1     137.482 135.140 148.364  1.00  0.00     0.000 C 
ENDROOT
BRANCH   1   2
ATOM      2  C   UNL     1     138.282 134.863 149.647  1.00  0.00     0.000 C 
BRANCH   2   3
ATOM      3  C   UNL     1     139.753 134.519 149.366  1.00  0.00     0.000 C 
BRANCH   3   4
ATOM      4  C   UNL     1     140.692 135.452 150.140  1.00  0.00     0.000 C 
BRANCH   4   5
ATOM      5  C   UNL     1     141.541 136.298 149.183  1.00  0.00     0.000 C 
BRANCH   5   6
ATOM      6  C   UNL     1     141.892 135.507 147.914  1.00  0.00     0.006 C 
BRANCH   6   7
ATOM      7  C   UNL     1     143.322 134.954 147.951  1.00  0.00     0.053 C 
BRANCH   7   8
ATOM      8  C   UNL     1     144.135 135.442 146.791  1.00  0.00     0.041 C 
ATOM      9  O   UNL     1     143.910 135.008 145.630  1.00  0.00    -0.550 OA
ATOM     10  O   UNL     1     145.162 136.354 146.997  1.00  0.00    -0.550 OA
ENDBRANCH   7   8
ENDBRANCH   6   7
ENDBRANCH   5   6
ENDBRANCH   4   5
ENDBRANCH   3   4
ENDBRANCH   2   3
ENDBRANCH   1   2
BRANCH   1  11
ATOM     11  C   UNL     1     138.329 134.972 147.092  1.00  0.00     0.000 C 
BRANCH  11  12
ATOM     12  C   UNL     1     137.735 133.950 146.105  1.00  0.00    -0.000 C 
BRANCH  12  13
ATOM     13  C   UNL     1     138.368 132.547 146.149  1.00  0.00    -0.000 C 
BRANCH  13  14
ATOM     14  C   UNL     1     137.491 131.517 146.883  1.00  0.00    -0.000 C 
BRANCH  14  15
ATOM     15  C   UNL     1     136.020 131.954 146.974  1.00  0.00    -0.000 C 
BRANCH  15  16
ATOM     16  C   UNL     1     135.532 132.096 148.428  1.00  0.00    -0.000 C 
BRANCH  16  17
ATOM     17  C   UNL     1     136.522 131.499 149.441  1.00  0.00    -0.003 C 
ATOM     18  C   UNL     1     136.170 131.850 150.886  1.00  0.00     0.004 C 
ENDBRANCH  16  17
ENDBRANCH  15  16
ENDBRANCH  14  15
ENDBRANCH  13  14
ENDBRANCH  12  13
ENDBRANCH  11  12
ENDBRANCH   1  11
TORSDOF 14
ENDMDL
MODEL 2
REMARK VINA RESULT:    -3.631      2.624      4.693
REMARK INTER + INTRA:          -8.565
REMARK INTER:                  -6.854
REMARK INTRA:                  -1.712
REMARK UNBOUND:                -1.963
REMARK SMILES CCCCCCCCCCCCCCCC(=O)[O-]
REMARK SMILES IDX 9 1 10 2 11 3 12 4 13 5 14 6 15 7 16 8 17 9 18 10 8 11 7 12
REMARK SMILES IDX 6 13 5 14 4 15 3 16 2 17 1 18
REMARK H PARENT
REMARK Flexibility Score: inf
ROOT
ATOM      1  C   UNL     1     142.085 135.151 149.022  1.00  0.00     0.000 C 
ENDROOT
BRANCH   1   2
ATOM      2  C   UNL     1     141.742 136.642 148.874  1.00  0.00     0.000 C 
BRANCH   2   3
ATOM      3  C   UNL     1     142.538 137.325 147.751  1.00  0.00     0.000 C 
BRANCH   3   4
ATOM      4  C   UNL     1     143.665 136.415 147.247  1.00  0.00     0.000 C 
BRANCH   4   5
ATOM      5  C   UNL     1     144.657 137.198 146.377  1.00  0.00     0.000 C 
BRANCH   5   6
ATOM      6  C   UNL     1     146.106 136.893 146.785  1.00  0.00     0.006 C 
BRANCH   6   7
ATOM      7  C   UNL     1     146.862 138.152 147.228  1.00  0.00     0.053 C 
BRANCH   7   8
ATOM      8  C   UNL     1     147.846 138.601 146.191  1.00  0.00     0.041 C 
ATOM      9  O   UNL     1     149.023 138.155 146.196  1.00  0.00    -0.550 OA
ATOM     10  O   UNL     1     147.470 139.539 145.237  1.00  0.00    -0.550 OA
ENDBRANCH   7   8
ENDBRANCH   6   7
ENDBRANCH   5   6
ENDBRANCH   4   5
ENDBRANCH   3   4
ENDBRANCH   2   3
ENDBRANCH   1   2
BRANCH   1  11
ATOM     11  C   UNL     1     140.908 134.326 149.570  1.00  0.00     0.000 C 
BRANCH  11  12
ATOM     12  C   UNL     1     139.740 135.201 150.062  1.00  0.00    -0.000 C 
BRANCH  12  13
ATOM     13  C   UNL     1     138.339 134.587 149.891  1.00  0.00    -0.000 C 
BRANCH  13  14
ATOM     14  C   UNL     1     137.574 135.163 148.687  1.00  0.00    -0.000 C 
BRANCH  14  15
ATOM     15  C   UNL     1     137.909 134.436 147.373  1.00  0.00    -0.000 C 
BRANCH  15  16
ATOM     16  C   UNL     1     138.516 135.373 146.314  1.00  0.00    -0.000 C 
BRANCH  16  17
ATOM     17  C   UNL     1     139.956 134.985 145.942  1.00  0.00    -0.003 C 
ATOM     18  C   UNL     1     140.237 133.497 146.146  1.00  0.00     0.004 C 
ENDBRANCH  16  17
ENDBRANCH  15  16
ENDBRANCH  14  15
ENDBRANCH  13  14
ENDBRANCH  12  13
ENDBRANCH  11  12
ENDBRANCH   1  11
TORSDOF 14
ENDMDL
MODEL 3
REMARK VINA RESULT:    -3.542      3.880      8.361
REMARK INTER + INTRA:          -8.403
REMARK INTER:                  -7.375
REMARK INTRA:                  -1.028
REMARK UNBOUND:                -1.963
REMARK SMILES CCCCCCCCCCCCCCCC(=O)[O-]
REMARK SMILES IDX 9 1 10 2 11 3 12 4 13 5 14 6 15 7 16 8 17 9 18 10 8 11 7 12
REMARK SMILES IDX 6 13 5 14 4 15 3 16 2 17 1 18
REMARK H PARENT
REMARK Flexibility Score: inf
ROOT
ATOM      1  C   UNL     1     142.250 134.973 148.827  1.00  0.00     0.000 C 
ENDROOT
BRANCH   1   2
ATOM      2  C   UNL     1     140.952 134.322 149.332  1.00  0.00     0.000 C 
BRANCH   2   3
ATOM      3  C   UNL     1     140.176 135.222 150.305  1.00  0.00     0.000 C 
BRANCH   3   4
ATOM      4  C   UNL     1     138.680 134.888 150.286  1.00  0.00     0.000 C 
BRANCH   4   5
ATOM      5  C   UNL     1     138.103 135.025 148.871  1.00  0.00     0.000 C 
BRANCH   5   6
ATOM      6  C   UNL     1     136.743 134.319 148.760  1.00  0.00     0.006 C 
BRANCH   6   7
ATOM      7  C   UNL     1     136.749 132.939 149.430  1.00  0.00     0.053 C 
BRANCH   7   8
ATOM      8  C   UNL     1     135.723 132.027 148.829  1.00  0.00     0.041 C 
ATOM      9  O   UNL     1     135.266 132.257 147.679  1.00  0.00    -0.550 OA
ATOM     10  O   UNL     1     135.251 130.939 149.552  1.00  0.00    -0.550 OA
ENDBRANCH   7   8
ENDBRANCH   6   7
ENDBRANCH   5   6
ENDBRANCH   4   5
ENDBRANCH   3   4
ENDBRANCH   2   3
ENDBRANCH   1   2
BRANCH   1  11
ATOM     11  C   UNL     1     142.074 136.466 148.503  1.00  0.00     0.000 C 
BRANCH  11  12
ATOM     12  C   UNL     1     142.985 136.943 147.356  1.00  0.00    -0.000 C 
BRANCH  12  13
ATOM     13  C   UNL     1     143.937 135.878 146.784  1.00  0.00    -0.000 C 
BRANCH  13  14
ATOM     14  C   UNL     1     145.415 136.302 146.842  1.00  0.00    -0.000 C 
BRANCH  14  15
ATOM     15  C   UNL     1     145.605 137.810 146.607  1.00  0.00    -0.000 C 
BRANCH  15  16
ATOM     16  C   UNL     1     146.795 138.121 145.681  1.00  0.00    -0.000 C 
BRANCH  16  17
ATOM     17  C   UNL     1     146.351 138.485 144.255  1.00  0.00    -0.003 C 
ATOM     18  C   UNL     1     144.862 138.817 144.168  1.00  0.00     0.004 C 
ENDBRANCH  16  17
ENDBRANCH  15  16
ENDBRANCH  14  15
ENDBRANCH  13  14
ENDBRANCH  12  13
ENDBRANCH  11  12
ENDBRANCH   1  11
TORSDOF 14
ENDMDL
MODEL 4
REMARK VINA RESULT:    -3.513      2.272      5.370
REMARK INTER + INTRA:          -8.352
REMARK INTER:                  -6.045
REMARK INTRA:                  -2.307
REMARK UNBOUND:                -1.963
REMARK SMILES CCCCCCCCCCCCCCCC(=O)[O-]
REMARK SMILES IDX 9 1 10 2 11 3 12 4 13 5 14 6 15 7 16 8 17 9 18 10 8 11 7 12
REMARK SMILES IDX 6 13 5 14 4 15 3 16 2 17 1 18
REMARK H PARENT
REMARK Flexibility Score: inf
ROOT
ATOM      1  C   UNL     1     137.162 131.759 149.098  1.00  0.00     0.000 C 
ENDROOT
BRANCH   1   2
ATOM      2  C   UNL     1     137.944 131.239 147.881  1.00  0.00     0.000 C 
BRANCH   2   3
ATOM      3  C   UNL     1     139.394 131.747 147.846  1.00  0.00     0.000 C 
BRANCH   3   4
ATOM      4  C   UNL     1     139.583 132.786 146.735  1.00  0.00     0.000 C 
BRANCH   4   5
ATOM      5  C   UNL     1     138.511 132.633 145.649  1.00  0.00     0.000 C 
BRANCH   5   6
ATOM      6  C   UNL     1     137.856 133.985 145.328  1.00  0.00     0.006 C 
BRANCH   6   7
ATOM      7  C   UNL     1     138.715 135.171 145.786  1.00  0.00     0.053 C 
BRANCH   7   8
ATOM      8  C   UNL     1     138.710 136.280 144.779  1.00  0.00     0.041 C 
ATOM      9  O   UNL     1     139.789 136.675 144.265  1.00  0.00    -0.550 OA
ATOM     10  O   UNL     1     137.515 136.898 144.432  1.00  0.00    -0.550 OA
ENDBRANCH   7   8
ENDBRANCH   6   7
ENDBRANCH   5   6
ENDBRANCH   4   5
ENDBRANCH   3   4
ENDBRANCH   2   3
ENDBRANCH   1   2
BRANCH   1  11
ATOM     11  C   UNL     1     136.147 132.852 148.724  1.00  0.00     0.000 C 
BRANCH  11  12
ATOM     12  C   UNL     1     136.719 134.276 148.861  1.00  0.00    -0.000 C 
BRANCH  12  13
ATOM     13  C   UNL     1     137.806 134.448 149.936  1.00  0.00    -0.000 C 
BRANCH  13  14
ATOM     14  C   UNL     1     139.074 135.136 149.402  1.00  0.00    -0.000 C 
BRANCH  14  15
ATOM     15  C   UNL     1     140.225 135.127 150.422  1.00  0.00    -0.000 C 
BRANCH  15  16
ATOM     16  C   UNL     1     141.540 134.588 149.829  1.00  0.00    -0.000 C 
BRANCH  16  17
ATOM     17  C   UNL     1     141.910 135.272 148.503  1.00  0.00    -0.003 C 
ATOM     18  C   UNL     1     142.068 136.786 148.645  1.00  0.00     0.004 C 
ENDBRANCH  16  17
ENDBRANCH  15  16
ENDBRANCH  14  15
ENDBRANCH  13  14
ENDBRANCH  12  13
ENDBRANCH  11  12
ENDBRANCH   1  11
TORSDOF 14
ENDMDL
MODEL 5
REMARK VINA RESULT:    -3.511      1.330      2.441
REMARK INTER + INTRA:          -8.347
REMARK INTER:                  -6.553
REMARK INTRA:                  -1.794
REMARK UNBOUND:                -1.963
REMARK SMILES CCCCCCCCCCCCCCCC(=O)[O-]
REMARK SMILES IDX 9 1 10 2 11 3 12 4 13 5 14 6 15 7 16 8 17 9 18 10 8 11 7 12
REMARK SMILES IDX 6 13 5 14 4 15 3 16 2 17 1 18
REMARK H PARENT
REMARK Flexibility Score: inf
ROOT
ATOM      1  C   UNL     1     139.324 134.804 149.676  1.00  0.00     0.000 C 
ENDROOT
BRANCH   1   2
ATOM      2  C   UNL     1     140.705 135.332 150.097  1.00  0.00     0.000 C 
BRANCH   2   3
ATOM      3  C   UNL     1     141.841 134.351 149.768  1.00  0.00     0.000 C 
BRANCH   3   4
ATOM      4  C   UNL     1     142.709 134.883 148.620  1.00  0.00     0.000 C 
BRANCH   4   5
ATOM      5  C   UNL     1     142.405 136.359 148.339  1.00  0.00     0.000 C 
BRANCH   5   6
ATOM      6  C   UNL     1     142.384 136.638 146.828  1.00  0.00     0.006 C 
BRANCH   6   7
ATOM      7  C   UNL     1     143.390 135.770 146.063  1.00  0.00     0.053 C 
BRANCH   7   8
ATOM      8  C   UNL     1     144.705 136.468 145.890  1.00  0.00     0.041 C 
ATOM      9  O   UNL     1     144.948 137.114 144.837  1.00  0.00    -0.550 OA
ATOM     10  O   UNL     1     145.675 136.378 146.881  1.00  0.00    -0.550 OA
ENDBRANCH   7   8
ENDBRANCH   6   7
ENDBRANCH   5   6
ENDBRANCH   4   5
ENDBRANCH   3   4
ENDBRANCH   2   3
ENDBRANCH   1   2
BRANCH   1  11
ATOM     11  C   UNL     1     139.007 135.090 148.198  1.00  0.00     0.000 C 
BRANCH  11  12
ATOM     12  C   UNL     1     137.498 135.060 147.891  1.00  0.00    -0.000 C 
BRANCH  12  13
ATOM     13  C   UNL     1     136.644 134.225 148.862  1.00  0.00    -0.000 C 
BRANCH  13  14
ATOM     14  C   UNL     1     136.276 132.842 148.298  1.00  0.00    -0.000 C 
BRANCH  14  15
ATOM     15  C   UNL     1     136.616 131.700 149.271  1.00  0.00    -0.000 C 
BRANCH  15  16
ATOM     16  C   UNL     1     137.664 130.727 148.701  1.00  0.00    -0.000 C 
BRANCH  16  17
ATOM     17  C   UNL     1     138.457 131.336 147.533  1.00  0.00    -0.003 C 
ATOM     18  C   UNL     1     139.931 131.556 147.873  1.00  0.00     0.004 C 
ENDBRANCH  16  17
ENDBRANCH  15  16
ENDBRANCH  14  15
ENDBRANCH  13  14
ENDBRANCH  12  13
ENDBRANCH  11  12
ENDBRANCH   1  11
TORSDOF 14
ENDMDL
MODEL 6
REMARK VINA RESULT:    -3.503     11.533     14.164
REMARK INTER + INTRA:          -8.333
REMARK INTER:                  -7.067
REMARK INTRA:                  -1.266
REMARK UNBOUND:                -1.963
REMARK SMILES CCCCCCCCCCCCCCCC(=O)[O-]
REMARK SMILES IDX 9 1 10 2 11 3 12 4 13 5 14 6 15 7 16 8 17 9 18 10 8 11 7 12
REMARK SMILES IDX 6 13 5 14 4 15 3 16 2 17 1 18
REMARK H PARENT
REMARK Flexibility Score: inf
ROOT
ATOM      1  C   UNL     1     131.117 140.886 138.979  1.00  0.00     0.000 C 
ENDROOT
BRANCH   1   2
ATOM      2  C   UNL     1     129.727 140.697 138.350  1.00  0.00     0.000 C 
BRANCH   2   3
ATOM      3  C   UNL     1     129.435 139.233 137.986  1.00  0.00     0.000 C 
BRANCH   3   4
ATOM      4  C   UNL     1     129.299 139.061 136.468  1.00  0.00     0.000 C 
BRANCH   4   5
ATOM      5  C   UNL     1     130.423 138.179 135.910  1.00  0.00     0.000 C 
BRANCH   5   6
ATOM      6  C   UNL     1     131.062 137.333 137.022  1.00  0.00     0.006 C 
BRANCH   6   7
ATOM      7  C   UNL     1     132.499 136.918 136.684  1.00  0.00     0.053 C 
BRANCH   7   8
ATOM      8  C   UNL     1     132.646 135.429 136.623  1.00  0.00     0.041 C 
ATOM      9  O   UNL     1     132.940 134.776 137.659  1.00  0.00    -0.550 OA
ATOM     10  O   UNL     1     132.489 134.764 135.413  1.00  0.00    -0.550 OA
ENDBRANCH   7   8
ENDBRANCH   6   7
ENDBRANCH   5   6
ENDBRANCH   4   5
ENDBRANCH   3   4
ENDBRANCH   2   3
ENDBRANCH   1   2
BRANCH   1  11
ATOM     11  C   UNL     1     132.221 141.076 137.926  1.00  0.00     0.000 C 
BRANCH  11  12
ATOM     12  C   UNL     1     133.388 140.084 138.094  1.00  0.00    -0.000 C 
BRANCH  12  13
ATOM     13  C   UNL     1     134.721 140.706 138.547  1.00  0.00    -0.000 C 
BRANCH  13  14
ATOM     14  C   UNL     1     134.869 140.757 140.077  1.00  0.00    -0.000 C 
BRANCH  14  15
ATOM     15  C   UNL     1     136.329 140.599 140.534  1.00  0.00    -0.000 C 
BRANCH  15  16
ATOM     16  C   UNL     1     136.459 140.422 142.058  1.00  0.00    -0.000 C 
BRANCH  16  17
ATOM     17  C   UNL     1     137.494 141.376 142.674  1.00  0.00    -0.003 C 
ATOM     18  C   UNL     1     137.133 142.847 142.473  1.00  0.00     0.004 C 
ENDBRANCH  16  17
ENDBRANCH  15  16
ENDBRANCH  14  15
ENDBRANCH  13  14
ENDBRANCH  12  13
ENDBRANCH  11  12
ENDBRANCH   1  11
TORSDOF 14
ENDMDL
MODEL 7
REMARK VINA RESULT:    -3.495     10.760     12.270
REMARK INTER + INTRA:          -8.318
REMARK INTER:                  -7.131
REMARK INTRA:                  -1.187
REMARK UNBOUND:                -1.963
REMARK SMILES CCCCCCCCCCCCCCCC(=O)[O-]
REMARK SMILES IDX 9 1 10 2 11 3 12 4 13 5 14 6 15 7 16 8 17 9 18 10 8 11 7 12
REMARK SMILES IDX 6 13 5 14 4 15 3 16 2 17 1 18
REMARK H PARENT
REMARK Flexibility Score: inf
ROOT
ATOM      1  C   UNL     1     134.578 139.442 137.898  1.00  0.00     0.000 C 
ENDROOT
BRANCH   1   2
ATOM      2  C   UNL     1     135.479 139.711 139.113  1.00  0.00     0.000 C 
BRANCH   2   3
ATOM      3  C   UNL     1     134.924 140.811 140.031  1.00  0.00     0.000 C 
BRANCH   3   4
ATOM      4  C   UNL     1     136.051 141.480 140.829  1.00  0.00     0.000 C 
BRANCH   4   5
ATOM      5  C   UNL     1     136.424 140.645 142.060  1.00  0.00     0.000 C 
BRANCH   5   6
ATOM      6  C   UNL     1     137.646 141.238 142.777  1.00  0.00     0.006 C 
BRANCH   6   7
ATOM      7  C   UNL     1     137.566 142.765 142.897  1.00  0.00     0.053 C 
BRANCH   7   8
ATOM      8  C   UNL     1     138.825 143.425 142.424  1.00  0.00     0.041 C 
ATOM      9  O   UNL     1     139.041 143.573 141.193  1.00  0.00    -0.550 OA
ATOM     10  O   UNL     1     139.774 143.850 143.345  1.00  0.00    -0.550 OA
ENDBRANCH   7   8
ENDBRANCH   6   7
ENDBRANCH   5   6
ENDBRANCH   4   5
ENDBRANCH   3   4
ENDBRANCH   2   3
ENDBRANCH   1   2
BRANCH   1  11
ATOM     11  C   UNL     1     133.820 140.698 137.435  1.00  0.00     0.000 C 
BRANCH  11  12
ATOM     12  C   UNL     1     132.308 140.460 137.269  1.00  0.00    -0.000 C 
BRANCH  12  13
ATOM     13  C   UNL     1     131.418 141.091 138.355  1.00  0.00    -0.000 C 
BRANCH  13  14
ATOM     14  C   UNL     1     130.345 140.125 138.886  1.00  0.00    -0.000 C 
BRANCH  14  15
ATOM     15  C   UNL     1     129.169 139.955 137.909  1.00  0.00    -0.000 C 
BRANCH  15  16
ATOM     16  C   UNL     1     129.057 138.522 137.358  1.00  0.00    -0.000 C 
BRANCH  16  17
ATOM     17  C   UNL     1     130.023 137.548 138.052  1.00  0.00    -0.003 C 
ATOM     18  C   UNL     1     131.038 136.937 137.087  1.00  0.00     0.004 C 
ENDBRANCH  16  17
ENDBRANCH  15  16
ENDBRANCH  14  15
ENDBRANCH  13  14
ENDBRANCH  12  13
ENDBRANCH  11  12
ENDBRANCH   1  11
TORSDOF 14
ENDMDL
MODEL 8
REMARK VINA RESULT:    -3.486      1.572      2.890
REMARK INTER + INTRA:          -8.302
REMARK INTER:                  -5.884
REMARK INTRA:                  -2.419
REMARK UNBOUND:                -1.963
REMARK SMILES CCCCCCCCCCCCCCCC(=O)[O-]
REMARK SMILES IDX 9 1 10 2 11 3 12 4 13 5 14 6 15 7 16 8 17 9 18 10 8 11 7 12
REMARK SMILES IDX 6 13 5 14 4 15 3 16 2 17 1 18
REMARK H PARENT
REMARK Flexibility Score: inf
ROOT
ATOM      1  C   UNL     1     136.859 133.074 149.729  1.00  0.00     0.000 C 
ENDROOT
BRANCH   1   2
ATOM      2  C   UNL     1     136.758 134.433 149.017  1.00  0.00     0.000 C 
BRANCH   2   3
ATOM      3  C   UNL     1     138.102 135.175 148.962  1.00  0.00     0.000 C 
BRANCH   3   4
ATOM      4  C   UNL     1     138.987 134.795 150.156  1.00  0.00     0.000 C 
BRANCH   4   5
ATOM      5  C   UNL     1     140.356 135.482 150.067  1.00  0.00     0.000 C 
BRANCH   5   6
ATOM      6  C   UNL     1     141.459 134.468 149.728  1.00  0.00     0.006 C 
BRANCH   6   7
ATOM      7  C   UNL     1     142.163 134.796 148.405  1.00  0.00     0.053 C 
BRANCH   7   8
ATOM      8  C   UNL     1     143.349 133.910 148.174  1.00  0.00     0.041 C 
ATOM      9  O   UNL     1     144.443 134.401 147.790  1.00  0.00    -0.550 OA
ATOM     10  O   UNL     1     143.236 132.537 148.355  1.00  0.00    -0.550 OA
ENDBRANCH   7   8
ENDBRANCH   6   7
ENDBRANCH   5   6
ENDBRANCH   4   5
ENDBRANCH   3   4
ENDBRANCH   2   3
ENDBRANCH   1   2
BRANCH   1  11
ATOM     11  C   UNL     1     135.941 132.010 149.102  1.00  0.00     0.000 C 
BRANCH  11  12
ATOM     12  C   UNL     1     135.321 132.463 147.767  1.00  0.00    -0.000 C 
BRANCH  12  13
ATOM     13  C   UNL     1     135.848 131.736 146.517  1.00  0.00    -0.000 C 
BRANCH  13  14
ATOM     14  C   UNL     1     136.882 132.564 145.733  1.00  0.00    -0.000 C 
BRANCH  14  15
ATOM     15  C   UNL     1     138.292 131.953 145.792  1.00  0.00    -0.000 C 
BRANCH  15  16
ATOM     16  C   UNL     1     139.212 132.679 146.790  1.00  0.00    -0.000 C 
BRANCH  16  17
ATOM     17  C   UNL     1     139.929 131.708 147.742  1.00  0.00    -0.003 C 
ATOM     18  C   UNL     1     139.075 130.489 148.093  1.00  0.00     0.004 C 
ENDBRANCH  16  17
ENDBRANCH  15  16
ENDBRANCH  14  15
ENDBRANCH  13  14
ENDBRANCH  12  13
ENDBRANCH  11  12
ENDBRANCH   1  11
TORSDOF 14
ENDMDL
MODEL 9
REMARK VINA RESULT:    -3.485      1.628      3.522
REMARK INTER + INTRA:          -8.301
REMARK INTER:                  -6.175
REMARK INTRA:                  -2.126
REMARK UNBOUND:                -1.963
REMARK SMILES CCCCCCCCCCCCCCCC(=O)[O-]
REMARK SMILES IDX 9 1 10 2 11 3 12 4 13 5 14 6 15 7 16 8 17 9 18 10 8 11 7 12
REMARK SMILES IDX 6 13 5 14 4 15 3 16 2 17 1 18
REMARK H PARENT
REMARK Flexibility Score: inf
ROOT
ATOM      1  C   UNL     1     136.611 134.055 148.622  1.00  0.00     0.000 C 
ENDROOT
BRANCH   1   2
ATOM      2  C   UNL     1     137.115 133.919 150.068  1.00  0.00     0.000 C 
BRANCH   2   3
ATOM      3  C   UNL     1     138.415 134.699 150.319  1.00  0.00     0.000 C 
BRANCH   3   4
ATOM      4  C   UNL     1     139.085 135.087 148.996  1.00  0.00     0.000 C 
BRANCH   4   5
ATOM      5  C   UNL     1     140.378 134.291 148.779  1.00  0.00     0.000 C 
BRANCH   5   6
ATOM      6  C   UNL     1     141.578 135.005 149.421  1.00  0.00     0.006 C 
BRANCH   6   7
ATOM      7  C   UNL     1     141.777 136.421 148.864  1.00  0.00     0.053 C 
BRANCH   7   8
ATOM      8  C   UNL     1     142.773 136.440 147.744  1.00  0.00     0.041 C 
ATOM      9  O   UNL     1     143.591 135.494 147.606  1.00  0.00    -0.550 OA
ATOM     10  O   UNL     1     142.815 137.521 146.872  1.00  0.00    -0.550 OA
ENDBRANCH   7   8
ENDBRANCH   6   7
ENDBRANCH   5   6
ENDBRANCH   4   5
ENDBRANCH   3   4
ENDBRANCH   2   3
ENDBRANCH   1   2
BRANCH   1  11
ATOM     11  C   UNL     1     135.811 132.826 148.158  1.00  0.00     0.000 C 
BRANCH  11  12
ATOM     12  C   UNL     1     136.329 132.237 146.832  1.00  0.00    -0.000 C 
BRANCH  12  13
ATOM     13  C   UNL     1     137.508 132.993 146.193  1.00  0.00    -0.000 C 
BRANCH  13  14
ATOM     14  C   UNL     1     137.277 133.315 144.706  1.00  0.00    -0.000 C 
BRANCH  14  15
ATOM     15  C   UNL     1     137.828 134.695 144.309  1.00  0.00    -0.000 C 
BRANCH  15  16
ATOM     16  C   UNL     1     138.454 135.448 145.496  1.00  0.00    -0.000 C 
BRANCH  16  17
ATOM     17  C   UNL     1     139.914 135.849 145.235  1.00  0.00    -0.003 C 
ATOM     18  C   UNL     1     140.847 134.643 145.132  1.00  0.00     0.004 C 
ENDBRANCH  16  17
ENDBRANCH  15  16
ENDBRANCH  14  15
ENDBRANCH  13  14
ENDBRANCH  12  13
ENDBRANCH  11  12
ENDBRANCH   1  11
TORSDOF 14
ENDMDL
