MODEL 1
REMARK VINA RESULT:    -4.432      0.000      0.000
REMARK INTER + INTRA:          -7.225
REMARK INTER:                  -6.116
REMARK INTRA:                  -1.109
REMARK UNBOUND:                -1.109
REMARK SMILES CCCCc1cccc(O)c1CCCC
REMARK SMILES IDX 5 1 11 2 9 3 8 4 7 5 6 6 4 7 3 8 2 9 1 10 12 11 13 12 14 13
REMARK SMILES IDX 15 14 10 15
REMARK H PARENT 10 16
REMARK Flexibility Score: inf
ROOT
ATOM      1  C   UNL     1     163.378 177.615 152.490  1.00  0.00    -0.041 A 
ATOM      2  C   UNL     1     161.967 177.832 152.548  1.00  0.00    -0.003 A 
ATOM      3  C   UNL     1     161.322 177.860 153.807  1.00  0.00     0.119 A 
ATOM      4  C   UNL     1     162.060 177.708 154.983  1.00  0.00     0.046 A 
ATOM      5  C   UNL     1     163.433 177.510 154.930  1.00  0.00     0.004 A 
ATOM      6  C   UNL     1     164.086 177.453 153.702  1.00  0.00     0.004 A 
ENDROOT
BRANCH   1   7
ATOM      7  C   UNL     1     164.087 177.497 151.143  1.00  0.00     0.036 C 
BRANCH   7   8
ATOM      8  C   UNL     1     165.063 176.319 150.991  1.00  0.00     0.004 C 
BRANCH   8   9
ATOM      9  C   UNL     1     164.324 175.048 150.552  1.00  0.00    -0.003 C 
ATOM     10  C   UNL     1     164.249 174.033 151.689  1.00  0.00     0.004 C 
ENDBRANCH   8   9
ENDBRANCH   7   8
ENDBRANCH   1   7
BRANCH   2  11
ATOM     11  C   UNL     1     161.116 178.026 151.299  1.00  0.00     0.040 C 
BRANCH  11  12
ATOM     12  C   UNL     1     160.793 176.695 150.589  1.00  0.00     0.005 C 
BRANCH  12  13
ATOM     13  C   UNL     1     160.811 175.471 151.520  1.00  0.00    -0.003 C 
ATOM     14  C   UNL     1     159.405 175.004 151.896  1.00  0.00     0.004 C 
ENDBRANCH  12  13
ENDBRANCH  11  12
ENDBRANCH   2  11
BRANCH   3  15
ATOM     15  O   UNL     1     159.938 178.032 153.886  1.00  0.00    -0.508 OA
ATOM     16  H   UNL     1     159.512 178.950 153.846  1.00  0.00     0.293 HD
ENDBRANCH   3  15
TORSDOF 7
ENDMDL
MODEL 2
REMARK VINA RESULT:    -4.426      2.093      3.819
REMARK INTER + INTRA:          -7.217
REMARK INTER:                  -5.772
REMARK INTRA:                  -1.445
REMARK UNBOUND:                -1.109
REMARK SMILES CCCCc1cccc(O)c1CCCC
REMARK SMILES IDX 5 1 11 2 9 3 8 4 7 5 6 6 4 7 3 8 2 9 1 10 12 11 13 12 14 13
REMARK SMILES IDX 15 14 10 15
REMARK H PARENT 10 16
REMARK Flexibility Score: inf
ROOT
ATOM      1  C   UNL     1     162.505 174.303 151.656  1.00  0.00    -0.041 A 
ATOM      2  C   UNL     1     161.141 174.295 152.082  1.00  0.00    -0.003 A 
ATOM      3  C   UNL     1     160.672 173.227 152.883  1.00  0.00     0.119 A 
ATOM      4  C   UNL     1     161.539 172.207 153.280  1.00  0.00     0.046 A 
ATOM      5  C   UNL     1     162.868 172.219 152.878  1.00  0.00     0.004 A 
ATOM      6  C   UNL     1     163.347 173.246 152.068  1.00  0.00     0.004 A 
ENDROOT
BRANCH   1   7
ATOM      7  C   UNL     1     163.017 175.398 150.724  1.00  0.00     0.036 C 
BRANCH   7   8
ATOM      8  C   UNL     1     164.276 176.149 151.187  1.00  0.00     0.004 C 
BRANCH   8   9
ATOM      9  C   UNL     1     163.909 177.502 151.811  1.00  0.00    -0.003 C 
ATOM     10  C   UNL     1     163.732 177.381 153.323  1.00  0.00     0.004 C 
ENDBRANCH   8   9
ENDBRANCH   7   8
ENDBRANCH   1   7
BRANCH   2  11
ATOM     11  C   UNL     1     160.157 175.393 151.698  1.00  0.00     0.040 C 
BRANCH  11  12
ATOM     12  C   UNL     1     160.160 176.569 152.697  1.00  0.00     0.005 C 
BRANCH  12  13
ATOM     13  C   UNL     1     160.207 177.953 152.030  1.00  0.00    -0.003 C 
ATOM     14  C   UNL     1     160.377 177.865 150.514  1.00  0.00     0.004 C 
ENDBRANCH  12  13
ENDBRANCH  11  12
ENDBRANCH   2  11
BRANCH   3  15
ATOM     15  O   UNL     1     159.334 173.178 153.278  1.00  0.00    -0.508 OA
ATOM     16  H   UNL     1     158.949 173.843 153.940  1.00  0.00     0.293 HD
ENDBRANCH   3  15
TORSDOF 7
ENDMDL
MODEL 3
REMARK VINA RESULT:    -4.399      1.594      3.657
REMARK INTER + INTRA:          -7.180
REMARK INTER:                  -6.592
REMARK INTRA:                  -0.588
REMARK UNBOUND:                -1.109
REMARK SMILES CCCCc1cccc(O)c1CCCC
REMARK SMILES IDX 5 1 11 2 9 3 8 4 7 5 6 6 4 7 3 8 2 9 1 10 12 11 13 12 14 13
REMARK SMILES IDX 15 14 10 15
REMARK H PARENT 10 16
REMARK Flexibility Score: inf
ROOT
ATOM      1  C   UNL     1     162.935 177.586 152.013  1.00  0.00    -0.041 A 
ATOM      2  C   UNL     1     162.100 177.822 153.148  1.00  0.00    -0.003 A 
ATOM      3  C   UNL     1     160.695 177.852 152.980  1.00  0.00     0.119 A 
ATOM      4  C   UNL     1     160.128 177.624 151.724  1.00  0.00     0.046 A 
ATOM      5  C   UNL     1     160.937 177.382 150.622  1.00  0.00     0.004 A 
ATOM      6  C   UNL     1     162.323 177.372 150.757  1.00  0.00     0.004 A 
ENDROOT
BRANCH   1   7
ATOM      7  C   UNL     1     164.455 177.630 152.149  1.00  0.00     0.036 C 
BRANCH   7   8
ATOM      8  C   UNL     1     165.246 177.847 150.849  1.00  0.00     0.004 C 
BRANCH   8   9
ATOM      9  C   UNL     1     166.004 176.574 150.450  1.00  0.00    -0.003 C 
ATOM     10  C   UNL     1     167.271 176.910 149.668  1.00  0.00     0.004 C 
ENDBRANCH   8   9
ENDBRANCH   7   8
ENDBRANCH   1   7
BRANCH   2  11
ATOM     11  C   UNL     1     162.663 178.055 154.545  1.00  0.00     0.040 C 
BRANCH  11  12
ATOM     12  C   UNL     1     162.831 176.746 155.343  1.00  0.00     0.005 C 
BRANCH  12  13
ATOM     13  C   UNL     1     161.906 176.637 156.565  1.00  0.00    -0.003 C 
ATOM     14  C   UNL     1     162.642 176.898 157.879  1.00  0.00     0.004 C 
ENDBRANCH  12  13
ENDBRANCH  11  12
ENDBRANCH   2  11
BRANCH   3  15
ATOM     15  O   UNL     1     159.862 178.120 154.068  1.00  0.00    -0.508 OA
ATOM     16  H   UNL     1     159.071 177.527 154.292  1.00  0.00     0.293 HD
ENDBRANCH   3  15
TORSDOF 7
ENDMDL
MODEL 4
REMARK VINA RESULT:    -4.395      2.580      4.614
REMARK INTER + INTRA:          -7.174
REMARK INTER:                  -6.235
REMARK INTRA:                  -0.939
REMARK UNBOUND:                -1.109
REMARK SMILES CCCCc1cccc(O)c1CCCC
REMARK SMILES IDX 5 1 11 2 9 3 8 4 7 5 6 6 4 7 3 8 2 9 1 10 12 11 13 12 14 13
REMARK SMILES IDX 15 14 10 15
REMARK H PARENT 10 16
REMARK Flexibility Score: inf
ROOT
ATOM      1  C   UNL     1     164.177 177.393 152.358  1.00  0.00    -0.041 A 
ATOM      2  C   UNL     1     165.588 177.616 152.406  1.00  0.00    -0.003 A 
ATOM      3  C   UNL     1     166.228 177.736 153.662  1.00  0.00     0.119 A 
ATOM      4  C   UNL     1     165.496 177.606 154.844  1.00  0.00     0.046 A 
ATOM      5  C   UNL     1     164.127 177.376 154.800  1.00  0.00     0.004 A 
ATOM      6  C   UNL     1     163.470 177.280 153.577  1.00  0.00     0.004 A 
ENDROOT
BRANCH   1   7
ATOM      7  C   UNL     1     163.448 177.342 151.018  1.00  0.00     0.036 C 
BRANCH   7   8
ATOM      8  C   UNL     1     162.159 176.505 150.979  1.00  0.00     0.004 C 
BRANCH   8   9
ATOM      9  C   UNL     1     160.969 177.353 150.513  1.00  0.00    -0.003 C 
ATOM     10  C   UNL     1     160.296 178.052 151.692  1.00  0.00     0.004 C 
ENDBRANCH   8   9
ENDBRANCH   7   8
ENDBRANCH   1   7
BRANCH   2  11
ATOM     11  C   UNL     1     166.440 177.744 151.149  1.00  0.00     0.040 C 
BRANCH  11  12
ATOM     12  C   UNL     1     167.217 176.451 150.826  1.00  0.00     0.005 C 
BRANCH  12  13
ATOM     13  C   UNL     1     166.730 175.731 149.558  1.00  0.00    -0.003 C 
ATOM     14  C   UNL     1     165.694 174.649 149.864  1.00  0.00     0.004 C 
ENDBRANCH  12  13
ENDBRANCH  11  12
ENDBRANCH   2  11
BRANCH   3  15
ATOM     15  O   UNL     1     167.599 177.994 153.733  1.00  0.00    -0.508 OA
ATOM     16  H   UNL     1     168.258 177.543 153.110  1.00  0.00     0.293 HD
ENDBRANCH   3  15
TORSDOF 7
ENDMDL
MODEL 5
REMARK VINA RESULT:    -4.381     11.912     13.987
REMARK INTER + INTRA:          -7.155
REMARK INTER:                  -6.247
REMARK INTRA:                  -0.908
REMARK UNBOUND:                -1.109
REMARK SMILES CCCCc1cccc(O)c1CCCC
REMARK SMILES IDX 5 1 11 2 9 3 8 4 7 5 6 6 4 7 3 8 2 9 1 10 12 11 13 12 14 13
REMARK SMILES IDX 15 14 10 15
REMARK H PARENT 10 16
REMARK Flexibility Score: inf
ROOT
ATOM      1  C   UNL     1     175.759 174.473 152.490  1.00  0.00    -0.041 A 
ATOM      2  C   UNL     1     176.400 173.196 152.491  1.00  0.00    -0.003 A 
ATOM      3  C   UNL     1     176.777 172.611 153.723  1.00  0.00     0.119 A 
ATOM      4  C   UNL     1     176.498 173.260 154.928  1.00  0.00     0.046 A 
ATOM      5  C   UNL     1     175.864 174.496 154.930  1.00  0.00     0.004 A 
ATOM      6  C   UNL     1     175.507 175.103 153.729  1.00  0.00     0.004 A 
ENDROOT
BRANCH   1   7
ATOM      7  C   UNL     1     175.417 175.164 151.173  1.00  0.00     0.036 C 
BRANCH   7   8
ATOM      8  C   UNL     1     173.922 175.272 150.832  1.00  0.00     0.004 C 
BRANCH   8   9
ATOM      9  C   UNL     1     173.460 176.735 150.848  1.00  0.00    -0.003 C 
ATOM     10  C   UNL     1     174.566 177.667 150.360  1.00  0.00     0.004 C 
ENDBRANCH   8   9
ENDBRANCH   7   8
ENDBRANCH   1   7
BRANCH   2  11
ATOM     11  C   UNL     1     176.708 172.433 151.209  1.00  0.00     0.040 C 
BRANCH  11  12
ATOM     12  C   UNL     1     175.652 171.354 150.892  1.00  0.00     0.005 C 
BRANCH  12  13
ATOM     13  C   UNL     1     175.205 171.331 149.422  1.00  0.00    -0.003 C 
ATOM     14  C   UNL     1     173.739 171.731 149.251  1.00  0.00     0.004 C 
ENDBRANCH  12  13
ENDBRANCH  11  12
ENDBRANCH   2  11
BRANCH   3  15
ATOM     15  O   UNL     1     177.439 171.382 153.747  1.00  0.00    -0.508 OA
ATOM     16  H   UNL     1     177.444 170.764 152.944  1.00  0.00     0.293 HD
ENDBRANCH   3  15
TORSDOF 7
ENDMDL
MODEL 6
REMARK VINA RESULT:    -4.346      1.320      1.933
REMARK INTER + INTRA:          -7.107
REMARK INTER:                  -5.697
REMARK INTRA:                  -1.410
REMARK UNBOUND:                -1.109
REMARK SMILES CCCCc1cccc(O)c1CCCC
REMARK SMILES IDX 5 1 11 2 9 3 8 4 7 5 6 6 4 7 3 8 2 9 1 10 12 11 13 12 14 13
REMARK SMILES IDX 15 14 10 15
REMARK H PARENT 10 16
REMARK Flexibility Score: inf
ROOT
ATOM      1  C   UNL     1     162.946 177.388 154.148  1.00  0.00    -0.041 A 
ATOM      2  C   UNL     1     161.551 177.219 154.405  1.00  0.00    -0.003 A 
ATOM      3  C   UNL     1     161.128 176.814 155.693  1.00  0.00     0.119 A 
ATOM      4  C   UNL     1     162.061 176.611 156.712  1.00  0.00     0.046 A 
ATOM      5  C   UNL     1     163.417 176.787 156.468  1.00  0.00     0.004 A 
ATOM      6  C   UNL     1     163.859 177.160 155.202  1.00  0.00     0.004 A 
ENDROOT
BRANCH   1   7
ATOM      7  C   UNL     1     163.436 177.743 152.746  1.00  0.00     0.036 C 
BRANCH   7   8
ATOM      8  C   UNL     1     164.459 176.781 152.121  1.00  0.00     0.004 C 
BRANCH   8   9
ATOM      9  C   UNL     1     163.792 175.872 151.080  1.00  0.00    -0.003 C 
ATOM     10  C   UNL     1     163.414 174.524 151.687  1.00  0.00     0.004 C 
ENDBRANCH   8   9
ENDBRANCH   7   8
ENDBRANCH   1   7
BRANCH   2  11
ATOM     11  C   UNL     1     160.488 177.448 153.338  1.00  0.00     0.040 C 
BRANCH  11  12
ATOM     12  C   UNL     1     160.158 176.166 152.545  1.00  0.00     0.005 C 
BRANCH  12  13
ATOM     13  C   UNL     1     160.181 176.353 151.019  1.00  0.00    -0.003 C 
ATOM     14  C   UNL     1     160.527 177.785 150.612  1.00  0.00     0.004 C 
ENDBRANCH  12  13
ENDBRANCH  11  12
ENDBRANCH   2  11
BRANCH   3  15
ATOM     15  O   UNL     1     159.773 176.605 155.956  1.00  0.00    -0.508 OA
ATOM     16  H   UNL     1     159.072 177.298 155.724  1.00  0.00     0.293 HD
ENDBRANCH   3  15
TORSDOF 7
ENDMDL
MODEL 7
REMARK VINA RESULT:    -4.280      9.978     12.397
REMARK INTER + INTRA:          -7.015
REMARK INTER:                  -5.602
REMARK INTRA:                  -1.413
REMARK UNBOUND:                -1.109
REMARK SMILES CCCCc1cccc(O)c1CCCC
REMARK SMILES IDX 5 1 11 2 9 3 8 4 7 5 6 6 4 7 3 8 2 9 1 10 12 11 13 12 14 13
REMARK SMILES IDX 15 14 10 15
REMARK H PARENT 10 16
REMARK Flexibility Score: inf
ROOT
ATOM      1  C   UNL     1     174.950 175.684 151.048  1.00  0.00    -0.041 A 
ATOM      2  C   UNL     1     173.855 174.816 151.346  1.00  0.00    -0.003 A 
ATOM      3  C   UNL     1     174.084 173.425 151.459  1.00  0.00     0.119 A 
ATOM      4  C   UNL     1     175.372 172.906 151.310  1.00  0.00     0.046 A 
ATOM      5  C   UNL     1     176.440 173.748 151.033  1.00  0.00     0.004 A 
ATOM      6  C   UNL     1     176.236 175.118 150.893  1.00  0.00     0.004 A 
ENDROOT
BRANCH   1   7
ATOM      7  C   UNL     1     174.718 177.178 150.840  1.00  0.00     0.036 C 
BRANCH   7   8
ATOM      8  C   UNL     1     175.526 178.122 151.744  1.00  0.00     0.004 C 
BRANCH   8   9
ATOM      9  C   UNL     1     174.968 178.125 153.173  1.00  0.00    -0.003 C 
ATOM     10  C   UNL     1     175.878 177.348 154.121  1.00  0.00     0.004 C 
ENDBRANCH   8   9
ENDBRANCH   7   8
ENDBRANCH   1   7
BRANCH   2  11
ATOM     11  C   UNL     1     172.433 175.330 151.540  1.00  0.00     0.040 C 
BRANCH  11  12
ATOM     12  C   UNL     1     172.114 175.648 153.015  1.00  0.00     0.005 C 
BRANCH  12  13
ATOM     13  C   UNL     1     171.439 177.013 153.227  1.00  0.00    -0.003 C 
ATOM     14  C   UNL     1     171.308 177.807 151.928  1.00  0.00     0.004 C 
ENDBRANCH  12  13
ENDBRANCH  11  12
ENDBRANCH   2  11
BRANCH   3  15
ATOM     15  O   UNL     1     173.021 172.554 151.711  1.00  0.00    -0.508 OA
ATOM     16  H   UNL     1     173.040 171.901 152.485  1.00  0.00     0.293 HD
ENDBRANCH   3  15
TORSDOF 7
ENDMDL
MODEL 8
REMARK VINA RESULT:    -4.255     12.512     14.356
REMARK INTER + INTRA:          -6.981
REMARK INTER:                  -5.973
REMARK INTRA:                  -1.008
REMARK UNBOUND:                -1.109
REMARK SMILES CCCCc1cccc(O)c1CCCC
REMARK SMILES IDX 5 1 11 2 9 3 8 4 7 5 6 6 4 7 3 8 2 9 1 10 12 11 13 12 14 13
REMARK SMILES IDX 15 14 10 15
REMARK H PARENT 10 16
REMARK Flexibility Score: inf
ROOT
ATOM      1  C   UNL     1     175.487 175.053 154.100  1.00  0.00    -0.041 A 
ATOM      2  C   UNL     1     176.008 173.860 153.510  1.00  0.00    -0.003 A 
ATOM      3  C   UNL     1     176.779 172.976 154.300  1.00  0.00     0.119 A 
ATOM      4  C   UNL     1     177.004 173.248 155.651  1.00  0.00     0.046 A 
ATOM      5  C   UNL     1     176.489 174.400 156.231  1.00  0.00     0.004 A 
ATOM      6  C   UNL     1     175.748 175.298 155.467  1.00  0.00     0.004 A 
ENDROOT
BRANCH   1   7
ATOM      7  C   UNL     1     174.723 176.065 153.252  1.00  0.00     0.036 C 
BRANCH   7   8
ATOM      8  C   UNL     1     175.509 177.309 152.808  1.00  0.00     0.004 C 
BRANCH   8   9
ATOM      9  C   UNL     1     175.206 177.656 151.344  1.00  0.00    -0.003 C 
ATOM     10  C   UNL     1     174.180 176.694 150.752  1.00  0.00     0.004 C 
ENDBRANCH   8   9
ENDBRANCH   7   8
ENDBRANCH   1   7
BRANCH   2  11
ATOM     11  C   UNL     1     175.774 173.502 152.047  1.00  0.00     0.040 C 
BRANCH  11  12
ATOM     12  C   UNL     1     176.837 174.112 151.111  1.00  0.00     0.005 C 
BRANCH  12  13
ATOM     13  C   UNL     1     177.270 173.181 149.967  1.00  0.00    -0.003 C 
ATOM     14  C   UNL     1     176.457 171.887 149.929  1.00  0.00     0.004 C 
ENDBRANCH  12  13
ENDBRANCH  11  12
ENDBRANCH   2  11
BRANCH   3  15
ATOM     15  O   UNL     1     177.330 171.824 153.734  1.00  0.00    -0.508 OA
ATOM     16  H   UNL     1     178.307 171.584 153.859  1.00  0.00     0.293 HD
ENDBRANCH   3  15
TORSDOF 7
ENDMDL
MODEL 9
REMARK VINA RESULT:    -1.865     10.606     13.353
REMARK INTER + INTRA:          -3.683
REMARK INTER:                  -2.602
REMARK INTRA:                  -1.081
REMARK UNBOUND:                -1.109
REMARK SMILES CCCCc1cccc(O)c1CCCC
REMARK SMILES IDX 5 1 11 2 9 3 8 4 7 5 6 6 4 7 3 8 2 9 1 10 12 11 13 12 14 13
REMARK SMILES IDX 15 14 10 15
REMARK H PARENT 10 16
REMARK Flexibility Score: inf
ROOT
ATOM      1  C   UNL     1     174.067 173.653 150.789  1.00  0.00    -0.041 A 
ATOM      2  C   UNL     1     175.334 174.222 151.126  1.00  0.00    -0.003 A 
ATOM      3  C   UNL     1     176.514 173.483 150.874  1.00  0.00     0.119 A 
ATOM      4  C   UNL     1     176.446 172.225 150.272  1.00  0.00     0.046 A 
ATOM      5  C   UNL     1     175.217 171.675 149.932  1.00  0.00     0.004 A 
ATOM      6  C   UNL     1     174.040 172.372 150.193  1.00  0.00     0.004 A 
ENDROOT
BRANCH   1   7
ATOM      7  C   UNL     1     172.775 174.391 151.125  1.00  0.00     0.036 C 
BRANCH   7   8
ATOM      8  C   UNL     1     172.330 174.345 152.596  1.00  0.00     0.004 C 
BRANCH   8   9
ATOM      9  C   UNL     1     171.833 175.720 153.062  1.00  0.00    -0.003 C 
ATOM     10  C   UNL     1     171.641 176.666 151.880  1.00  0.00     0.004 C 
ENDBRANCH   8   9
ENDBRANCH   7   8
ENDBRANCH   1   7
BRANCH   2  11
ATOM     11  C   UNL     1     175.469 175.599 151.763  1.00  0.00     0.040 C 
BRANCH  11  12
ATOM     12  C   UNL     1     175.252 176.744 150.752  1.00  0.00     0.005 C 
BRANCH  12  13
ATOM     13  C   UNL     1     175.071 178.125 151.402  1.00  0.00    -0.003 C 
ATOM     14  C   UNL     1     174.990 178.046 152.927  1.00  0.00     0.004 C 
ENDBRANCH  12  13
ENDBRANCH  11  12
ENDBRANCH   2  11
BRANCH   3  15
ATOM     15  O   UNL     1     177.760 174.003 151.231  1.00  0.00    -0.508 OA
ATOM     16  H   UNL     1     178.067 174.035 152.197  1.00  0.00     0.293 HD
ENDBRANCH   3  15
TORSDOF 7
ENDMDL
