MODEL 1
REMARK VINA RESULT:    -4.496      0.000      0.000
REMARK INTER + INTRA:         -11.142
REMARK INTER:                  -8.702
REMARK INTRA:                  -2.440
REMARK UNBOUND:                -2.440
REMARK SMILES CCCCCC=CCC=CCCCCCCCCOC(C)=O
REMARK SMILES IDX 12 1 11 2 10 3 9 4 8 5 7 6 6 7 5 8 4 9 3 10 2 11 1 12 13 13
REMARK SMILES IDX 14 14 15 15 16 16 17 17 18 18 19 19 20 20 22 21 21 22
REMARK H PARENT
REMARK Flexibility Score: inf
ROOT
ATOM      1  C   UNL     1     -11.403   6.483  -0.671  1.00  0.00     0.004 C 
ENDROOT
BRANCH   1   2
ATOM      2  C   UNL     1     -11.227   6.565   0.853  1.00  0.00     0.027 C 
BRANCH   2   3
ATOM      3  C   UNL     1     -10.112   5.668   1.317  1.00  0.00    -0.031 C 
ATOM      4  C   UNL     1      -9.443   5.905   2.454  1.00  0.00    -0.027 C 
BRANCH   4   5
ATOM      5  C   UNL     1      -8.250   5.078   2.846  1.00  0.00     0.054 C 
BRANCH   5   6
ATOM      6  C   UNL     1      -6.990   5.906   2.839  1.00  0.00    -0.027 C 
ATOM      7  C   UNL     1      -6.217   6.119   1.756  1.00  0.00    -0.031 C 
BRANCH   7   8
ATOM      8  C   UNL     1      -6.508   5.588   0.370  1.00  0.00     0.027 C 
BRANCH   8   9
ATOM      9  C   UNL     1      -6.702   6.730  -0.632  1.00  0.00     0.004 C 
BRANCH   9  10
ATOM     10  C   UNL     1      -7.438   7.926  -0.009  1.00  0.00     0.000 C 
BRANCH  10  11
ATOM     11  C   UNL     1      -7.488   9.109  -0.983  1.00  0.00    -0.003 C 
ATOM     12  C   UNL     1      -6.548   8.889  -2.165  1.00  0.00     0.004 C 
ENDBRANCH  10  11
ENDBRANCH   9  10
ENDBRANCH   8   9
ENDBRANCH   7   8
ENDBRANCH   5   6
ENDBRANCH   4   5
ENDBRANCH   2   3
ENDBRANCH   1   2
BRANCH   1  13
ATOM     13  C   UNL     1     -10.184   5.896  -1.413  1.00  0.00     0.000 C 
BRANCH  13  14
ATOM     14  C   UNL     1      -9.757   6.671  -2.677  1.00  0.00     0.000 C 
BRANCH  14  15
ATOM     15  C   UNL     1      -8.799   5.913  -3.621  1.00  0.00     0.000 C 
BRANCH  15  16
ATOM     16  C   UNL     1      -8.707   6.480  -5.050  1.00  0.00     0.003 C 
BRANCH  16  17
ATOM     17  C   UNL     1      -7.486   7.394  -5.241  1.00  0.00     0.042 C 
BRANCH  17  18
ATOM     18  C   UNL     1      -6.663   7.019  -6.479  1.00  0.00     0.233 C 
BRANCH  18  19
ATOM     19  O   UNL     1      -7.495   6.498  -7.518  1.00  0.00    -0.466 OA
BRANCH  19  20
ATOM     20  C   UNL     1      -7.132   6.486  -8.872  1.00  0.00     0.302 C 
ATOM     21  O   UNL     1      -7.474   5.533  -9.626  1.00  0.00    -0.253 OA
ATOM     22  C   UNL     1      -6.370   7.637  -9.439  1.00  0.00     0.139 C 
ENDBRANCH  19  20
ENDBRANCH  18  19
ENDBRANCH  17  18
ENDBRANCH  16  17
ENDBRANCH  15  16
ENDBRANCH  14  15
ENDBRANCH  13  14
ENDBRANCH   1  13
TORSDOF 16
ENDMDL
MODEL 2
REMARK VINA RESULT:    -4.383      4.890      8.514
REMARK INTER + INTRA:         -10.922
REMARK INTER:                  -8.598
REMARK INTRA:                  -2.324
REMARK UNBOUND:                -2.440
REMARK SMILES CCCCCC=CCC=CCCCCCCCCOC(C)=O
REMARK SMILES IDX 12 1 11 2 10 3 9 4 8 5 7 6 6 7 5 8 4 9 3 10 2 11 1 12 13 13
REMARK SMILES IDX 14 14 15 15 16 16 17 17 18 18 19 19 20 20 22 21 21 22
REMARK H PARENT
REMARK Flexibility Score: inf
ROOT
ATOM      1  C   UNL     1      -7.729   6.150  -2.264  1.00  0.00     0.004 C 
ENDROOT
BRANCH   1   2
ATOM      2  C   UNL     1      -9.120   6.178  -2.915  1.00  0.00     0.027 C 
BRANCH   2   3
ATOM      3  C   UNL     1     -10.203   6.045  -1.879  1.00  0.00    -0.031 C 
ATOM      4  C   UNL     1     -10.972   7.084  -1.524  1.00  0.00    -0.027 C 
BRANCH   4   5
ATOM      5  C   UNL     1     -11.966   6.975  -0.402  1.00  0.00     0.054 C 
BRANCH   5   6
ATOM      6  C   UNL     1     -11.312   7.245   0.930  1.00  0.00    -0.027 C 
ATOM      7  C   UNL     1     -10.748   6.305   1.713  1.00  0.00    -0.031 C 
BRANCH   7   8
ATOM      8  C   UNL     1     -10.650   4.837   1.364  1.00  0.00     0.027 C 
BRANCH   8   9
ATOM      9  C   UNL     1      -9.201   4.346   1.426  1.00  0.00     0.004 C 
BRANCH   9  10
ATOM     10  C   UNL     1      -8.884   3.341   0.308  1.00  0.00     0.000 C 
BRANCH  10  11
ATOM     11  C   UNL     1      -9.204   1.908   0.750  1.00  0.00    -0.003 C 
ATOM     12  C   UNL     1      -8.411   0.890  -0.064  1.00  0.00     0.004 C 
ENDBRANCH  10  11
ENDBRANCH   9  10
ENDBRANCH   8   9
ENDBRANCH   7   8
ENDBRANCH   5   6
ENDBRANCH   4   5
ENDBRANCH   2   3
ENDBRANCH   1   2
BRANCH   1  13
ATOM     13  C   UNL     1      -7.332   7.472  -1.574  1.00  0.00     0.000 C 
BRANCH  13  14
ATOM     14  C   UNL     1      -7.542   7.496  -0.045  1.00  0.00     0.000 C 
BRANCH  14  15
ATOM     15  C   UNL     1      -6.627   6.548   0.760  1.00  0.00     0.000 C 
BRANCH  15  16
ATOM     16  C   UNL     1      -6.394   6.955   2.226  1.00  0.00     0.003 C 
BRANCH  16  17
ATOM     17  C   UNL     1      -6.569   5.776   3.197  1.00  0.00     0.042 C 
BRANCH  17  18
ATOM     18  C   UNL     1      -7.377   6.159   4.443  1.00  0.00     0.233 C 
BRANCH  18  19
ATOM     19  O   UNL     1      -7.847   5.000   5.134  1.00  0.00    -0.466 OA
BRANCH  19  20
ATOM     20  C   UNL     1      -7.623   4.764   6.498  1.00  0.00     0.302 C 
ATOM     21  O   UNL     1      -7.645   3.591   6.964  1.00  0.00    -0.253 OA
ATOM     22  C   UNL     1      -7.312   5.910   7.401  1.00  0.00     0.139 C 
ENDBRANCH  19  20
ENDBRANCH  18  19
ENDBRANCH  17  18
ENDBRANCH  16  17
ENDBRANCH  15  16
ENDBRANCH  14  15
ENDBRANCH  13  14
ENDBRANCH   1  13
TORSDOF 16
ENDMDL
MODEL 3
REMARK VINA RESULT:    -4.374      4.275      7.401
REMARK INTER + INTRA:         -10.905
REMARK INTER:                  -7.865
REMARK INTRA:                  -3.040
REMARK UNBOUND:                -2.440
REMARK SMILES CCCCCC=CCC=CCCCCCCCCOC(C)=O
REMARK SMILES IDX 12 1 11 2 10 3 9 4 8 5 7 6 6 7 5 8 4 9 3 10 2 11 1 12 13 13
REMARK SMILES IDX 14 14 15 15 16 16 17 17 18 18 19 19 20 20 22 21 21 22
REMARK H PARENT
REMARK Flexibility Score: inf
ROOT
ATOM      1  C   UNL     1     -11.876   6.633   0.605  1.00  0.00     0.004 C 
ENDROOT
BRANCH   1   2
ATOM      2  C   UNL     1     -11.603   6.726  -0.904  1.00  0.00     0.027 C 
BRANCH   2   3
ATOM      3  C   UNL     1     -10.767   7.934  -1.228  1.00  0.00    -0.031 C 
ATOM      4  C   UNL     1      -9.884   8.436  -0.355  1.00  0.00    -0.027 C 
BRANCH   4   5
ATOM      5  C   UNL     1      -9.145   9.715  -0.637  1.00  0.00     0.054 C 
BRANCH   5   6
ATOM      6  C   UNL     1      -8.952   9.914  -2.119  1.00  0.00    -0.027 C 
ATOM      7  C   UNL     1      -7.797   9.700  -2.779  1.00  0.00    -0.031 C 
BRANCH   7   8
ATOM      8  C   UNL     1      -6.522   9.193  -2.143  1.00  0.00     0.027 C 
BRANCH   8   9
ATOM      9  C   UNL     1      -6.330   7.696  -2.400  1.00  0.00     0.004 C 
BRANCH   9  10
ATOM     10  C   UNL     1      -7.267   7.174  -3.501  1.00  0.00     0.000 C 
BRANCH  10  11
ATOM     11  C   UNL     1      -8.189   6.074  -2.963  1.00  0.00    -0.003 C 
ATOM     12  C   UNL     1      -9.389   5.862  -3.881  1.00  0.00     0.004 C 
ENDBRANCH  10  11
ENDBRANCH   9  10
ENDBRANCH   8   9
ENDBRANCH   7   8
ENDBRANCH   5   6
ENDBRANCH   4   5
ENDBRANCH   2   3
ENDBRANCH   1   2
BRANCH   1  13
ATOM     13  C   UNL     1     -11.235   5.406   1.286  1.00  0.00     0.000 C 
BRANCH  13  14
ATOM     14  C   UNL     1      -9.878   5.676   1.969  1.00  0.00     0.000 C 
BRANCH  14  15
ATOM     15  C   UNL     1      -8.718   4.767   1.509  1.00  0.00     0.000 C 
BRANCH  15  16
ATOM     16  C   UNL     1      -7.726   5.419   0.529  1.00  0.00     0.003 C 
BRANCH  16  17
ATOM     17  C   UNL     1      -6.902   6.538   1.186  1.00  0.00     0.042 C 
BRANCH  17  18
ATOM     18  C   UNL     1      -6.203   6.072   2.470  1.00  0.00     0.233 C 
BRANCH  18  19
ATOM     19  O   UNL     1      -6.419   6.992   3.542  1.00  0.00    -0.466 OA
BRANCH  19  20
ATOM     20  C   UNL     1      -6.704   6.600   4.857  1.00  0.00     0.302 C 
ATOM     21  O   UNL     1      -5.831   6.692   5.764  1.00  0.00    -0.253 OA
ATOM     22  C   UNL     1      -8.071   6.108   5.198  1.00  0.00     0.139 C 
ENDBRANCH  19  20
ENDBRANCH  18  19
ENDBRANCH  17  18
ENDBRANCH  16  17
ENDBRANCH  15  16
ENDBRANCH  14  15
ENDBRANCH  13  14
ENDBRANCH   1  13
TORSDOF 16
ENDMDL
MODEL 4
REMARK VINA RESULT:    -4.364      1.954      4.750
REMARK INTER + INTRA:         -10.886
REMARK INTER:                  -8.328
REMARK INTRA:                  -2.558
REMARK UNBOUND:                -2.440
REMARK SMILES CCCCCC=CCC=CCCCCCCCCOC(C)=O
REMARK SMILES IDX 12 1 11 2 10 3 9 4 8 5 7 6 6 7 5 8 4 9 3 10 2 11 1 12 13 13
REMARK SMILES IDX 14 14 15 15 16 16 17 17 18 18 19 19 20 20 22 21 21 22
REMARK H PARENT
REMARK Flexibility Score: inf
ROOT
ATOM      1  C   UNL     1      -6.455   7.214  -1.352  1.00  0.00     0.004 C 
ENDROOT
BRANCH   1   2
ATOM      2  C   UNL     1      -6.401   5.682  -1.240  1.00  0.00     0.027 C 
BRANCH   2   3
ATOM      3  C   UNL     1      -7.189   5.200  -0.052  1.00  0.00    -0.031 C 
ATOM      4  C   UNL     1      -8.176   4.303  -0.178  1.00  0.00    -0.027 C 
BRANCH   4   5
ATOM      5  C   UNL     1      -9.039   3.921   0.992  1.00  0.00     0.054 C 
BRANCH   5   6
ATOM      6  C   UNL     1      -9.792   5.114   1.524  1.00  0.00    -0.027 C 
ATOM      7  C   UNL     1      -9.400   5.864   2.573  1.00  0.00    -0.031 C 
BRANCH   7   8
ATOM      8  C   UNL     1      -8.127   5.648   3.360  1.00  0.00     0.027 C 
BRANCH   8   9
ATOM      9  C   UNL     1      -8.289   6.104   4.813  1.00  0.00     0.004 C 
BRANCH   9  10
ATOM     10  C   UNL     1      -7.851   5.020   5.810  1.00  0.00     0.000 C 
BRANCH  10  11
ATOM     11  C   UNL     1      -6.611   5.464   6.594  1.00  0.00    -0.003 C 
ATOM     12  C   UNL     1      -6.276   6.926   6.315  1.00  0.00     0.004 C 
ENDBRANCH  10  11
ENDBRANCH   9  10
ENDBRANCH   8   9
ENDBRANCH   7   8
ENDBRANCH   5   6
ENDBRANCH   4   5
ENDBRANCH   2   3
ENDBRANCH   1   2
BRANCH   1  13
ATOM     13  C   UNL     1      -7.167   7.905  -0.171  1.00  0.00     0.000 C 
BRANCH  13  14
ATOM     14  C   UNL     1      -8.268   8.909  -0.571  1.00  0.00     0.000 C 
BRANCH  14  15
ATOM     15  C   UNL     1      -9.703   8.340  -0.588  1.00  0.00     0.000 C 
BRANCH  15  16
ATOM     16  C   UNL     1     -10.191   7.840  -1.961  1.00  0.00     0.003 C 
BRANCH  16  17
ATOM     17  C   UNL     1     -10.175   6.307  -2.066  1.00  0.00     0.042 C 
BRANCH  17  18
ATOM     18  C   UNL     1      -9.485   5.815  -3.344  1.00  0.00     0.233 C 
BRANCH  18  19
ATOM     19  O   UNL     1      -9.275   6.886  -4.266  1.00  0.00    -0.466 OA
BRANCH  19  20
ATOM     20  C   UNL     1      -8.113   7.031  -5.038  1.00  0.00     0.302 C 
ATOM     21  O   UNL     1      -7.886   6.267  -6.017  1.00  0.00    -0.253 OA
ATOM     22  C   UNL     1      -7.155   8.131  -4.724  1.00  0.00     0.139 C 
ENDBRANCH  19  20
ENDBRANCH  18  19
ENDBRANCH  17  18
ENDBRANCH  16  17
ENDBRANCH  15  16
ENDBRANCH  14  15
ENDBRANCH  13  14
ENDBRANCH   1  13
TORSDOF 16
ENDMDL
MODEL 5
REMARK VINA RESULT:    -4.313      1.370      3.707
REMARK INTER + INTRA:         -10.787
REMARK INTER:                  -7.791
REMARK INTRA:                  -2.997
REMARK UNBOUND:                -2.440
REMARK SMILES CCCCCC=CCC=CCCCCCCCCOC(C)=O
REMARK SMILES IDX 12 1 11 2 10 3 9 4 8 5 7 6 6 7 5 8 4 9 3 10 2 11 1 12 13 13
REMARK SMILES IDX 14 14 15 15 16 16 17 17 18 18 19 19 20 20 22 21 21 22
REMARK H PARENT
REMARK Flexibility Score: inf
ROOT
ATOM      1  C   UNL     1      -7.502   9.640  -0.638  1.00  0.00     0.004 C 
ENDROOT
BRANCH   1   2
ATOM      2  C   UNL     1      -9.032   9.695  -0.507  1.00  0.00     0.027 C 
BRANCH   2   3
ATOM      3  C   UNL     1      -9.618   8.311  -0.435  1.00  0.00    -0.031 C 
ATOM      4  C   UNL     1     -10.807   8.020  -0.980  1.00  0.00    -0.027 C 
BRANCH   4   5
ATOM      5  C   UNL     1     -11.442   6.670  -0.796  1.00  0.00     0.054 C 
BRANCH   5   6
ATOM      6  C   UNL     1     -11.639   6.358   0.667  1.00  0.00    -0.027 C 
ATOM      7  C   UNL     1     -10.959   5.416   1.349  1.00  0.00    -0.031 C 
BRANCH   7   8
ATOM      8  C   UNL     1      -9.869   4.546   0.764  1.00  0.00     0.027 C 
BRANCH   8   9
ATOM      9  C   UNL     1      -8.523   4.811   1.445  1.00  0.00     0.004 C 
BRANCH   9  10
ATOM     10  C   UNL     1      -7.491   5.404   0.472  1.00  0.00     0.000 C 
BRANCH  10  11
ATOM     11  C   UNL     1      -6.701   6.538   1.134  1.00  0.00    -0.003 C 
ATOM     12  C   UNL     1      -6.304   6.174   2.563  1.00  0.00     0.004 C 
ENDBRANCH  10  11
ENDBRANCH   9  10
ENDBRANCH   8   9
ENDBRANCH   7   8
ENDBRANCH   5   6
ENDBRANCH   4   5
ENDBRANCH   2   3
ENDBRANCH   1   2
BRANCH   1  13
ATOM     13  C   UNL     1      -6.971  10.133  -2.000  1.00  0.00     0.000 C 
BRANCH  13  14
ATOM     14  C   UNL     1      -6.972   9.073  -3.122  1.00  0.00     0.000 C 
BRANCH  14  15
ATOM     15  C   UNL     1      -6.599   7.643  -2.677  1.00  0.00     0.000 C 
BRANCH  15  16
ATOM     16  C   UNL     1      -7.541   6.536  -3.182  1.00  0.00     0.003 C 
BRANCH  16  17
ATOM     17  C   UNL     1      -8.827   7.100  -3.807  1.00  0.00     0.042 C 
BRANCH  17  18
ATOM     18  C   UNL     1      -8.994   6.686  -5.275  1.00  0.00     0.233 C 
BRANCH  18  19
ATOM     19  O   UNL     1      -7.755   6.249  -5.836  1.00  0.00    -0.466 OA
BRANCH  19  20
ATOM     20  C   UNL     1      -7.133   6.873  -6.927  1.00  0.00     0.302 C 
ATOM     21  O   UNL     1      -7.189   6.366  -8.082  1.00  0.00    -0.253 OA
ATOM     22  C   UNL     1      -6.434   8.176  -6.728  1.00  0.00     0.139 C 
ENDBRANCH  19  20
ENDBRANCH  18  19
ENDBRANCH  17  18
ENDBRANCH  16  17
ENDBRANCH  15  16
ENDBRANCH  14  15
ENDBRANCH  13  14
ENDBRANCH   1  13
TORSDOF 16
ENDMDL
MODEL 6
REMARK VINA RESULT:    -4.310      1.846      4.330
REMARK INTER + INTRA:         -10.781
REMARK INTER:                  -8.261
REMARK INTRA:                  -2.520
REMARK UNBOUND:                -2.440
REMARK SMILES CCCCCC=CCC=CCCCCCCCCOC(C)=O
REMARK SMILES IDX 12 1 11 2 10 3 9 4 8 5 7 6 6 7 5 8 4 9 3 10 2 11 1 12 13 13
REMARK SMILES IDX 14 14 15 15 16 16 17 17 18 18 19 19 20 20 22 21 21 22
REMARK H PARENT
REMARK Flexibility Score: inf
ROOT
ATOM      1  C   UNL     1      -8.279   5.263  -2.371  1.00  0.00     0.004 C 
ENDROOT
BRANCH   1   2
ATOM      2  C   UNL     1      -9.478   6.051  -2.920  1.00  0.00     0.027 C 
BRANCH   2   3
ATOM      3  C   UNL     1     -10.537   6.227  -1.866  1.00  0.00    -0.031 C 
ATOM      4  C   UNL     1     -10.702   7.389  -1.219  1.00  0.00    -0.027 C 
BRANCH   4   5
ATOM      5  C   UNL     1     -11.677   7.520  -0.082  1.00  0.00     0.054 C 
BRANCH   5   6
ATOM      6  C   UNL     1     -12.038   6.168   0.481  1.00  0.00    -0.027 C 
ATOM      7  C   UNL     1     -11.258   5.449   1.312  1.00  0.00    -0.031 C 
BRANCH   7   8
ATOM      8  C   UNL     1      -9.913   5.898   1.837  1.00  0.00     0.027 C 
BRANCH   8   9
ATOM      9  C   UNL     1      -8.829   4.855   1.554  1.00  0.00     0.004 C 
BRANCH   9  10
ATOM     10  C   UNL     1      -9.426   3.484   1.197  1.00  0.00     0.000 C 
BRANCH  10  11
ATOM     11  C   UNL     1      -8.627   2.811   0.076  1.00  0.00    -0.003 C 
ATOM     12  C   UNL     1      -8.780   1.293   0.123  1.00  0.00     0.004 C 
ENDBRANCH  10  11
ENDBRANCH   9  10
ENDBRANCH   8   9
ENDBRANCH   7   8
ENDBRANCH   5   6
ENDBRANCH   4   5
ENDBRANCH   2   3
ENDBRANCH   1   2
BRANCH   1  13
ATOM     13  C   UNL     1      -7.028   6.127  -2.110  1.00  0.00     0.000 C 
BRANCH  13  14
ATOM     14  C   UNL     1      -7.111   7.034  -0.864  1.00  0.00     0.000 C 
BRANCH  14  15
ATOM     15  C   UNL     1      -7.039   8.549  -1.147  1.00  0.00     0.000 C 
BRANCH  15  16
ATOM     16  C   UNL     1      -6.623   8.927  -2.581  1.00  0.00     0.003 C 
BRANCH  16  17
ATOM     17  C   UNL     1      -7.812   9.406  -3.429  1.00  0.00     0.042 C 
BRANCH  17  18
ATOM     18  C   UNL     1      -7.440   9.591  -4.905  1.00  0.00     0.233 C 
BRANCH  18  19
ATOM     19  O   UNL     1      -8.119   8.646  -5.735  1.00  0.00    -0.466 OA
BRANCH  19  20
ATOM     20  C   UNL     1      -7.538   7.454  -6.192  1.00  0.00     0.302 C 
ATOM     21  O   UNL     1      -8.055   6.336  -5.918  1.00  0.00    -0.253 OA
ATOM     22  C   UNL     1      -6.319   7.512  -7.049  1.00  0.00     0.139 C 
ENDBRANCH  19  20
ENDBRANCH  18  19
ENDBRANCH  17  18
ENDBRANCH  16  17
ENDBRANCH  15  16
ENDBRANCH  14  15
ENDBRANCH  13  14
ENDBRANCH   1  13
TORSDOF 16
ENDMDL
MODEL 7
REMARK VINA RESULT:    -4.298      1.530      3.375
REMARK INTER + INTRA:         -10.758
REMARK INTER:                  -8.706
REMARK INTRA:                  -2.053
REMARK UNBOUND:                -2.440
REMARK SMILES CCCCCC=CCC=CCCCCCCCCOC(C)=O
REMARK SMILES IDX 12 1 11 2 10 3 9 4 8 5 7 6 6 7 5 8 4 9 3 10 2 11 1 12 13 13
REMARK SMILES IDX 14 14 15 15 16 16 17 17 18 18 19 19 20 20 22 21 21 22
REMARK H PARENT
REMARK Flexibility Score: inf
ROOT
ATOM      1  C   UNL     1     -10.254   8.366  -1.572  1.00  0.00     0.004 C 
ENDROOT
BRANCH   1   2
ATOM      2  C   UNL     1     -10.843   6.960  -1.379  1.00  0.00     0.027 C 
BRANCH   2   3
ATOM      3  C   UNL     1      -9.812   6.014  -0.825  1.00  0.00    -0.031 C 
ATOM      4  C   UNL     1      -9.974   5.410   0.359  1.00  0.00    -0.027 C 
BRANCH   4   5
ATOM      5  C   UNL     1      -8.885   4.566   0.962  1.00  0.00     0.054 C 
BRANCH   5   6
ATOM      6  C   UNL     1      -7.568   4.802   0.267  1.00  0.00    -0.027 C 
ATOM      7  C   UNL     1      -6.658   5.723   0.639  1.00  0.00    -0.031 C 
BRANCH   7   8
ATOM      8  C   UNL     1      -6.799   6.642   1.832  1.00  0.00     0.027 C 
BRANCH   8   9
ATOM      9  C   UNL     1      -6.437   5.921   3.134  1.00  0.00     0.004 C 
BRANCH   9  10
ATOM     10  C   UNL     1      -7.588   5.952   4.151  1.00  0.00     0.000 C 
BRANCH  10  11
ATOM     11  C   UNL     1      -7.082   5.638   5.563  1.00  0.00    -0.003 C 
ATOM     12  C   UNL     1      -6.155   6.737   6.074  1.00  0.00     0.004 C 
ENDBRANCH  10  11
ENDBRANCH   9  10
ENDBRANCH   8   9
ENDBRANCH   7   8
ENDBRANCH   5   6
ENDBRANCH   4   5
ENDBRANCH   2   3
ENDBRANCH   1   2
BRANCH   1  13
ATOM     13  C   UNL     1      -8.890   8.575  -0.884  1.00  0.00     0.000 C 
BRANCH  13  14
ATOM     14  C   UNL     1      -7.727   8.928  -1.835  1.00  0.00     0.000 C 
BRANCH  14  15
ATOM     15  C   UNL     1      -6.833   7.741  -2.250  1.00  0.00     0.000 C 
BRANCH  15  16
ATOM     16  C   UNL     1      -6.851   7.404  -3.753  1.00  0.00     0.003 C 
BRANCH  16  17
ATOM     17  C   UNL     1      -8.226   7.651  -4.393  1.00  0.00     0.042 C 
BRANCH  17  18
ATOM     18  C   UNL     1      -8.537   6.653  -5.515  1.00  0.00     0.233 C 
BRANCH  18  19
ATOM     19  O   UNL     1      -7.431   6.516  -6.410  1.00  0.00    -0.466 OA
BRANCH  19  20
ATOM     20  C   UNL     1      -7.456   6.935  -7.747  1.00  0.00     0.302 C 
ATOM     21  O   UNL     1      -7.180   6.134  -8.683  1.00  0.00    -0.253 OA
ATOM     22  C   UNL     1      -7.858   8.335  -8.071  1.00  0.00     0.139 C 
ENDBRANCH  19  20
ENDBRANCH  18  19
ENDBRANCH  17  18
ENDBRANCH  16  17
ENDBRANCH  15  16
ENDBRANCH  14  15
ENDBRANCH  13  14
ENDBRANCH   1  13
TORSDOF 16
ENDMDL
MODEL 8
REMARK VINA RESULT:    -4.248      4.255      7.314
REMARK INTER + INTRA:         -10.661
REMARK INTER:                  -8.194
REMARK INTRA:                  -2.467
REMARK UNBOUND:                -2.440
REMARK SMILES CCCCCC=CCC=CCCCCCCCCOC(C)=O
REMARK SMILES IDX 12 1 11 2 10 3 9 4 8 5 7 6 6 7 5 8 4 9 3 10 2 11 1 12 13 13
REMARK SMILES IDX 14 14 15 15 16 16 17 17 18 18 19 19 20 20 22 21 21 22
REMARK H PARENT
REMARK Flexibility Score: inf
ROOT
ATOM      1  C   UNL     1     -11.601   7.041   0.360  1.00  0.00     0.004 C 
ENDROOT
BRANCH   1   2
ATOM      2  C   UNL     1     -11.691   6.820  -1.158  1.00  0.00     0.027 C 
BRANCH   2   3
ATOM      3  C   UNL     1     -10.325   6.619  -1.756  1.00  0.00    -0.031 C 
ATOM      4  C   UNL     1     -10.127   5.811  -2.807  1.00  0.00    -0.027 C 
BRANCH   4   5
ATOM      5  C   UNL     1      -8.744   5.518  -3.319  1.00  0.00     0.054 C 
BRANCH   5   6
ATOM      6  C   UNL     1      -7.699   5.865  -2.288  1.00  0.00    -0.027 C 
ATOM      7  C   UNL     1      -6.712   6.763  -2.469  1.00  0.00    -0.031 C 
BRANCH   7   8
ATOM      8  C   UNL     1      -6.516   7.590  -3.720  1.00  0.00     0.027 C 
BRANCH   8   9
ATOM      9  C   UNL     1      -7.216   8.948  -3.604  1.00  0.00     0.004 C 
BRANCH   9  10
ATOM     10  C   UNL     1      -6.534   9.862  -2.574  1.00  0.00     0.000 C 
BRANCH  10  11
ATOM     11  C   UNL     1      -7.553  10.415  -1.571  1.00  0.00    -0.003 C 
ATOM     12  C   UNL     1      -7.597   9.564  -0.304  1.00  0.00     0.004 C 
ENDBRANCH  10  11
ENDBRANCH   9  10
ENDBRANCH   8   9
ENDBRANCH   7   8
ENDBRANCH   5   6
ENDBRANCH   4   5
ENDBRANCH   2   3
ENDBRANCH   1   2
BRANCH   1  13
ATOM     13  C   UNL     1     -11.475   5.739   1.177  1.00  0.00     0.000 C 
BRANCH  13  14
ATOM     14  C   UNL     1     -10.077   5.480   1.777  1.00  0.00     0.000 C 
BRANCH  14  15
ATOM     15  C   UNL     1      -9.214   4.451   1.017  1.00  0.00     0.000 C 
BRANCH  15  16
ATOM     16  C   UNL     1      -7.723   4.812   0.895  1.00  0.00     0.003 C 
BRANCH  16  17
ATOM     17  C   UNL     1      -7.426   6.245   1.366  1.00  0.00     0.042 C 
BRANCH  17  18
ATOM     18  C   UNL     1      -6.356   6.290   2.464  1.00  0.00     0.233 C 
BRANCH  18  19
ATOM     19  O   UNL     1      -6.820   7.005   3.611  1.00  0.00    -0.466 OA
BRANCH  19  20
ATOM     20  C   UNL     1      -6.846   6.465   4.905  1.00  0.00     0.302 C 
ATOM     21  O   UNL     1      -5.785   6.070   5.464  1.00  0.00    -0.253 OA
ATOM     22  C   UNL     1      -8.138   6.398   5.648  1.00  0.00     0.139 C 
ENDBRANCH  19  20
ENDBRANCH  18  19
ENDBRANCH  17  18
ENDBRANCH  16  17
ENDBRANCH  15  16
ENDBRANCH  14  15
ENDBRANCH  13  14
ENDBRANCH   1  13
TORSDOF 16
ENDMDL
MODEL 9
REMARK VINA RESULT:    -4.239      4.006      7.616
REMARK INTER + INTRA:         -10.644
REMARK INTER:                  -8.309
REMARK INTRA:                  -2.335
REMARK UNBOUND:                -2.440
REMARK SMILES CCCCCC=CCC=CCCCCCCCCOC(C)=O
REMARK SMILES IDX 12 1 11 2 10 3 9 4 8 5 7 6 6 7 5 8 4 9 3 10 2 11 1 12 13 13
REMARK SMILES IDX 14 14 15 15 16 16 17 17 18 18 19 19 20 20 22 21 21 22
REMARK H PARENT
REMARK Flexibility Score: inf
ROOT
ATOM      1  C   UNL     1     -10.627   6.104  -0.073  1.00  0.00     0.004 C 
ENDROOT
BRANCH   1   2
ATOM      2  C   UNL     1     -10.637   7.569   0.387  1.00  0.00     0.027 C 
BRANCH   2   3
ATOM      3  C   UNL     1      -9.673   8.396  -0.420  1.00  0.00    -0.031 C 
ATOM      4  C   UNL     1      -9.577   8.268  -1.750  1.00  0.00    -0.027 C 
BRANCH   4   5
ATOM      5  C   UNL     1      -8.526   9.005  -2.532  1.00  0.00     0.054 C 
BRANCH   5   6
ATOM      6  C   UNL     1      -7.337   8.120  -2.812  1.00  0.00    -0.027 C 
ATOM      7  C   UNL     1      -7.331   7.096  -3.686  1.00  0.00    -0.031 C 
BRANCH   7   8
ATOM      8  C   UNL     1      -8.505   6.692  -4.550  1.00  0.00     0.027 C 
BRANCH   8   9
ATOM      9  C   UNL     1      -8.269   7.064  -6.016  1.00  0.00     0.004 C 
BRANCH   9  10
ATOM     10  C   UNL     1      -6.784   6.976  -6.402  1.00  0.00     0.000 C 
BRANCH  10  11
ATOM     11  C   UNL     1      -6.326   8.252  -7.118  1.00  0.00    -0.003 C 
ATOM     12  C   UNL     1      -7.419   9.317  -7.100  1.00  0.00     0.004 C 
ENDBRANCH  10  11
ENDBRANCH   9  10
ENDBRANCH   8   9
ENDBRANCH   7   8
ENDBRANCH   5   6
ENDBRANCH   4   5
ENDBRANCH   2   3
ENDBRANCH   1   2
BRANCH   1  13
ATOM     13  C   UNL     1     -10.013   5.128   0.952  1.00  0.00     0.000 C 
BRANCH  13  14
ATOM     14  C   UNL     1      -8.777   4.352   0.453  1.00  0.00     0.000 C 
BRANCH  14  15
ATOM     15  C   UNL     1      -7.920   5.086  -0.601  1.00  0.00     0.000 C 
BRANCH  15  16
ATOM     16  C   UNL     1      -6.624   5.718  -0.062  1.00  0.00     0.003 C 
BRANCH  16  17
ATOM     17  C   UNL     1      -6.871   6.606   1.167  1.00  0.00     0.042 C 
BRANCH  17  18
ATOM     18  C   UNL     1      -6.270   6.013   2.448  1.00  0.00     0.233 C 
BRANCH  18  19
ATOM     19  O   UNL     1      -6.308   6.953   3.523  1.00  0.00    -0.466 OA
BRANCH  19  20
ATOM     20  C   UNL     1      -6.620   6.609   4.846  1.00  0.00     0.302 C 
ATOM     21  O   UNL     1      -5.890   6.987   5.804  1.00  0.00    -0.253 OA
ATOM     22  C   UNL     1      -7.857   5.822   5.128  1.00  0.00     0.139 C 
ENDBRANCH  19  20
ENDBRANCH  18  19
ENDBRANCH  17  18
ENDBRANCH  16  17
ENDBRANCH  15  16
ENDBRANCH  14  15
ENDBRANCH  13  14
ENDBRANCH   1  13
TORSDOF 16
ENDMDL
