MODEL 1
REMARK VINA RESULT:    -5.703      0.000      0.000
REMARK INTER + INTRA:          -6.266
REMARK INTER:                  -6.203
REMARK INTRA:                  -0.063
REMARK UNBOUND:                -0.063
REMARK SMILES COc1cc2ccc(=O)oc2cc1O
REMARK SMILES IDX 3 1 13 2 12 3 11 4 5 5 4 6 6 7 7 8 8 9 9 10 10 11 2 12 1 13
REMARK SMILES IDX 14 14
REMARK H PARENT 14 15
REMARK Flexibility Score: inf
ROOT
ATOM      1  C   UNL     1      47.165  66.573  92.363  1.00  0.00     0.161 A 
ATOM      2  C   UNL     1      48.103  66.565  91.319  1.00  0.00     0.161 A 
ATOM      3  C   UNL     1      49.445  66.884  91.571  1.00  0.00     0.098 A 
ATOM      4  C   UNL     1      49.859  67.214  92.864  1.00  0.00     0.142 A 
ATOM      5  C   UNL     1      48.923  67.225  93.918  1.00  0.00     0.022 A 
ATOM      6  C   UNL     1      47.581  66.906  93.668  1.00  0.00     0.062 A 
ATOM      7  C   UNL     1      49.368  67.559  95.201  1.00  0.00     0.019 A 
ATOM      8  C   UNL     1      50.714  67.868  95.400  1.00  0.00     0.094 A 
ATOM      9  C   UNL     1      51.585  67.836  94.306  1.00  0.00     0.336 A 
ATOM     10  O   UNL     1      52.803  68.113  94.464  1.00  0.00    -0.246 OA
ATOM     11  O   UNL     1      51.135  67.516  93.096  1.00  0.00    -0.423 OA
ENDROOT
BRANCH   1  12
ATOM     12  O   UNL     1      45.832  66.247  92.065  1.00  0.00    -0.493 OA
ATOM     13  C   UNL     1      45.251  64.962  92.270  1.00  0.00     0.278 C 
ENDBRANCH   1  12
BRANCH   2  14
ATOM     14  O   UNL     1      47.691  66.236  90.029  1.00  0.00    -0.504 OA
ATOM     15  H   UNL     1      48.149  65.506  89.496  1.00  0.00     0.293 HD
ENDBRANCH   2  14
TORSDOF 2
ENDMDL
MODEL 2
REMARK VINA RESULT:    -5.582      8.544      9.009
REMARK INTER + INTRA:          -6.135
REMARK INTER:                  -6.070
REMARK INTRA:                  -0.065
REMARK UNBOUND:                -0.063
REMARK SMILES COc1cc2ccc(=O)oc2cc1O
REMARK SMILES IDX 3 1 13 2 12 3 11 4 5 5 4 6 6 7 7 8 8 9 9 10 10 11 2 12 1 13
REMARK SMILES IDX 14 14
REMARK H PARENT 14 15
REMARK Flexibility Score: inf
ROOT
ATOM      1  C   UNL     1      52.316  57.518  93.818  1.00  0.00     0.161 A 
ATOM      2  C   UNL     1      52.942  58.442  92.968  1.00  0.00     0.161 A 
ATOM      3  C   UNL     1      52.395  59.721  92.788  1.00  0.00     0.098 A 
ATOM      4  C   UNL     1      51.222  60.085  93.453  1.00  0.00     0.142 A 
ATOM      5  C   UNL     1      50.586  59.162  94.309  1.00  0.00     0.022 A 
ATOM      6  C   UNL     1      51.132  57.884  94.490  1.00  0.00     0.062 A 
ATOM      7  C   UNL     1      49.414  59.556  94.961  1.00  0.00     0.019 A 
ATOM      8  C   UNL     1      48.910  60.839  94.749  1.00  0.00     0.094 A 
ATOM      9  C   UNL     1      49.595  61.702  93.885  1.00  0.00     0.336 A 
ATOM     10  O   UNL     1      49.156  62.863  93.679  1.00  0.00    -0.246 OA
ATOM     11  O   UNL     1      50.708  61.301  93.277  1.00  0.00    -0.423 OA
ENDROOT
BRANCH   1  12
ATOM     12  O   UNL     1      52.899  56.249  93.970  1.00  0.00    -0.493 OA
ATOM     13  C   UNL     1      52.434  55.066  93.328  1.00  0.00     0.278 C 
ENDBRANCH   1  12
BRANCH   2  14
ATOM     14  O   UNL     1      54.113  58.081  92.304  1.00  0.00    -0.504 OA
ATOM     15  H   UNL     1      54.419  58.565  91.467  1.00  0.00     0.293 HD
ENDBRANCH   2  14
TORSDOF 2
ENDMDL
MODEL 3
REMARK VINA RESULT:    -5.487      1.132      2.312
REMARK INTER + INTRA:          -6.031
REMARK INTER:                  -5.994
REMARK INTRA:                  -0.037
REMARK UNBOUND:                -0.063
REMARK SMILES COc1cc2ccc(=O)oc2cc1O
REMARK SMILES IDX 3 1 13 2 12 3 11 4 5 5 4 6 6 7 7 8 8 9 9 10 10 11 2 12 1 13
REMARK SMILES IDX 14 14
REMARK H PARENT 14 15
REMARK Flexibility Score: inf
ROOT
ATOM      1  C   UNL     1      47.221  66.566  92.686  1.00  0.00     0.161 A 
ATOM      2  C   UNL     1      47.102  67.180  93.942  1.00  0.00     0.161 A 
ATOM      3  C   UNL     1      48.246  67.612  94.630  1.00  0.00     0.098 A 
ATOM      4  C   UNL     1      49.513  67.434  94.070  1.00  0.00     0.142 A 
ATOM      5  C   UNL     1      49.641  66.818  92.807  1.00  0.00     0.022 A 
ATOM      6  C   UNL     1      48.499  66.386  92.119  1.00  0.00     0.062 A 
ATOM      7  C   UNL     1      50.923  66.655  92.273  1.00  0.00     0.019 A 
ATOM      8  C   UNL     1      52.029  67.102  92.995  1.00  0.00     0.094 A 
ATOM      9  C   UNL     1      51.825  67.705  94.242  1.00  0.00     0.336 A 
ATOM     10  O   UNL     1      52.810  68.114  94.911  1.00  0.00    -0.246 OA
ATOM     11  O   UNL     1      50.595  67.847  94.728  1.00  0.00    -0.423 OA
ENDROOT
BRANCH   1  12
ATOM     12  O   UNL     1      46.049  66.150  92.033  1.00  0.00    -0.493 OA
ATOM     13  C   UNL     1      45.458  64.862  92.180  1.00  0.00     0.278 C 
ENDBRANCH   1  12
BRANCH   2  14
ATOM     14  O   UNL     1      45.839  67.358  94.503  1.00  0.00    -0.504 OA
ATOM     15  H   UNL     1      45.578  66.912  95.375  1.00  0.00     0.293 HD
ENDBRANCH   2  14
TORSDOF 2
ENDMDL
MODEL 4
REMARK VINA RESULT:    -5.368      1.350      5.360
REMARK INTER + INTRA:          -5.902
REMARK INTER:                  -5.917
REMARK INTRA:                   0.016
REMARK UNBOUND:                -0.063
REMARK SMILES COc1cc2ccc(=O)oc2cc1O
REMARK SMILES IDX 3 1 13 2 12 3 11 4 5 5 4 6 6 7 7 8 8 9 9 10 10 11 2 12 1 13
REMARK SMILES IDX 14 14
REMARK H PARENT 14 15
REMARK Flexibility Score: inf
ROOT
ATOM      1  C   UNL     1      51.052  67.744  93.383  1.00  0.00     0.161 A 
ATOM      2  C   UNL     1      50.346  67.749  94.596  1.00  0.00     0.161 A 
ATOM      3  C   UNL     1      48.995  67.377  94.630  1.00  0.00     0.098 A 
ATOM      4  C   UNL     1      48.338  67.000  93.455  1.00  0.00     0.142 A 
ATOM      5  C   UNL     1      49.041  66.992  92.232  1.00  0.00     0.022 A 
ATOM      6  C   UNL     1      50.392  67.363  92.197  1.00  0.00     0.062 A 
ATOM      7  C   UNL     1      48.356  66.609  91.074  1.00  0.00     0.019 A 
ATOM      8  C   UNL     1      47.012  66.248  91.160  1.00  0.00     0.094 A 
ATOM      9  C   UNL     1      46.381  66.280  92.409  1.00  0.00     0.336 A 
ATOM     10  O   UNL     1      45.168  65.958  92.508  1.00  0.00    -0.246 OA
ATOM     11  O   UNL     1      47.055  66.649  93.495  1.00  0.00    -0.423 OA
ENDROOT
BRANCH   1  12
ATOM     12  O   UNL     1      52.405  68.122  93.396  1.00  0.00    -0.493 OA
ATOM     13  C   UNL     1      53.480  67.261  93.759  1.00  0.00     0.278 C 
ENDBRANCH   1  12
BRANCH   2  14
ATOM     14  O   UNL     1      50.999  68.125  95.768  1.00  0.00    -0.504 OA
ATOM     15  H   UNL     1      51.075  69.098  96.044  1.00  0.00     0.293 HD
ENDBRANCH   2  14
TORSDOF 2
ENDMDL
MODEL 5
REMARK VINA RESULT:    -5.356     10.587     11.112
REMARK INTER + INTRA:          -5.889
REMARK INTER:                  -5.839
REMARK INTRA:                  -0.050
REMARK UNBOUND:                -0.063
REMARK SMILES COc1cc2ccc(=O)oc2cc1O
REMARK SMILES IDX 3 1 13 2 12 3 11 4 5 5 4 6 6 7 7 8 8 9 9 10 10 11 2 12 1 13
REMARK SMILES IDX 14 14
REMARK H PARENT 14 15
REMARK Flexibility Score: inf
ROOT
ATOM      1  C   UNL     1      52.266  55.250  93.299  1.00  0.00     0.161 A 
ATOM      2  C   UNL     1      52.621  55.558  94.621  1.00  0.00     0.161 A 
ATOM      3  C   UNL     1      52.159  56.737  95.223  1.00  0.00     0.098 A 
ATOM      4  C   UNL     1      51.340  57.616  94.510  1.00  0.00     0.142 A 
ATOM      5  C   UNL     1      50.978  57.314  93.180  1.00  0.00     0.022 A 
ATOM      6  C   UNL     1      51.439  56.136  92.579  1.00  0.00     0.062 A 
ATOM      7  C   UNL     1      50.157  58.214  92.493  1.00  0.00     0.019 A 
ATOM      8  C   UNL     1      49.722  59.373  93.136  1.00  0.00     0.094 A 
ATOM      9  C   UNL     1      50.122  59.606  94.457  1.00  0.00     0.336 A 
ATOM     10  O   UNL     1      49.741  60.647  95.054  1.00  0.00    -0.246 OA
ATOM     11  O   UNL     1      50.904  58.734  95.087  1.00  0.00    -0.423 OA
ENDROOT
BRANCH   1  12
ATOM     12  O   UNL     1      52.752  54.058  92.737  1.00  0.00    -0.493 OA
ATOM     13  C   UNL     1      52.015  53.228  91.845  1.00  0.00     0.278 C 
ENDBRANCH   1  12
BRANCH   2  14
ATOM     14  O   UNL     1      53.438  54.682  95.334  1.00  0.00    -0.504 OA
ATOM     15  H   UNL     1      53.600  54.798  96.328  1.00  0.00     0.293 HD
ENDBRANCH   2  14
TORSDOF 2
ENDMDL
MODEL 6
REMARK VINA RESULT:    -5.274      9.995     10.467
REMARK INTER + INTRA:          -5.799
REMARK INTER:                  -5.848
REMARK INTRA:                   0.049
REMARK UNBOUND:                -0.063
REMARK SMILES COc1cc2ccc(=O)oc2cc1O
REMARK SMILES IDX 3 1 13 2 12 3 11 4 5 5 4 6 6 7 7 8 8 9 9 10 10 11 2 12 1 13
REMARK SMILES IDX 14 14
REMARK H PARENT 14 15
REMARK Flexibility Score: inf
ROOT
ATOM      1  C   UNL     1      50.707  59.300  93.916  1.00  0.00     0.161 A 
ATOM      2  C   UNL     1      49.961  58.887  92.802  1.00  0.00     0.161 A 
ATOM      3  C   UNL     1      50.141  57.604  92.264  1.00  0.00     0.098 A 
ATOM      4  C   UNL     1      51.068  56.726  92.833  1.00  0.00     0.142 A 
ATOM      5  C   UNL     1      51.822  57.134  93.953  1.00  0.00     0.022 A 
ATOM      6  C   UNL     1      51.642  58.415  94.492  1.00  0.00     0.062 A 
ATOM      7  C   UNL     1      52.741  56.232  94.501  1.00  0.00     0.019 A 
ATOM      8  C   UNL     1      52.883  54.968  93.930  1.00  0.00     0.094 A 
ATOM      9  C   UNL     1      52.100  54.634  92.819  1.00  0.00     0.336 A 
ATOM     10  O   UNL     1      52.215  53.498  92.289  1.00  0.00    -0.246 OA
ATOM     11  O   UNL     1      51.234  55.510  92.318  1.00  0.00    -0.423 OA
ENDROOT
BRANCH   1  12
ATOM     12  O   UNL     1      50.493  60.592  94.421  1.00  0.00    -0.493 OA
ATOM     13  C   UNL     1      49.384  60.968  95.231  1.00  0.00     0.278 C 
ENDBRANCH   1  12
BRANCH   2  14
ATOM     14  O   UNL     1      49.037  59.761  92.233  1.00  0.00    -0.504 OA
ATOM     15  H   UNL     1      48.116  59.447  91.947  1.00  0.00     0.293 HD
ENDBRANCH   2  14
TORSDOF 2
ENDMDL
MODEL 7
REMARK VINA RESULT:    -5.226      8.835      9.190
REMARK INTER + INTRA:          -5.747
REMARK INTER:                  -5.855
REMARK INTRA:                   0.108
REMARK UNBOUND:                -0.063
REMARK SMILES COc1cc2ccc(=O)oc2cc1O
REMARK SMILES IDX 3 1 13 2 12 3 11 4 5 5 4 6 6 7 7 8 8 9 9 10 10 11 2 12 1 13
REMARK SMILES IDX 14 14
REMARK H PARENT 14 15
REMARK Flexibility Score: inf
ROOT
ATOM      1  C   UNL     1      50.155  60.585  93.773  1.00  0.00     0.161 A 
ATOM      2  C   UNL     1      49.448  59.768  94.668  1.00  0.00     0.161 A 
ATOM      3  C   UNL     1      49.940  58.499  95.008  1.00  0.00     0.098 A 
ATOM      4  C   UNL     1      51.139  58.038  94.457  1.00  0.00     0.142 A 
ATOM      5  C   UNL     1      51.855  58.854  93.556  1.00  0.00     0.022 A 
ATOM      6  C   UNL     1      51.364  60.122  93.216  1.00  0.00     0.062 A 
ATOM      7  C   UNL     1      53.051  58.364  93.022  1.00  0.00     0.019 A 
ATOM      8  C   UNL     1      53.499  57.096  93.392  1.00  0.00     0.094 A 
ATOM      9  C   UNL     1      52.735  56.344  94.291  1.00  0.00     0.336 A 
ATOM     10  O   UNL     1      53.121  55.196  94.637  1.00  0.00    -0.246 OA
ATOM     11  O   UNL     1      51.600  56.833  94.784  1.00  0.00    -0.423 OA
ENDROOT
BRANCH   1  12
ATOM     12  O   UNL     1      49.625  61.848  93.462  1.00  0.00    -0.493 OA
ATOM     13  C   UNL     1      48.476  62.062  92.648  1.00  0.00     0.278 C 
ENDBRANCH   1  12
BRANCH   2  14
ATOM     14  O   UNL     1      48.252  60.226  95.219  1.00  0.00    -0.504 OA
ATOM     15  H   UNL     1      47.499  59.589  95.454  1.00  0.00     0.293 HD
ENDBRANCH   2  14
TORSDOF 2
ENDMDL
MODEL 8
REMARK VINA RESULT:    -5.201     19.168     19.974
REMARK INTER + INTRA:          -5.720
REMARK INTER:                  -5.692
REMARK INTRA:                  -0.027
REMARK UNBOUND:                -0.063
REMARK SMILES COc1cc2ccc(=O)oc2cc1O
REMARK SMILES IDX 3 1 13 2 12 3 11 4 5 5 4 6 6 7 7 8 8 9 9 10 10 11 2 12 1 13
REMARK SMILES IDX 14 14
REMARK H PARENT 14 15
REMARK Flexibility Score: inf
ROOT
ATOM      1  C   UNL     1      55.329  48.189  94.165  1.00  0.00     0.161 A 
ATOM      2  C   UNL     1      55.534  48.246  92.778  1.00  0.00     0.161 A 
ATOM      3  C   UNL     1      54.442  48.195  91.899  1.00  0.00     0.098 A 
ATOM      4  C   UNL     1      53.141  48.087  92.397  1.00  0.00     0.142 A 
ATOM      5  C   UNL     1      52.927  48.029  93.790  1.00  0.00     0.022 A 
ATOM      6  C   UNL     1      54.017  48.080  94.669  1.00  0.00     0.062 A 
ATOM      7  C   UNL     1      51.614  47.921  94.257  1.00  0.00     0.019 A 
ATOM      8  C   UNL     1      50.562  47.875  93.343  1.00  0.00     0.094 A 
ATOM      9  C   UNL     1      50.851  47.937  91.975  1.00  0.00     0.336 A 
ATOM     10  O   UNL     1      49.916  47.896  91.132  1.00  0.00    -0.246 OA
ATOM     11  O   UNL     1      52.110  48.038  91.556  1.00  0.00    -0.423 OA
ENDROOT
BRANCH   1  12
ATOM     12  O   UNL     1      56.451  48.244  95.008  1.00  0.00    -0.493 OA
ATOM     13  C   UNL     1      57.035  49.448  95.496  1.00  0.00     0.278 C 
ENDBRANCH   1  12
BRANCH   2  14
ATOM     14  O   UNL     1      56.831  48.353  92.279  1.00  0.00    -0.504 OA
ATOM     15  H   UNL     1      57.024  48.287  91.286  1.00  0.00     0.293 HD
ENDBRANCH   2  14
TORSDOF 2
ENDMDL
MODEL 9
REMARK VINA RESULT:    -3.600     19.405     19.614
REMARK INTER + INTRA:          -3.979
REMARK INTER:                  -3.914
REMARK INTRA:                  -0.065
REMARK UNBOUND:                -0.063
REMARK SMILES COc1cc2ccc(=O)oc2cc1O
REMARK SMILES IDX 3 1 13 2 12 3 11 4 5 5 4 6 6 7 7 8 8 9 9 10 10 11 2 12 1 13
REMARK SMILES IDX 14 14
REMARK H PARENT 14 15
REMARK Flexibility Score: inf
ROOT
ATOM      1  C   UNL     1      53.887  48.125  93.058  1.00  0.00     0.161 A 
ATOM      2  C   UNL     1      54.887  48.178  92.075  1.00  0.00     0.161 A 
ATOM      3  C   UNL     1      56.220  48.424  92.434  1.00  0.00     0.098 A 
ATOM      4  C   UNL     1      56.564  48.619  93.774  1.00  0.00     0.142 A 
ATOM      5  C   UNL     1      55.565  48.567  94.768  1.00  0.00     0.022 A 
ATOM      6  C   UNL     1      54.232  48.320  94.411  1.00  0.00     0.062 A 
ATOM      7  C   UNL     1      55.941  48.765  96.101  1.00  0.00     0.019 A 
ATOM      8  C   UNL     1      57.280  49.006  96.406  1.00  0.00     0.094 A 
ATOM      9  C   UNL     1      58.216  49.043  95.367  1.00  0.00     0.336 A 
ATOM     10  O   UNL     1      59.430  49.260  95.622  1.00  0.00    -0.246 OA
ATOM     11  O   UNL     1      57.832  48.852  94.108  1.00  0.00    -0.423 OA
ENDROOT
BRANCH   1  12
ATOM     12  O   UNL     1      52.566  47.875  92.654  1.00  0.00    -0.493 OA
ATOM     13  C   UNL     1      51.532  48.854  92.627  1.00  0.00     0.278 C 
ENDBRANCH   1  12
BRANCH   2  14
ATOM     14  O   UNL     1      54.546  47.985  90.738  1.00  0.00    -0.504 OA
ATOM     15  H   UNL     1      55.040  48.459  89.991  1.00  0.00     0.293 HD
ENDBRANCH   2  14
TORSDOF 2
ENDMDL
