MODEL 1
REMARK VINA RESULT:     0.000      0.000      0.000
REMARK INTER + INTRA:          -0.385
REMARK INTER:                   0.000
REMARK INTRA:                  -0.385
REMARK UNBOUND:                -0.385
REMARK SMILES Oc1cc(O)c2cc(O)c(-c3cc(O)c(O)c(O)c3)[o+]c2c1
REMARK SMILES IDX 10 1 20 2 21 3 22 4 2 5 3 6 4 7 6 8 7 9 8 10 11 11 12 12
REMARK SMILES IDX 13 13 19 14 15 15 17 16 14 17 16 19 18 21 9 23 1 25 5 27
REMARK H PARENT 14 18 16 20 18 22 9 24 1 26 5 28
REMARK Flexibility Score: inf
ROOT
ATOM      1  C   UNL     1      11.716  19.580  54.690  1.00  0.00     0.402 A 
ATOM      2  O   UNL     1      12.203  18.366  54.446  1.00  0.00    -0.202 OA
ATOM      3  C   UNL     1      13.456  18.013  54.716  1.00  0.00     0.368 A 
ATOM      4  C   UNL     1      13.876  16.714  54.420  1.00  0.00     0.162 A 
ATOM      5  C   UNL     1      15.189  16.319  54.691  1.00  0.00     0.128 A 
ATOM      6  C   UNL     1      16.085  17.227  55.260  1.00  0.00     0.093 A 
ATOM      7  C   UNL     1      15.689  18.535  55.566  1.00  0.00     0.136 A 
ATOM      8  C   UNL     1      14.356  18.940  55.295  1.00  0.00     0.125 A 
ATOM      9  C   UNL     1      13.868  20.226  55.579  1.00  0.00     0.078 A 
ATOM     10  C   UNL     1      12.540  20.551  55.288  1.00  0.00     0.223 A 
ENDROOT
BRANCH   1  11
ATOM     11  C   UNL     1      10.305  19.853  54.334  1.00  0.00     0.091 A 
ATOM     12  C   UNL     1       9.289  19.537  55.249  1.00  0.00     0.068 A 
ATOM     13  C   UNL     1       7.943  19.764  54.939  1.00  0.00     0.162 A 
ATOM     14  C   UNL     1       9.954  20.369  53.078  1.00  0.00     0.068 A 
ATOM     15  C   UNL     1       7.600  20.307  53.678  1.00  0.00     0.200 A 
ATOM     16  C   UNL     1       8.612  20.600  52.753  1.00  0.00     0.162 A 
BRANCH  13  17
ATOM     17  O   UNL     1       6.990  19.437  55.905  1.00  0.00    -0.504 OA
ATOM     18  H   UNL     1       6.045  19.152  55.693  1.00  0.00     0.293 HD
ENDBRANCH  13  17
BRANCH  15  19
ATOM     19  O   UNL     1       6.278  20.563  53.306  1.00  0.00    -0.502 OA
ATOM     20  H   UNL     1       5.766  20.023  52.624  1.00  0.00     0.293 HD
ENDBRANCH  15  19
BRANCH  16  21
ATOM     21  O   UNL     1       8.273  21.120  51.505  1.00  0.00    -0.504 OA
ATOM     22  H   UNL     1       7.802  22.013  51.412  1.00  0.00     0.293 HD
ENDBRANCH  16  21
ENDBRANCH   1  11
BRANCH  10  23
ATOM     23  O   UNL     1      12.040  21.811  55.616  1.00  0.00    -0.500 OA
ATOM     24  H   UNL     1      11.657  22.010  56.533  1.00  0.00     0.294 HD
ENDBRANCH  10  23
BRANCH   5  25
ATOM     25  O   UNL     1      15.615  15.025  54.399  1.00  0.00    -0.507 OA
ATOM     26  H   UNL     1      15.174  14.215  54.820  1.00  0.00     0.293 HD
ENDBRANCH   5  25
BRANCH   7  27
ATOM     27  O   UNL     1      16.647  19.381  56.129  1.00  0.00    -0.507 OA
ATOM     28  H   UNL     1      17.442  19.756  55.629  1.00  0.00     0.293 HD
ENDBRANCH   7  27
TORSDOF 7
ENDMDL
MODEL 2
REMARK VINA RESULT:     0.000      3.450      4.968
REMARK INTER + INTRA:          -0.385
REMARK INTER:                   0.000
REMARK INTRA:                  -0.385
REMARK UNBOUND:                -0.385
REMARK SMILES Oc1cc(O)c2cc(O)c(-c3cc(O)c(O)c(O)c3)[o+]c2c1
REMARK SMILES IDX 10 1 20 2 21 3 22 4 2 5 3 6 4 7 6 8 7 9 8 10 11 11 12 12
REMARK SMILES IDX 13 13 19 14 15 15 17 16 14 17 16 19 18 21 9 23 1 25 5 27
REMARK H PARENT 14 18 16 20 18 22 9 24 1 26 5 28
REMARK Flexibility Score: inf
ROOT
ATOM      1  C   UNL     1      15.226  18.951  54.221  1.00  0.00     0.402 A 
ATOM      2  O   UNL     1      16.323  18.321  54.631  1.00  0.00    -0.202 OA
ATOM      3  C   UNL     1      17.413  18.190  53.882  1.00  0.00     0.368 A 
ATOM      4  C   UNL     1      18.517  17.508  54.399  1.00  0.00     0.162 A 
ATOM      5  C   UNL     1      19.674  17.353  53.630  1.00  0.00     0.128 A 
ATOM      6  C   UNL     1      19.727  17.884  52.339  1.00  0.00     0.093 A 
ATOM      7  C   UNL     1      18.634  18.572  51.797  1.00  0.00     0.136 A 
ATOM      8  C   UNL     1      17.458  18.733  52.574  1.00  0.00     0.125 A 
ATOM      9  C   UNL     1      16.320  19.419  52.119  1.00  0.00     0.078 A 
ATOM     10  C   UNL     1      15.198  19.541  52.944  1.00  0.00     0.223 A 
ENDROOT
BRANCH   1  11
ATOM     11  C   UNL     1      14.071  19.021  55.147  1.00  0.00     0.091 A 
ATOM     12  C   UNL     1      14.007  20.055  56.093  1.00  0.00     0.068 A 
ATOM     13  C   UNL     1      12.941  20.141  56.995  1.00  0.00     0.162 A 
ATOM     14  C   UNL     1      13.066  18.042  55.137  1.00  0.00     0.068 A 
ATOM     15  C   UNL     1      11.919  19.162  56.964  1.00  0.00     0.200 A 
ATOM     16  C   UNL     1      11.995  18.115  56.036  1.00  0.00     0.162 A 
BRANCH  13  17
ATOM     17  O   UNL     1      12.939  21.205  57.900  1.00  0.00    -0.504 OA
ATOM     18  H   UNL     1      13.516  22.029  57.805  1.00  0.00     0.293 HD
ENDBRANCH  13  17
BRANCH  15  19
ATOM     19  O   UNL     1      10.825  19.192  57.833  1.00  0.00    -0.502 OA
ATOM     20  H   UNL     1       9.946  18.730  57.652  1.00  0.00     0.293 HD
ENDBRANCH  15  19
BRANCH  16  21
ATOM     21  O   UNL     1      10.996  17.142  56.015  1.00  0.00    -0.504 OA
ATOM     22  H   UNL     1      11.150  16.232  55.597  1.00  0.00     0.293 HD
ENDBRANCH  16  21
ENDBRANCH   1  11
BRANCH  10  23
ATOM     23  O   UNL     1      14.087  20.264  52.512  1.00  0.00    -0.500 OA
ATOM     24  H   UNL     1      13.714  21.039  53.048  1.00  0.00     0.294 HD
ENDBRANCH  10  23
BRANCH   5  25
ATOM     25  O   UNL     1      20.779  16.675  54.139  1.00  0.00    -0.507 OA
ATOM     26  H   UNL     1      20.964  15.707  53.897  1.00  0.00     0.293 HD
ENDBRANCH   5  25
BRANCH   7  27
ATOM     27  O   UNL     1      18.767  19.068  50.498  1.00  0.00    -0.507 OA
ATOM     28  H   UNL     1      18.023  19.085  49.815  1.00  0.00     0.293 HD
ENDBRANCH   7  27
TORSDOF 7
ENDMDL
MODEL 3
REMARK VINA RESULT:     0.000      4.241      5.940
REMARK INTER + INTRA:          -0.385
REMARK INTER:                   0.000
REMARK INTRA:                  -0.385
REMARK UNBOUND:                -0.385
REMARK SMILES Oc1cc(O)c2cc(O)c(-c3cc(O)c(O)c(O)c3)[o+]c2c1
REMARK SMILES IDX 10 1 20 2 21 3 22 4 2 5 3 6 4 7 6 8 7 9 8 10 11 11 12 12
REMARK SMILES IDX 13 13 19 14 15 15 17 16 14 17 16 19 18 21 9 23 1 25 5 27
REMARK H PARENT 14 18 16 20 18 22 9 24 1 26 5 28
REMARK Flexibility Score: inf
ROOT
ATOM      1  C   UNL     1       8.054  16.304  54.376  1.00  0.00     0.402 A 
ATOM      2  O   UNL     1       9.280  16.072  54.837  1.00  0.00    -0.202 OA
ATOM      3  C   UNL     1       9.557  15.133  55.736  1.00  0.00     0.368 A 
ATOM      4  C   UNL     1      10.876  14.966  56.163  1.00  0.00     0.162 A 
ATOM      5  C   UNL     1      11.194  13.988  57.109  1.00  0.00     0.128 A 
ATOM      6  C   UNL     1      10.186  13.173  57.631  1.00  0.00     0.093 A 
ATOM      7  C   UNL     1       8.855  13.320  57.220  1.00  0.00     0.136 A 
ATOM      8  C   UNL     1       8.529  14.310  56.258  1.00  0.00     0.125 A 
ATOM      9  C   UNL     1       7.225  14.520  55.778  1.00  0.00     0.078 A 
ATOM     10  C   UNL     1       6.981  15.513  54.825  1.00  0.00     0.223 A 
ENDROOT
BRANCH   1  11
ATOM     11  C   UNL     1       7.873  17.388  53.382  1.00  0.00     0.091 A 
ATOM     12  C   UNL     1       8.062  17.113  52.020  1.00  0.00     0.068 A 
ATOM     13  C   UNL     1       7.918  18.117  51.055  1.00  0.00     0.162 A 
ATOM     14  C   UNL     1       7.573  18.700  53.778  1.00  0.00     0.068 A 
ATOM     15  C   UNL     1       7.592  19.433  51.460  1.00  0.00     0.200 A 
ATOM     16  C   UNL     1       7.428  19.714  52.824  1.00  0.00     0.162 A 
BRANCH  13  17
ATOM     17  O   UNL     1       8.108  17.764  49.717  1.00  0.00    -0.504 OA
ATOM     18  H   UNL     1       8.485  18.386  49.017  1.00  0.00     0.293 HD
ENDBRANCH  13  17
BRANCH  15  19
ATOM     19  O   UNL     1       7.429  20.479  50.550  1.00  0.00    -0.502 OA
ATOM     20  H   UNL     1       7.395  20.359  49.548  1.00  0.00     0.293 HD
ENDBRANCH  15  19
BRANCH  16  21
ATOM     21  O   UNL     1       7.122  21.015  53.225  1.00  0.00    -0.504 OA
ATOM     22  H   UNL     1       6.452  21.199  53.962  1.00  0.00     0.293 HD
ENDBRANCH  16  21
ENDBRANCH   1  11
BRANCH  10  23
ATOM     23  O   UNL     1       5.697  15.689  54.311  1.00  0.00    -0.500 OA
ATOM     24  H   UNL     1       4.872  15.411  54.832  1.00  0.00     0.294 HD
ENDBRANCH  10  23
BRANCH   5  25
ATOM     25  O   UNL     1      12.507  13.815  57.539  1.00  0.00    -0.507 OA
ATOM     26  H   UNL     1      12.871  12.899  57.777  1.00  0.00     0.293 HD
ENDBRANCH   5  25
BRANCH   7  27
ATOM     27  O   UNL     1       7.908  12.468  57.793  1.00  0.00    -0.507 OA
ATOM     28  H   UNL     1       7.324  12.712  58.581  1.00  0.00     0.293 HD
ENDBRANCH   7  27
TORSDOF 7
ENDMDL
MODEL 4
REMARK VINA RESULT:     0.000      7.196      8.347
REMARK INTER + INTRA:          -0.385
REMARK INTER:                   0.000
REMARK INTRA:                  -0.385
REMARK UNBOUND:                -0.385
REMARK SMILES Oc1cc(O)c2cc(O)c(-c3cc(O)c(O)c(O)c3)[o+]c2c1
REMARK SMILES IDX 10 1 20 2 21 3 22 4 2 5 3 6 4 7 6 8 7 9 8 10 11 11 12 12
REMARK SMILES IDX 13 13 19 14 15 15 17 16 14 17 16 19 18 21 9 23 1 25 5 27
REMARK H PARENT 14 18 16 20 18 22 9 24 1 26 5 28
REMARK Flexibility Score: inf
ROOT
ATOM      1  C   UNL     1       7.488  14.284  51.079  1.00  0.00     0.402 A 
ATOM      2  O   UNL     1       7.573  12.977  51.306  1.00  0.00    -0.202 OA
ATOM      3  C   UNL     1       7.982  12.460  52.460  1.00  0.00     0.368 A 
ATOM      4  C   UNL     1       8.041  11.072  52.602  1.00  0.00     0.162 A 
ATOM      5  C   UNL     1       8.471  10.503  53.805  1.00  0.00     0.128 A 
ATOM      6  C   UNL     1       8.845  11.328  54.869  1.00  0.00     0.093 A 
ATOM      7  C   UNL     1       8.796  12.723  54.752  1.00  0.00     0.136 A 
ATOM      8  C   UNL     1       8.357  13.304  53.534  1.00  0.00     0.125 A 
ATOM      9  C   UNL     1       8.263  14.691  53.330  1.00  0.00     0.078 A 
ATOM     10  C   UNL     1       7.818  15.191  52.103  1.00  0.00     0.223 A 
ENDROOT
BRANCH   1  11
ATOM     11  C   UNL     1       7.026  14.736  49.745  1.00  0.00     0.091 A 
ATOM     12  C   UNL     1       5.652  14.859  49.497  1.00  0.00     0.068 A 
ATOM     13  C   UNL     1       5.179  15.264  48.243  1.00  0.00     0.162 A 
ATOM     14  C   UNL     1       7.933  14.988  48.705  1.00  0.00     0.068 A 
ATOM     15  C   UNL     1       6.101  15.539  47.206  1.00  0.00     0.200 A 
ATOM     16  C   UNL     1       7.474  15.392  47.445  1.00  0.00     0.162 A 
BRANCH  13  17
ATOM     17  O   UNL     1       3.797  15.376  48.075  1.00  0.00    -0.504 OA
ATOM     18  H   UNL     1       3.356  15.728  47.238  1.00  0.00     0.293 HD
ENDBRANCH  13  17
BRANCH  15  19
ATOM     19  O   UNL     1       5.697  15.952  45.934  1.00  0.00    -0.502 OA
ATOM     20  H   UNL     1       4.818  16.410  45.739  1.00  0.00     0.293 HD
ENDBRANCH  15  19
BRANCH  16  21
ATOM     21  O   UNL     1       8.382  15.649  46.419  1.00  0.00    -0.504 OA
ATOM     22  H   UNL     1       8.314  16.482  45.846  1.00  0.00     0.293 HD
ENDBRANCH  16  21
ENDBRANCH   1  11
BRANCH  10  23
ATOM     23  O   UNL     1       7.677  16.565  51.918  1.00  0.00    -0.500 OA
ATOM     24  H   UNL     1       6.901  17.080  52.319  1.00  0.00     0.294 HD
ENDBRANCH  10  23
BRANCH   5  25
ATOM     25  O   UNL     1       8.532   9.120  53.954  1.00  0.00    -0.507 OA
ATOM     26  H   UNL     1       8.606   8.504  53.153  1.00  0.00     0.293 HD
ENDBRANCH   5  25
BRANCH   7  27
ATOM     27  O   UNL     1       9.190  13.475  55.861  1.00  0.00    -0.507 OA
ATOM     28  H   UNL     1       8.720  14.311  56.180  1.00  0.00     0.293 HD
ENDBRANCH   7  27
TORSDOF 7
ENDMDL
MODEL 5
REMARK VINA RESULT:     0.000      6.919      9.638
REMARK INTER + INTRA:          -0.385
REMARK INTER:                   0.000
REMARK INTRA:                  -0.385
REMARK UNBOUND:                -0.385
REMARK SMILES Oc1cc(O)c2cc(O)c(-c3cc(O)c(O)c(O)c3)[o+]c2c1
REMARK SMILES IDX 10 1 20 2 21 3 22 4 2 5 3 6 4 7 6 8 7 9 8 10 11 11 12 12
REMARK SMILES IDX 13 13 19 14 15 15 17 16 14 17 16 19 18 21 9 23 1 25 5 27
REMARK H PARENT 14 18 16 20 18 22 9 24 1 26 5 28
REMARK Flexibility Score: inf
ROOT
ATOM      1  C   UNL     1      12.934  13.963  49.662  1.00  0.00     0.402 A 
ATOM      2  O   UNL     1      13.266  13.240  48.596  1.00  0.00    -0.202 OA
ATOM      3  C   UNL     1      12.535  12.226  48.145  1.00  0.00     0.368 A 
ATOM      4  C   UNL     1      12.968  11.523  47.018  1.00  0.00     0.162 A 
ATOM      5  C   UNL     1      12.219  10.450  46.525  1.00  0.00     0.128 A 
ATOM      6  C   UNL     1      11.032  10.080  47.162  1.00  0.00     0.093 A 
ATOM      7  C   UNL     1      10.576  10.769  48.293  1.00  0.00     0.136 A 
ATOM      8  C   UNL     1      11.332  11.859  48.796  1.00  0.00     0.125 A 
ATOM      9  C   UNL     1      10.946  12.615  49.916  1.00  0.00     0.078 A 
ATOM     10  C   UNL     1      11.740  13.680  50.350  1.00  0.00     0.223 A 
ENDROOT
BRANCH   1  11
ATOM     11  C   UNL     1      13.839  15.063  50.072  1.00  0.00     0.091 A 
ATOM     12  C   UNL     1      13.698  16.328  49.483  1.00  0.00     0.068 A 
ATOM     13  C   UNL     1      14.547  17.384  49.832  1.00  0.00     0.162 A 
ATOM     14  C   UNL     1      14.873  14.852  50.996  1.00  0.00     0.068 A 
ATOM     15  C   UNL     1      15.573  17.170  50.782  1.00  0.00     0.200 A 
ATOM     16  C   UNL     1      15.731  15.899  51.353  1.00  0.00     0.162 A 
BRANCH  13  17
ATOM     17  O   UNL     1      14.337  18.618  49.212  1.00  0.00    -0.504 OA
ATOM     18  H   UNL     1      13.995  19.439  49.689  1.00  0.00     0.293 HD
ENDBRANCH  13  17
BRANCH  15  19
ATOM     19  O   UNL     1      16.451  18.181  51.179  1.00  0.00    -0.502 OA
ATOM     20  H   UNL     1      16.503  18.551  52.117  1.00  0.00     0.293 HD
ENDBRANCH  15  19
BRANCH  16  21
ATOM     21  O   UNL     1      16.751  15.684  52.279  1.00  0.00    -0.504 OA
ATOM     22  H   UNL     1      17.411  16.414  52.521  1.00  0.00     0.293 HD
ENDBRANCH  16  21
ENDBRANCH   1  11
BRANCH  10  23
ATOM     23  O   UNL     1      11.333  14.461  51.431  1.00  0.00    -0.500 OA
ATOM     24  H   UNL     1      11.911  15.211  51.795  1.00  0.00     0.294 HD
ENDBRANCH  10  23
BRANCH   5  25
ATOM     25  O   UNL     1      12.644   9.744  45.402  1.00  0.00    -0.507 OA
ATOM     26  H   UNL     1      12.716  10.189  44.493  1.00  0.00     0.293 HD
ENDBRANCH   5  25
BRANCH   7  27
ATOM     27  O   UNL     1       9.382  10.332  48.873  1.00  0.00    -0.507 OA
ATOM     28  H   UNL     1       9.317   9.584  49.550  1.00  0.00     0.293 HD
ENDBRANCH   7  27
TORSDOF 7
ENDMDL
MODEL 6
REMARK VINA RESULT:     0.000      7.472      9.108
REMARK INTER + INTRA:          -0.385
REMARK INTER:                   0.000
REMARK INTRA:                  -0.385
REMARK UNBOUND:                -0.385
REMARK SMILES Oc1cc(O)c2cc(O)c(-c3cc(O)c(O)c(O)c3)[o+]c2c1
REMARK SMILES IDX 10 1 20 2 21 3 22 4 2 5 3 6 4 7 6 8 7 9 8 10 11 11 12 12
REMARK SMILES IDX 13 13 19 14 15 15 17 16 14 17 16 19 18 21 9 23 1 25 5 27
REMARK H PARENT 14 18 16 20 18 22 9 24 1 26 5 28
REMARK Flexibility Score: inf
ROOT
ATOM      1  C   UNL     1      16.765  19.473  48.745  1.00  0.00     0.402 A 
ATOM      2  O   UNL     1      17.745  20.103  49.385  1.00  0.00    -0.202 OA
ATOM      3  C   UNL     1      17.975  19.966  50.687  1.00  0.00     0.368 A 
ATOM      4  C   UNL     1      19.029  20.673  51.271  1.00  0.00     0.162 A 
ATOM      5  C   UNL     1      19.290  20.548  52.639  1.00  0.00     0.128 A 
ATOM      6  C   UNL     1      18.493  19.713  53.425  1.00  0.00     0.093 A 
ATOM      7  C   UNL     1      17.431  18.993  52.864  1.00  0.00     0.136 A 
ATOM      8  C   UNL     1      17.163  19.115  51.475  1.00  0.00     0.125 A 
ATOM      9  C   UNL     1      16.128  18.422  50.825  1.00  0.00     0.078 A 
ATOM     10  C   UNL     1      15.929  18.589  49.452  1.00  0.00     0.223 A 
ENDROOT
BRANCH   1  11
ATOM     11  C   UNL     1      16.604  19.718  47.293  1.00  0.00     0.091 A 
ATOM     12  C   UNL     1      17.349  18.958  46.379  1.00  0.00     0.068 A 
ATOM     13  C   UNL     1      17.238  19.175  45.001  1.00  0.00     0.162 A 
ATOM     14  C   UNL     1      15.766  20.734  46.811  1.00  0.00     0.068 A 
ATOM     15  C   UNL     1      16.372  20.187  44.521  1.00  0.00     0.200 A 
ATOM     16  C   UNL     1      15.646  20.964  45.435  1.00  0.00     0.162 A 
BRANCH  13  17
ATOM     17  O   UNL     1      18.001  18.370  44.152  1.00  0.00    -0.504 OA
ATOM     18  H   UNL     1      18.988  18.499  43.987  1.00  0.00     0.293 HD
ENDBRANCH  13  17
BRANCH  15  19
ATOM     19  O   UNL     1      16.210  20.452  43.160  1.00  0.00    -0.502 OA
ATOM     20  H   UNL     1      16.269  19.751  42.435  1.00  0.00     0.293 HD
ENDBRANCH  15  19
BRANCH  16  21
ATOM     21  O   UNL     1      14.805  21.971  44.963  1.00  0.00    -0.504 OA
ATOM     22  H   UNL     1      14.350  21.903  44.061  1.00  0.00     0.293 HD
ENDBRANCH  16  21
ENDBRANCH   1  11
BRANCH  10  23
ATOM     23  O   UNL     1      14.934  17.864  48.797  1.00  0.00    -0.500 OA
ATOM     24  H   UNL     1      13.968  18.173  48.787  1.00  0.00     0.294 HD
ENDBRANCH  10  23
BRANCH   5  25
ATOM     25  O   UNL     1      20.339  21.250  53.228  1.00  0.00    -0.507 OA
ATOM     26  H   UNL     1      21.192  20.784  53.516  1.00  0.00     0.293 HD
ENDBRANCH   5  25
BRANCH   7  27
ATOM     27  O   UNL     1      16.680  18.183  53.720  1.00  0.00    -0.507 OA
ATOM     28  H   UNL     1      16.686  18.259  54.728  1.00  0.00     0.293 HD
ENDBRANCH   7  27
TORSDOF 7
ENDMDL
MODEL 7
REMARK VINA RESULT:     0.000      8.229      9.803
REMARK INTER + INTRA:          -0.385
REMARK INTER:                   0.000
REMARK INTRA:                  -0.385
REMARK UNBOUND:                -0.385
REMARK SMILES Oc1cc(O)c2cc(O)c(-c3cc(O)c(O)c(O)c3)[o+]c2c1
REMARK SMILES IDX 10 1 20 2 21 3 22 4 2 5 3 6 4 7 6 8 7 9 8 10 11 11 12 12
REMARK SMILES IDX 13 13 19 14 15 15 17 16 14 17 16 19 18 21 9 23 1 25 5 27
REMARK H PARENT 14 18 16 20 18 22 9 24 1 26 5 28
REMARK Flexibility Score: inf
ROOT
ATOM      1  C   UNL     1      15.084  24.199  49.282  1.00  0.00     0.402 A 
ATOM      2  O   UNL     1      15.914  25.056  48.695  1.00  0.00    -0.202 OA
ATOM      3  C   UNL     1      16.314  26.190  49.261  1.00  0.00     0.368 A 
ATOM      4  C   UNL     1      17.185  27.029  48.563  1.00  0.00     0.162 A 
ATOM      5  C   UNL     1      17.619  28.229  49.134  1.00  0.00     0.128 A 
ATOM      6  C   UNL     1      17.178  28.591  50.409  1.00  0.00     0.093 A 
ATOM      7  C   UNL     1      16.304  27.767  51.130  1.00  0.00     0.136 A 
ATOM      8  C   UNL     1      15.863  26.547  50.555  1.00  0.00     0.125 A 
ATOM      9  C   UNL     1      14.998  25.654  51.208  1.00  0.00     0.078 A 
ATOM     10  C   UNL     1      14.611  24.467  50.580  1.00  0.00     0.223 A 
ENDROOT
BRANCH   1  11
ATOM     11  C   UNL     1      14.704  22.972  48.542  1.00  0.00     0.091 A 
ATOM     12  C   UNL     1      15.527  21.839  48.617  1.00  0.00     0.068 A 
ATOM     13  C   UNL     1      15.209  20.670  47.917  1.00  0.00     0.162 A 
ATOM     14  C   UNL     1      13.568  22.937  47.720  1.00  0.00     0.068 A 
ATOM     15  C   UNL     1      14.049  20.635  47.108  1.00  0.00     0.200 A 
ATOM     16  C   UNL     1      13.239  21.775  47.012  1.00  0.00     0.162 A 
BRANCH  13  17
ATOM     17  O   UNL     1      16.069  19.578  48.051  1.00  0.00    -0.504 OA
ATOM     18  H   UNL     1      16.393  19.015  47.278  1.00  0.00     0.293 HD
ENDBRANCH  13  17
BRANCH  15  19
ATOM     19  O   UNL     1      13.671  19.500  46.387  1.00  0.00    -0.502 OA
ATOM     20  H   UNL     1      13.244  18.682  46.798  1.00  0.00     0.293 HD
ENDBRANCH  15  19
BRANCH  16  21
ATOM     21  O   UNL     1      12.104  21.746  46.203  1.00  0.00    -0.504 OA
ATOM     22  H   UNL     1      11.236  21.329  46.521  1.00  0.00     0.293 HD
ENDBRANCH  16  21
ENDBRANCH   1  11
BRANCH  10  23
ATOM     23  O   UNL     1      13.793  23.557  51.247  1.00  0.00    -0.500 OA
ATOM     24  H   UNL     1      13.685  22.601  50.925  1.00  0.00     0.294 HD
ENDBRANCH  10  23
BRANCH   5  25
ATOM     25  O   UNL     1      18.488  29.071  48.444  1.00  0.00    -0.507 OA
ATOM     26  H   UNL     1      18.533  29.070  47.431  1.00  0.00     0.293 HD
ENDBRANCH   5  25
BRANCH   7  27
ATOM     27  O   UNL     1      15.908  28.204  52.397  1.00  0.00    -0.507 OA
ATOM     28  H   UNL     1      15.223  28.928  52.562  1.00  0.00     0.293 HD
ENDBRANCH   7  27
TORSDOF 7
ENDMDL
MODEL 8
REMARK VINA RESULT:     0.000      7.926      9.249
REMARK INTER + INTRA:          -0.385
REMARK INTER:                   0.000
REMARK INTRA:                  -0.385
REMARK UNBOUND:                -0.385
REMARK SMILES Oc1cc(O)c2cc(O)c(-c3cc(O)c(O)c(O)c3)[o+]c2c1
REMARK SMILES IDX 10 1 20 2 21 3 22 4 2 5 3 6 4 7 6 8 7 9 8 10 11 11 12 12
REMARK SMILES IDX 13 13 19 14 15 15 17 16 14 17 16 19 18 21 9 23 1 25 5 27
REMARK H PARENT 14 18 16 20 18 22 9 24 1 26 5 28
REMARK Flexibility Score: inf
ROOT
ATOM      1  C   UNL     1       7.130  17.196  47.689  1.00  0.00     0.402 A 
ATOM      2  O   UNL     1       6.697  16.931  48.918  1.00  0.00    -0.202 OA
ATOM      3  C   UNL     1       7.078  15.865  49.613  1.00  0.00     0.368 A 
ATOM      4  C   UNL     1       6.565  15.670  50.898  1.00  0.00     0.162 A 
ATOM      5  C   UNL     1       6.948  14.554  51.649  1.00  0.00     0.128 A 
ATOM      6  C   UNL     1       7.848  13.631  51.112  1.00  0.00     0.093 A 
ATOM      7  C   UNL     1       8.377  13.803  49.827  1.00  0.00     0.136 A 
ATOM      8  C   UNL     1       7.993  14.935  49.062  1.00  0.00     0.125 A 
ATOM      9  C   UNL     1       8.481  15.195  47.770  1.00  0.00     0.078 A 
ATOM     10  C   UNL     1       8.060  16.335  47.079  1.00  0.00     0.223 A 
ENDROOT
BRANCH   1  11
ATOM     11  C   UNL     1       6.622  18.413  47.014  1.00  0.00     0.091 A 
ATOM     12  C   UNL     1       7.262  19.642  47.232  1.00  0.00     0.068 A 
ATOM     13  C   UNL     1       6.798  20.815  46.627  1.00  0.00     0.162 A 
ATOM     14  C   UNL     1       5.477  18.375  46.203  1.00  0.00     0.068 A 
ATOM     15  C   UNL     1       5.656  20.764  45.792  1.00  0.00     0.200 A 
ATOM     16  C   UNL     1       5.001  19.541  45.592  1.00  0.00     0.162 A 
BRANCH  13  17
ATOM     17  O   UNL     1       7.495  21.998  46.882  1.00  0.00    -0.504 OA
ATOM     18  H   UNL     1       8.496  22.093  46.799  1.00  0.00     0.293 HD
ENDBRANCH  13  17
BRANCH  15  19
ATOM     19  O   UNL     1       5.144  21.896  45.153  1.00  0.00    -0.502 OA
ATOM     20  H   UNL     1       4.168  22.025  44.925  1.00  0.00     0.293 HD
ENDBRANCH  15  19
BRANCH  16  21
ATOM     21  O   UNL     1       3.867  19.494  44.782  1.00  0.00    -0.504 OA
ATOM     22  H   UNL     1       3.255  20.295  44.678  1.00  0.00     0.293 HD
ENDBRANCH  16  21
ENDBRANCH   1  11
BRANCH  10  23
ATOM     23  O   UNL     1       8.583  16.620  45.818  1.00  0.00    -0.500 OA
ATOM     24  H   UNL     1       8.264  17.416  45.277  1.00  0.00     0.294 HD
ENDBRANCH  10  23
BRANCH   5  25
ATOM     25  O   UNL     1       6.440  14.354  52.930  1.00  0.00    -0.507 OA
ATOM     26  H   UNL     1       5.444  14.272  53.098  1.00  0.00     0.293 HD
ENDBRANCH   5  25
BRANCH   7  27
ATOM     27  O   UNL     1       9.267  12.831  49.363  1.00  0.00    -0.507 OA
ATOM     28  H   UNL     1      10.204  12.700  49.718  1.00  0.00     0.293 HD
ENDBRANCH   7  27
TORSDOF 7
ENDMDL
MODEL 9
REMARK VINA RESULT:     0.000      7.828      9.837
REMARK INTER + INTRA:          -0.385
REMARK INTER:                   0.000
REMARK INTRA:                  -0.385
REMARK UNBOUND:                -0.385
REMARK SMILES Oc1cc(O)c2cc(O)c(-c3cc(O)c(O)c(O)c3)[o+]c2c1
REMARK SMILES IDX 10 1 20 2 21 3 22 4 2 5 3 6 4 7 6 8 7 9 8 10 11 11 12 12
REMARK SMILES IDX 13 13 19 14 15 15 17 16 14 17 16 19 18 21 9 23 1 25 5 27
REMARK H PARENT 14 18 16 20 18 22 9 24 1 26 5 28
REMARK Flexibility Score: inf
ROOT
ATOM      1  C   UNL     1       6.934  17.400  46.460  1.00  0.00     0.402 A 
ATOM      2  O   UNL     1       7.425  17.039  47.642  1.00  0.00    -0.202 OA
ATOM      3  C   UNL     1       8.176  15.957  47.822  1.00  0.00     0.368 A 
ATOM      4  C   UNL     1       8.643  15.658  49.103  1.00  0.00     0.162 A 
ATOM      5  C   UNL     1       9.432  14.524  49.320  1.00  0.00     0.128 A 
ATOM      6  C   UNL     1       9.755  13.687  48.249  1.00  0.00     0.093 A 
ATOM      7  C   UNL     1       9.299  13.964  46.955  1.00  0.00     0.136 A 
ATOM      8  C   UNL     1       8.500  15.115  46.730  1.00  0.00     0.125 A 
ATOM      9  C   UNL     1       8.009  15.479  45.465  1.00  0.00     0.078 A 
ATOM     10  C   UNL     1       7.231  16.631  45.319  1.00  0.00     0.223 A 
ENDROOT
BRANCH   1  11
ATOM     11  C   UNL     1       6.101  18.623  46.391  1.00  0.00     0.091 A 
ATOM     12  C   UNL     1       6.720  19.872  46.233  1.00  0.00     0.068 A 
ATOM     13  C   UNL     1       5.966  21.050  46.184  1.00  0.00     0.162 A 
ATOM     14  C   UNL     1       4.707  18.567  46.538  1.00  0.00     0.068 A 
ATOM     15  C   UNL     1       4.558  20.982  46.310  1.00  0.00     0.200 A 
ATOM     16  C   UNL     1       3.940  19.738  46.492  1.00  0.00     0.162 A 
BRANCH  13  17
ATOM     17  O   UNL     1       6.652  22.254  46.012  1.00  0.00    -0.504 OA
ATOM     18  H   UNL     1       7.074  22.545  45.142  1.00  0.00     0.293 HD
ENDBRANCH  13  17
BRANCH  15  19
ATOM     19  O   UNL     1       3.746  22.118  46.264  1.00  0.00    -0.502 OA
ATOM     20  H   UNL     1       4.060  23.027  45.956  1.00  0.00     0.293 HD
ENDBRANCH  15  19
BRANCH  16  21
ATOM     21  O   UNL     1       2.554  19.673  46.632  1.00  0.00    -0.504 OA
ATOM     22  H   UNL     1       1.933  20.141  45.982  1.00  0.00     0.293 HD
ENDBRANCH  16  21
ENDBRANCH   1  11
BRANCH  10  23
ATOM     23  O   UNL     1       6.786  17.020  44.057  1.00  0.00    -0.500 OA
ATOM     24  H   UNL     1       6.897  17.971  43.722  1.00  0.00     0.294 HD
ENDBRANCH  10  23
BRANCH   5  25
ATOM     25  O   UNL     1       9.902  14.219  50.596  1.00  0.00    -0.507 OA
ATOM     26  H   UNL     1       9.267  14.070  51.372  1.00  0.00     0.293 HD
ENDBRANCH   5  25
BRANCH   7  27
ATOM     27  O   UNL     1       9.663  13.075  45.941  1.00  0.00    -0.507 OA
ATOM     28  H   UNL     1       9.659  13.300  44.956  1.00  0.00     0.293 HD
ENDBRANCH   7  27
TORSDOF 7
ENDMDL
