MODEL 1
REMARK VINA RESULT:    -1.288      0.000      0.000
REMARK INTER + INTRA:          -2.176
REMARK INTER:                  -1.890
REMARK INTRA:                  -0.286
REMARK UNBOUND:                -0.286
REMARK SMILES O=c1c(O[C@@H]2O[C@@H](CO)[C@@H](O)[C@@H](O)[C@H]2O)c(-c2ccc(O)c(O)c2)oc2cc(O)cc(O)c12
REMARK SMILES IDX 4 1 3 2 16 3 25 4 2 5 26 6 1 7 33 8 27 9 31 10 28 11 30 12
REMARK SMILES IDX 17 13 18 14 19 15 20 16 24 17 22 18 21 19 23 21 32 23 29 25
REMARK SMILES IDX 5 27 14 28 6 29 12 30 7 31 10 32 15 33 13 35 8 37 9 38 11 40
REMARK H PARENT 21 20 23 22 32 24 29 26 15 34 13 36 9 39 11 41
REMARK Flexibility Score: inf
ROOT
ATOM      1  O   UNL     1       0.576  13.005  13.542  1.00  0.00    -0.454 OA
ENDROOT
BRANCH   1   2
ATOM      2  C   UNL     1       1.673  12.163  13.212  1.00  0.00     0.214 A 
ATOM      3  C   UNL     1       2.790  12.698  12.543  1.00  0.00     0.180 A 
ATOM      4  O   UNL     1       3.765  11.903  12.132  1.00  0.00    -0.452 OA
ATOM      5  C   UNL     1       1.688  10.787  13.494  1.00  0.00     0.239 A 
ATOM      6  C   UNL     1       3.851  10.619  12.443  1.00  0.00     0.146 A 
ATOM      7  O   UNL     1       0.617  10.219  13.869  1.00  0.00    -0.285 OA
ATOM      8  C   UNL     1       2.837  10.022  13.220  1.00  0.00     0.111 A 
ATOM      9  C   UNL     1       4.935   9.855  11.996  1.00  0.00     0.094 A 
ATOM     10  C   UNL     1       3.033   8.713  13.695  1.00  0.00     0.134 A 
ATOM     11  C   UNL     1       5.032   8.510  12.352  1.00  0.00     0.123 A 
ATOM     12  C   UNL     1       4.105   7.939  13.227  1.00  0.00     0.093 A 
BRANCH   3  13
ATOM     13  C   UNL     1       2.950  14.127  12.227  1.00  0.00     0.025 A 
ATOM     14  C   UNL     1       1.817  14.949  12.031  1.00  0.00     0.016 A 
ATOM     15  C   UNL     1       1.957  16.334  11.880  1.00  0.00     0.051 A 
ATOM     16  C   UNL     1       3.220  16.942  12.001  1.00  0.00     0.157 A 
ATOM     17  C   UNL     1       4.216  14.716  12.253  1.00  0.00     0.062 A 
ATOM     18  C   UNL     1       4.356  16.117  12.175  1.00  0.00     0.158 A 
BRANCH  16  19
ATOM     19  O   UNL     1       3.392  18.327  11.875  1.00  0.00    -0.504 OA
ATOM     20  H   UNL     1       4.313  18.732  11.697  1.00  0.00     0.293 HD
ENDBRANCH  16  19
BRANCH  18  21
ATOM     21  O   UNL     1       5.630  16.654  12.196  1.00  0.00    -0.504 OA
ATOM     22  H   UNL     1       5.963  17.156  13.021  1.00  0.00     0.293 HD
ENDBRANCH  18  21
ENDBRANCH   3  13
BRANCH  10  23
ATOM     23  O   UNL     1       2.217   8.168  14.681  1.00  0.00    -0.507 OA
ATOM     24  H   UNL     1       2.470   7.279  15.111  1.00  0.00     0.293 HD
ENDBRANCH  10  23
BRANCH  11  25
ATOM     25  O   UNL     1       6.082   7.734  11.875  1.00  0.00    -0.508 OA
ATOM     26  H   UNL     1       6.549   7.983  11.015  1.00  0.00     0.293 HD
ENDBRANCH  11  25
ENDBRANCH   1   2
BRANCH   1  27
ATOM     27  C   UNL     1       0.293  13.532  14.843  1.00  0.00     0.339 C 
ATOM     28  C   UNL     1       0.210  15.070  14.735  1.00  0.00     0.214 C 
ATOM     29  O   UNL     1      -0.915  12.981  15.327  1.00  0.00    -0.332 OA
ATOM     30  C   UNL     1      -0.931  15.686  15.592  1.00  0.00     0.180 C 
ATOM     31  C   UNL     1      -1.107  13.319  16.696  1.00  0.00     0.179 C 
ATOM     32  C   UNL     1      -1.095  14.893  16.928  1.00  0.00     0.177 C 
BRANCH  28  33
ATOM     33  O   UNL     1       1.470  15.623  15.061  1.00  0.00    -0.384 OA
ATOM     34  H   UNL     1       2.194  15.009  14.702  1.00  0.00     0.211 HD
ENDBRANCH  28  33
BRANCH  30  35
ATOM     35  O   UNL     1      -0.631  17.036  15.877  1.00  0.00    -0.387 OA
ATOM     36  H   UNL     1      -1.232  17.365  16.601  1.00  0.00     0.211 HD
ENDBRANCH  30  35
BRANCH  31  37
ATOM     37  C   UNL     1      -0.262  12.385  17.594  1.00  0.00     0.191 C 
BRANCH  37  38
ATOM     38  O   UNL     1      -0.380  12.705  18.960  1.00  0.00    -0.394 OA
ATOM     39  H   UNL     1       0.533  12.664  19.332  1.00  0.00     0.210 HD
ENDBRANCH  37  38
ENDBRANCH  31  37
BRANCH  32  40
ATOM     40  O   UNL     1      -0.142  15.382  17.847  1.00  0.00    -0.387 OA
ATOM     41  H   UNL     1      -0.156  14.889  18.702  1.00  0.00     0.211 HD
ENDBRANCH  32  40
ENDBRANCH   1  27
TORSDOF 12
ENDMDL
MODEL 2
REMARK VINA RESULT:     0.333      2.111      7.821
REMARK INTER + INTRA:           0.203
REMARK INTER:                   0.616
REMARK INTRA:                  -0.413
REMARK UNBOUND:                -0.286
REMARK SMILES O=c1c(O[C@@H]2O[C@@H](CO)[C@@H](O)[C@@H](O)[C@H]2O)c(-c2ccc(O)c(O)c2)oc2cc(O)cc(O)c12
REMARK SMILES IDX 4 1 3 2 16 3 25 4 2 5 26 6 1 7 33 8 27 9 31 10 28 11 30 12
REMARK SMILES IDX 17 13 18 14 19 15 20 16 24 17 22 18 21 19 23 21 32 23 29 25
REMARK SMILES IDX 5 27 14 28 6 29 12 30 7 31 10 32 15 33 13 35 8 37 9 38 11 40
REMARK H PARENT 21 20 23 22 32 24 29 26 15 34 13 36 9 39 11 41
REMARK Flexibility Score: inf
ROOT
ATOM      1  O   UNL     1       2.576  13.796  14.947  1.00  0.00    -0.454 OA
ENDROOT
BRANCH   1   2
ATOM      2  C   UNL     1       1.847  15.015  14.896  1.00  0.00     0.214 A 
ATOM      3  C   UNL     1       0.835  15.267  15.841  1.00  0.00     0.180 A 
ATOM      4  O   UNL     1       0.076  16.346  15.735  1.00  0.00    -0.452 OA
ATOM      5  C   UNL     1       2.065  15.990  13.909  1.00  0.00     0.239 A 
ATOM      6  C   UNL     1       0.299  17.321  14.868  1.00  0.00     0.146 A 
ATOM      7  O   UNL     1       2.786  15.706  12.904  1.00  0.00    -0.285 OA
ATOM      8  C   UNL     1       1.372  17.214  13.960  1.00  0.00     0.111 A 
ATOM      9  C   UNL     1      -0.532  18.448  14.843  1.00  0.00     0.094 A 
ATOM     10  C   UNL     1       1.706  18.332  13.175  1.00  0.00     0.134 A 
ATOM     11  C   UNL     1      -0.274  19.483  13.946  1.00  0.00     0.123 A 
ATOM     12  C   UNL     1       0.861  19.450  13.131  1.00  0.00     0.093 A 
BRANCH   3  13
ATOM     13  C   UNL     1       0.524  14.372  16.968  1.00  0.00     0.025 A 
ATOM     14  C   UNL     1      -0.624  13.547  16.932  1.00  0.00     0.016 A 
ATOM     15  C   UNL     1      -0.845  12.587  17.927  1.00  0.00     0.051 A 
ATOM     16  C   UNL     1       0.110  12.371  18.937  1.00  0.00     0.157 A 
ATOM     17  C   UNL     1       1.427  14.225  18.022  1.00  0.00     0.062 A 
ATOM     18  C   UNL     1       1.246  13.212  18.985  1.00  0.00     0.158 A 
BRANCH  16  19
ATOM     19  O   UNL     1      -0.072  11.406  19.936  1.00  0.00    -0.504 OA
ATOM     20  H   UNL     1      -0.965  10.922  20.048  1.00  0.00     0.293 HD
ENDBRANCH  16  19
BRANCH  18  21
ATOM     21  O   UNL     1       2.164  13.111  20.015  1.00  0.00    -0.504 OA
ATOM     22  H   UNL     1       2.798  13.886  20.217  1.00  0.00     0.293 HD
ENDBRANCH  18  21
ENDBRANCH   3  13
BRANCH  10  23
ATOM     23  O   UNL     1       2.904  18.394  12.470  1.00  0.00    -0.507 OA
ATOM     24  H   UNL     1       3.062  17.762  11.685  1.00  0.00     0.293 HD
ENDBRANCH  10  23
BRANCH  11  25
ATOM     25  O   UNL     1      -1.121  20.584  13.886  1.00  0.00    -0.508 OA
ATOM     26  H   UNL     1      -1.330  21.112  14.721  1.00  0.00     0.293 HD
ENDBRANCH  11  25
ENDBRANCH   1   2
BRANCH   1  27
ATOM     27  C   UNL     1       2.408  12.686  14.058  1.00  0.00     0.339 C 
ATOM     28  C   UNL     1       0.943  12.210  14.148  1.00  0.00     0.214 C 
ATOM     29  O   UNL     1       2.747  13.076  12.743  1.00  0.00    -0.332 OA
ATOM     30  C   UNL     1       0.339  11.816  12.770  1.00  0.00     0.180 C 
ATOM     31  C   UNL     1       2.798  11.943  11.881  1.00  0.00     0.179 C 
ATOM     32  C   UNL     1       1.426  11.139  11.875  1.00  0.00     0.177 C 
BRANCH  28  33
ATOM     33  O   UNL     1       0.859  11.151  15.081  1.00  0.00    -0.384 OA
ATOM     34  H   UNL     1       0.112  10.527  14.793  1.00  0.00     0.211 HD
ENDBRANCH  28  33
BRANCH  30  35
ATOM     35  O   UNL     1      -0.737  10.923  12.964  1.00  0.00    -0.387 OA
ATOM     36  H   UNL     1      -0.975  10.494  12.097  1.00  0.00     0.211 HD
ENDBRANCH  30  35
BRANCH  31  37
ATOM     37  C   UNL     1       4.144  11.202  12.063  1.00  0.00     0.191 C 
BRANCH  37  38
ATOM     38  O   UNL     1       4.019   9.813  11.875  1.00  0.00    -0.394 OA
ATOM     39  H   UNL     1       4.011   9.413  12.777  1.00  0.00     0.210 HD
ENDBRANCH  37  38
ENDBRANCH  31  37
BRANCH  32  40
ATOM     40  O   UNL     1       1.499   9.775  12.233  1.00  0.00    -0.387 OA
ATOM     41  H   UNL     1       0.686   9.276  11.980  1.00  0.00     0.211 HD
ENDBRANCH  32  40
ENDBRANCH   1  27
TORSDOF 12
ENDMDL
