MODEL 1
REMARK VINA RESULT:    -2.906      0.000      0.000
REMARK INTER + INTRA:          -3.091
REMARK INTER:                  -3.075
REMARK INTRA:                  -0.016
REMARK UNBOUND:                -0.016
REMARK SMILES O=Cc1ccco1
REMARK SMILES IDX 5 1 6 2 7 3 3 4 4 5 2 6 1 7
REMARK H PARENT
REMARK Flexibility Score: inf
ROOT
ATOM      1  C   UNL     1      31.915  26.036  23.108  1.00  0.00     0.043 A 
ATOM      2  C   UNL     1      31.526  27.303  22.720  1.00  0.00     0.196 A 
ATOM      3  O   UNL     1      30.317  27.257  22.209  1.00  0.00    -0.462 OA
ATOM      4  C   UNL     1      29.896  26.014  22.246  1.00  0.00     0.166 A 
ATOM      5  C   UNL     1      30.862  25.201  22.801  1.00  0.00     0.054 A 
ENDROOT
BRANCH   4   6
ATOM      6  C   UNL     1      28.588  25.572  21.762  1.00  0.00     0.298 C 
ATOM      7  O   UNL     1      27.927  26.294  20.971  1.00  0.00    -0.294 OA
ENDBRANCH   4   6
TORSDOF 1
ENDMDL
MODEL 2
REMARK VINA RESULT:    -2.892      1.727      3.225
REMARK INTER + INTRA:          -3.077
REMARK INTER:                  -3.065
REMARK INTRA:                  -0.011
REMARK UNBOUND:                -0.016
REMARK SMILES O=Cc1ccco1
REMARK SMILES IDX 5 1 6 2 7 3 3 4 4 5 2 6 1 7
REMARK H PARENT
REMARK Flexibility Score: inf
ROOT
ATOM      1  C   UNL     1      28.388  25.557  21.640  1.00  0.00     0.043 A 
ATOM      2  C   UNL     1      28.228  26.462  22.672  1.00  0.00     0.196 A 
ATOM      3  O   UNL     1      29.318  26.495  23.404  1.00  0.00    -0.462 OA
ATOM      4  C   UNL     1      30.186  25.651  22.897  1.00  0.00     0.166 A 
ATOM      5  C   UNL     1      29.654  25.032  21.785  1.00  0.00     0.054 A 
ENDROOT
BRANCH   4   6
ATOM      6  C   UNL     1      31.522  25.414  23.445  1.00  0.00     0.298 C 
ATOM      7  O   UNL     1      31.674  24.669  24.447  1.00  0.00    -0.294 OA
ENDBRANCH   4   6
TORSDOF 1
ENDMDL
MODEL 3
REMARK VINA RESULT:    -2.808     21.771     22.514
REMARK INTER + INTRA:          -2.988
REMARK INTER:                  -2.972
REMARK INTRA:                  -0.016
REMARK UNBOUND:                -0.016
REMARK SMILES O=Cc1ccco1
REMARK SMILES IDX 5 1 6 2 7 3 3 4 4 5 2 6 1 7
REMARK H PARENT
REMARK Flexibility Score: inf
ROOT
ATOM      1  C   UNL     1      20.307  13.972   5.259  1.00  0.00     0.043 A 
ATOM      2  C   UNL     1      19.139  14.603   5.637  1.00  0.00     0.196 A 
ATOM      3  O   UNL     1      18.839  14.275   6.873  1.00  0.00    -0.462 OA
ATOM      4  C   UNL     1      19.761  13.456   7.322  1.00  0.00     0.166 A 
ATOM      5  C   UNL     1      20.711  13.229   6.348  1.00  0.00     0.054 A 
ENDROOT
BRANCH   4   6
ATOM      6  C   UNL     1      19.764  12.875   8.665  1.00  0.00     0.298 C 
ATOM      7  O   UNL     1      18.741  12.953   9.393  1.00  0.00    -0.294 OA
ENDBRANCH   4   6
TORSDOF 1
ENDMDL
MODEL 4
REMARK VINA RESULT:    -2.787      1.448      1.555
REMARK INTER + INTRA:          -2.966
REMARK INTER:                  -2.950
REMARK INTRA:                  -0.016
REMARK UNBOUND:                -0.016
REMARK SMILES O=Cc1ccco1
REMARK SMILES IDX 5 1 6 2 7 3 3 4 4 5 2 6 1 7
REMARK H PARENT
REMARK Flexibility Score: inf
ROOT
ATOM      1  C   UNL     1      30.967  25.213  22.887  1.00  0.00     0.043 A 
ATOM      2  C   UNL     1      30.632  26.111  23.881  1.00  0.00     0.196 A 
ATOM      3  O   UNL     1      29.436  26.602  23.648  1.00  0.00    -0.462 OA
ATOM      4  C   UNL     1      28.972  26.063  22.545  1.00  0.00     0.166 A 
ATOM      5  C   UNL     1      29.895  25.180  22.022  1.00  0.00     0.054 A 
ENDROOT
BRANCH   4   6
ATOM      6  C   UNL     1      27.662  26.366  21.967  1.00  0.00     0.298 C 
ATOM      7  O   UNL     1      26.842  27.084  22.595  1.00  0.00    -0.294 OA
ENDBRANCH   4   6
TORSDOF 1
ENDMDL
MODEL 5
REMARK VINA RESULT:    -2.615      1.417      2.840
REMARK INTER + INTRA:          -2.783
REMARK INTER:                  -2.767
REMARK INTRA:                  -0.016
REMARK UNBOUND:                -0.016
REMARK SMILES O=Cc1ccco1
REMARK SMILES IDX 5 1 6 2 7 3 3 4 4 5 2 6 1 7
REMARK H PARENT
REMARK Flexibility Score: inf
ROOT
ATOM      1  C   UNL     1      29.577  24.896  21.762  1.00  0.00     0.043 A 
ATOM      2  C   UNL     1      28.397  25.606  21.668  1.00  0.00     0.196 A 
ATOM      3  O   UNL     1      28.510  26.741  22.319  1.00  0.00    -0.462 OA
ATOM      4  C   UNL     1      29.714  26.806  22.836  1.00  0.00     0.166 A 
ATOM      5  C   UNL     1      30.431  25.670  22.518  1.00  0.00     0.054 A 
ENDROOT
BRANCH   4   6
ATOM      6  C   UNL     1      30.209  27.928  23.634  1.00  0.00     0.298 C 
ATOM      7  O   UNL     1      29.574  29.014  23.665  1.00  0.00    -0.294 OA
ENDBRANCH   4   6
TORSDOF 1
ENDMDL
MODEL 6
REMARK VINA RESULT:    -2.581     21.998     23.020
REMARK INTER + INTRA:          -2.748
REMARK INTER:                  -2.738
REMARK INTRA:                  -0.011
REMARK UNBOUND:                -0.016
REMARK SMILES O=Cc1ccco1
REMARK SMILES IDX 5 1 6 2 7 3 3 4 4 5 2 6 1 7
REMARK H PARENT
REMARK Flexibility Score: inf
ROOT
ATOM      1  C   UNL     1      20.196  12.876   8.397  1.00  0.00     0.043 A 
ATOM      2  C   UNL     1      19.092  12.892   9.226  1.00  0.00     0.196 A 
ATOM      3  O   UNL     1      17.996  12.901   8.504  1.00  0.00    -0.462 OA
ATOM      4  C   UNL     1      18.332  12.890   7.235  1.00  0.00     0.166 A 
ATOM      5  C   UNL     1      19.706  12.875   7.108  1.00  0.00     0.054 A 
ENDROOT
BRANCH   4   6
ATOM      6  C   UNL     1      17.375  12.895   6.128  1.00  0.00     0.298 C 
ATOM      7  O   UNL     1      17.121  13.962   5.513  1.00  0.00    -0.294 OA
ENDBRANCH   4   6
TORSDOF 1
ENDMDL
MODEL 7
REMARK VINA RESULT:    -2.578      5.609      6.533
REMARK INTER + INTRA:          -2.744
REMARK INTER:                  -2.728
REMARK INTRA:                  -0.016
REMARK UNBOUND:                -0.016
REMARK SMILES O=Cc1ccco1
REMARK SMILES IDX 5 1 6 2 7 3 3 4 4 5 2 6 1 7
REMARK H PARENT
REMARK Flexibility Score: inf
ROOT
ATOM      1  C   UNL     1      23.986  30.454  24.872  1.00  0.00     0.043 A 
ATOM      2  C   UNL     1      25.012  30.785  24.008  1.00  0.00     0.196 A 
ATOM      3  O   UNL     1      25.583  29.690  23.560  1.00  0.00    -0.462 OA
ATOM      4  C   UNL     1      24.975  28.655  24.092  1.00  0.00     0.166 A 
ATOM      5  C   UNL     1      23.961  29.077  24.927  1.00  0.00     0.054 A 
ENDROOT
BRANCH   4   6
ATOM      6  C   UNL     1      25.335  27.262  23.826  1.00  0.00     0.298 C 
ATOM      7  O   UNL     1      26.067  26.972  22.845  1.00  0.00    -0.294 OA
ENDBRANCH   4   6
TORSDOF 1
ENDMDL
MODEL 8
REMARK VINA RESULT:    -2.552      1.869      3.046
REMARK INTER + INTRA:          -2.717
REMARK INTER:                  -2.705
REMARK INTRA:                  -0.011
REMARK UNBOUND:                -0.016
REMARK SMILES O=Cc1ccco1
REMARK SMILES IDX 5 1 6 2 7 3 3 4 4 5 2 6 1 7
REMARK H PARENT
REMARK Flexibility Score: inf
ROOT
ATOM      1  C   UNL     1      29.685  25.557  22.347  1.00  0.00     0.043 A 
ATOM      2  C   UNL     1      30.953  25.268  22.812  1.00  0.00     0.196 A 
ATOM      3  O   UNL     1      31.673  26.366  22.841  1.00  0.00    -0.462 OA
ATOM      4  C   UNL     1      30.932  27.362  22.415  1.00  0.00     0.166 A 
ATOM      5  C   UNL     1      29.669  26.911  22.090  1.00  0.00     0.054 A 
ENDROOT
BRANCH   4   6
ATOM      6  C   UNL     1      31.394  28.746  22.308  1.00  0.00     0.298 C 
ATOM      7  O   UNL     1      32.123  29.099  21.345  1.00  0.00    -0.294 OA
ENDBRANCH   4   6
TORSDOF 1
ENDMDL
MODEL 9
REMARK VINA RESULT:    -2.471      5.156      6.239
REMARK INTER + INTRA:          -2.632
REMARK INTER:                  -2.620
REMARK INTRA:                  -0.012
REMARK UNBOUND:                -0.016
REMARK SMILES O=Cc1ccco1
REMARK SMILES IDX 5 1 6 2 7 3 3 4 4 5 2 6 1 7
REMARK H PARENT
REMARK Flexibility Score: inf
ROOT
ATOM      1  C   UNL     1      25.040  26.449  25.037  1.00  0.00     0.043 A 
ATOM      2  C   UNL     1      25.753  26.379  23.856  1.00  0.00     0.196 A 
ATOM      3  O   UNL     1      25.719  27.543  23.249  1.00  0.00    -0.462 OA
ATOM      4  C   UNL     1      25.014  28.374  23.981  1.00  0.00     0.166 A 
ATOM      5  C   UNL     1      24.561  27.738  25.119  1.00  0.00     0.054 A 
ENDROOT
BRANCH   4   6
ATOM      6  C   UNL     1      24.755  29.770  23.626  1.00  0.00     0.298 C 
ATOM      7  O   UNL     1      23.764  30.375  24.111  1.00  0.00    -0.294 OA
ENDBRANCH   4   6
TORSDOF 1
ENDMDL
