MODEL 1
REMARK VINA RESULT:    -7.010      0.000      0.000
REMARK INTER + INTRA:          -7.685
REMARK INTER:                  -7.625
REMARK INTRA:                  -0.061
REMARK UNBOUND:                -0.061
REMARK SMILES COc1cc2ccc(=O)oc2cc1O
REMARK SMILES IDX 3 1 13 2 12 3 11 4 5 5 4 6 6 7 7 8 8 9 9 10 10 11 2 12 1 13
REMARK SMILES IDX 14 14
REMARK H PARENT 14 15
REMARK Flexibility Score: inf
ROOT
ATOM      1  C   UNL     1      -2.549 -14.884  10.787  1.00  0.00     0.161 A 
ATOM      2  C   UNL     1      -2.235 -13.749  10.013  1.00  0.00     0.161 A 
ATOM      3  C   UNL     1      -2.771 -13.601   8.728  1.00  0.00     0.098 A 
ATOM      4  C   UNL     1      -3.622 -14.575   8.201  1.00  0.00     0.142 A 
ATOM      5  C   UNL     1      -3.943 -15.715   8.968  1.00  0.00     0.022 A 
ATOM      6  C   UNL     1      -3.408 -15.867  10.254  1.00  0.00     0.062 A 
ATOM      7  C   UNL     1      -4.798 -16.673   8.411  1.00  0.00     0.019 A 
ATOM      8  C   UNL     1      -5.304 -16.475   7.127  1.00  0.00     0.094 A 
ATOM      9  C   UNL     1      -4.942 -15.321   6.426  1.00  0.00     0.336 A 
ATOM     10  O   UNL     1      -5.388 -15.125   5.266  1.00  0.00    -0.246 OA
ATOM     11  O   UNL     1      -4.127 -14.426   6.979  1.00  0.00    -0.423 OA
ENDROOT
BRANCH   1  12
ATOM     12  O   UNL     1      -1.994 -15.000  12.072  1.00  0.00    -0.493 OA
ATOM     13  C   UNL     1      -2.743 -14.956  13.282  1.00  0.00     0.278 C 
ENDBRANCH   1  12
BRANCH   2  14
ATOM     14  O   UNL     1      -1.389 -12.755  10.505  1.00  0.00    -0.504 OA
ATOM     15  H   UNL     1      -1.154 -11.930   9.967  1.00  0.00     0.293 HD
ENDBRANCH   2  14
TORSDOF 2
ENDMDL
MODEL 2
REMARK VINA RESULT:    -6.607      1.501      5.417
REMARK INTER + INTRA:          -7.247
REMARK INTER:                  -7.228
REMARK INTRA:                  -0.018
REMARK UNBOUND:                -0.061
REMARK SMILES COc1cc2ccc(=O)oc2cc1O
REMARK SMILES IDX 3 1 13 2 12 3 11 4 5 5 4 6 6 7 7 8 8 9 9 10 10 11 2 12 1 13
REMARK SMILES IDX 14 14
REMARK H PARENT 14 15
REMARK Flexibility Score: inf
ROOT
ATOM      1  C   UNL     1      -3.902 -15.679   7.753  1.00  0.00     0.161 A 
ATOM      2  C   UNL     1      -4.629 -16.587   8.548  1.00  0.00     0.161 A 
ATOM      3  C   UNL     1      -4.480 -16.582   9.940  1.00  0.00     0.098 A 
ATOM      4  C   UNL     1      -3.610 -15.678  10.554  1.00  0.00     0.142 A 
ATOM      5  C   UNL     1      -2.877 -14.766   9.767  1.00  0.00     0.022 A 
ATOM      6  C   UNL     1      -3.024 -14.768   8.374  1.00  0.00     0.062 A 
ATOM      7  C   UNL     1      -2.013 -13.874  10.413  1.00  0.00     0.019 A 
ATOM      8  C   UNL     1      -1.903 -13.912  11.802  1.00  0.00     0.094 A 
ATOM      9  C   UNL     1      -2.661 -14.844  12.517  1.00  0.00     0.336 A 
ATOM     10  O   UNL     1      -2.575 -14.894  13.771  1.00  0.00    -0.246 OA
ATOM     11  O   UNL     1      -3.475 -15.682  11.878  1.00  0.00    -0.423 OA
ENDROOT
BRANCH   1  12
ATOM     12  O   UNL     1      -4.076 -15.711   6.360  1.00  0.00    -0.493 OA
ATOM     13  C   UNL     1      -5.136 -15.066   5.664  1.00  0.00     0.278 C 
ENDBRANCH   1  12
BRANCH   2  14
ATOM     14  O   UNL     1      -5.508 -17.504   7.972  1.00  0.00    -0.504 OA
ATOM     15  H   UNL     1      -5.297 -18.494   7.917  1.00  0.00     0.293 HD
ENDBRANCH   2  14
TORSDOF 2
ENDMDL
MODEL 3
REMARK VINA RESULT:    -6.498      1.606      2.792
REMARK INTER + INTRA:          -7.129
REMARK INTER:                  -7.080
REMARK INTRA:                  -0.049
REMARK UNBOUND:                -0.061
REMARK SMILES COc1cc2ccc(=O)oc2cc1O
REMARK SMILES IDX 3 1 13 2 12 3 11 4 5 5 4 6 6 7 7 8 8 9 9 10 10 11 2 12 1 13
REMARK SMILES IDX 14 14
REMARK H PARENT 14 15
REMARK Flexibility Score: inf
ROOT
ATOM      1  C   UNL     1      -3.200 -16.444  10.676  1.00  0.00     0.161 A 
ATOM      2  C   UNL     1      -3.836 -17.612  10.207  1.00  0.00     0.161 A 
ATOM      3  C   UNL     1      -4.487 -17.610   8.968  1.00  0.00     0.098 A 
ATOM      4  C   UNL     1      -4.514 -16.454   8.185  1.00  0.00     0.142 A 
ATOM      5  C   UNL     1      -3.881 -15.282   8.645  1.00  0.00     0.022 A 
ATOM      6  C   UNL     1      -3.228 -15.278   9.884  1.00  0.00     0.062 A 
ATOM      7  C   UNL     1      -3.925 -14.140   7.837  1.00  0.00     0.019 A 
ATOM      8  C   UNL     1      -4.587 -14.194   6.611  1.00  0.00     0.094 A 
ATOM      9  C   UNL     1      -5.192 -15.393   6.220  1.00  0.00     0.336 A 
ATOM     10  O   UNL     1      -5.795 -15.462   5.117  1.00  0.00    -0.246 OA
ATOM     11  O   UNL     1      -5.135 -16.463   7.008  1.00  0.00    -0.423 OA
ENDROOT
BRANCH   1  12
ATOM     12  O   UNL     1      -2.556 -16.480  11.924  1.00  0.00    -0.493 OA
ATOM     13  C   UNL     1      -2.636 -15.451  12.904  1.00  0.00     0.278 C 
ENDBRANCH   1  12
BRANCH   2  14
ATOM     14  O   UNL     1      -3.831 -18.785  10.961  1.00  0.00    -0.504 OA
ATOM     15  H   UNL     1      -3.194 -19.549  10.769  1.00  0.00     0.293 HD
ENDBRANCH   2  14
TORSDOF 2
ENDMDL
MODEL 4
REMARK VINA RESULT:    -6.369      6.688      8.999
REMARK INTER + INTRA:          -6.988
REMARK INTER:                  -6.996
REMARK INTRA:                   0.008
REMARK UNBOUND:                -0.061
REMARK SMILES COc1cc2ccc(=O)oc2cc1O
REMARK SMILES IDX 3 1 13 2 12 3 11 4 5 5 4 6 6 7 7 8 8 9 9 10 10 11 2 12 1 13
REMARK SMILES IDX 14 14
REMARK H PARENT 14 15
REMARK Flexibility Score: inf
ROOT
ATOM      1  C   UNL     1       3.353 -17.868  16.440  1.00  0.00     0.161 A 
ATOM      2  C   UNL     1       3.657 -18.498  15.216  1.00  0.00     0.161 A 
ATOM      3  C   UNL     1       2.649 -18.733  14.275  1.00  0.00     0.098 A 
ATOM      4  C   UNL     1       1.333 -18.347  14.537  1.00  0.00     0.142 A 
ATOM      5  C   UNL     1       1.018 -17.716  15.758  1.00  0.00     0.022 A 
ATOM      6  C   UNL     1       2.024 -17.479  16.704  1.00  0.00     0.062 A 
ATOM      7  C   UNL     1      -0.311 -17.342  15.991  1.00  0.00     0.019 A 
ATOM      8  C   UNL     1      -1.275 -17.600  15.019  1.00  0.00     0.094 A 
ATOM      9  C   UNL     1      -0.889 -18.230  13.831  1.00  0.00     0.336 A 
ATOM     10  O   UNL     1      -1.745 -18.472  12.941  1.00  0.00    -0.246 OA
ATOM     11  O   UNL     1       0.381 -18.576  13.635  1.00  0.00    -0.423 OA
ENDROOT
BRANCH   1  12
ATOM     12  O   UNL     1       4.389 -17.647  17.362  1.00  0.00    -0.493 OA
ATOM     13  C   UNL     1       5.332 -16.585  17.277  1.00  0.00     0.278 C 
ENDBRANCH   1  12
BRANCH   2  14
ATOM     14  O   UNL     1       4.960 -18.898  14.919  1.00  0.00    -0.504 OA
ATOM     15  H   UNL     1       5.162 -19.768  14.440  1.00  0.00     0.293 HD
ENDBRANCH   2  14
TORSDOF 2
ENDMDL
MODEL 5
REMARK VINA RESULT:    -6.326      1.628      1.905
REMARK INTER + INTRA:          -6.942
REMARK INTER:                  -6.896
REMARK INTRA:                  -0.046
REMARK UNBOUND:                -0.061
REMARK SMILES COc1cc2ccc(=O)oc2cc1O
REMARK SMILES IDX 3 1 13 2 12 3 11 4 5 5 4 6 6 7 7 8 8 9 9 10 10 11 2 12 1 13
REMARK SMILES IDX 14 14
REMARK H PARENT 14 15
REMARK Flexibility Score: inf
ROOT
ATOM      1  C   UNL     1      -2.400 -16.019  12.058  1.00  0.00     0.161 A 
ATOM      2  C   UNL     1      -2.439 -14.713  11.527  1.00  0.00     0.161 A 
ATOM      3  C   UNL     1      -2.797 -14.508  10.189  1.00  0.00     0.098 A 
ATOM      4  C   UNL     1      -3.119 -15.591   9.369  1.00  0.00     0.142 A 
ATOM      5  C   UNL     1      -3.083 -16.900   9.891  1.00  0.00     0.022 A 
ATOM      6  C   UNL     1      -2.725 -17.111  11.229  1.00  0.00     0.062 A 
ATOM      7  C   UNL     1      -3.410 -17.965   9.043  1.00  0.00     0.019 A 
ATOM      8  C   UNL     1      -3.760 -17.703   7.719  1.00  0.00     0.094 A 
ATOM      9  C   UNL     1      -3.774 -16.378   7.271  1.00  0.00     0.336 A 
ATOM     10  O   UNL     1      -4.087 -16.121   6.080  1.00  0.00    -0.246 OA
ATOM     11  O   UNL     1      -3.458 -15.385   8.098  1.00  0.00    -0.423 OA
ENDROOT
BRANCH   1  12
ATOM     12  O   UNL     1      -2.037 -16.189  13.404  1.00  0.00    -0.493 OA
ATOM     13  C   UNL     1      -1.355 -17.328  13.918  1.00  0.00     0.278 C 
ENDBRANCH   1  12
BRANCH   2  14
ATOM     14  O   UNL     1      -2.124 -13.607  12.315  1.00  0.00    -0.504 OA
ATOM     15  H   UNL     1      -1.849 -12.718  11.914  1.00  0.00     0.293 HD
ENDBRANCH   2  14
TORSDOF 2
ENDMDL
MODEL 6
REMARK VINA RESULT:    -6.318      1.467      4.924
REMARK INTER + INTRA:          -6.933
REMARK INTER:                  -6.869
REMARK INTRA:                  -0.064
REMARK UNBOUND:                -0.061
REMARK SMILES COc1cc2ccc(=O)oc2cc1O
REMARK SMILES IDX 3 1 13 2 12 3 11 4 5 5 4 6 6 7 7 8 8 9 9 10 10 11 2 12 1 13
REMARK SMILES IDX 14 14
REMARK H PARENT 14 15
REMARK Flexibility Score: inf
ROOT
ATOM      1  C   UNL     1      -3.135 -14.770   8.437  1.00  0.00     0.161 A 
ATOM      2  C   UNL     1      -2.743 -13.656   9.209  1.00  0.00     0.161 A 
ATOM      3  C   UNL     1      -2.362 -13.824  10.545  1.00  0.00     0.098 A 
ATOM      4  C   UNL     1      -2.366 -15.093  11.128  1.00  0.00     0.142 A 
ATOM      5  C   UNL     1      -2.755 -16.213  10.365  1.00  0.00     0.022 A 
ATOM      6  C   UNL     1      -3.138 -16.050   9.027  1.00  0.00     0.062 A 
ATOM      7  C   UNL     1      -2.749 -17.471  10.978  1.00  0.00     0.019 A 
ATOM      8  C   UNL     1      -2.360 -17.580  12.312  1.00  0.00     0.094 A 
ATOM      9  C   UNL     1      -1.986 -16.425  13.006  1.00  0.00     0.336 A 
ATOM     10  O   UNL     1      -1.632 -16.503  14.211  1.00  0.00    -0.246 OA
ATOM     11  O   UNL     1      -2.002 -15.241  12.400  1.00  0.00    -0.423 OA
ENDROOT
BRANCH   1  12
ATOM     12  O   UNL     1      -3.511 -14.567   7.100  1.00  0.00    -0.493 OA
ATOM     13  C   UNL     1      -4.851 -14.608   6.623  1.00  0.00     0.278 C 
ENDBRANCH   1  12
BRANCH   2  14
ATOM     14  O   UNL     1      -2.727 -12.374   8.662  1.00  0.00    -0.504 OA
ATOM     15  H   UNL     1      -2.101 -11.651   8.997  1.00  0.00     0.293 HD
ENDBRANCH   2  14
TORSDOF 2
ENDMDL
MODEL 7
REMARK VINA RESULT:    -5.728      1.382      4.911
REMARK INTER + INTRA:          -6.291
REMARK INTER:                  -6.235
REMARK INTRA:                  -0.056
REMARK UNBOUND:                -0.061
REMARK SMILES COc1cc2ccc(=O)oc2cc1O
REMARK SMILES IDX 3 1 13 2 12 3 11 4 5 5 4 6 6 7 7 8 8 9 9 10 10 11 2 12 1 13
REMARK SMILES IDX 14 14
REMARK H PARENT 14 15
REMARK Flexibility Score: inf
ROOT
ATOM      1  C   UNL     1      -3.892 -15.904   7.645  1.00  0.00     0.161 A 
ATOM      2  C   UNL     1      -2.667 -15.215   7.764  1.00  0.00     0.161 A 
ATOM      3  C   UNL     1      -2.149 -14.913   9.029  1.00  0.00     0.098 A 
ATOM      4  C   UNL     1      -2.838 -15.290  10.184  1.00  0.00     0.142 A 
ATOM      5  C   UNL     1      -4.064 -15.979  10.075  1.00  0.00     0.022 A 
ATOM      6  C   UNL     1      -4.586 -16.283   8.812  1.00  0.00     0.062 A 
ATOM      7  C   UNL     1      -4.730 -16.342  11.251  1.00  0.00     0.019 A 
ATOM      8  C   UNL     1      -4.168 -16.016  12.485  1.00  0.00     0.094 A 
ATOM      9  C   UNL     1      -2.949 -15.332  12.515  1.00  0.00     0.336 A 
ATOM     10  O   UNL     1      -2.426 -15.028  13.619  1.00  0.00    -0.246 OA
ATOM     11  O   UNL     1      -2.337 -14.998  11.382  1.00  0.00    -0.423 OA
ENDROOT
BRANCH   1  12
ATOM     12  O   UNL     1      -4.383 -16.191   6.361  1.00  0.00    -0.493 OA
ATOM     13  C   UNL     1      -5.263 -15.348   5.626  1.00  0.00     0.278 C 
ENDBRANCH   1  12
BRANCH   2  14
ATOM     14  O   UNL     1      -1.951 -14.823   6.634  1.00  0.00    -0.504 OA
ATOM     15  H   UNL     1      -2.135 -13.950   6.153  1.00  0.00     0.293 HD
ENDBRANCH   2  14
TORSDOF 2
ENDMDL
MODEL 8
REMARK VINA RESULT:    -5.602      2.328      2.484
REMARK INTER + INTRA:          -6.154
REMARK INTER:                  -6.110
REMARK INTRA:                  -0.044
REMARK UNBOUND:                -0.061
REMARK SMILES COc1cc2ccc(=O)oc2cc1O
REMARK SMILES IDX 3 1 13 2 12 3 11 4 5 5 4 6 6 7 7 8 8 9 9 10 10 11 2 12 1 13
REMARK SMILES IDX 14 14
REMARK H PARENT 14 15
REMARK Flexibility Score: inf
ROOT
ATOM      1  C   UNL     1      -2.439 -14.391  11.481  1.00  0.00     0.161 A 
ATOM      2  C   UNL     1      -1.776 -14.066  10.280  1.00  0.00     0.161 A 
ATOM      3  C   UNL     1      -1.808 -14.951   9.195  1.00  0.00     0.098 A 
ATOM      4  C   UNL     1      -2.497 -16.162   9.291  1.00  0.00     0.142 A 
ATOM      5  C   UNL     1      -3.164 -16.496  10.487  1.00  0.00     0.022 A 
ATOM      6  C   UNL     1      -3.135 -15.614  11.576  1.00  0.00     0.062 A 
ATOM      7  C   UNL     1      -3.846 -17.716  10.552  1.00  0.00     0.019 A 
ATOM      8  C   UNL     1      -3.846 -18.560   9.441  1.00  0.00     0.094 A 
ATOM      9  C   UNL     1      -3.162 -18.162   8.288  1.00  0.00     0.336 A 
ATOM     10  O   UNL     1      -3.150 -18.909   7.276  1.00  0.00    -0.246 OA
ATOM     11  O   UNL     1      -2.522 -16.996   8.254  1.00  0.00    -0.423 OA
ENDROOT
BRANCH   1  12
ATOM     12  O   UNL     1      -2.387 -13.481  12.549  1.00  0.00    -0.493 OA
ATOM     13  C   UNL     1      -2.661 -13.812  13.906  1.00  0.00     0.278 C 
ENDBRANCH   1  12
BRANCH   2  14
ATOM     14  O   UNL     1      -1.077 -12.867  10.147  1.00  0.00    -0.504 OA
ATOM     15  H   UNL     1      -0.498 -12.493  10.889  1.00  0.00     0.293 HD
ENDBRANCH   2  14
TORSDOF 2
ENDMDL
