MODEL 1
REMARK VINA RESULT:    -4.514      0.000      0.000
REMARK INTER + INTRA:          -6.541
REMARK INTER:                  -6.889
REMARK INTRA:                   0.348
REMARK UNBOUND:                 0.348
REMARK SMILES CC1=CCC[C@@H](C)C(=O)C[C@H](C(C)C)C(=O)C1
REMARK SMILES IDX 8 1 9 2 6 3 7 4 5 5 4 6 3 7 2 8 1 9 10 11 11 12 15 13 16 14
REMARK SMILES IDX 17 15 12 17 13 18 14 19
REMARK H PARENT
REMARK Flexibility Score: 70.00
ROOT
ATOM      1  C   UNL     1      32.551  41.717  83.215  1.00  0.00     0.136 C 
ATOM      2  O   UNL     1      32.894  40.871  82.401  1.00  0.00    -0.299 OA
ENDROOT
BRANCH   1   3
ATOM      3  C   UNL     1      31.640  41.328  84.363  1.00  0.00     0.053 C 
ATOM      4  C   UNL     1      31.407  42.524  85.298  1.00  0.00     0.016 C 
BRANCH   3   5
ATOM      5  C   UNL     1      32.238  40.130  85.136  1.00  0.00     0.015 C 
BRANCH   5   6
ATOM      6  C   UNL     1      33.549  40.499  85.858  1.00  0.00     0.028 C 
BRANCH   6   7
ATOM      7  C   UNL     1      34.736  39.839  85.206  1.00  0.00    -0.028 C 
ATOM      8  C   UNL     1      35.867  40.478  84.826  1.00  0.00    -0.070 CG0
ATOM      9  C   UNL     1      36.985  39.650  84.245  1.00  0.00     0.039 C 
ATOM     10  G   UNL     1      36.060  41.980  84.960  1.00  0.00     0.000 G0
ENDBRANCH   6   7
ENDBRANCH   5   6
ENDBRANCH   3   5
ENDBRANCH   1   3
BRANCH   1  11
ATOM     11  C   UNL     1      33.042  43.136  83.050  1.00  0.00     0.087 C 
BRANCH  11  12
ATOM     12  C   UNL     1      34.093  43.526  84.124  1.00  0.00     0.066 C 
BRANCH  12  13
ATOM     13  C   UNL     1      35.407  42.790  83.883  1.00  0.00     0.140 C 
ATOM     14  O   UNL     1      35.895  42.811  82.762  1.00  0.00    -0.299 OA
BRANCH  13  15
ATOM     15  C   UNL     1      36.085  41.984  84.968  1.00  0.00     0.106 CG0
ATOM     16  G   UNL     1      35.845  40.490  84.816  1.00  0.00     0.000 G0
ENDBRANCH  13  15
ENDBRANCH  12  13
BRANCH  12  17
ATOM     17  C   UNL     1      34.310  45.070  84.238  1.00  0.00    -0.006 C 
ATOM     18  C   UNL     1      35.475  45.433  85.174  1.00  0.00     0.008 C 
ATOM     19  C   UNL     1      34.576  45.693  82.855  1.00  0.00     0.008 C 
ENDBRANCH  12  17
ENDBRANCH  11  12
ENDBRANCH   1  11
TORSDOF 1
ENDMDL
MODEL 2
REMARK VINA RESULT:    -4.486      2.357      4.043
REMARK INTER + INTRA:          -6.498
REMARK INTER:                  -6.511
REMARK INTRA:                   0.013
REMARK UNBOUND:                 0.348
REMARK SMILES CC1=CCC[C@@H](C)C(=O)C[C@H](C(C)C)C(=O)C1
REMARK SMILES IDX 8 1 9 2 6 3 7 4 5 5 4 6 3 7 2 8 1 9 10 11 11 12 15 13 16 14
REMARK SMILES IDX 17 15 12 17 13 18 14 19
REMARK H PARENT
REMARK Flexibility Score: 70.00
ROOT
ATOM      1  C   UNL     1      33.101  40.309  84.492  1.00  0.00     0.136 C 
ATOM      2  O   UNL     1      32.193  39.863  85.181  1.00  0.00    -0.299 OA
ENDROOT
BRANCH   1   3
ATOM      3  C   UNL     1      32.799  40.843  83.105  1.00  0.00     0.053 C 
ATOM      4  C   UNL     1      33.955  40.536  82.143  1.00  0.00     0.016 C 
BRANCH   3   5
ATOM      5  C   UNL     1      32.521  42.363  83.169  1.00  0.00     0.015 C 
BRANCH   5   6
ATOM      6  C   UNL     1      31.660  42.746  84.389  1.00  0.00     0.028 C 
BRANCH   6   7
ATOM      7  C   UNL     1      32.178  43.995  85.054  1.00  0.00    -0.028 C 
ATOM      8  C   UNL     1      32.922  44.020  86.184  1.00  0.00    -0.070 CG0
ATOM      9  C   UNL     1      33.410  45.358  86.678  1.00  0.00     0.039 C 
ATOM     10  G   UNL     1      33.287  42.771  86.969  1.00  0.00     0.000 G0
ENDBRANCH   6   7
ENDBRANCH   5   6
ENDBRANCH   3   5
ENDBRANCH   1   3
BRANCH   1  11
ATOM     11  C   UNL     1      34.507  40.309  85.043  1.00  0.00     0.087 C 
BRANCH  11  12
ATOM     12  C   UNL     1      35.050  41.744  85.278  1.00  0.00     0.066 C 
BRANCH  12  13
ATOM     13  C   UNL     1      34.678  42.239  86.672  1.00  0.00     0.140 C 
ATOM     14  O   UNL     1      35.507  42.150  87.567  1.00  0.00    -0.299 OA
BRANCH  13  15
ATOM     15  C   UNL     1      33.299  42.770  86.994  1.00  0.00     0.106 CG0
ATOM     16  G   UNL     1      32.948  44.004  86.178  1.00  0.00     0.000 G0
ENDBRANCH  13  15
ENDBRANCH  12  13
BRANCH  12  17
ATOM     17  C   UNL     1      36.584  41.871  85.012  1.00  0.00    -0.006 C 
ATOM     18  C   UNL     1      37.183  40.597  84.390  1.00  0.00     0.008 C 
ATOM     19  C   UNL     1      36.886  43.061  84.082  1.00  0.00     0.008 C 
ENDBRANCH  12  17
ENDBRANCH  11  12
ENDBRANCH   1  11
TORSDOF 1
ENDMDL
MODEL 3
REMARK VINA RESULT:    -4.308      2.325      3.831
REMARK INTER + INTRA:          -6.227
REMARK INTER:                  -6.612
REMARK INTRA:                   0.385
REMARK UNBOUND:                 0.348
REMARK SMILES CC1=CCC[C@@H](C)C(=O)C[C@H](C(C)C)C(=O)C1
REMARK SMILES IDX 8 1 9 2 6 3 7 4 5 5 4 6 3 7 2 8 1 9 10 11 11 12 15 13 16 14
REMARK SMILES IDX 17 15 12 17 13 18 14 19
REMARK H PARENT
REMARK Flexibility Score: 70.00
ROOT
ATOM      1  C   UNL     1      35.715  40.541  85.785  1.00  0.00     0.136 C 
ATOM      2  O   UNL     1      35.753  40.420  87.002  1.00  0.00    -0.299 OA
ENDROOT
BRANCH   1   3
ATOM      3  C   UNL     1      34.974  39.512  84.952  1.00  0.00     0.053 C 
ATOM      4  C   UNL     1      35.872  38.979  83.827  1.00  0.00     0.016 C 
BRANCH   3   5
ATOM      5  C   UNL     1      33.675  40.125  84.380  1.00  0.00     0.015 C 
BRANCH   5   6
ATOM      6  C   UNL     1      32.580  40.273  85.455  1.00  0.00     0.028 C 
BRANCH   6   7
ATOM      7  C   UNL     1      31.902  41.615  85.364  1.00  0.00    -0.028 C 
ATOM      8  C   UNL     1      32.387  42.766  85.887  1.00  0.00    -0.070 CG0
ATOM      9  C   UNL     1      31.608  44.034  85.648  1.00  0.00     0.039 C 
ATOM     10  G   UNL     1      33.674  42.836  86.693  1.00  0.00     0.000 G0
ENDBRANCH   6   7
ENDBRANCH   5   6
ENDBRANCH   3   5
ENDBRANCH   1   3
BRANCH   1  11
ATOM     11  C   UNL     1      36.415  41.714  85.141  1.00  0.00     0.087 C 
BRANCH  11  12
ATOM     12  C   UNL     1      35.426  42.832  84.716  1.00  0.00     0.066 C 
BRANCH  12  13
ATOM     13  C   UNL     1      34.796  43.487  85.941  1.00  0.00     0.140 C 
ATOM     14  O   UNL     1      35.267  44.538  86.352  1.00  0.00    -0.299 OA
BRANCH  13  15
ATOM     15  C   UNL     1      33.655  42.845  86.697  1.00  0.00     0.106 CG0
ATOM     16  G   UNL     1      32.373  42.795  85.881  1.00  0.00     0.000 G0
ENDBRANCH  13  15
ENDBRANCH  12  13
BRANCH  12  17
ATOM     17  C   UNL     1      36.070  43.890  83.763  1.00  0.00    -0.006 C 
ATOM     18  C   UNL     1      37.502  43.514  83.345  1.00  0.00     0.008 C 
ATOM     19  C   UNL     1      35.218  44.079  82.494  1.00  0.00     0.008 C 
ENDBRANCH  12  17
ENDBRANCH  11  12
ENDBRANCH   1  11
TORSDOF 1
ENDMDL
MODEL 4
REMARK VINA RESULT:    -4.287      2.503      3.251
REMARK INTER + INTRA:          -6.194
REMARK INTER:                  -6.143
REMARK INTRA:                  -0.052
REMARK UNBOUND:                 0.348
REMARK SMILES CC1=CCC[C@@H](C)C(=O)C[C@H](C(C)C)C(=O)C1
REMARK SMILES IDX 8 1 9 2 6 3 7 4 5 5 4 6 3 7 2 8 1 9 10 11 11 12 15 13 16 14
REMARK SMILES IDX 17 15 12 17 13 18 14 19
REMARK H PARENT
REMARK Flexibility Score: 70.00
ROOT
ATOM      1  C   UNL     1      32.252  42.442  85.116  1.00  0.00     0.136 C 
ATOM      2  O   UNL     1      31.032  42.386  85.187  1.00  0.00    -0.299 OA
ENDROOT
BRANCH   1   3
ATOM      3  C   UNL     1      33.005  41.402  84.309  1.00  0.00     0.053 C 
ATOM      4  C   UNL     1      32.379  41.240  82.916  1.00  0.00     0.016 C 
BRANCH   3   5
ATOM      5  C   UNL     1      33.027  40.054  85.066  1.00  0.00     0.015 C 
BRANCH   5   6
ATOM      6  C   UNL     1      34.393  39.781  85.727  1.00  0.00     0.028 C 
BRANCH   6   7
ATOM      7  C   UNL     1      35.500  40.518  85.020  1.00  0.00    -0.028 C 
ATOM      8  C   UNL     1      36.273  41.478  85.579  1.00  0.00    -0.070 CG0
ATOM      9  C   UNL     1      37.380  42.069  84.743  1.00  0.00     0.039 C 
ATOM     10  G   UNL     1      36.080  41.980  87.000  1.00  0.00     0.000 G0
ENDBRANCH   6   7
ENDBRANCH   5   6
ENDBRANCH   3   5
ENDBRANCH   1   3
BRANCH   1  11
ATOM     11  C   UNL     1      32.979  43.547  85.843  1.00  0.00     0.087 C 
BRANCH  11  12
ATOM     12  C   UNL     1      33.654  43.051  87.150  1.00  0.00     0.066 C 
BRANCH  12  13
ATOM     13  C   UNL     1      35.170  43.195  87.062  1.00  0.00     0.140 C 
ATOM     14  O   UNL     1      35.650  44.317  86.986  1.00  0.00    -0.299 OA
BRANCH  13  15
ATOM     15  C   UNL     1      36.087  41.995  87.000  1.00  0.00     0.106 CG0
ATOM     16  G   UNL     1      36.286  41.490  85.580  1.00  0.00     0.000 G0
ENDBRANCH  13  15
ENDBRANCH  12  13
BRANCH  12  17
ATOM     17  C   UNL     1      33.084  43.737  88.434  1.00  0.00    -0.006 C 
ATOM     18  C   UNL     1      31.737  43.136  88.874  1.00  0.00     0.008 C 
ATOM     19  C   UNL     1      34.078  43.629  89.604  1.00  0.00     0.008 C 
ENDBRANCH  12  17
ENDBRANCH  11  12
ENDBRANCH   1  11
TORSDOF 1
ENDMDL
MODEL 5
REMARK VINA RESULT:    -4.277      1.532      2.663
REMARK INTER + INTRA:          -6.180
REMARK INTER:                  -6.238
REMARK INTRA:                   0.059
REMARK UNBOUND:                 0.348
REMARK SMILES CC1=CCC[C@@H](C)C(=O)C[C@H](C(C)C)C(=O)C1
REMARK SMILES IDX 8 1 9 2 6 3 7 4 5 5 4 6 3 7 2 8 1 9 10 11 11 12 15 13 16 14
REMARK SMILES IDX 17 15 12 17 13 18 14 19
REMARK H PARENT
REMARK Flexibility Score: 70.00
ROOT
ATOM      1  C   UNL     1      33.547  40.985  83.477  1.00  0.00     0.136 C 
ATOM      2  O   UNL     1      34.496  40.792  82.730  1.00  0.00    -0.299 OA
ENDROOT
BRANCH   1   3
ATOM      3  C   UNL     1      33.292  40.031  84.629  1.00  0.00     0.053 C 
ATOM      4  C   UNL     1      32.151  40.548  85.517  1.00  0.00     0.016 C 
BRANCH   3   5
ATOM      5  C   UNL     1      34.586  39.832  85.451  1.00  0.00     0.015 C 
BRANCH   5   6
ATOM      6  C   UNL     1      34.981  41.101  86.232  1.00  0.00     0.028 C 
BRANCH   6   7
ATOM      7  C   UNL     1      36.212  41.742  85.646  1.00  0.00    -0.028 C 
ATOM      8  C   UNL     1      36.309  43.041  85.278  1.00  0.00    -0.070 CG0
ATOM      9  C   UNL     1      37.639  43.533  84.766  1.00  0.00     0.039 C 
ATOM     10  G   UNL     1      35.148  44.019  85.361  1.00  0.00     0.000 G0
ENDBRANCH   6   7
ENDBRANCH   5   6
ENDBRANCH   3   5
ENDBRANCH   1   3
BRANCH   1  11
ATOM     11  C   UNL     1      32.645  42.171  83.228  1.00  0.00     0.087 C 
BRANCH  11  12
ATOM     12  C   UNL     1      32.827  43.285  84.293  1.00  0.00     0.066 C 
BRANCH  12  13
ATOM     13  C   UNL     1      34.203  43.931  84.168  1.00  0.00     0.140 C 
ATOM     14  O   UNL     1      34.572  44.319  83.068  1.00  0.00    -0.299 OA
BRANCH  13  15
ATOM     15  C   UNL     1      35.146  44.044  85.344  1.00  0.00     0.106 CG0
ATOM     16  G   UNL     1      36.284  43.039  85.275  1.00  0.00     0.000 G0
ENDBRANCH  13  15
ENDBRANCH  12  13
BRANCH  12  17
ATOM     17  C   UNL     1      31.685  44.352  84.265  1.00  0.00    -0.006 C 
ATOM     18  C   UNL     1      31.121  44.576  82.851  1.00  0.00     0.008 C 
ATOM     19  C   UNL     1      30.529  43.947  85.198  1.00  0.00     0.008 C 
ENDBRANCH  12  17
ENDBRANCH  11  12
ENDBRANCH   1  11
TORSDOF 1
ENDMDL
MODEL 6
REMARK VINA RESULT:    -4.277      2.108      3.897
REMARK INTER + INTRA:          -6.179
REMARK INTER:                  -5.957
REMARK INTRA:                  -0.222
REMARK UNBOUND:                 0.348
REMARK SMILES CC1=CCC[C@@H](C)C(=O)C[C@H](C(C)C)C(=O)C1
REMARK SMILES IDX 8 1 9 2 6 3 7 4 5 5 4 6 3 7 2 8 1 9 10 11 11 12 15 13 16 14
REMARK SMILES IDX 17 15 12 17 13 18 14 19
REMARK H PARENT
REMARK Flexibility Score: 70.00
ROOT
ATOM      1  C   UNL     1      34.243  40.651  85.380  1.00  0.00     0.136 C 
ATOM      2  O   UNL     1      34.611  39.486  85.442  1.00  0.00    -0.299 OA
ENDROOT
BRANCH   1   3
ATOM      3  C   UNL     1      32.860  40.974  84.849  1.00  0.00     0.053 C 
ATOM      4  C   UNL     1      31.796  40.119  85.553  1.00  0.00     0.016 C 
BRANCH   3   5
ATOM      5  C   UNL     1      32.814  40.764  83.318  1.00  0.00     0.015 C 
BRANCH   5   6
ATOM      6  C   UNL     1      32.826  42.099  82.547  1.00  0.00     0.028 C 
BRANCH   6   7
ATOM      7  C   UNL     1      32.155  43.192  83.337  1.00  0.00    -0.028 C 
ATOM      8  C   UNL     1      32.770  44.307  83.796  1.00  0.00    -0.070 CG0
ATOM      9  C   UNL     1      31.931  45.331  84.517  1.00  0.00     0.039 C 
ATOM     10  G   UNL     1      34.256  44.573  83.614  1.00  0.00     0.000 G0
ENDBRANCH   6   7
ENDBRANCH   5   6
ENDBRANCH   3   5
ENDBRANCH   1   3
BRANCH   1  11
ATOM     11  C   UNL     1      35.185  41.742  85.831  1.00  0.00     0.087 C 
BRANCH  11  12
ATOM     12  C   UNL     1      35.700  42.604  84.648  1.00  0.00     0.066 C 
BRANCH  12  13
ATOM     13  C   UNL     1      35.120  44.014  84.716  1.00  0.00     0.140 C 
ATOM     14  O   UNL     1      35.304  44.677  85.727  1.00  0.00    -0.299 OA
BRANCH  13  15
ATOM     15  C   UNL     1      34.271  44.586  83.603  1.00  0.00     0.106 CG0
ATOM     16  G   UNL     1      32.790  44.301  83.797  1.00  0.00     0.000 G0
ENDBRANCH  13  15
ENDBRANCH  12  13
BRANCH  12  17
ATOM     17  C   UNL     1      37.258  42.628  84.539  1.00  0.00    -0.006 C 
ATOM     18  C   UNL     1      37.861  41.219  84.397  1.00  0.00     0.008 C 
ATOM     19  C   UNL     1      37.714  43.482  83.341  1.00  0.00     0.008 C 
ENDBRANCH  12  17
ENDBRANCH  11  12
ENDBRANCH   1  11
TORSDOF 1
ENDMDL
MODEL 7
REMARK VINA RESULT:    -4.238      2.066      3.828
REMARK INTER + INTRA:          -6.120
REMARK INTER:                  -6.049
REMARK INTRA:                  -0.071
REMARK UNBOUND:                 0.348
REMARK SMILES CC1=CCC[C@@H](C)C(=O)C[C@H](C(C)C)C(=O)C1
REMARK SMILES IDX 8 1 9 2 6 3 7 4 5 5 4 6 3 7 2 8 1 9 10 11 11 12 15 13 16 14
REMARK SMILES IDX 17 15 12 17 13 18 14 19
REMARK H PARENT
REMARK Flexibility Score: 70.00
ROOT
ATOM      1  C   UNL     1      32.843  41.005  85.799  1.00  0.00     0.136 C 
ATOM      2  O   UNL     1      32.121  40.113  85.375  1.00  0.00    -0.299 OA
ENDROOT
BRANCH   1   3
ATOM      3  C   UNL     1      32.221  42.248  86.407  1.00  0.00     0.053 C 
ATOM      4  C   UNL     1      31.514  43.082  85.329  1.00  0.00     0.016 C 
BRANCH   3   5
ATOM      5  C   UNL     1      33.301  43.083  87.133  1.00  0.00     0.015 C 
BRANCH   5   6
ATOM      6  C   UNL     1      33.749  44.302  86.302  1.00  0.00     0.028 C 
BRANCH   6   7
ATOM      7  C   UNL     1      35.144  44.733  86.673  1.00  0.00    -0.028 C 
ATOM      8  C   UNL     1      36.244  44.546  85.907  1.00  0.00    -0.070 CG0
ATOM      9  C   UNL     1      37.555  45.099  86.406  1.00  0.00     0.039 C 
ATOM     10  G   UNL     1      36.215  43.814  84.575  1.00  0.00     0.000 G0
ENDBRANCH   6   7
ENDBRANCH   5   6
ENDBRANCH   3   5
ENDBRANCH   1   3
BRANCH   1  11
ATOM     11  C   UNL     1      34.341  40.847  85.701  1.00  0.00     0.087 C 
BRANCH  11  12
ATOM     12  C   UNL     1      34.921  41.498  84.417  1.00  0.00     0.066 C 
BRANCH  12  13
ATOM     13  C   UNL     1      36.173  42.306  84.741  1.00  0.00     0.140 C 
ATOM     14  O   UNL     1      37.142  41.726  85.211  1.00  0.00    -0.299 OA
BRANCH  13  15
ATOM     15  C   UNL     1      36.228  43.807  84.562  1.00  0.00     0.106 CG0
ATOM     16  G   UNL     1      36.227  44.550  85.888  1.00  0.00     0.000 G0
ENDBRANCH  13  15
ENDBRANCH  12  13
BRANCH  12  17
ATOM     17  C   UNL     1      35.181  40.468  83.270  1.00  0.00    -0.006 C 
ATOM     18  C   UNL     1      35.484  39.056  83.803  1.00  0.00     0.008 C 
ATOM     19  C   UNL     1      33.973  40.387  82.318  1.00  0.00     0.008 C 
ENDBRANCH  12  17
ENDBRANCH  11  12
ENDBRANCH   1  11
TORSDOF 1
ENDMDL
MODEL 8
REMARK VINA RESULT:    -4.099      2.301      4.912
REMARK INTER + INTRA:          -5.908
REMARK INTER:                  -5.636
REMARK INTRA:                  -0.272
REMARK UNBOUND:                 0.348
REMARK SMILES CC1=CCC[C@@H](C)C(=O)C[C@H](C(C)C)C(=O)C1
REMARK SMILES IDX 8 1 9 2 6 3 7 4 5 5 4 6 3 7 2 8 1 9 10 11 11 12 15 13 16 14
REMARK SMILES IDX 17 15 12 17 13 18 14 19
REMARK H PARENT
REMARK Flexibility Score: 70.00
ROOT
ATOM      1  C   UNL     1      34.787  42.551  83.255  1.00  0.00     0.136 C 
ATOM      2  O   UNL     1      34.494  41.777  82.355  1.00  0.00    -0.299 OA
ENDROOT
BRANCH   1   3
ATOM      3  C   UNL     1      36.118  43.276  83.219  1.00  0.00     0.053 C 
ATOM      4  C   UNL     1      37.182  42.497  84.006  1.00  0.00     0.016 C 
BRANCH   3   5
ATOM      5  C   UNL     1      35.959  44.710  83.775  1.00  0.00     0.015 C 
BRANCH   5   6
ATOM      6  C   UNL     1      36.534  44.849  85.198  1.00  0.00     0.028 C 
BRANCH   6   7
ATOM      7  C   UNL     1      35.580  45.583  86.105  1.00  0.00    -0.028 C 
ATOM      8  C   UNL     1      34.927  45.030  87.154  1.00  0.00    -0.070 CG0
ATOM      9  C   UNL     1      34.055  45.928  87.995  1.00  0.00     0.039 C 
ATOM     10  G   UNL     1      35.036  43.559  87.521  1.00  0.00     0.000 G0
ENDBRANCH   6   7
ENDBRANCH   5   6
ENDBRANCH   3   5
ENDBRANCH   1   3
BRANCH   1  11
ATOM     11  C   UNL     1      33.812  42.759  84.390  1.00  0.00     0.087 C 
BRANCH  11  12
ATOM     12  C   UNL     1      34.167  41.907  85.638  1.00  0.00     0.066 C 
BRANCH  12  13
ATOM     13  C   UNL     1      33.938  42.705  86.917  1.00  0.00     0.140 C 
ATOM     14  O   UNL     1      32.824  42.699  87.422  1.00  0.00    -0.299 OA
BRANCH  13  15
ATOM     15  C   UNL     1      35.025  43.553  87.539  1.00  0.00     0.106 CG0
ATOM     16  G   UNL     1      34.914  45.018  87.148  1.00  0.00     0.000 G0
ENDBRANCH  13  15
ENDBRANCH  12  13
BRANCH  12  17
ATOM     17  C   UNL     1      33.422  40.534  85.675  1.00  0.00    -0.006 C 
ATOM     18  C   UNL     1      32.118  40.547  84.857  1.00  0.00     0.008 C 
ATOM     19  C   UNL     1      34.324  39.403  85.146  1.00  0.00     0.008 C 
ENDBRANCH  12  17
ENDBRANCH  11  12
ENDBRANCH   1  11
TORSDOF 1
ENDMDL
MODEL 9
REMARK VINA RESULT:    -3.986      2.083      4.054
REMARK INTER + INTRA:          -5.735
REMARK INTER:                  -5.440
REMARK INTRA:                  -0.294
REMARK UNBOUND:                 0.348
REMARK SMILES CC1=CCC[C@@H](C)C(=O)C[C@H](C(C)C)C(=O)C1
REMARK SMILES IDX 8 1 9 2 6 3 7 4 5 5 4 6 3 7 2 8 1 9 10 11 11 12 15 13 16 14
REMARK SMILES IDX 17 15 12 17 13 18 14 19
REMARK H PARENT
REMARK Flexibility Score: 70.00
ROOT
ATOM      1  C   UNL     1      35.191  43.774  86.435  1.00  0.00     0.136 C 
ATOM      2  O   UNL     1      34.806  44.935  86.438  1.00  0.00    -0.299 OA
ENDROOT
BRANCH   1   3
ATOM      3  C   UNL     1      36.678  43.476  86.454  1.00  0.00     0.053 C 
ATOM      4  C   UNL     1      37.328  44.041  87.725  1.00  0.00     0.016 C 
BRANCH   3   5
ATOM      5  C   UNL     1      37.352  44.050  85.186  1.00  0.00     0.015 C 
BRANCH   5   6
ATOM      6  C   UNL     1      37.182  43.122  83.967  1.00  0.00     0.028 C 
BRANCH   6   7
ATOM      7  C   UNL     1      37.312  41.673  84.360  1.00  0.00    -0.028 C 
ATOM      8  C   UNL     1      36.390  40.716  84.106  1.00  0.00    -0.070 CG0
ATOM      9  C   UNL     1      36.710  39.301  84.516  1.00  0.00     0.039 C 
ATOM     10  G   UNL     1      35.059  41.000  83.429  1.00  0.00     0.000 G0
ENDBRANCH   6   7
ENDBRANCH   5   6
ENDBRANCH   3   5
ENDBRANCH   1   3
BRANCH   1  11
ATOM     11  C   UNL     1      34.169  42.662  86.407  1.00  0.00     0.087 C 
BRANCH  11  12
ATOM     12  C   UNL     1      33.526  42.487  85.006  1.00  0.00     0.066 C 
BRANCH  12  13
ATOM     13  C   UNL     1      33.905  41.138  84.404  1.00  0.00     0.140 C 
ATOM     14  O   UNL     1      33.299  40.140  84.769  1.00  0.00    -0.299 OA
BRANCH  13  15
ATOM     15  C   UNL     1      35.047  40.989  83.424  1.00  0.00     0.106 CG0
ATOM     16  G   UNL     1      36.376  40.734  84.117  1.00  0.00     0.000 G0
ENDBRANCH  13  15
ENDBRANCH  12  13
BRANCH  12  17
ATOM     17  C   UNL     1      31.977  42.700  85.011  1.00  0.00    -0.006 C 
ATOM     18  C   UNL     1      31.373  42.604  86.423  1.00  0.00     0.008 C 
ATOM     19  C   UNL     1      31.608  44.069  84.409  1.00  0.00     0.008 C 
ENDBRANCH  12  17
ENDBRANCH  11  12
ENDBRANCH   1  11
TORSDOF 1
ENDMDL
