MODEL 1
REMARK VINA RESULT:    -4.274      0.000      0.000
REMARK INTER + INTRA:          -5.152
REMARK INTER:                  -5.023
REMARK INTRA:                  -0.129
REMARK UNBOUND:                -0.129
REMARK SMILES CCCCC(=O)[O-]
REMARK SMILES IDX 4 1 5 2 6 3 7 4 3 5 2 6 1 7
REMARK H PARENT
REMARK Flexibility Score: inf
ROOT
ATOM      1  C   UNL     1      92.733 122.560 118.830  1.00  0.00     0.053 C 
ENDROOT
BRANCH   1   2
ATOM      2  C   UNL     1      94.144 122.078 118.944  1.00  0.00     0.041 C 
ATOM      3  O   UNL     1      95.100 122.897 118.892  1.00  0.00    -0.550 OA
ATOM      4  O   UNL     1      94.403 120.730 119.157  1.00  0.00    -0.550 OA
ENDBRANCH   1   2
BRANCH   1   5
ATOM      5  C   UNL     1      91.952 121.704 117.830  1.00  0.00     0.006 C 
BRANCH   5   6
ATOM      6  C   UNL     1      92.310 122.080 116.387  1.00  0.00    -0.003 C 
ATOM      7  C   UNL     1      92.818 120.869 115.611  1.00  0.00     0.004 C 
ENDBRANCH   5   6
ENDBRANCH   1   5
TORSDOF 3
ENDMDL
MODEL 2
REMARK VINA RESULT:    -4.155      1.466      1.720
REMARK INTER + INTRA:          -5.013
REMARK INTER:                  -4.997
REMARK INTRA:                  -0.016
REMARK UNBOUND:                -0.129
REMARK SMILES CCCCC(=O)[O-]
REMARK SMILES IDX 4 1 5 2 6 3 7 4 3 5 2 6 1 7
REMARK H PARENT
REMARK Flexibility Score: inf
ROOT
ATOM      1  C   UNL     1      92.704 122.565 118.939  1.00  0.00     0.053 C 
ENDROOT
BRANCH   1   2
ATOM      2  C   UNL     1      93.376 122.291 120.247  1.00  0.00     0.041 C 
ATOM      3  O   UNL     1      92.703 121.890 121.233  1.00  0.00    -0.550 OA
ATOM      4  O   UNL     1      94.753 122.432 120.364  1.00  0.00    -0.550 OA
ENDBRANCH   1   2
BRANCH   1   5
ATOM      5  C   UNL     1      93.168 121.564 117.878  1.00  0.00     0.006 C 
BRANCH   5   6
ATOM      6  C   UNL     1      92.452 121.805 116.544  1.00  0.00    -0.003 C 
ATOM      7  C   UNL     1      92.910 120.809 115.484  1.00  0.00     0.004 C 
ENDBRANCH   5   6
ENDBRANCH   1   5
TORSDOF 3
ENDMDL
MODEL 3
REMARK VINA RESULT:    -3.957      2.137      3.705
REMARK INTER + INTRA:          -4.780
REMARK INTER:                  -4.689
REMARK INTRA:                  -0.091
REMARK UNBOUND:                -0.129
REMARK SMILES CCCCC(=O)[O-]
REMARK SMILES IDX 4 1 5 2 6 3 7 4 3 5 2 6 1 7
REMARK H PARENT
REMARK Flexibility Score: inf
ROOT
ATOM      1  C   UNL     1      93.075 122.971 118.456  1.00  0.00     0.053 C 
ENDROOT
BRANCH   1   2
ATOM      2  C   UNL     1      92.454 122.134 117.384  1.00  0.00     0.041 C 
ATOM      3  O   UNL     1      92.321 120.892 117.548  1.00  0.00    -0.550 OA
ATOM      4  O   UNL     1      91.978 122.731 116.224  1.00  0.00    -0.550 OA
ENDBRANCH   1   2
BRANCH   1   5
ATOM      5  C   UNL     1      94.441 122.406 118.855  1.00  0.00     0.006 C 
BRANCH   5   6
ATOM      6  C   UNL     1      94.422 121.887 120.297  1.00  0.00    -0.003 C 
ATOM      7  C   UNL     1      93.104 122.225 120.987  1.00  0.00     0.004 C 
ENDBRANCH   5   6
ENDBRANCH   1   5
TORSDOF 3
ENDMDL
MODEL 4
REMARK VINA RESULT:    -3.926      6.373      7.991
REMARK INTER + INTRA:          -4.743
REMARK INTER:                  -4.716
REMARK INTRA:                  -0.027
REMARK UNBOUND:                -0.129
REMARK SMILES CCCCC(=O)[O-]
REMARK SMILES IDX 4 1 5 2 6 3 7 4 3 5 2 6 1 7
REMARK H PARENT
REMARK Flexibility Score: inf
ROOT
ATOM      1  C   UNL     1      94.826 123.880 124.499  1.00  0.00     0.053 C 
ENDROOT
BRANCH   1   2
ATOM      2  C   UNL     1      93.533 123.288 124.037  1.00  0.00     0.041 C 
ATOM      3  O   UNL     1      92.644 122.976 124.874  1.00  0.00    -0.550 OA
ATOM      4  O   UNL     1      93.288 123.126 122.680  1.00  0.00    -0.550 OA
ENDBRANCH   1   2
BRANCH   1   5
ATOM      5  C   UNL     1      95.501 122.962 125.521  1.00  0.00     0.006 C 
BRANCH   5   6
ATOM      6  C   UNL     1      96.974 123.343 125.714  1.00  0.00    -0.003 C 
ATOM      7  C   UNL     1      97.162 124.856 125.675  1.00  0.00     0.004 C 
ENDBRANCH   5   6
ENDBRANCH   1   5
TORSDOF 3
ENDMDL
MODEL 5
REMARK VINA RESULT:    -3.790      7.128      7.952
REMARK INTER + INTRA:          -4.584
REMARK INTER:                  -4.547
REMARK INTRA:                  -0.036
REMARK UNBOUND:                -0.129
REMARK SMILES CCCCC(=O)[O-]
REMARK SMILES IDX 4 1 5 2 6 3 7 4 3 5 2 6 1 7
REMARK H PARENT
REMARK Flexibility Score: inf
ROOT
ATOM      1  C   UNL     1      95.704 123.998 124.809  1.00  0.00     0.053 C 
ENDROOT
BRANCH   1   2
ATOM      2  C   UNL     1      96.969 124.180 125.586  1.00  0.00     0.041 C 
ATOM      3  O   UNL     1      97.412 125.338 125.813  1.00  0.00    -0.550 OA
ATOM      4  O   UNL     1      97.633 123.075 126.103  1.00  0.00    -0.550 OA
ENDBRANCH   1   2
BRANCH   1   5
ATOM      5  C   UNL     1      94.838 122.906 125.444  1.00  0.00     0.006 C 
BRANCH   5   6
ATOM      6  C   UNL     1      93.481 122.801 124.737  1.00  0.00    -0.003 C 
ATOM      7  C   UNL     1      93.260 123.974 123.788  1.00  0.00     0.004 C 
ENDBRANCH   5   6
ENDBRANCH   1   5
TORSDOF 3
ENDMDL
MODEL 6
REMARK VINA RESULT:    -3.776      6.369      7.546
REMARK INTER + INTRA:          -4.568
REMARK INTER:                  -4.549
REMARK INTRA:                  -0.019
REMARK UNBOUND:                -0.129
REMARK SMILES CCCCC(=O)[O-]
REMARK SMILES IDX 4 1 5 2 6 3 7 4 3 5 2 6 1 7
REMARK H PARENT
REMARK Flexibility Score: inf
ROOT
ATOM      1  C   UNL     1      95.462 123.078 125.561  1.00  0.00     0.053 C 
ENDROOT
BRANCH   1   2
ATOM      2  C   UNL     1      96.789 123.767 125.580  1.00  0.00     0.041 C 
ATOM      3  O   UNL     1      97.793 123.195 126.082  1.00  0.00    -0.550 OA
ATOM      4  O   UNL     1      96.929 125.021 125.000  1.00  0.00    -0.550 OA
ENDBRANCH   1   2
BRANCH   1   5
ATOM      5  C   UNL     1      94.574 123.652 124.454  1.00  0.00     0.006 C 
BRANCH   5   6
ATOM      6  C   UNL     1      93.284 122.838 124.305  1.00  0.00    -0.003 C 
ATOM      7  C   UNL     1      93.036 122.458 122.849  1.00  0.00     0.004 C 
ENDBRANCH   5   6
ENDBRANCH   1   5
TORSDOF 3
ENDMDL
MODEL 7
REMARK VINA RESULT:    -3.764      1.738      3.567
REMARK INTER + INTRA:          -4.553
REMARK INTER:                  -4.418
REMARK INTRA:                  -0.135
REMARK UNBOUND:                -0.129
REMARK SMILES CCCCC(=O)[O-]
REMARK SMILES IDX 4 1 5 2 6 3 7 4 3 5 2 6 1 7
REMARK H PARENT
REMARK Flexibility Score: inf
ROOT
ATOM      1  C   UNL     1      92.873 121.885 118.725  1.00  0.00     0.053 C 
ENDROOT
BRANCH   1   2
ATOM      2  C   UNL     1      94.366 121.789 118.698  1.00  0.00     0.041 C 
ATOM      3  O   UNL     1      94.926 120.684 118.471  1.00  0.00    -0.550 OA
ATOM      4  O   UNL     1      95.139 122.929 118.876  1.00  0.00    -0.550 OA
ENDBRANCH   1   2
BRANCH   1   5
ATOM      5  C   UNL     1      92.407 122.633 119.977  1.00  0.00     0.006 C 
BRANCH   5   6
ATOM      6  C   UNL     1      92.768 121.857 121.249  1.00  0.00    -0.003 C 
ATOM      7  C   UNL     1      93.465 122.757 122.265  1.00  0.00     0.004 C 
ENDBRANCH   5   6
ENDBRANCH   1   5
TORSDOF 3
ENDMDL
MODEL 8
REMARK VINA RESULT:    -3.694      4.033      4.803
REMARK INTER + INTRA:          -4.470
REMARK INTER:                  -4.454
REMARK INTRA:                  -0.017
REMARK UNBOUND:                -0.129
REMARK SMILES CCCCC(=O)[O-]
REMARK SMILES IDX 4 1 5 2 6 3 7 4 3 5 2 6 1 7
REMARK H PARENT
REMARK Flexibility Score: inf
ROOT
ATOM      1  C   UNL     1      92.846 122.213 122.593  1.00  0.00     0.053 C 
ENDROOT
BRANCH   1   2
ATOM      2  C   UNL     1      93.140 123.107 123.756  1.00  0.00     0.041 C 
ATOM      3  O   UNL     1      93.593 122.624 124.828  1.00  0.00    -0.550 OA
ATOM      4  O   UNL     1      92.960 124.479 123.640  1.00  0.00    -0.550 OA
ENDBRANCH   1   2
BRANCH   1   5
ATOM      5  C   UNL     1      93.771 122.541 121.418  1.00  0.00     0.006 C 
BRANCH   5   6
ATOM      6  C   UNL     1      93.373 121.748 120.167  1.00  0.00    -0.003 C 
ATOM      7  C   UNL     1      92.636 122.631 119.165  1.00  0.00     0.004 C 
ENDBRANCH   5   6
ENDBRANCH   1   5
TORSDOF 3
ENDMDL
MODEL 9
REMARK VINA RESULT:    -1.973     15.415     16.284
REMARK INTER + INTRA:          -2.448
REMARK INTER:                  -2.697
REMARK INTRA:                   0.249
REMARK UNBOUND:                -0.129
REMARK SMILES CCCCC(=O)[O-]
REMARK SMILES IDX 4 1 5 2 6 3 7 4 3 5 2 6 1 7
REMARK H PARENT
REMARK Flexibility Score: inf
ROOT
ATOM      1  C   UNL     1      98.230 137.703 121.133  1.00  0.00     0.053 C 
ENDROOT
BRANCH   1   2
ATOM      2  C   UNL     1      97.968 136.314 120.644  1.00  0.00     0.041 C 
ATOM      3  O   UNL     1      98.789 135.748 119.874  1.00  0.00    -0.550 OA
ATOM      4  O   UNL     1      96.842 135.626 121.077  1.00  0.00    -0.550 OA
ENDBRANCH   1   2
BRANCH   1   5
ATOM      5  C   UNL     1      97.254 138.692 120.489  1.00  0.00     0.006 C 
BRANCH   5   6
ATOM      6  C   UNL     1      96.612 138.091 119.233  1.00  0.00    -0.003 C 
ATOM      7  C   UNL     1      96.514 139.125 118.116  1.00  0.00     0.004 C 
ENDBRANCH   5   6
ENDBRANCH   1   5
TORSDOF 3
ENDMDL
