MODEL 1
REMARK VINA RESULT:    -5.141      0.000      0.000
REMARK INTER + INTRA:          -5.621
REMARK INTER:                  -5.592
REMARK INTRA:                  -0.028
REMARK UNBOUND:                -0.028
REMARK SMILES O=C([O-])c1ccc(O)cc1
REMARK SMILES IDX 4 1 5 2 10 3 6 4 9 5 7 6 2 7 1 8 3 9 8 10
REMARK H PARENT 8 11
REMARK Flexibility Score: inf
ROOT
ATOM      1  C   UNL     1     -10.740  -5.298  15.741  1.00  0.00    -0.003 A 
ATOM      2  C   UNL     1      -9.468  -4.843  16.138  1.00  0.00     0.014 A 
ATOM      3  C   UNL     1     -11.869  -4.518  16.051  1.00  0.00     0.014 A 
ATOM      4  C   UNL     1      -9.332  -3.635  16.828  1.00  0.00     0.047 A 
ATOM      5  C   UNL     1     -11.728  -3.310  16.741  1.00  0.00     0.047 A 
ATOM      6  C   UNL     1     -10.461  -2.866  17.132  1.00  0.00     0.115 A 
ENDROOT
BRANCH   1   7
ATOM      7  C   UNL     1     -10.892  -6.575  15.011  1.00  0.00     0.071 C 
ATOM      8  O   UNL     1     -11.520  -7.537  15.527  1.00  0.00    -0.545 OA
ATOM      9  O   UNL     1     -10.343  -6.731  13.743  1.00  0.00    -0.545 OA
ENDBRANCH   1   7
BRANCH   6  10
ATOM     10  O   UNL     1     -10.337  -1.661  17.820  1.00  0.00    -0.508 OA
ATOM     11  H   UNL     1     -10.707  -0.796  17.443  1.00  0.00     0.293 HD
ENDBRANCH   6  10
TORSDOF 2
ENDMDL
MODEL 2
REMARK VINA RESULT:    -5.120      3.413      5.382
REMARK INTER + INTRA:          -5.597
REMARK INTER:                  -5.569
REMARK INTRA:                  -0.028
REMARK UNBOUND:                -0.028
REMARK SMILES O=C([O-])c1ccc(O)cc1
REMARK SMILES IDX 4 1 5 2 10 3 6 4 9 5 7 6 2 7 1 8 3 9 8 10
REMARK H PARENT 8 11
REMARK Flexibility Score: inf
ROOT
ATOM      1  C   UNL     1     -10.807  -6.373  12.960  1.00  0.00    -0.003 A 
ATOM      2  C   UNL     1     -11.988  -5.967  12.312  1.00  0.00     0.014 A 
ATOM      3  C   UNL     1      -9.585  -6.282  12.270  1.00  0.00     0.014 A 
ATOM      4  C   UNL     1     -11.944  -5.481  11.001  1.00  0.00     0.047 A 
ATOM      5  C   UNL     1      -9.545  -5.796  10.960  1.00  0.00     0.047 A 
ATOM      6  C   UNL     1     -10.723  -5.395  10.322  1.00  0.00     0.115 A 
ENDROOT
BRANCH   1   7
ATOM      7  C   UNL     1     -10.845  -6.888  14.346  1.00  0.00     0.071 C 
ATOM      8  O   UNL     1     -10.650  -8.110  14.581  1.00  0.00    -0.545 OA
ATOM      9  O   UNL     1     -11.098  -6.030  15.411  1.00  0.00    -0.545 OA
ENDBRANCH   1   7
BRANCH   6  10
ATOM     10  O   UNL     1     -10.668  -4.912   9.017  1.00  0.00    -0.508 OA
ATOM     11  H   UNL     1      -9.966  -4.240   8.730  1.00  0.00     0.293 HD
ENDBRANCH   6  10
TORSDOF 2
ENDMDL
MODEL 3
REMARK VINA RESULT:    -5.065      0.143      1.537
REMARK INTER + INTRA:          -5.537
REMARK INTER:                  -5.509
REMARK INTRA:                  -0.028
REMARK UNBOUND:                -0.028
REMARK SMILES O=C([O-])c1ccc(O)cc1
REMARK SMILES IDX 4 1 5 2 10 3 6 4 9 5 7 6 2 7 1 8 3 9 8 10
REMARK H PARENT 8 11
REMARK Flexibility Score: inf
ROOT
ATOM      1  C   UNL     1     -10.705  -5.270  15.621  1.00  0.00    -0.003 A 
ATOM      2  C   UNL     1     -11.857  -4.553  15.994  1.00  0.00     0.014 A 
ATOM      3  C   UNL     1      -9.442  -4.762  15.975  1.00  0.00     0.014 A 
ATOM      4  C   UNL     1     -11.745  -3.354  16.705  1.00  0.00     0.047 A 
ATOM      5  C   UNL     1      -9.334  -3.563  16.686  1.00  0.00     0.047 A 
ATOM      6  C   UNL     1     -10.484  -2.856  17.052  1.00  0.00     0.115 A 
ENDROOT
BRANCH   1   7
ATOM      7  C   UNL     1     -10.815  -6.539  14.869  1.00  0.00     0.071 C 
ATOM      8  O   UNL     1     -11.358  -7.548  15.392  1.00  0.00    -0.545 OA
ATOM      9  O   UNL     1     -10.320  -6.636  13.573  1.00  0.00    -0.545 OA
ENDBRANCH   1   7
BRANCH   6  10
ATOM     10  O   UNL     1     -10.361  -1.663  17.760  1.00  0.00    -0.508 OA
ATOM     11  H   UNL     1      -9.457  -1.316  18.061  1.00  0.00     0.293 HD
ENDBRANCH   6  10
TORSDOF 2
ENDMDL
MODEL 4
REMARK VINA RESULT:    -5.021      2.398      4.436
REMARK INTER + INTRA:          -5.490
REMARK INTER:                  -5.459
REMARK INTRA:                  -0.031
REMARK UNBOUND:                -0.028
REMARK SMILES O=C([O-])c1ccc(O)cc1
REMARK SMILES IDX 4 1 5 2 10 3 6 4 9 5 7 6 2 7 1 8 3 9 8 10
REMARK H PARENT 8 11
REMARK Flexibility Score: inf
ROOT
ATOM      1  C   UNL     1     -10.661  -5.226  14.207  1.00  0.00    -0.003 A 
ATOM      2  C   UNL     1     -10.297  -6.314  13.393  1.00  0.00     0.014 A 
ATOM      3  C   UNL     1     -11.245  -5.480  15.462  1.00  0.00     0.014 A 
ATOM      4  C   UNL     1     -10.512  -7.626  13.825  1.00  0.00     0.047 A 
ATOM      5  C   UNL     1     -11.458  -6.794  15.891  1.00  0.00     0.047 A 
ATOM      6  C   UNL     1     -11.093  -7.869  15.075  1.00  0.00     0.115 A 
ENDROOT
BRANCH   1   7
ATOM      7  C   UNL     1     -10.437  -3.836  13.756  1.00  0.00     0.071 C 
ATOM      8  O   UNL     1     -10.703  -3.495  12.573  1.00  0.00    -0.545 OA
ATOM      9  O   UNL     1      -9.928  -2.884  14.632  1.00  0.00    -0.545 OA
ENDBRANCH   1   7
BRANCH   6  10
ATOM     10  O   UNL     1     -11.312  -9.172  15.516  1.00  0.00    -0.508 OA
ATOM     11  H   UNL     1     -11.991  -9.379  16.240  1.00  0.00     0.293 HD
ENDBRANCH   6  10
TORSDOF 2
ENDMDL
MODEL 5
REMARK VINA RESULT:    -5.006      3.723      5.059
REMARK INTER + INTRA:          -5.473
REMARK INTER:                  -5.443
REMARK INTRA:                  -0.030
REMARK UNBOUND:                -0.028
REMARK SMILES O=C([O-])c1ccc(O)cc1
REMARK SMILES IDX 4 1 5 2 10 3 6 4 9 5 7 6 2 7 1 8 3 9 8 10
REMARK H PARENT 8 11
REMARK Flexibility Score: inf
ROOT
ATOM      1  C   UNL     1     -11.881  -5.768  11.586  1.00  0.00    -0.003 A 
ATOM      2  C   UNL     1     -10.476  -5.717  11.647  1.00  0.00     0.014 A 
ATOM      3  C   UNL     1     -12.591  -6.313  12.671  1.00  0.00     0.014 A 
ATOM      4  C   UNL     1      -9.799  -6.200  12.771  1.00  0.00     0.047 A 
ATOM      5  C   UNL     1     -11.910  -6.795  13.793  1.00  0.00     0.047 A 
ATOM      6  C   UNL     1     -10.514  -6.741  13.846  1.00  0.00     0.115 A 
ENDROOT
BRANCH   1   7
ATOM      7  C   UNL     1     -12.604  -5.259  10.400  1.00  0.00     0.071 C 
ATOM      8  O   UNL     1     -13.536  -4.421  10.530  1.00  0.00    -0.545 OA
ATOM      9  O   UNL     1     -12.265  -5.697   9.125  1.00  0.00    -0.545 OA
ENDBRANCH   1   7
BRANCH   6  10
ATOM     10  O   UNL     1      -9.849  -7.225  14.970  1.00  0.00    -0.508 OA
ATOM     11  H   UNL     1      -9.503  -8.177  15.011  1.00  0.00     0.293 HD
ENDBRANCH   6  10
TORSDOF 2
ENDMDL
MODEL 6
REMARK VINA RESULT:    -4.969      2.036      4.099
REMARK INTER + INTRA:          -5.433
REMARK INTER:                  -5.398
REMARK INTRA:                  -0.035
REMARK UNBOUND:                -0.028
REMARK SMILES O=C([O-])c1ccc(O)cc1
REMARK SMILES IDX 4 1 5 2 10 3 6 4 9 5 7 6 2 7 1 8 3 9 8 10
REMARK H PARENT 8 11
REMARK Flexibility Score: inf
ROOT
ATOM      1  C   UNL     1     -10.027  -3.385  16.726  1.00  0.00    -0.003 A 
ATOM      2  C   UNL     1     -11.350  -3.079  17.093  1.00  0.00     0.014 A 
ATOM      3  C   UNL     1      -9.795  -4.068  15.518  1.00  0.00     0.014 A 
ATOM      4  C   UNL     1     -12.417  -3.449  16.268  1.00  0.00     0.047 A 
ATOM      5  C   UNL     1     -10.865  -4.436  14.696  1.00  0.00     0.047 A 
ATOM      6  C   UNL     1     -12.177  -4.128  15.068  1.00  0.00     0.115 A 
ENDROOT
BRANCH   1   7
ATOM      7  C   UNL     1      -8.893  -2.997  17.593  1.00  0.00     0.071 C 
ATOM      8  O   UNL     1      -9.077  -2.746  18.814  1.00  0.00    -0.545 OA
ATOM      9  O   UNL     1      -7.607  -2.904  17.073  1.00  0.00    -0.545 OA
ENDBRANCH   1   7
BRANCH   6  10
ATOM     10  O   UNL     1     -13.232  -4.502  14.239  1.00  0.00    -0.508 OA
ATOM     11  H   UNL     1     -13.119  -5.212  13.525  1.00  0.00     0.293 HD
ENDBRANCH   6  10
TORSDOF 2
ENDMDL
MODEL 7
REMARK VINA RESULT:    -4.949      3.218      5.096
REMARK INTER + INTRA:          -5.411
REMARK INTER:                  -5.379
REMARK INTRA:                  -0.032
REMARK UNBOUND:                -0.028
REMARK SMILES O=C([O-])c1ccc(O)cc1
REMARK SMILES IDX 4 1 5 2 10 3 6 4 9 5 7 6 2 7 1 8 3 9 8 10
REMARK H PARENT 8 11
REMARK Flexibility Score: inf
ROOT
ATOM      1  C   UNL     1     -10.675  -6.202  13.199  1.00  0.00    -0.003 A 
ATOM      2  C   UNL     1      -9.463  -6.191  12.483  1.00  0.00     0.014 A 
ATOM      3  C   UNL     1     -11.866  -5.875  12.528  1.00  0.00     0.014 A 
ATOM      4  C   UNL     1      -9.447  -5.859  11.125  1.00  0.00     0.047 A 
ATOM      5  C   UNL     1     -11.846  -5.544  11.169  1.00  0.00     0.047 A 
ATOM      6  C   UNL     1     -10.639  -5.535  10.465  1.00  0.00     0.115 A 
ENDROOT
BRANCH   1   7
ATOM      7  C   UNL     1     -10.699  -6.552  14.636  1.00  0.00     0.071 C 
ATOM      8  O   UNL     1      -9.763  -6.194  15.399  1.00  0.00    -0.545 OA
ATOM      9  O   UNL     1     -11.757  -7.283  15.166  1.00  0.00    -0.545 OA
ENDBRANCH   1   7
BRANCH   6  10
ATOM     10  O   UNL     1     -10.634  -5.203   9.112  1.00  0.00    -0.508 OA
ATOM     11  H   UNL     1     -11.224  -5.688   8.446  1.00  0.00     0.293 HD
ENDBRANCH   6  10
TORSDOF 2
ENDMDL
MODEL 8
REMARK VINA RESULT:    -4.890      1.420      4.254
REMARK INTER + INTRA:          -5.347
REMARK INTER:                  -5.318
REMARK INTRA:                  -0.030
REMARK UNBOUND:                -0.028
REMARK SMILES O=C([O-])c1ccc(O)cc1
REMARK SMILES IDX 4 1 5 2 10 3 6 4 9 5 7 6 2 7 1 8 3 9 8 10
REMARK H PARENT 8 11
REMARK Flexibility Score: inf
ROOT
ATOM      1  C   UNL     1      -9.631  -4.131  16.565  1.00  0.00    -0.003 A 
ATOM      2  C   UNL     1     -10.970  -3.774  16.324  1.00  0.00     0.014 A 
ATOM      3  C   UNL     1      -9.186  -5.409  16.182  1.00  0.00     0.014 A 
ATOM      4  C   UNL     1     -11.845  -4.678  15.713  1.00  0.00     0.047 A 
ATOM      5  C   UNL     1     -10.064  -6.310  15.570  1.00  0.00     0.047 A 
ATOM      6  C   UNL     1     -11.393  -5.948  15.335  1.00  0.00     0.115 A 
ENDROOT
BRANCH   1   7
ATOM      7  C   UNL     1      -8.700  -3.180  17.211  1.00  0.00     0.071 C 
ATOM      8  O   UNL     1      -9.001  -2.632  18.305  1.00  0.00    -0.545 OA
ATOM      9  O   UNL     1      -7.479  -2.876  16.620  1.00  0.00    -0.545 OA
ENDBRANCH   1   7
BRANCH   6  10
ATOM     10  O   UNL     1     -12.256  -6.857  14.726  1.00  0.00    -0.508 OA
ATOM     11  H   UNL     1     -12.467  -6.804  13.736  1.00  0.00     0.293 HD
ENDBRANCH   6  10
TORSDOF 2
ENDMDL
MODEL 9
REMARK VINA RESULT:    -4.847      1.878      2.630
REMARK INTER + INTRA:          -5.300
REMARK INTER:                  -5.269
REMARK INTRA:                  -0.031
REMARK UNBOUND:                -0.028
REMARK SMILES O=C([O-])c1ccc(O)cc1
REMARK SMILES IDX 4 1 5 2 10 3 6 4 9 5 7 6 2 7 1 8 3 9 8 10
REMARK H PARENT 8 11
REMARK Flexibility Score: inf
ROOT
ATOM      1  C   UNL     1     -10.960  -3.760  15.914  1.00  0.00    -0.003 A 
ATOM      2  C   UNL     1     -11.375  -2.966  16.998  1.00  0.00     0.014 A 
ATOM      3  C   UNL     1      -9.612  -4.153  15.834  1.00  0.00     0.014 A 
ATOM      4  C   UNL     1     -10.460  -2.574  17.980  1.00  0.00     0.047 A 
ATOM      5  C   UNL     1      -8.700  -3.760  16.819  1.00  0.00     0.047 A 
ATOM      6  C   UNL     1      -9.120  -2.970  17.893  1.00  0.00     0.115 A 
ENDROOT
BRANCH   1   7
ATOM      7  C   UNL     1     -11.922  -4.178  14.871  1.00  0.00     0.071 C 
ATOM      8  O   UNL     1     -12.758  -3.358  14.405  1.00  0.00    -0.545 OA
ATOM      9  O   UNL     1     -11.919  -5.483  14.391  1.00  0.00    -0.545 OA
ENDBRANCH   1   7
BRANCH   6  10
ATOM     10  O   UNL     1      -8.200  -2.586  18.865  1.00  0.00    -0.508 OA
ATOM     11  H   UNL     1      -8.166  -1.635  19.215  1.00  0.00     0.293 HD
ENDBRANCH   6  10
TORSDOF 2
ENDMDL
