MODEL 1
REMARK VINA RESULT:    -5.114      0.000      0.000
REMARK INTER + INTRA:          -7.633
REMARK INTER:                  -6.908
REMARK INTRA:                  -0.724
REMARK UNBOUND:                -0.724
REMARK SMILES CC(=O)CCC=C(C)CCC=C(C)C
REMARK SMILES IDX 7 1 6 2 8 3 9 4 10 5 11 6 13 7 12 8 14 9 5 10 4 11 2 12 3 13
REMARK SMILES IDX 1 14
REMARK H PARENT
REMARK Flexibility Score: inf
ROOT
ATOM      1  C   UNL     1      -1.375   2.354  16.351  1.00  0.00    -0.077 C 
ATOM      2  C   UNL     1      -0.573   2.007  17.384  1.00  0.00    -0.028 C 
ATOM      3  C   UNL     1      -1.711   1.388  15.240  1.00  0.00     0.039 C 
ENDROOT
BRANCH   1   4
ATOM      4  C   UNL     1      -2.015   3.726  16.339  1.00  0.00     0.034 C 
BRANCH   4   5
ATOM      5  C   UNL     1      -3.201   3.793  15.366  1.00  0.00     0.032 C 
BRANCH   5   6
ATOM      6  C   UNL     1      -4.526   3.655  16.080  1.00  0.00    -0.028 C 
ATOM      7  C   UNL     1      -6.849   2.933  16.423  1.00  0.00     0.039 C 
ATOM      8  C   UNL     1      -5.572   2.933  15.622  1.00  0.00    -0.080 C 
ATOM      9  C   UNL     1      -5.492   2.122  14.350  1.00  0.00     0.039 C 
ENDBRANCH   5   6
ENDBRANCH   4   5
ENDBRANCH   1   4
BRANCH   2  10
ATOM     10  C   UNL     1       0.128   0.678  17.509  1.00  0.00     0.035 C 
BRANCH  10  11
ATOM     11  C   UNL     1      -0.520  -0.177  18.602  1.00  0.00     0.079 C 
BRANCH  11  12
ATOM     12  C   UNL     1      -0.102   0.298  19.968  1.00  0.00     0.130 C 
ATOM     13  O   UNL     1      -0.955   0.622  20.780  1.00  0.00    -0.300 OA
ATOM     14  C   UNL     1       1.346   0.393  20.353  1.00  0.00     0.087 C 
ENDBRANCH  11  12
ENDBRANCH  10  11
ENDBRANCH   2  10
TORSDOF 6
ENDMDL
MODEL 2
REMARK VINA RESULT:    -4.900      6.237      8.105
REMARK INTER + INTRA:          -7.343
REMARK INTER:                  -6.728
REMARK INTRA:                  -0.615
REMARK UNBOUND:                -0.724
REMARK SMILES CC(=O)CCC=C(C)CCC=C(C)C
REMARK SMILES IDX 7 1 6 2 8 3 9 4 10 5 11 6 13 7 12 8 14 9 5 10 4 11 2 12 3 13
REMARK SMILES IDX 1 14
REMARK H PARENT
REMARK Flexibility Score: inf
ROOT
ATOM      1  C   UNL     1      -3.391  -0.032   9.683  1.00  0.00    -0.077 C 
ATOM      2  C   UNL     1      -3.993  -1.229   9.488  1.00  0.00    -0.028 C 
ATOM      3  C   UNL     1      -2.182   0.394   8.885  1.00  0.00     0.039 C 
ENDROOT
BRANCH   1   4
ATOM      4  C   UNL     1      -3.984   0.942  10.679  1.00  0.00     0.034 C 
BRANCH   4   5
ATOM      5  C   UNL     1      -4.294   0.265  12.022  1.00  0.00     0.032 C 
BRANCH   5   6
ATOM      6  C   UNL     1      -5.096   1.163  12.935  1.00  0.00    -0.028 C 
ATOM      7  C   UNL     1      -5.567   2.540  14.914  1.00  0.00     0.039 C 
ATOM      8  C   UNL     1      -4.630   1.704  14.082  1.00  0.00    -0.080 C 
ATOM      9  C   UNL     1      -3.203   1.509  14.539  1.00  0.00     0.039 C 
ENDBRANCH   5   6
ENDBRANCH   4   5
ENDBRANCH   1   4
BRANCH   2  10
ATOM     10  C   UNL     1      -3.498  -2.286   8.534  1.00  0.00     0.035 C 
BRANCH  10  11
ATOM     11  C   UNL     1      -2.983  -3.510   9.298  1.00  0.00     0.079 C 
BRANCH  11  12
ATOM     12  C   UNL     1      -4.098  -4.160  10.073  1.00  0.00     0.130 C 
ATOM     13  O   UNL     1      -5.054  -4.630   9.474  1.00  0.00    -0.300 OA
ATOM     14  C   UNL     1      -4.067  -4.236  11.572  1.00  0.00     0.087 C 
ENDBRANCH  11  12
ENDBRANCH  10  11
ENDBRANCH   2  10
TORSDOF 6
ENDMDL
MODEL 3
REMARK VINA RESULT:    -4.854      2.703      6.685
REMARK INTER + INTRA:          -7.281
REMARK INTER:                  -6.795
REMARK INTRA:                  -0.486
REMARK UNBOUND:                -0.724
REMARK SMILES CC(=O)CCC=C(C)CCC=C(C)C
REMARK SMILES IDX 7 1 6 2 8 3 9 4 10 5 11 6 13 7 12 8 14 9 5 10 4 11 2 12 3 13
REMARK SMILES IDX 1 14
REMARK H PARENT
REMARK Flexibility Score: inf
ROOT
ATOM      1  C   UNL     1      -3.153   2.507  15.357  1.00  0.00    -0.077 C 
ATOM      2  C   UNL     1      -4.265   3.180  15.734  1.00  0.00    -0.028 C 
ATOM      3  C   UNL     1      -3.190   1.434  14.296  1.00  0.00     0.039 C 
ENDROOT
BRANCH   1   4
ATOM      4  C   UNL     1      -1.817   2.884  15.961  1.00  0.00     0.034 C 
BRANCH   4   5
ATOM      5  C   UNL     1      -0.817   1.721  15.904  1.00  0.00     0.032 C 
BRANCH   5   6
ATOM      6  C   UNL     1      -0.923   0.825  17.116  1.00  0.00    -0.028 C 
ATOM      7  C   UNL     1      -0.271  -0.154  19.273  1.00  0.00     0.039 C 
ATOM      8  C   UNL     1      -0.063   0.838  18.158  1.00  0.00    -0.080 C 
ATOM      9  C   UNL     1       1.080   1.822  18.241  1.00  0.00     0.039 C 
ENDBRANCH   5   6
ENDBRANCH   4   5
ENDBRANCH   1   4
BRANCH   2  10
ATOM     10  C   UNL     1      -5.651   2.895  15.214  1.00  0.00     0.035 C 
BRANCH  10  11
ATOM     11  C   UNL     1      -6.685   2.994  16.340  1.00  0.00     0.079 C 
BRANCH  11  12
ATOM     12  C   UNL     1      -7.674   4.094  16.058  1.00  0.00     0.130 C 
ATOM     13  O   UNL     1      -7.793   5.014  16.853  1.00  0.00    -0.300 OA
ATOM     14  C   UNL     1      -8.526   4.082  14.823  1.00  0.00     0.087 C 
ENDBRANCH  11  12
ENDBRANCH  10  11
ENDBRANCH   2  10
TORSDOF 6
ENDMDL
MODEL 4
REMARK VINA RESULT:    -4.829      4.405      6.868
REMARK INTER + INTRA:          -7.247
REMARK INTER:                  -6.381
REMARK INTRA:                  -0.866
REMARK UNBOUND:                -0.724
REMARK SMILES CC(=O)CCC=C(C)CCC=C(C)C
REMARK SMILES IDX 7 1 6 2 8 3 9 4 10 5 11 6 13 7 12 8 14 9 5 10 4 11 2 12 3 13
REMARK SMILES IDX 1 14
REMARK H PARENT
REMARK Flexibility Score: inf
ROOT
ATOM      1  C   UNL     1      -4.585   1.486  13.813  1.00  0.00    -0.077 C 
ATOM      2  C   UNL     1      -5.603   2.248  14.277  1.00  0.00    -0.028 C 
ATOM      3  C   UNL     1      -3.257   1.406  14.525  1.00  0.00     0.039 C 
ENDROOT
BRANCH   1   4
ATOM      4  C   UNL     1      -4.802   0.630  12.582  1.00  0.00     0.034 C 
BRANCH   4   5
ATOM      5  C   UNL     1      -3.701   0.849  11.535  1.00  0.00     0.032 C 
BRANCH   5   6
ATOM      6  C   UNL     1      -4.042   1.971  10.583  1.00  0.00    -0.028 C 
ATOM      7  C   UNL     1      -3.961   4.232   9.626  1.00  0.00     0.039 C 
ATOM      8  C   UNL     1      -3.480   3.200  10.612  1.00  0.00    -0.080 C 
ATOM      9  C   UNL     1      -2.381   3.556  11.586  1.00  0.00     0.039 C 
ENDBRANCH   5   6
ENDBRANCH   4   5
ENDBRANCH   1   4
BRANCH   2  10
ATOM     10  C   UNL     1      -5.512   3.147  15.484  1.00  0.00     0.035 C 
BRANCH  10  11
ATOM     11  C   UNL     1      -6.763   3.013  16.357  1.00  0.00     0.079 C 
BRANCH  11  12
ATOM     12  C   UNL     1      -7.751   4.104  16.041  1.00  0.00     0.130 C 
ATOM     13  O   UNL     1      -7.796   5.099  16.749  1.00  0.00    -0.300 OA
ATOM     14  C   UNL     1      -8.692   3.994  14.877  1.00  0.00     0.087 C 
ENDBRANCH  11  12
ENDBRANCH  10  11
ENDBRANCH   2  10
TORSDOF 6
ENDMDL
MODEL 5
REMARK VINA RESULT:    -4.823      7.355      9.483
REMARK INTER + INTRA:          -7.238
REMARK INTER:                  -6.443
REMARK INTRA:                  -0.795
REMARK UNBOUND:                -0.724
REMARK SMILES CC(=O)CCC=C(C)CCC=C(C)C
REMARK SMILES IDX 7 1 6 2 8 3 9 4 10 5 11 6 13 7 12 8 14 9 5 10 4 11 2 12 3 13
REMARK SMILES IDX 1 14
REMARK H PARENT
REMARK Flexibility Score: inf
ROOT
ATOM      1  C   UNL     1      -3.402   0.048   9.206  1.00  0.00    -0.077 C 
ATOM      2  C   UNL     1      -4.012   0.855  10.105  1.00  0.00    -0.028 C 
ATOM      3  C   UNL     1      -1.943   0.207   8.852  1.00  0.00     0.039 C 
ENDROOT
BRANCH   1   4
ATOM      4  C   UNL     1      -4.180  -1.093   8.587  1.00  0.00     0.034 C 
BRANCH   4   5
ATOM      5  C   UNL     1      -3.363  -2.393   8.564  1.00  0.00     0.032 C 
BRANCH   5   6
ATOM      6  C   UNL     1      -4.077  -3.521   9.272  1.00  0.00    -0.028 C 
ATOM      7  C   UNL     1      -4.592  -5.084  11.096  1.00  0.00     0.039 C 
ATOM      8  C   UNL     1      -3.832  -3.905  10.544  1.00  0.00    -0.080 C 
ATOM      9  C   UNL     1      -2.841  -3.180  11.424  1.00  0.00     0.039 C 
ENDBRANCH   5   6
ENDBRANCH   4   5
ENDBRANCH   1   4
BRANCH   2  10
ATOM     10  C   UNL     1      -3.352   2.027  10.785  1.00  0.00     0.035 C 
BRANCH  10  11
ATOM     11  C   UNL     1      -3.909   3.351  10.252  1.00  0.00     0.079 C 
BRANCH  11  12
ATOM     12  C   UNL     1      -2.853   4.102   9.486  1.00  0.00     0.130 C 
ATOM     13  O   UNL     1      -1.702   3.694   9.490  1.00  0.00    -0.300 OA
ATOM     14  C   UNL     1      -3.181   5.353   8.724  1.00  0.00     0.087 C 
ENDBRANCH  11  12
ENDBRANCH  10  11
ENDBRANCH   2  10
TORSDOF 6
ENDMDL
MODEL 6
REMARK VINA RESULT:    -4.821      4.533      7.104
REMARK INTER + INTRA:          -7.236
REMARK INTER:                  -6.761
REMARK INTRA:                  -0.475
REMARK UNBOUND:                -0.724
REMARK SMILES CC(=O)CCC=C(C)CCC=C(C)C
REMARK SMILES IDX 7 1 6 2 8 3 9 4 10 5 11 6 13 7 12 8 14 9 5 10 4 11 2 12 3 13
REMARK SMILES IDX 1 14
REMARK H PARENT
REMARK Flexibility Score: inf
ROOT
ATOM      1  C   UNL     1      -4.677   1.656  13.927  1.00  0.00    -0.077 C 
ATOM      2  C   UNL     1      -5.669   2.311  14.573  1.00  0.00    -0.028 C 
ATOM      3  C   UNL     1      -3.330   1.418  14.566  1.00  0.00     0.039 C 
ENDROOT
BRANCH   1   4
ATOM      4  C   UNL     1      -4.941   1.080  12.552  1.00  0.00     0.034 C 
BRANCH   4   5
ATOM      5  C   UNL     1      -3.672   1.067  11.687  1.00  0.00     0.032 C 
BRANCH   5   6
ATOM      6  C   UNL     1      -3.930   0.486  10.316  1.00  0.00    -0.028 C 
ATOM      7  C   UNL     1      -4.001  -1.233   8.563  1.00  0.00     0.039 C 
ATOM      8  C   UNL     1      -3.750  -0.813   9.988  1.00  0.00    -0.080 C 
ATOM      9  C   UNL     1      -3.327  -1.846  11.005  1.00  0.00     0.039 C 
ENDBRANCH   5   6
ENDBRANCH   4   5
ENDBRANCH   1   4
BRANCH   2  10
ATOM     10  C   UNL     1      -5.532   2.935  15.938  1.00  0.00     0.035 C 
BRANCH  10  11
ATOM     11  C   UNL     1      -6.862   2.885  16.695  1.00  0.00     0.079 C 
BRANCH  11  12
ATOM     12  C   UNL     1      -7.718   4.074  16.345  1.00  0.00     0.130 C 
ATOM     13  O   UNL     1      -8.702   3.919  15.638  1.00  0.00    -0.300 OA
ATOM     14  C   UNL     1      -7.383   5.450  16.840  1.00  0.00     0.087 C 
ENDBRANCH  11  12
ENDBRANCH  10  11
ENDBRANCH   2  10
TORSDOF 6
ENDMDL
MODEL 7
REMARK VINA RESULT:    -4.761      4.668      6.509
REMARK INTER + INTRA:          -7.155
REMARK INTER:                  -6.222
REMARK INTRA:                  -0.933
REMARK UNBOUND:                -0.724
REMARK SMILES CC(=O)CCC=C(C)CCC=C(C)C
REMARK SMILES IDX 7 1 6 2 8 3 9 4 10 5 11 6 13 7 12 8 14 9 5 10 4 11 2 12 3 13
REMARK SMILES IDX 1 14
REMARK H PARENT
REMARK Flexibility Score: inf
ROOT
ATOM      1  C   UNL     1      -5.507   2.797  15.497  1.00  0.00    -0.077 C 
ATOM      2  C   UNL     1      -5.788   2.300  14.270  1.00  0.00    -0.028 C 
ATOM      3  C   UNL     1      -4.123   3.270  15.869  1.00  0.00     0.039 C 
ENDROOT
BRANCH   1   4
ATOM      4  C   UNL     1      -6.624   2.951  16.508  1.00  0.00     0.034 C 
BRANCH   4   5
ATOM      5  C   UNL     1      -7.606   4.060  16.106  1.00  0.00     0.032 C 
BRANCH   5   6
ATOM      6  C   UNL     1      -7.070   5.435  16.432  1.00  0.00    -0.028 C 
ATOM      7  C   UNL     1      -6.001   7.606  16.013  1.00  0.00     0.039 C 
ATOM      8  C   UNL     1      -6.542   6.287  15.526  1.00  0.00    -0.080 C 
ATOM      9  C   UNL     1      -6.497   5.963  14.051  1.00  0.00     0.039 C 
ENDBRANCH   5   6
ENDBRANCH   4   5
ENDBRANCH   1   4
BRANCH   2  10
ATOM     10  C   UNL     1      -4.767   2.090  13.181  1.00  0.00     0.035 C 
BRANCH  10  11
ATOM     11  C   UNL     1      -4.820   0.652  12.655  1.00  0.00     0.079 C 
BRANCH  11  12
ATOM     12  C   UNL     1      -4.141   0.551  11.315  1.00  0.00     0.130 C 
ATOM     13  O   UNL     1      -3.565  -0.482  11.009  1.00  0.00    -0.300 OA
ATOM     14  C   UNL     1      -4.148   1.697  10.347  1.00  0.00     0.087 C 
ENDBRANCH  11  12
ENDBRANCH  10  11
ENDBRANCH   2  10
TORSDOF 6
ENDMDL
MODEL 8
REMARK VINA RESULT:    -4.739      1.292      2.141
REMARK INTER + INTRA:          -7.126
REMARK INTER:                  -6.428
REMARK INTRA:                  -0.698
REMARK UNBOUND:                -0.724
REMARK SMILES CC(=O)CCC=C(C)CCC=C(C)C
REMARK SMILES IDX 7 1 6 2 8 3 9 4 10 5 11 6 13 7 12 8 14 9 5 10 4 11 2 12 3 13
REMARK SMILES IDX 1 14
REMARK H PARENT
REMARK Flexibility Score: inf
ROOT
ATOM      1  C   UNL     1      -2.312   2.308  15.451  1.00  0.00    -0.077 C 
ATOM      2  C   UNL     1      -1.449   1.447  16.039  1.00  0.00    -0.028 C 
ATOM      3  C   UNL     1      -2.518   3.711  15.968  1.00  0.00     0.039 C 
ENDROOT
BRANCH   1   4
ATOM      4  C   UNL     1      -3.044   1.881  14.196  1.00  0.00     0.034 C 
BRANCH   4   5
ATOM      5  C   UNL     1      -4.486   1.450  14.496  1.00  0.00     0.032 C 
BRANCH   5   6
ATOM      6  C   UNL     1      -5.482   2.537  14.164  1.00  0.00    -0.028 C 
ATOM      7  C   UNL     1      -7.296   4.145  14.562  1.00  0.00     0.039 C 
ATOM      8  C   UNL     1      -6.323   3.106  15.055  1.00  0.00    -0.080 C 
ATOM      9  C   UNL     1      -6.301   2.745  16.522  1.00  0.00     0.039 C 
ENDBRANCH   5   6
ENDBRANCH   4   5
ENDBRANCH   1   4
BRANCH   2  10
ATOM     10  C   UNL     1      -0.667   1.747  17.293  1.00  0.00     0.035 C 
BRANCH  10  11
ATOM     11  C   UNL     1       0.394   0.670  17.542  1.00  0.00     0.079 C 
BRANCH  11  12
ATOM     12  C   UNL     1       0.483   0.342  19.009  1.00  0.00     0.130 C 
ATOM     13  O   UNL     1       1.563   0.405  19.575  1.00  0.00    -0.300 OA
ATOM     14  C   UNL     1      -0.729  -0.071  19.793  1.00  0.00     0.087 C 
ENDBRANCH  11  12
ENDBRANCH  10  11
ENDBRANCH   2  10
TORSDOF 6
ENDMDL
MODEL 9
REMARK VINA RESULT:    -4.721      5.274      7.317
REMARK INTER + INTRA:          -7.101
REMARK INTER:                  -6.335
REMARK INTRA:                  -0.766
REMARK UNBOUND:                -0.724
REMARK SMILES CC(=O)CCC=C(C)CCC=C(C)C
REMARK SMILES IDX 7 1 6 2 8 3 9 4 10 5 11 6 13 7 12 8 14 9 5 10 4 11 2 12 3 13
REMARK SMILES IDX 1 14
REMARK H PARENT
REMARK Flexibility Score: inf
ROOT
ATOM      1  C   UNL     1      -5.008   2.253  13.945  1.00  0.00    -0.077 C 
ATOM      2  C   UNL     1      -5.496   2.293  15.207  1.00  0.00    -0.028 C 
ATOM      3  C   UNL     1      -4.318   3.439  13.317  1.00  0.00     0.039 C 
ENDROOT
BRANCH   1   4
ATOM      4  C   UNL     1      -5.089   0.961  13.160  1.00  0.00     0.034 C 
BRANCH   4   5
ATOM      5  C   UNL     1      -3.764   0.637  12.456  1.00  0.00     0.032 C 
BRANCH   5   6
ATOM      6  C   UNL     1      -3.967  -0.244  11.245  1.00  0.00    -0.028 C 
ATOM      7  C   UNL     1      -4.012  -0.843   8.863  1.00  0.00     0.039 C 
ATOM      8  C   UNL     1      -3.709   0.130   9.973  1.00  0.00    -0.080 C 
ATOM      9  C   UNL     1      -3.115   1.478   9.638  1.00  0.00     0.039 C 
ENDBRANCH   5   6
ENDBRANCH   4   5
ENDBRANCH   1   4
BRANCH   2  10
ATOM     10  C   UNL     1      -5.482   3.516  16.087  1.00  0.00     0.035 C 
BRANCH  10  11
ATOM     11  C   UNL     1      -6.907   4.013  16.351  1.00  0.00     0.079 C 
BRANCH  11  12
ATOM     12  C   UNL     1      -7.512   4.582  15.094  1.00  0.00     0.130 C 
ATOM     13  O   UNL     1      -6.946   5.496  14.515  1.00  0.00    -0.300 OA
ATOM     14  C   UNL     1      -8.804   4.055  14.542  1.00  0.00     0.087 C 
ENDBRANCH  11  12
ENDBRANCH  10  11
ENDBRANCH   2  10
TORSDOF 6
ENDMDL
