MODEL 1
REMARK VINA RESULT:    15.527      0.000      0.000
REMARK INTER + INTRA:          30.625
REMARK INTER:                  24.605
REMARK INTRA:                   6.020
REMARK UNBOUND:                 6.020
REMARK SMILES C[C@H]1O[C@H](O[C@@H]2CC[C@]3(C)[C@@H](CC[C@]4(C)[C@H]3C=C[C@@]35OC[C@]6(CCC(C)(C)C[C@@H]63)[C@@H](O)C[C@]45C)[C@]2(C)CO)[C@H](O)[C@H](O[C@@H]2O[C@@H](CO)[C@H](O)[C@@H](O)[C@H]2O)[C@H]1O
REMARK SMILES IDX 1 1 2 2 54 3 41 4 39 5 4 6 3 7 55 8 42 10 43 11 52 12 44 13
REMARK SMILES IDX 50 14 45 15 48 16 53 17 51 19 46 21 47 22 49 24 5 26 6 27
REMARK SMILES IDX 7 28 35 29 8 30 11 31 36 32 9 33 12 34 10 35 16 36 13 37
REMARK SMILES IDX 14 38 17 39 15 40 33 41 18 42 19 43 32 44 34 45 29 46 20 47
REMARK SMILES IDX 30 48 22 49 28 50 21 51 23 52 25 53 24 54 26 55 27 56 37 57
REMARK SMILES IDX 38 58 31 60 40 62
REMARK H PARENT 55 9 53 18 51 20 47 23 49 25 38 59 31 61 40 63
REMARK Flexibility Score: inf
ROOT
ATOM      1  C   UNL     1      20.072  34.226  35.939  1.00  0.00     0.041 C 
ATOM      2  C   UNL     1      19.443  34.482  34.569  1.00  0.00     0.150 C 
ATOM      3  C   UNL     1      19.449  36.082  34.285  1.00  0.00     0.175 C 
ATOM      4  C   UNL     1      18.269  36.345  33.420  1.00  0.00     0.186 C 
ATOM      5  C   UNL     1      17.065  35.804  34.248  1.00  0.00     0.202 C 
ATOM      6  C   UNL     1      16.974  34.299  33.937  1.00  0.00     0.282 C 
ATOM      7  O   UNL     1      18.197  33.710  34.457  1.00  0.00    -0.344 OA
ENDROOT
BRANCH   3   8
ATOM      8  O   UNL     1      19.426  36.996  35.376  1.00  0.00    -0.388 OA
ATOM      9  H   UNL     1      18.625  37.474  35.363  1.00  0.00     0.211 HD
ENDBRANCH   3   8
BRANCH   4  10
ATOM     10  O   UNL     1      18.443  35.595  32.237  1.00  0.00    -0.341 OA
BRANCH  10  11
ATOM     11  C   UNL     1      18.731  35.997  30.882  1.00  0.00     0.282 C 
ATOM     12  C   UNL     1      20.215  35.730  30.322  1.00  0.00     0.202 C 
ATOM     13  O   UNL     1      17.609  36.069  29.990  1.00  0.00    -0.341 OA
ATOM     14  C   UNL     1      20.253  34.971  28.981  1.00  0.00     0.179 C 
ATOM     15  C   UNL     1      17.688  35.625  28.686  1.00  0.00     0.178 C 
ATOM     16  C   UNL     1      18.823  34.612  28.423  1.00  0.00     0.177 C 
BRANCH  12  17
ATOM     17  O   UNL     1      21.056  36.921  30.291  1.00  0.00    -0.385 OA
ATOM     18  H   UNL     1      21.309  37.216  29.360  1.00  0.00     0.211 HD
ENDBRANCH  12  17
BRANCH  14  19
ATOM     19  O   UNL     1      21.057  35.635  28.020  1.00  0.00    -0.387 OA
ATOM     20  H   UNL     1      20.883  35.218  27.145  1.00  0.00     0.211 HD
ENDBRANCH  14  19
BRANCH  15  21
ATOM     21  C   UNL     1      17.521  36.762  27.636  1.00  0.00     0.191 C 
BRANCH  21  22
ATOM     22  O   UNL     1      16.815  36.182  26.552  1.00  0.00    -0.394 OA
ATOM     23  H   UNL     1      16.772  35.186  26.760  1.00  0.00     0.210 HD
ENDBRANCH  21  22
ENDBRANCH  15  21
BRANCH  16  24
ATOM     24  O   UNL     1      18.452  33.279  28.737  1.00  0.00    -0.387 OA
ATOM     25  H   UNL     1      19.167  32.580  28.634  1.00  0.00     0.211 HD
ENDBRANCH  16  24
ENDBRANCH  10  11
ENDBRANCH   4  10
BRANCH   6  26
ATOM     26  O   UNL     1      16.869  34.008  32.530  1.00  0.00    -0.346 OA
BRANCH  26  27
ATOM     27  C   UNL     1      16.947  32.599  32.093  1.00  0.00     0.130 C 
ATOM     28  C   UNL     1      15.875  31.990  33.101  1.00  0.00     0.033 C 
ATOM     29  C   UNL     1      18.430  32.014  32.442  1.00  0.00     0.020 C 
ATOM     30  C   UNL     1      16.261  30.623  33.772  1.00  0.00     0.010 C 
ATOM     31  C   UNL     1      18.509  31.681  34.041  1.00  0.00     0.006 C 
ATOM     32  C   UNL     1      18.921  30.849  31.682  1.00  0.00     0.017 C 
ATOM     33  C   UNL     1      17.468  30.540  34.696  1.00  0.00    -0.022 C 
ATOM     34  C   UNL     1      19.827  31.478  34.689  1.00  0.00     0.005 C 
ATOM     35  C   UNL     1      16.903  30.956  36.078  1.00  0.00     0.012 C 
ATOM     36  C   UNL     1      18.146  28.959  34.935  1.00  0.00     0.024 C 
ATOM     37  C   UNL     1      20.144  30.013  34.654  1.00  0.00     0.008 C 
ATOM     38  C   UNL     1      19.338  28.779  33.915  1.00  0.00    -0.017 C 
ATOM     39  C   UNL     1      18.608  28.029  36.084  1.00  0.00    -0.024 C 
ATOM     40  C   UNL     1      18.218  28.328  32.739  1.00  0.00     0.013 C 
ATOM     41  C   UNL     1      20.568  27.722  33.703  1.00  0.00     0.009 C 
ATOM     42  C   UNL     1      19.375  26.876  35.845  1.00  0.00     0.005 C 
ATOM     43  C   UNL     1      20.735  26.916  35.067  1.00  0.00     0.096 C 
ATOM     44  C   UNL     1      22.060  28.238  33.260  1.00  0.00     0.043 C 
ATOM     45  C   UNL     1      20.357  26.754  32.464  1.00  0.00     0.015 C 
ATOM     46  C   UNL     1      21.615  25.586  34.822  1.00  0.00     0.037 C 
ATOM     47  O   UNL     1      21.562  27.684  35.981  1.00  0.00    -0.369 OA
ATOM     48  C   UNL     1      23.296  27.275  33.734  1.00  0.00     0.124 C 
ATOM     49  C   UNL     1      22.957  26.182  34.900  1.00  0.00     0.026 C 
ATOM     50  C   UNL     1      21.463  24.377  33.729  1.00  0.00     0.014 C 
ATOM     51  C   UNL     1      22.778  26.987  36.121  1.00  0.00     0.171 C 
ATOM     52  C   UNL     1      24.096  25.063  34.988  1.00  0.00     0.013 C 
ATOM     53  C   UNL     1      22.611  23.352  33.729  1.00  0.00    -0.035 C 
ATOM     54  C   UNL     1      23.618  23.588  34.906  1.00  0.00     0.007 C 
ATOM     55  C   UNL     1      23.426  23.360  32.422  1.00  0.00     0.011 C 
ATOM     56  C   UNL     1      22.033  21.890  33.836  1.00  0.00     0.011 C 
BRANCH  29  57
ATOM     57  C   UNL     1      19.508  33.017  31.809  1.00  0.00     0.165 C 
BRANCH  57  58
ATOM     58  O   UNL     1      20.588  33.375  32.593  1.00  0.00    -0.396 OA
ATOM     59  H   UNL     1      21.325  33.348  31.965  1.00  0.00     0.210 HD
ENDBRANCH  57  58
ENDBRANCH  29  57
BRANCH  48  60
ATOM     60  O   UNL     1      24.048  26.757  32.675  1.00  0.00    -0.392 OA
ATOM     61  H   UNL     1      23.386  26.720  31.905  1.00  0.00     0.210 HD
ENDBRANCH  48  60
ENDBRANCH  26  27
ENDBRANCH   6  26
BRANCH   5  62
ATOM     62  O   UNL     1      15.875  36.639  34.155  1.00  0.00    -0.385 OA
ATOM     63  H   UNL     1      15.893  37.012  33.234  1.00  0.00     0.211 HD
ENDBRANCH   5  62
TORSDOF 14
ENDMDL
