MODEL 1
REMARK VINA RESULT:    -6.532      0.000      0.000
REMARK INTER + INTRA:          -6.723
REMARK INTER:                  -6.723
REMARK INTRA:                   0.000
REMARK UNBOUND:                 0.000
REMARK SMILES C=C1CCC[C@@]2(C)C[C@]3(O)OC(=O)C(C)=C3C[C@@H]12
REMARK SMILES IDX 15 1 14 2 16 3 17 4 18 5 2 6 1 7 3 8 4 9 5 10 6 11 8 12 9 13
REMARK SMILES IDX 11 14 12 15 13 16 7 17 10 18
REMARK H PARENT 10 19
REMARK Flexibility Score: inf
ROOT
ATOM      1  C   UNL     1       5.419  48.637  -0.740  1.00  0.00     0.052 C 
ATOM      2  C   UNL     1       6.812  48.100  -0.861  1.00  0.00     0.040 C 
ATOM      3  C   UNL     1       7.422  47.701  -1.976  1.00  0.00     0.012 C 
ATOM      4  C   UNL     1       6.836  47.636  -3.349  1.00  0.00     0.047 C 
ATOM      5  C   UNL     1       6.816  46.168  -3.830  1.00  0.00     0.025 C 
ATOM      6  C   UNL     1       6.379  46.131  -5.285  1.00  0.00    -0.073 C 
ATOM      7  C   UNL     1       5.099  45.889  -5.606  1.00  0.00     0.008 C 
ATOM      8  C   UNL     1       7.373  46.527  -6.354  1.00  0.00     0.031 C 
ATOM      9  C   UNL     1       8.725  45.833  -6.148  1.00  0.00     0.005 C 
ATOM     10  C   UNL     1       9.224  45.953  -4.696  1.00  0.00     0.008 C 
ATOM     11  C   UNL     1       8.192  45.431  -3.649  1.00  0.00    -0.019 C 
ATOM     12  C   UNL     1       8.748  45.611  -2.195  1.00  0.00     0.092 C 
ATOM     13  C   UNL     1       8.747  47.064  -1.676  1.00  0.00     0.235 C 
ATOM     14  O   UNL     1       8.816  47.104  -0.250  1.00  0.00    -0.426 OA
ATOM     15  C   UNL     1       7.679  47.726   0.234  1.00  0.00     0.336 C 
ATOM     16  O   UNL     1       7.443  47.907   1.457  1.00  0.00    -0.246 OA
ATOM     17  C   UNL     1       7.980  43.906  -3.855  1.00  0.00     0.012 C 
ENDROOT
BRANCH  13  18
ATOM     18  O   UNL     1       9.787  47.826  -2.229  1.00  0.00    -0.353 OA
ATOM     19  H   UNL     1       9.784  48.699  -1.757  1.00  0.00     0.215 HD
ENDBRANCH  13  18
TORSDOF 1
ENDMDL
MODEL 2
REMARK VINA RESULT:    -6.430     13.742     15.928
REMARK INTER + INTRA:          -6.618
REMARK INTER:                  -6.618
REMARK INTRA:                   0.000
REMARK UNBOUND:                 0.000
REMARK SMILES C=C1CCC[C@@]2(C)C[C@]3(O)OC(=O)C(C)=C3C[C@@H]12
REMARK SMILES IDX 15 1 14 2 16 3 17 4 18 5 2 6 1 7 3 8 4 9 5 10 6 11 8 12 9 13
REMARK SMILES IDX 11 14 12 15 13 16 7 17 10 18
REMARK H PARENT 10 19
REMARK Flexibility Score: inf
ROOT
ATOM      1  C   UNL     1      10.605  36.390   7.691  1.00  0.00     0.052 C 
ATOM      2  C   UNL     1       9.305  37.029   7.311  1.00  0.00     0.040 C 
ATOM      3  C   UNL     1       8.387  37.530   8.138  1.00  0.00     0.012 C 
ATOM      4  C   UNL     1       8.416  37.513   9.631  1.00  0.00     0.047 C 
ATOM      5  C   UNL     1       7.225  36.683  10.158  1.00  0.00     0.025 C 
ATOM      6  C   UNL     1       7.163  36.812  11.671  1.00  0.00    -0.073 C 
ATOM      7  C   UNL     1       7.716  35.875  12.458  1.00  0.00     0.008 C 
ATOM      8  C   UNL     1       6.613  38.086  12.272  1.00  0.00     0.031 C 
ATOM      9  C   UNL     1       5.290  38.491  11.612  1.00  0.00     0.005 C 
ATOM     10  C   UNL     1       5.374  38.460  10.074  1.00  0.00     0.008 C 
ATOM     11  C   UNL     1       5.849  37.084   9.516  1.00  0.00    -0.019 C 
ATOM     12  C   UNL     1       5.942  37.131   7.951  1.00  0.00     0.092 C 
ATOM     13  C   UNL     1       7.143  37.926   7.398  1.00  0.00     0.235 C 
ATOM     14  O   UNL     1       7.431  37.555   6.049  1.00  0.00    -0.426 OA
ATOM     15  C   UNL     1       8.712  37.036   5.992  1.00  0.00     0.336 C 
ATOM     16  O   UNL     1       9.254  36.612   4.938  1.00  0.00    -0.246 OA
ATOM     17  C   UNL     1       4.793  35.998   9.862  1.00  0.00     0.012 C 
ENDROOT
BRANCH  13  18
ATOM     18  O   UNL     1       6.948  39.312   7.485  1.00  0.00    -0.353 OA
ATOM     19  H   UNL     1       6.351  39.469   8.262  1.00  0.00     0.215 HD
ENDBRANCH  13  18
TORSDOF 1
ENDMDL
MODEL 3
REMARK VINA RESULT:    -6.062      6.774      8.785
REMARK INTER + INTRA:          -6.239
REMARK INTER:                  -6.239
REMARK INTRA:                   0.000
REMARK UNBOUND:                 0.000
REMARK SMILES C=C1CCC[C@@]2(C)C[C@]3(O)OC(=O)C(C)=C3C[C@@H]12
REMARK SMILES IDX 15 1 14 2 16 3 17 4 18 5 2 6 1 7 3 8 4 9 5 10 6 11 8 12 9 13
REMARK SMILES IDX 11 14 12 15 13 16 7 17 10 18
REMARK H PARENT 10 19
REMARK Flexibility Score: inf
ROOT
ATOM      1  C   UNL     1      12.623  51.731  -1.121  1.00  0.00     0.052 C 
ATOM      2  C   UNL     1      12.236  53.144  -1.431  1.00  0.00     0.040 C 
ATOM      3  C   UNL     1      11.068  53.729  -1.167  1.00  0.00     0.012 C 
ATOM      4  C   UNL     1       9.860  53.095  -0.561  1.00  0.00     0.047 C 
ATOM      5  C   UNL     1       8.696  53.132  -1.576  1.00  0.00     0.025 C 
ATOM      6  C   UNL     1       7.429  52.642  -0.895  1.00  0.00    -0.073 C 
ATOM      7  C   UNL     1       7.039  51.364  -1.020  1.00  0.00     0.008 C 
ATOM      8  C   UNL     1       6.705  53.572   0.053  1.00  0.00     0.031 C 
ATOM      9  C   UNL     1       6.519  54.964  -0.561  1.00  0.00     0.005 C 
ATOM     10  C   UNL     1       7.825  55.512  -1.167  1.00  0.00     0.008 C 
ATOM     11  C   UNL     1       8.465  54.550  -2.213  1.00  0.00    -0.019 C 
ATOM     12  C   UNL     1       9.803  55.152  -2.764  1.00  0.00     0.092 C 
ATOM     13  C   UNL     1      10.991  55.096  -1.782  1.00  0.00     0.235 C 
ATOM     14  O   UNL     1      12.238  55.218  -2.470  1.00  0.00    -0.426 OA
ATOM     15  C   UNL     1      12.979  54.070  -2.255  1.00  0.00     0.336 C 
ATOM     16  O   UNL     1      14.125  53.872  -2.738  1.00  0.00    -0.246 OA
ATOM     17  C   UNL     1       7.510  54.408  -3.431  1.00  0.00     0.012 C 
ENDROOT
BRANCH  13  18
ATOM     18  O   UNL     1      10.898  56.074  -0.780  1.00  0.00    -0.353 OA
ATOM     19  H   UNL     1      10.297  55.709  -0.079  1.00  0.00     0.215 HD
ENDBRANCH  13  18
TORSDOF 1
ENDMDL
MODEL 4
REMARK VINA RESULT:    -6.000      3.776      6.084
REMARK INTER + INTRA:          -6.175
REMARK INTER:                  -6.175
REMARK INTRA:                   0.000
REMARK UNBOUND:                 0.000
REMARK SMILES C=C1CCC[C@@]2(C)C[C@]3(O)OC(=O)C(C)=C3C[C@@H]12
REMARK SMILES IDX 15 1 14 2 16 3 17 4 18 5 2 6 1 7 3 8 4 9 5 10 6 11 8 12 9 13
REMARK SMILES IDX 11 14 12 15 13 16 7 17 10 18
REMARK H PARENT 10 19
REMARK Flexibility Score: inf
ROOT
ATOM      1  C   UNL     1      11.577  51.721  -0.671  1.00  0.00     0.052 C 
ATOM      2  C   UNL     1      10.124  52.070  -0.764  1.00  0.00     0.040 C 
ATOM      3  C   UNL     1       9.097  51.349  -0.316  1.00  0.00     0.012 C 
ATOM      4  C   UNL     1       9.156  50.000   0.324  1.00  0.00     0.047 C 
ATOM      5  C   UNL     1       8.404  48.980  -0.560  1.00  0.00     0.025 C 
ATOM      6  C   UNL     1       8.321  47.654   0.178  1.00  0.00    -0.073 C 
ATOM      7  C   UNL     1       9.215  46.682  -0.066  1.00  0.00     0.008 C 
ATOM      8  C   UNL     1       7.319  47.505   1.300  1.00  0.00     0.031 C 
ATOM      9  C   UNL     1       5.933  48.012   0.885  1.00  0.00     0.005 C 
ATOM     10  C   UNL     1       5.996  49.403   0.226  1.00  0.00     0.008 C 
ATOM     11  C   UNL     1       6.971  49.460  -0.990  1.00  0.00    -0.019 C 
ATOM     12  C   UNL     1       7.011  50.907  -1.591  1.00  0.00     0.092 C 
ATOM     13  C   UNL     1       7.786  51.938  -0.746  1.00  0.00     0.235 C 
ATOM     14  O   UNL     1       8.175  53.066  -1.533  1.00  0.00    -0.426 OA
ATOM     15  C   UNL     1       9.556  53.153  -1.536  1.00  0.00     0.336 C 
ATOM     16  O   UNL     1      10.203  54.040  -2.150  1.00  0.00    -0.246 OA
ATOM     17  C   UNL     1       6.442  48.529  -2.116  1.00  0.00     0.012 C 
ENDROOT
BRANCH  13  18
ATOM     18  O   UNL     1       7.055  52.363   0.374  1.00  0.00    -0.353 OA
ATOM     19  H   UNL     1       7.359  51.811   1.141  1.00  0.00     0.215 HD
ENDBRANCH  13  18
TORSDOF 1
ENDMDL
MODEL 5
REMARK VINA RESULT:    -5.931     11.928     14.238
REMARK INTER + INTRA:          -6.105
REMARK INTER:                  -6.105
REMARK INTRA:                   0.000
REMARK UNBOUND:                 0.000
REMARK SMILES C=C1CCC[C@@]2(C)C[C@]3(O)OC(=O)C(C)=C3C[C@@H]12
REMARK SMILES IDX 15 1 14 2 16 3 17 4 18 5 2 6 1 7 3 8 4 9 5 10 6 11 8 12 9 13
REMARK SMILES IDX 11 14 12 15 13 16 7 17 10 18
REMARK H PARENT 10 19
REMARK Flexibility Score: inf
ROOT
ATOM      1  C   UNL     1       8.047  39.683  11.462  1.00  0.00     0.052 C 
ATOM      2  C   UNL     1       7.019  39.916  10.399  1.00  0.00     0.040 C 
ATOM      3  C   UNL     1       6.769  41.062   9.766  1.00  0.00     0.012 C 
ATOM      4  C   UNL     1       7.410  42.388  10.016  1.00  0.00     0.047 C 
ATOM      5  C   UNL     1       6.341  43.392  10.501  1.00  0.00     0.025 C 
ATOM      6  C   UNL     1       6.965  44.774  10.589  1.00  0.00    -0.073 C 
ATOM      7  C   UNL     1       7.432  45.238  11.759  1.00  0.00     0.008 C 
ATOM      8  C   UNL     1       7.198  45.552   9.313  1.00  0.00     0.031 C 
ATOM      9  C   UNL     1       5.953  45.546   8.418  1.00  0.00     0.005 C 
ATOM     10  C   UNL     1       5.370  44.131   8.241  1.00  0.00     0.008 C 
ATOM     11  C   UNL     1       5.057  43.425   9.596  1.00  0.00    -0.019 C 
ATOM     12  C   UNL     1       4.500  41.981   9.344  1.00  0.00     0.092 C 
ATOM     13  C   UNL     1       5.554  40.950   8.893  1.00  0.00     0.235 C 
ATOM     14  O   UNL     1       5.104  39.614   9.127  1.00  0.00    -0.426 OA
ATOM     15  C   UNL     1       5.974  38.997  10.007  1.00  0.00     0.336 C 
ATOM     16  O   UNL     1       5.842  37.814  10.414  1.00  0.00    -0.246 OA
ATOM     17  C   UNL     1       3.937  44.208  10.335  1.00  0.00     0.012 C 
ENDROOT
BRANCH  13  18
ATOM     18  O   UNL     1       5.909  41.109   7.545  1.00  0.00    -0.353 OA
ATOM     19  H   UNL     1       5.319  40.506   7.021  1.00  0.00     0.215 HD
ENDBRANCH  13  18
TORSDOF 1
ENDMDL
MODEL 6
REMARK VINA RESULT:    -5.901     11.880     13.507
REMARK INTER + INTRA:          -6.074
REMARK INTER:                  -6.074
REMARK INTRA:                   0.000
REMARK UNBOUND:                 0.000
REMARK SMILES C=C1CCC[C@@]2(C)C[C@]3(O)OC(=O)C(C)=C3C[C@@H]12
REMARK SMILES IDX 15 1 14 2 16 3 17 4 18 5 2 6 1 7 3 8 4 9 5 10 6 11 8 12 9 13
REMARK SMILES IDX 11 14 12 15 13 16 7 17 10 18
REMARK H PARENT 10 19
REMARK Flexibility Score: inf
ROOT
ATOM      1  C   UNL     1       6.420  38.765   7.315  1.00  0.00     0.052 C 
ATOM      2  C   UNL     1       7.063  39.631   8.353  1.00  0.00     0.040 C 
ATOM      3  C   UNL     1       6.515  40.672   8.979  1.00  0.00     0.012 C 
ATOM      4  C   UNL     1       5.158  41.252   8.743  1.00  0.00     0.047 C 
ATOM      5  C   UNL     1       5.301  42.703   8.232  1.00  0.00     0.025 C 
ATOM      6  C   UNL     1       3.923  43.339   8.158  1.00  0.00    -0.073 C 
ATOM      7  C   UNL     1       3.247  43.366   6.999  1.00  0.00     0.008 C 
ATOM      8  C   UNL     1       3.262  43.796   9.438  1.00  0.00     0.031 C 
ATOM      9  C   UNL     1       4.224  44.620  10.302  1.00  0.00     0.005 C 
ATOM     10  C   UNL     1       5.593  43.934  10.466  1.00  0.00     0.008 C 
ATOM     11  C   UNL     1       6.267  43.582   9.105  1.00  0.00    -0.019 C 
ATOM     12  C   UNL     1       7.637  42.858   9.344  1.00  0.00     0.092 C 
ATOM     13  C   UNL     1       7.523  41.397   9.822  1.00  0.00     0.235 C 
ATOM     14  O   UNL     1       8.733  40.676   9.578  1.00  0.00    -0.426 OA
ATOM     15  C   UNL     1       8.462  39.626   8.720  1.00  0.00     0.336 C 
ATOM     16  O   UNL     1       9.329  38.811   8.310  1.00  0.00    -0.246 OA
ATOM     17  C   UNL     1       6.589  44.894   8.338  1.00  0.00     0.012 C 
ENDROOT
BRANCH  13  18
ATOM     18  O   UNL     1       7.175  41.307  11.178  1.00  0.00    -0.353 OA
ATOM     19  H   UNL     1       6.290  41.745  11.276  1.00  0.00     0.215 HD
ENDBRANCH  13  18
TORSDOF 1
ENDMDL
MODEL 7
REMARK VINA RESULT:    -5.855     12.964     13.775
REMARK INTER + INTRA:          -6.026
REMARK INTER:                  -6.026
REMARK INTRA:                   0.000
REMARK UNBOUND:                 0.000
REMARK SMILES C=C1CCC[C@@]2(C)C[C@]3(O)OC(=O)C(C)=C3C[C@@H]12
REMARK SMILES IDX 15 1 14 2 16 3 17 4 18 5 2 6 1 7 3 8 4 9 5 10 6 11 8 12 9 13
REMARK SMILES IDX 11 14 12 15 13 16 7 17 10 18
REMARK H PARENT 10 19
REMARK Flexibility Score: inf
ROOT
ATOM      1  C   UNL     1       3.223  42.979   9.393  1.00  0.00     0.052 C 
ATOM      2  C   UNL     1       4.665  43.299   9.641  1.00  0.00     0.040 C 
ATOM      3  C   UNL     1       5.719  42.557   9.303  1.00  0.00     0.012 C 
ATOM      4  C   UNL     1       5.702  41.210   8.657  1.00  0.00     0.047 C 
ATOM      5  C   UNL     1       6.334  40.174   9.613  1.00  0.00     0.025 C 
ATOM      6  C   UNL     1       6.467  38.846   8.885  1.00  0.00    -0.073 C 
ATOM      7  C   UNL     1       5.533  37.893   9.029  1.00  0.00     0.008 C 
ATOM      8  C   UNL     1       7.581  38.677   7.876  1.00  0.00     0.031 C 
ATOM      9  C   UNL     1       8.924  39.156   8.438  1.00  0.00     0.005 C 
ATOM     10  C   UNL     1       8.820  40.547   9.090  1.00  0.00     0.008 C 
ATOM     11  C   UNL     1       7.722  40.624  10.195  1.00  0.00    -0.019 C 
ATOM     12  C   UNL     1       7.647  42.071  10.793  1.00  0.00     0.092 C 
ATOM     13  C   UNL     1       6.988  43.119   9.872  1.00  0.00     0.235 C 
ATOM     14  O   UNL     1       6.540  44.254  10.616  1.00  0.00    -0.426 OA
ATOM     15  C   UNL     1       5.170  44.369  10.472  1.00  0.00     0.336 C 
ATOM     16  O   UNL     1       4.478  45.269  11.016  1.00  0.00    -0.246 OA
ATOM     17  C   UNL     1       8.108  39.682  11.368  1.00  0.00     0.012 C 
ENDROOT
BRANCH  13  18
ATOM     18  O   UNL     1       7.843  43.529   8.837  1.00  0.00    -0.353 OA
ATOM     19  H   UNL     1       7.325  44.159   8.272  1.00  0.00     0.215 HD
ENDBRANCH  13  18
TORSDOF 1
ENDMDL
MODEL 8
REMARK VINA RESULT:    -5.852      3.572      5.027
REMARK INTER + INTRA:          -6.023
REMARK INTER:                  -6.023
REMARK INTRA:                   0.000
REMARK UNBOUND:                 0.000
REMARK SMILES C=C1CCC[C@@]2(C)C[C@]3(O)OC(=O)C(C)=C3C[C@@H]12
REMARK SMILES IDX 15 1 14 2 16 3 17 4 18 5 2 6 1 7 3 8 4 9 5 10 6 11 8 12 9 13
REMARK SMILES IDX 11 14 12 15 13 16 7 17 10 18
REMARK H PARENT 10 19
REMARK Flexibility Score: inf
ROOT
ATOM      1  C   UNL     1       7.261  53.532   1.019  1.00  0.00     0.052 C 
ATOM      2  C   UNL     1       8.507  52.738   0.773  1.00  0.00     0.040 C 
ATOM      3  C   UNL     1       8.624  51.644   0.022  1.00  0.00     0.012 C 
ATOM      4  C   UNL     1       7.529  50.923  -0.694  1.00  0.00     0.047 C 
ATOM      5  C   UNL     1       7.391  49.496  -0.117  1.00  0.00     0.025 C 
ATOM      6  C   UNL     1       6.397  48.716  -0.960  1.00  0.00    -0.073 C 
ATOM      7  C   UNL     1       5.112  48.618  -0.583  1.00  0.00     0.008 C 
ATOM      8  C   UNL     1       6.838  48.188  -2.307  1.00  0.00     0.031 C 
ATOM      9  C   UNL     1       8.190  47.472  -2.212  1.00  0.00     0.005 C 
ATOM     10  C   UNL     1       9.236  48.301  -1.444  1.00  0.00     0.008 C 
ATOM     11  C   UNL     1       8.757  48.724  -0.022  1.00  0.00    -0.019 C 
ATOM     12  C   UNL     1       9.852  49.590   0.690  1.00  0.00     0.092 C 
ATOM     13  C   UNL     1       9.987  51.031   0.156  1.00  0.00     0.235 C 
ATOM     14  O   UNL     1      10.635  51.878   1.108  1.00  0.00    -0.426 OA
ATOM     15  C   UNL     1       9.767  52.893   1.465  1.00  0.00     0.336 C 
ATOM     16  O   UNL     1      10.046  53.798   2.295  1.00  0.00    -0.246 OA
ATOM     17  C   UNL     1       8.561  47.455   0.852  1.00  0.00     0.012 C 
ENDROOT
BRANCH  13  18
ATOM     18  O   UNL     1      10.664  51.082  -1.072  1.00  0.00    -0.353 OA
ATOM     19  H   UNL     1      10.267  51.831  -1.587  1.00  0.00     0.215 HD
ENDBRANCH  13  18
TORSDOF 1
ENDMDL
MODEL 9
REMARK VINA RESULT:    -5.806     13.344     15.131
REMARK INTER + INTRA:          -5.975
REMARK INTER:                  -5.975
REMARK INTRA:                   0.000
REMARK UNBOUND:                 0.000
REMARK SMILES C=C1CCC[C@@]2(C)C[C@]3(O)OC(=O)C(C)=C3C[C@@H]12
REMARK SMILES IDX 15 1 14 2 16 3 17 4 18 5 2 6 1 7 3 8 4 9 5 10 6 11 8 12 9 13
REMARK SMILES IDX 11 14 12 15 13 16 7 17 10 18
REMARK H PARENT 10 19
REMARK Flexibility Score: inf
ROOT
ATOM      1  C   UNL     1       3.638  42.242   9.366  1.00  0.00     0.052 C 
ATOM      2  C   UNL     1       5.125  42.069   9.427  1.00  0.00     0.040 C 
ATOM      3  C   UNL     1       5.795  40.918   9.471  1.00  0.00     0.012 C 
ATOM      4  C   UNL     1       5.218  39.542   9.532  1.00  0.00     0.047 C 
ATOM      5  C   UNL     1       5.635  38.869  10.859  1.00  0.00     0.025 C 
ATOM      6  C   UNL     1       5.189  37.417  10.838  1.00  0.00    -0.073 C 
ATOM      7  C   UNL     1       4.035  37.049  11.417  1.00  0.00     0.008 C 
ATOM      8  C   UNL     1       5.982  36.422  10.020  1.00  0.00     0.031 C 
ATOM      9  C   UNL     1       7.486  36.552  10.285  1.00  0.00     0.005 C 
ATOM     10  C   UNL     1       7.967  38.013  10.209  1.00  0.00     0.008 C 
ATOM     11  C   UNL     1       7.175  38.967  11.154  1.00  0.00    -0.019 C 
ATOM     12  C   UNL     1       7.691  40.440  11.004  1.00  0.00     0.092 C 
ATOM     13  C   UNL     1       7.260  41.147   9.703  1.00  0.00     0.235 C 
ATOM     14  O   UNL     1       7.354  42.568   9.830  1.00  0.00    -0.426 OA
ATOM     15  C   UNL     1       6.096  43.115   9.657  1.00  0.00     0.336 C 
ATOM     16  O   UNL     1       5.851  44.349   9.719  1.00  0.00    -0.246 OA
ATOM     17  C   UNL     1       7.434  38.558  12.631  1.00  0.00     0.012 C 
ENDROOT
BRANCH  13  18
ATOM     18  O   UNL     1       8.000  40.714   8.592  1.00  0.00    -0.353 OA
ATOM     19  H   UNL     1       7.632  41.188   7.801  1.00  0.00     0.215 HD
ENDBRANCH  13  18
TORSDOF 1
ENDMDL
