MODEL 1
REMARK VINA RESULT:    -3.778      0.000      0.000
REMARK INTER + INTRA:          -3.387
REMARK INTER:                  -4.661
REMARK INTRA:                   1.275
REMARK UNBOUND:                 1.275
REMARK SMILES C=C1[C@H]2CC[C@@H]3[C@H]2C(C)(C)CCC[C@]13C
REMARK SMILES IDX 14 1 6 2 7 3 3 4 2 5 1 6 4 7 5 8 15 9 8 10 9 11 10 12 11 13
REMARK SMILES IDX 13 15 12 16
REMARK H PARENT
REMARK Flexibility Score: 80.00
ROOT
ATOM      1  C   UNL     1       1.293  14.520  15.126  1.00  0.00    -0.008 C 
ATOM      2  C   UNL     1       1.579  13.064  15.636  1.00  0.00     0.003 C 
ATOM      3  C   UNL     1       0.328  12.711  16.447  1.00  0.00     0.006 C 
ATOM      4  C   UNL     1      -0.636  13.030  15.302  1.00  0.00     0.019 C 
ATOM      5  C   UNL     1      -0.193  14.414  14.894  1.00  0.00    -0.068 C 
ATOM      6  C   UNL     1      -0.980  15.351  14.356  1.00  0.00     0.009 C 
ATOM      7  C   UNL     1      -0.117  12.076  14.207  1.00  0.00     0.008 C 
ATOM      8  C   UNL     1       1.406  12.039  14.478  1.00  0.00     0.005 C 
ATOM      9  C   UNL     1       2.035  14.855  13.804  1.00  0.00     0.016 C 
ENDROOT
BRANCH   3  10
ATOM     10  C   UNL     1       0.082  13.396  17.845  1.00  0.00    -0.032 C 
ATOM     11  C   UNL     1      -1.087  12.641  18.529  1.00  0.00     0.011 C 
ATOM     12  C   UNL     1       1.322  13.223  18.754  1.00  0.00     0.011 C 
BRANCH  10  13
ATOM     13  C   UNL     1      -0.337  14.891  17.777  1.00  0.00     0.007 CG0
ATOM     14  G   UNL     1       0.726  15.916  17.347  1.00  0.00     0.000 G0
ENDBRANCH  10  13
ENDBRANCH   3  10
BRANCH   1  15
ATOM     15  C   UNL     1       1.705  15.569  16.204  1.00  0.00     0.011 C 
BRANCH  15  16
ATOM     16  C   UNL     1       0.723  15.922  17.344  1.00  0.00     0.001 CG0
ATOM     17  G   UNL     1      -0.329  14.892  17.789  1.00  0.00     0.000 G0
ENDBRANCH  15  16
ENDBRANCH   1  15
TORSDOF 0
ENDMDL
MODEL 2
REMARK VINA RESULT:    -3.677      2.251      4.397
REMARK INTER + INTRA:          -3.262
REMARK INTER:                  -4.533
REMARK INTRA:                   1.271
REMARK UNBOUND:                 1.275
REMARK SMILES C=C1[C@H]2CC[C@@H]3[C@H]2C(C)(C)CCC[C@]13C
REMARK SMILES IDX 14 1 6 2 7 3 3 4 2 5 1 6 4 7 5 8 15 9 8 10 9 11 10 12 11 13
REMARK SMILES IDX 13 15 12 16
REMARK H PARENT
REMARK Flexibility Score: 80.00
ROOT
ATOM      1  C   UNL     1       1.448  14.732  15.351  1.00  0.00    -0.008 C 
ATOM      2  C   UNL     1       1.585  16.124  16.063  1.00  0.00     0.003 C 
ATOM      3  C   UNL     1       0.343  16.892  15.602  1.00  0.00     0.006 C 
ATOM      4  C   UNL     1      -0.632  15.803  16.058  1.00  0.00     0.019 C 
ATOM      5  C   UNL     1      -0.050  14.570  15.412  1.00  0.00    -0.068 C 
ATOM      6  C   UNL     1      -0.747  13.495  15.028  1.00  0.00     0.009 C 
ATOM      7  C   UNL     1      -0.283  15.706  17.557  1.00  0.00     0.008 C 
ATOM      8  C   UNL     1       1.237  15.997  17.575  1.00  0.00     0.005 C 
ATOM      9  C   UNL     1       2.159  13.587  16.120  1.00  0.00     0.016 C 
ENDROOT
BRANCH   3  10
ATOM     10  C   UNL     1       0.247  17.407  14.116  1.00  0.00    -0.032 C 
ATOM     11  C   UNL     1      -0.969  18.367  14.038  1.00  0.00     0.011 C 
ATOM     12  C   UNL     1       1.500  18.239  13.754  1.00  0.00     0.011 C 
BRANCH  10  13
ATOM     13  C   UNL     1       0.004  16.300  13.053  1.00  0.00     0.007 CG0
ATOM     14  G   UNL     1       1.162  15.334  12.746  1.00  0.00     0.000 G0
ENDBRANCH  10  13
ENDBRANCH   3  10
BRANCH   1  15
ATOM     15  C   UNL     1       2.032  14.796  13.906  1.00  0.00     0.011 C 
BRANCH  15  16
ATOM     16  C   UNL     1       1.155  15.321  12.747  1.00  0.00     0.001 CG0
ATOM     17  G   UNL     1       0.005  16.298  13.046  1.00  0.00     0.000 G0
ENDBRANCH  15  16
ENDBRANCH   1  15
TORSDOF 0
ENDMDL
MODEL 3
REMARK VINA RESULT:    -3.671      1.954      4.218
REMARK INTER + INTRA:          -3.255
REMARK INTER:                  -4.529
REMARK INTRA:                   1.274
REMARK UNBOUND:                 1.275
REMARK SMILES C=C1[C@H]2CC[C@@H]3[C@H]2C(C)(C)CCC[C@]13C
REMARK SMILES IDX 14 1 6 2 7 3 3 4 2 5 1 6 4 7 5 8 15 9 8 10 9 11 10 12 11 13
REMARK SMILES IDX 13 15 12 16
REMARK H PARENT
REMARK Flexibility Score: 80.00
ROOT
ATOM      1  C   UNL     1      -0.315  15.756  16.434  1.00  0.00    -0.008 C 
ATOM      2  C   UNL     1      -0.306  14.598  15.374  1.00  0.00     0.003 C 
ATOM      3  C   UNL     1       0.959  14.866  14.553  1.00  0.00     0.006 C 
ATOM      4  C   UNL     1       1.876  14.896  15.778  1.00  0.00     0.019 C 
ATOM      5  C   UNL     1       1.168  15.877  16.679  1.00  0.00    -0.068 C 
ATOM      6  C   UNL     1       1.760  16.664  17.584  1.00  0.00     0.009 C 
ATOM      7  C   UNL     1       1.612  13.499  16.376  1.00  0.00     0.008 C 
ATOM      8  C   UNL     1       0.121  13.257  16.037  1.00  0.00     0.005 C 
ATOM      9  C   UNL     1      -1.060  15.374  17.740  1.00  0.00     0.016 C 
ENDROOT
BRANCH   3  10
ATOM     10  C   UNL     1       1.002  16.086  13.557  1.00  0.00    -0.032 C 
ATOM     11  C   UNL     1       2.277  15.926  12.687  1.00  0.00     0.011 C 
ATOM     12  C   UNL     1      -0.208  16.037  12.594  1.00  0.00     0.011 C 
BRANCH  10  13
ATOM     13  C   UNL     1       1.102  17.482  14.233  1.00  0.00     0.007 CG0
ATOM     14  G   UNL     1      -0.137  18.008  14.978  1.00  0.00     0.000 G0
ENDBRANCH  10  13
ENDBRANCH   3  10
BRANCH   1  15
ATOM     15  C   UNL     1      -0.978  17.037  15.841  1.00  0.00     0.011 C 
BRANCH  15  16
ATOM     16  C   UNL     1      -0.136  18.012  14.988  1.00  0.00     0.001 CG0
ATOM     17  G   UNL     1       1.103  17.491  14.239  1.00  0.00     0.000 G0
ENDBRANCH  15  16
ENDBRANCH   1  15
TORSDOF 0
ENDMDL
MODEL 4
REMARK VINA RESULT:    -3.621      1.263      2.426
REMARK INTER + INTRA:          -3.193
REMARK INTER:                  -4.465
REMARK INTRA:                   1.272
REMARK UNBOUND:                 1.275
REMARK SMILES C=C1[C@H]2CC[C@@H]3[C@H]2C(C)(C)CCC[C@]13C
REMARK SMILES IDX 14 1 6 2 7 3 3 4 2 5 1 6 4 7 5 8 15 9 8 10 9 11 10 12 11 13
REMARK SMILES IDX 13 15 12 16
REMARK H PARENT
REMARK Flexibility Score: 80.00
ROOT
ATOM      1  C   UNL     1       0.185  15.045  14.573  1.00  0.00    -0.008 C 
ATOM      2  C   UNL     1       1.692  15.435  14.769  1.00  0.00     0.003 C 
ATOM      3  C   UNL     1       2.086  14.728  16.069  1.00  0.00     0.006 C 
ATOM      4  C   UNL     1       1.626  13.350  15.584  1.00  0.00     0.019 C 
ATOM      5  C   UNL     1       0.223  13.636  15.107  1.00  0.00    -0.068 C 
ATOM      6  C   UNL     1      -0.786  12.758  15.102  1.00  0.00     0.009 C 
ATOM      7  C   UNL     1       2.483  13.187  14.312  1.00  0.00     0.008 C 
ATOM      8  C   UNL     1       2.592  14.637  13.783  1.00  0.00     0.005 C 
ATOM      9  C   UNL     1      -0.256  15.059  13.085  1.00  0.00     0.016 C 
ENDROOT
BRANCH   3  10
ATOM     10  C   UNL     1       1.534  15.257  17.447  1.00  0.00    -0.032 C 
ATOM     11  C   UNL     1       2.317  14.525  18.568  1.00  0.00     0.011 C 
ATOM     12  C   UNL     1       1.834  16.766  17.601  1.00  0.00     0.011 C 
BRANCH  10  13
ATOM     13  C   UNL     1       0.028  14.974  17.703  1.00  0.00     0.007 CG0
ATOM     14  G   UNL     1      -1.001  15.764  16.875  1.00  0.00     0.000 G0
ENDBRANCH  10  13
ENDBRANCH   3  10
BRANCH   1  15
ATOM     15  C   UNL     1      -0.740  16.014  15.373  1.00  0.00     0.011 C 
BRANCH  15  16
ATOM     16  C   UNL     1      -1.008  15.755  16.873  1.00  0.00     0.001 CG0
ATOM     17  G   UNL     1       0.016  14.961  17.702  1.00  0.00     0.000 G0
ENDBRANCH  15  16
ENDBRANCH   1  15
TORSDOF 0
ENDMDL
MODEL 5
REMARK VINA RESULT:    -3.537      1.646      3.713
REMARK INTER + INTRA:          -3.090
REMARK INTER:                  -4.373
REMARK INTRA:                   1.284
REMARK UNBOUND:                 1.275
REMARK SMILES C=C1[C@H]2CC[C@@H]3[C@H]2C(C)(C)CCC[C@]13C
REMARK SMILES IDX 14 1 6 2 7 3 3 4 2 5 1 6 4 7 5 8 15 9 8 10 9 11 10 12 11 13
REMARK SMILES IDX 13 15 12 16
REMARK H PARENT
REMARK Flexibility Score: 80.00
ROOT
ATOM      1  C   UNL     1       1.255  15.801  16.765  1.00  0.00    -0.008 C 
ATOM      2  C   UNL     1       1.493  16.166  15.257  1.00  0.00     0.003 C 
ATOM      3  C   UNL     1       0.344  15.464  14.527  1.00  0.00     0.006 C 
ATOM      4  C   UNL     1      -0.742  16.110  15.391  1.00  0.00     0.019 C 
ATOM      5  C   UNL     1      -0.252  15.814  16.787  1.00  0.00    -0.068 C 
ATOM      6  C   UNL     1      -1.030  15.659  17.864  1.00  0.00     0.009 C 
ATOM      7  C   UNL     1      -0.458  17.606  15.148  1.00  0.00     0.008 C 
ATOM      8  C   UNL     1       1.080  17.641  14.983  1.00  0.00     0.005 C 
ATOM      9  C   UNL     1       1.830  16.862  17.741  1.00  0.00     0.016 C 
ENDROOT
BRANCH   3  10
ATOM     10  C   UNL     1       0.349  13.894  14.385  1.00  0.00    -0.032 C 
ATOM     11  C   UNL     1      -0.767  13.519  13.375  1.00  0.00     0.011 C 
ATOM     12  C   UNL     1       1.687  13.415  13.773  1.00  0.00     0.011 C 
BRANCH  10  13
ATOM     13  C   UNL     1       0.041  13.115  15.694  1.00  0.00     0.007 CG0
ATOM     14  G   UNL     1       1.110  13.121  16.801  1.00  0.00     0.000 G0
ENDBRANCH  10  13
ENDBRANCH   3  10
BRANCH   1  15
ATOM     15  C   UNL     1       1.895  14.419  17.102  1.00  0.00     0.011 C 
BRANCH  15  16
ATOM     16  C   UNL     1       1.112  13.120  16.807  1.00  0.00     0.001 CG0
ATOM     17  G   UNL     1       0.039  13.112  15.705  1.00  0.00     0.000 G0
ENDBRANCH  15  16
ENDBRANCH   1  15
TORSDOF 0
ENDMDL
MODEL 6
REMARK VINA RESULT:    -3.386      1.436      3.270
REMARK INTER + INTRA:          -2.903
REMARK INTER:                  -4.181
REMARK INTRA:                   1.278
REMARK UNBOUND:                 1.275
REMARK SMILES C=C1[C@H]2CC[C@@H]3[C@H]2C(C)(C)CCC[C@]13C
REMARK SMILES IDX 14 1 6 2 7 3 3 4 2 5 1 6 4 7 5 8 15 9 8 10 9 11 10 12 11 13
REMARK SMILES IDX 13 15 12 16
REMARK H PARENT
REMARK Flexibility Score: 80.00
ROOT
ATOM      1  C   UNL     1       0.962  13.295  14.849  1.00  0.00    -0.008 C 
ATOM      2  C   UNL     1      -0.258  14.137  14.335  1.00  0.00     0.003 C 
ATOM      3  C   UNL     1       0.213  15.587  14.481  1.00  0.00     0.006 C 
ATOM      4  C   UNL     1       1.490  15.367  13.666  1.00  0.00     0.019 C 
ATOM      5  C   UNL     1       2.089  14.157  14.339  1.00  0.00    -0.068 C 
ATOM      6  C   UNL     1       3.395  13.875  14.405  1.00  0.00     0.009 C 
ATOM      7  C   UNL     1       0.902  14.865  12.332  1.00  0.00     0.008 C 
ATOM      8  C   UNL     1      -0.349  14.073  12.783  1.00  0.00     0.005 C 
ATOM      9  C   UNL     1       1.025  11.877  14.221  1.00  0.00     0.016 C 
ENDROOT
BRANCH   3  10
ATOM     10  C   UNL     1       0.344  16.228  15.915  1.00  0.00    -0.032 C 
ATOM     11  C   UNL     1       0.567  17.750  15.722  1.00  0.00     0.011 C 
ATOM     12  C   UNL     1      -0.980  16.064  16.699  1.00  0.00     0.011 C 
BRANCH  10  13
ATOM     13  C   UNL     1       1.542  15.709  16.759  1.00  0.00     0.007 CG0
ATOM     14  G   UNL     1       1.477  14.265  17.285  1.00  0.00     0.000 G0
ENDBRANCH  10  13
ENDBRANCH   3  10
BRANCH   1  15
ATOM     15  C   UNL     1       0.913  13.147  16.401  1.00  0.00     0.011 C 
BRANCH  15  16
ATOM     16  C   UNL     1       1.481  14.271  17.296  1.00  0.00     0.001 CG0
ATOM     17  G   UNL     1       1.539  15.713  16.762  1.00  0.00     0.000 G0
ENDBRANCH  15  16
ENDBRANCH   1  15
TORSDOF 0
ENDMDL
MODEL 7
REMARK VINA RESULT:    -3.335      1.833      4.107
REMARK INTER + INTRA:          -2.840
REMARK INTER:                  -4.118
REMARK INTRA:                   1.278
REMARK UNBOUND:                 1.275
REMARK SMILES C=C1[C@H]2CC[C@@H]3[C@H]2C(C)(C)CCC[C@]13C
REMARK SMILES IDX 14 1 6 2 7 3 3 4 2 5 1 6 4 7 5 8 15 9 8 10 9 11 10 12 11 13
REMARK SMILES IDX 13 15 12 16
REMARK H PARENT
REMARK Flexibility Score: 80.00
ROOT
ATOM      1  C   UNL     1      -0.316  14.209  16.535  1.00  0.00    -0.008 C 
ATOM      2  C   UNL     1       1.179  13.758  16.687  1.00  0.00     0.003 C 
ATOM      3  C   UNL     1       1.914  14.564  15.611  1.00  0.00     0.006 C 
ATOM      4  C   UNL     1       1.383  15.912  16.106  1.00  0.00     0.019 C 
ATOM      5  C   UNL     1      -0.102  15.658  16.179  1.00  0.00    -0.068 C 
ATOM      6  C   UNL     1      -1.054  16.584  16.021  1.00  0.00     0.009 C 
ATOM      7  C   UNL     1       1.888  15.908  17.563  1.00  0.00     0.008 C 
ATOM      8  C   UNL     1       1.817  14.411  17.947  1.00  0.00     0.005 C 
ATOM      9  C   UNL     1      -1.125  14.078  17.853  1.00  0.00     0.016 C 
ENDROOT
BRANCH   3  10
ATOM     10  C   UNL     1       1.721  14.198  14.091  1.00  0.00    -0.032 C 
ATOM     11  C   UNL     1       2.783  14.992  13.287  1.00  0.00     0.011 C 
ATOM     12  C   UNL     1       2.012  12.696  13.858  1.00  0.00     0.011 C 
BRANCH  10  13
ATOM     13  C   UNL     1       0.338  14.581  13.494  1.00  0.00     0.007 CG0
ATOM     14  G   UNL     1      -0.890  13.774  13.951  1.00  0.00     0.000 G0
ENDBRANCH  10  13
ENDBRANCH   3  10
BRANCH   1  15
ATOM     15  C   UNL     1      -1.031  13.371  15.430  1.00  0.00     0.011 C 
BRANCH  15  16
ATOM     16  C   UNL     1      -0.895  13.784  13.947  1.00  0.00     0.001 CG0
ATOM     17  G   UNL     1       0.338  14.584  13.490  1.00  0.00     0.000 G0
ENDBRANCH  15  16
ENDBRANCH   1  15
TORSDOF 0
ENDMDL
MODEL 8
REMARK VINA RESULT:    -3.130      2.230      4.452
REMARK INTER + INTRA:          -2.587
REMARK INTER:                  -3.874
REMARK INTRA:                   1.287
REMARK UNBOUND:                 1.275
REMARK SMILES C=C1[C@H]2CC[C@@H]3[C@H]2C(C)(C)CCC[C@]13C
REMARK SMILES IDX 14 1 6 2 7 3 3 4 2 5 1 6 4 7 5 8 15 9 8 10 9 11 10 12 11 13
REMARK SMILES IDX 13 15 12 16
REMARK H PARENT
REMARK Flexibility Score: 80.00
ROOT
ATOM      1  C   UNL     1       1.702  14.568  16.024  1.00  0.00    -0.008 C 
ATOM      2  C   UNL     1       1.496  16.055  15.566  1.00  0.00     0.003 C 
ATOM      3  C   UNL     1       0.551  15.938  14.366  1.00  0.00     0.006 C 
ATOM      4  C   UNL     1      -0.502  15.139  15.137  1.00  0.00     0.019 C 
ATOM      5  C   UNL     1       0.324  14.029  15.740  1.00  0.00    -0.068 C 
ATOM      6  C   UNL     1      -0.123  12.802  16.030  1.00  0.00     0.009 C 
ATOM      7  C   UNL     1      -0.819  16.110  16.293  1.00  0.00     0.008 C 
ATOM      8  C   UNL     1       0.544  16.798  16.546  1.00  0.00     0.005 C 
ATOM      9  C   UNL     1       2.044  14.442  17.533  1.00  0.00     0.016 C 
ENDROOT
BRANCH   3  10
ATOM     10  C   UNL     1       1.084  15.353  13.004  1.00  0.00    -0.032 C 
ATOM     11  C   UNL     1      -0.003  15.623  11.930  1.00  0.00     0.011 C 
ATOM     12  C   UNL     1       2.356  16.110  12.555  1.00  0.00     0.011 C 
BRANCH  10  13
ATOM     13  C   UNL     1       1.335  13.819  13.002  1.00  0.00     0.007 CG0
ATOM     14  G   UNL     1       2.523  13.286  13.821  1.00  0.00     0.000 G0
ENDBRANCH  10  13
ENDBRANCH   3  10
BRANCH   1  15
ATOM     15  C   UNL     1       2.842  13.894  15.200  1.00  0.00     0.011 C 
BRANCH  15  16
ATOM     16  C   UNL     1       2.530  13.287  13.814  1.00  0.00     0.001 CG0
ATOM     17  G   UNL     1       1.336  13.818  13.002  1.00  0.00     0.000 G0
ENDBRANCH  15  16
ENDBRANCH   1  15
TORSDOF 0
ENDMDL
MODEL 9
REMARK VINA RESULT:    -2.993      2.426      4.366
REMARK INTER + INTRA:          -2.419
REMARK INTER:                  -3.696
REMARK INTRA:                   1.278
REMARK UNBOUND:                 1.275
REMARK SMILES C=C1[C@H]2CC[C@@H]3[C@H]2C(C)(C)CCC[C@]13C
REMARK SMILES IDX 14 1 6 2 7 3 3 4 2 5 1 6 4 7 5 8 15 9 8 10 9 11 10 12 11 13
REMARK SMILES IDX 13 15 12 16
REMARK H PARENT
REMARK Flexibility Score: 80.00
ROOT
ATOM      1  C   UNL     1       0.070  15.997  12.896  1.00  0.00    -0.008 C 
ATOM      2  C   UNL     1      -0.590  15.761  14.300  1.00  0.00     0.003 C 
ATOM      3  C   UNL     1       0.594  15.406  15.205  1.00  0.00     0.006 C 
ATOM      4  C   UNL     1       1.385  16.666  14.844  1.00  0.00     0.019 C 
ATOM      5  C   UNL     1       1.366  16.630  13.336  1.00  0.00    -0.068 C 
ATOM      6  C   UNL     1       2.311  17.137  12.537  1.00  0.00     0.009 C 
ATOM      7  C   UNL     1       0.387  17.767  15.257  1.00  0.00     0.008 C 
ATOM      8  C   UNL     1      -0.984  17.119  14.950  1.00  0.00     0.005 C 
ATOM      9  C   UNL     1      -0.743  16.969  12.001  1.00  0.00     0.016 C 
ENDROOT
BRANCH   3  10
ATOM     10  C   UNL     1       1.305  14.008  15.051  1.00  0.00    -0.032 C 
ATOM     11  C   UNL     1       2.259  13.841  16.263  1.00  0.00     0.011 C 
ATOM     12  C   UNL     1       0.266  12.865  15.136  1.00  0.00     0.011 C 
BRANCH  10  13
ATOM     13  C   UNL     1       2.180  13.853  13.776  1.00  0.00     0.007 CG0
ATOM     14  G   UNL     1       1.460  13.747  12.421  1.00  0.00     0.000 G0
ENDBRANCH  10  13
ENDBRANCH   3  10
BRANCH   1  15
ATOM     15  C   UNL     1       0.237  14.645  12.136  1.00  0.00     0.011 C 
BRANCH  15  16
ATOM     16  C   UNL     1       1.467  13.754  12.418  1.00  0.00     0.001 CG0
ATOM     17  G   UNL     1       2.182  13.851  13.776  1.00  0.00     0.000 G0
ENDBRANCH  15  16
ENDBRANCH   1  15
TORSDOF 0
ENDMDL
