MODEL 1
REMARK VINA RESULT:    -5.042      0.000      0.000
REMARK INTER + INTRA:          -6.052
REMARK INTER:                  -5.926
REMARK INTRA:                  -0.126
REMARK UNBOUND:                -0.126
REMARK SMILES O=C([O-])C=Cc1ccc(O)c(O)c1
REMARK SMILES IDX 6 1 13 2 7 3 11 4 8 5 9 6 5 7 4 8 2 9 1 10 3 11 12 12 10 14
REMARK H PARENT 12 13 10 15
REMARK Flexibility Score: inf
ROOT
ATOM      1  C   UNL     1      20.851  -0.316 -20.665  1.00  0.00    -0.022 A 
ATOM      2  C   UNL     1      21.130   0.944 -20.110  1.00  0.00     0.058 A 
ATOM      3  C   UNL     1      21.049  -0.508 -22.047  1.00  0.00     0.012 A 
ATOM      4  C   UNL     1      21.572   2.003 -20.918  1.00  0.00     0.157 A 
ATOM      5  C   UNL     1      21.491   0.546 -22.851  1.00  0.00     0.051 A 
ATOM      6  C   UNL     1      21.750   1.801 -22.295  1.00  0.00     0.157 A 
ENDROOT
BRANCH   1   7
ATOM      7  C   UNL     1      20.395  -1.404 -19.765  1.00  0.00     0.010 C 
ATOM      8  C   UNL     1      19.266  -1.352 -19.045  1.00  0.00     0.025 C 
BRANCH   8   9
ATOM      9  C   UNL     1      18.851  -2.447 -18.152  1.00  0.00     0.064 C 
ATOM     10  O   UNL     1      18.516  -2.223 -16.958  1.00  0.00    -0.545 OA
ATOM     11  O   UNL     1      18.831  -3.749 -18.632  1.00  0.00    -0.545 OA
ENDBRANCH   8   9
ENDBRANCH   1   7
BRANCH   4  12
ATOM     12  O   UNL     1      21.835   3.250 -20.354  1.00  0.00    -0.504 OA
ATOM     13  H   UNL     1      22.516   3.366 -19.613  1.00  0.00     0.293 HD
ENDBRANCH   4  12
BRANCH   6  14
ATOM     14  O   UNL     1      22.188   2.833 -23.125  1.00  0.00    -0.504 OA
ATOM     15  H   UNL     1      22.731   3.613 -22.773  1.00  0.00     0.293 HD
ENDBRANCH   6  14
TORSDOF 4
ENDMDL
MODEL 2
REMARK VINA RESULT:    -5.028      1.080      1.586
REMARK INTER + INTRA:          -6.036
REMARK INTER:                  -5.903
REMARK INTRA:                  -0.133
REMARK UNBOUND:                -0.126
REMARK SMILES O=C([O-])C=Cc1ccc(O)c(O)c1
REMARK SMILES IDX 6 1 13 2 7 3 11 4 8 5 9 6 5 7 4 8 2 9 1 10 3 11 12 12 10 14
REMARK H PARENT 12 13 10 15
REMARK Flexibility Score: inf
ROOT
ATOM      1  C   UNL     1      20.330  -0.562 -19.971  1.00  0.00    -0.022 A 
ATOM      2  C   UNL     1      20.727   0.773 -19.785  1.00  0.00     0.058 A 
ATOM      3  C   UNL     1      20.569  -1.174 -21.217  1.00  0.00     0.012 A 
ATOM      4  C   UNL     1      21.327   1.495 -20.827  1.00  0.00     0.157 A 
ATOM      5  C   UNL     1      21.167  -0.455 -22.255  1.00  0.00     0.051 A 
ATOM      6  C   UNL     1      21.545   0.877 -22.069  1.00  0.00     0.157 A 
ENDROOT
BRANCH   1   7
ATOM      7  C   UNL     1      19.709  -1.283 -18.832  1.00  0.00     0.010 C 
ATOM      8  C   UNL     1      19.017  -0.680 -17.856  1.00  0.00     0.025 C 
BRANCH   8   9
ATOM      9  C   UNL     1      18.424  -1.428 -16.734  1.00  0.00     0.064 C 
ATOM     10  O   UNL     1      18.387  -2.688 -16.738  1.00  0.00    -0.545 OA
ATOM     11  O   UNL     1      17.896  -0.733 -15.655  1.00  0.00    -0.545 OA
ENDBRANCH   8   9
ENDBRANCH   1   7
BRANCH   4  12
ATOM     12  O   UNL     1      21.707   2.822 -20.632  1.00  0.00    -0.504 OA
ATOM     13  H   UNL     1      21.376   3.564 -21.237  1.00  0.00     0.293 HD
ENDBRANCH   4  12
BRANCH   6  14
ATOM     14  O   UNL     1      22.139   1.568 -23.125  1.00  0.00    -0.504 OA
ATOM     15  H   UNL     1      21.625   1.815 -23.962  1.00  0.00     0.293 HD
ENDBRANCH   6  14
TORSDOF 4
ENDMDL
MODEL 3
REMARK VINA RESULT:    -5.023      1.659      5.587
REMARK INTER + INTRA:          -6.030
REMARK INTER:                  -5.896
REMARK INTRA:                  -0.134
REMARK UNBOUND:                -0.126
REMARK SMILES O=C([O-])C=Cc1ccc(O)c(O)c1
REMARK SMILES IDX 6 1 13 2 7 3 11 4 8 5 9 6 5 7 4 8 2 9 1 10 3 11 12 12 10 14
REMARK H PARENT 12 13 10 15
REMARK Flexibility Score: inf
ROOT
ATOM      1  C   UNL     1      20.002  -0.909 -19.570  1.00  0.00    -0.022 A 
ATOM      2  C   UNL     1      19.793   0.164 -18.687  1.00  0.00     0.058 A 
ATOM      3  C   UNL     1      19.495  -2.178 -19.227  1.00  0.00     0.012 A 
ATOM      4  C   UNL     1      19.115  -0.026 -17.473  1.00  0.00     0.157 A 
ATOM      5  C   UNL     1      18.820  -2.368 -18.019  1.00  0.00     0.051 A 
ATOM      6  C   UNL     1      18.630  -1.300 -17.138  1.00  0.00     0.157 A 
ENDROOT
BRANCH   1   7
ATOM      7  C   UNL     1      20.716  -0.651 -20.845  1.00  0.00     0.010 C 
ATOM      8  C   UNL     1      21.150   0.559 -21.224  1.00  0.00     0.025 C 
BRANCH   8   9
ATOM      9  C   UNL     1      21.844   0.780 -22.504  1.00  0.00     0.064 C 
ATOM     10  O   UNL     1      21.863   1.917 -23.048  1.00  0.00    -0.545 OA
ATOM     11  O   UNL     1      22.488  -0.282 -23.123  1.00  0.00    -0.545 OA
ENDBRANCH   8   9
ENDBRANCH   1   7
BRANCH   4  12
ATOM     12  O   UNL     1      18.924   1.046 -16.602  1.00  0.00    -0.504 OA
ATOM     13  H   UNL     1      18.869   0.912 -15.600  1.00  0.00     0.293 HD
ENDBRANCH   4  12
BRANCH   6  14
ATOM     14  O   UNL     1      17.953  -1.522 -15.939  1.00  0.00    -0.504 OA
ATOM     15  H   UNL     1      17.050  -1.105 -15.746  1.00  0.00     0.293 HD
ENDBRANCH   6  14
TORSDOF 4
ENDMDL
MODEL 4
REMARK VINA RESULT:    -4.979     17.710     18.831
REMARK INTER + INTRA:          -5.978
REMARK INTER:                  -5.846
REMARK INTRA:                  -0.133
REMARK UNBOUND:                -0.126
REMARK SMILES O=C([O-])C=Cc1ccc(O)c(O)c1
REMARK SMILES IDX 6 1 13 2 7 3 11 4 8 5 9 6 5 7 4 8 2 9 1 10 3 11 12 12 10 14
REMARK H PARENT 12 13 10 15
REMARK Flexibility Score: inf
ROOT
ATOM      1  C   UNL     1       8.434  -7.235  -8.472  1.00  0.00    -0.022 A 
ATOM      2  C   UNL     1       7.716  -6.743  -7.369  1.00  0.00     0.058 A 
ATOM      3  C   UNL     1       9.790  -6.879  -8.613  1.00  0.00     0.012 A 
ATOM      4  C   UNL     1       8.328  -5.890  -6.437  1.00  0.00     0.157 A 
ATOM      5  C   UNL     1      10.399  -6.030  -7.685  1.00  0.00     0.051 A 
ATOM      6  C   UNL     1       9.675  -5.531  -6.599  1.00  0.00     0.157 A 
ENDROOT
BRANCH   1   7
ATOM      7  C   UNL     1       7.743  -8.141  -9.422  1.00  0.00     0.010 C 
ATOM      8  C   UNL     1       7.863  -8.056 -10.754  1.00  0.00     0.025 C 
BRANCH   8   9
ATOM      9  C   UNL     1       7.152  -8.966 -11.668  1.00  0.00     0.064 C 
ATOM     10  O   UNL     1       7.574  -9.177 -12.837  1.00  0.00    -0.545 OA
ATOM     11  O   UNL     1       5.997  -9.601 -11.235  1.00  0.00    -0.545 OA
ENDBRANCH   8   9
ENDBRANCH   1   7
BRANCH   4  12
ATOM     12  O   UNL     1       7.600  -5.401  -5.353  1.00  0.00    -0.504 OA
ATOM     13  H   UNL     1       8.047  -5.172  -4.473  1.00  0.00     0.293 HD
ENDBRANCH   4  12
BRANCH   6  14
ATOM     14  O   UNL     1      10.311  -4.686  -5.690  1.00  0.00    -0.504 OA
ATOM     15  H   UNL     1       9.869  -3.845  -5.337  1.00  0.00     0.293 HD
ENDBRANCH   6  14
TORSDOF 4
ENDMDL
MODEL 5
REMARK VINA RESULT:    -4.960      1.728      2.536
REMARK INTER + INTRA:          -5.956
REMARK INTER:                  -5.821
REMARK INTRA:                  -0.135
REMARK UNBOUND:                -0.126
REMARK SMILES O=C([O-])C=Cc1ccc(O)c(O)c1
REMARK SMILES IDX 6 1 13 2 7 3 11 4 8 5 9 6 5 7 4 8 2 9 1 10 3 11 12 12 10 14
REMARK H PARENT 12 13 10 15
REMARK Flexibility Score: inf
ROOT
ATOM      1  C   UNL     1      20.333  -0.494 -19.458  1.00  0.00    -0.022 A 
ATOM      2  C   UNL     1      20.273  -1.097 -20.725  1.00  0.00     0.058 A 
ATOM      3  C   UNL     1      20.935   0.774 -19.337  1.00  0.00     0.012 A 
ATOM      4  C   UNL     1      20.825  -0.463 -21.849  1.00  0.00     0.157 A 
ATOM      5  C   UNL     1      21.484   1.406 -20.455  1.00  0.00     0.051 A 
ATOM      6  C   UNL     1      21.436   0.793 -21.711  1.00  0.00     0.157 A 
ENDROOT
BRANCH   1   7
ATOM      7  C   UNL     1      19.724  -1.203 -18.305  1.00  0.00     0.010 C 
ATOM      8  C   UNL     1      18.864  -0.633 -17.450  1.00  0.00     0.025 C 
BRANCH   8   9
ATOM      9  C   UNL     1      18.289  -1.364 -16.308  1.00  0.00     0.064 C 
ATOM     10  O   UNL     1      17.854  -0.753 -15.295  1.00  0.00    -0.545 OA
ATOM     11  O   UNL     1      18.225  -2.750 -16.347  1.00  0.00    -0.545 OA
ENDBRANCH   8   9
ENDBRANCH   1   7
BRANCH   4  12
ATOM     12  O   UNL     1      20.768  -1.078 -23.099  1.00  0.00    -0.504 OA
ATOM     13  H   UNL     1      19.962  -0.976 -23.704  1.00  0.00     0.293 HD
ENDBRANCH   4  12
BRANCH   6  14
ATOM     14  O   UNL     1      21.994   1.449 -22.807  1.00  0.00    -0.504 OA
ATOM     15  H   UNL     1      22.815   1.096 -23.284  1.00  0.00     0.293 HD
ENDBRANCH   6  14
TORSDOF 4
ENDMDL
MODEL 6
REMARK VINA RESULT:    -4.919     17.082     18.426
REMARK INTER + INTRA:          -5.907
REMARK INTER:                  -5.777
REMARK INTRA:                  -0.130
REMARK UNBOUND:                -0.126
REMARK SMILES O=C([O-])C=Cc1ccc(O)c(O)c1
REMARK SMILES IDX 6 1 13 2 7 3 11 4 8 5 9 6 5 7 4 8 2 9 1 10 3 11 12 12 10 14
REMARK H PARENT 12 13 10 15
REMARK Flexibility Score: inf
ROOT
ATOM      1  C   UNL     1       8.314  -7.493  -8.760  1.00  0.00    -0.022 A 
ATOM      2  C   UNL     1       9.661  -7.183  -9.015  1.00  0.00     0.058 A 
ATOM      3  C   UNL     1       7.686  -6.915  -7.639  1.00  0.00     0.012 A 
ATOM      4  C   UNL     1      10.378  -6.337  -8.157  1.00  0.00     0.157 A 
ATOM      5  C   UNL     1       8.400  -6.072  -6.784  1.00  0.00     0.051 A 
ATOM      6  C   UNL     1       9.744  -5.781  -7.034  1.00  0.00     0.157 A 
ENDROOT
BRANCH   1   7
ATOM      7  C   UNL     1       7.599  -8.385  -9.706  1.00  0.00     0.010 C 
ATOM      8  C   UNL     1       7.709  -8.300 -11.038  1.00  0.00     0.025 C 
BRANCH   8   9
ATOM      9  C   UNL     1       6.974  -9.195 -11.947  1.00  0.00     0.064 C 
ATOM     10  O   UNL     1       7.408  -9.452 -13.103  1.00  0.00    -0.545 OA
ATOM     11  O   UNL     1       5.781  -9.766 -11.526  1.00  0.00    -0.545 OA
ENDBRANCH   8   9
ENDBRANCH   1   7
BRANCH   4  12
ATOM     12  O   UNL     1      11.717  -6.047  -8.416  1.00  0.00    -0.504 OA
ATOM     13  H   UNL     1      12.214  -5.328  -7.903  1.00  0.00     0.293 HD
ENDBRANCH   4  12
BRANCH   6  14
ATOM     14  O   UNL     1      10.429  -4.937  -6.162  1.00  0.00    -0.504 OA
ATOM     15  H   UNL     1      10.420  -3.930  -6.270  1.00  0.00     0.293 HD
ENDBRANCH   6  14
TORSDOF 4
ENDMDL
MODEL 7
REMARK VINA RESULT:    -4.906     14.996     18.135
REMARK INTER + INTRA:          -5.892
REMARK INTER:                  -5.759
REMARK INTRA:                  -0.133
REMARK UNBOUND:                -0.126
REMARK SMILES O=C([O-])C=Cc1ccc(O)c(O)c1
REMARK SMILES IDX 6 1 13 2 7 3 11 4 8 5 9 6 5 7 4 8 2 9 1 10 3 11 12 12 10 14
REMARK H PARENT 12 13 10 15
REMARK Flexibility Score: inf
ROOT
ATOM      1  C   UNL     1       9.438  -6.842  -8.239  1.00  0.00    -0.022 A 
ATOM      2  C   UNL     1      10.225  -5.996  -7.439  1.00  0.00     0.058 A 
ATOM      3  C   UNL     1       8.103  -7.088  -7.860  1.00  0.00     0.012 A 
ATOM      4  C   UNL     1       9.702  -5.426  -6.268  1.00  0.00     0.157 A 
ATOM      5  C   UNL     1       7.583  -6.520  -6.694  1.00  0.00     0.051 A 
ATOM      6  C   UNL     1       8.376  -5.692  -5.894  1.00  0.00     0.157 A 
ENDROOT
BRANCH   1   7
ATOM      7  C   UNL     1      10.035  -7.410  -9.473  1.00  0.00     0.010 C 
ATOM      8  C   UNL     1      11.247  -7.076  -9.936  1.00  0.00     0.025 C 
BRANCH   8   9
ATOM      9  C   UNL     1      11.804  -7.652 -11.172  1.00  0.00     0.064 C 
ATOM     10  O   UNL     1      12.996  -8.060 -11.222  1.00  0.00    -0.545 OA
ATOM     11  O   UNL     1      11.003  -7.747 -12.301  1.00  0.00    -0.545 OA
ENDBRANCH   8   9
ENDBRANCH   1   7
BRANCH   4  12
ATOM     12  O   UNL     1      10.498  -4.597  -5.478  1.00  0.00    -0.504 OA
ATOM     13  H   UNL     1      10.870  -3.724  -5.832  1.00  0.00     0.293 HD
ENDBRANCH   4  12
BRANCH   6  14
ATOM     14  O   UNL     1       7.828  -5.142  -4.736  1.00  0.00    -0.504 OA
ATOM     15  H   UNL     1       6.902  -5.390  -4.408  1.00  0.00     0.293 HD
ENDBRANCH   6  14
TORSDOF 4
ENDMDL
MODEL 8
REMARK VINA RESULT:    -4.857     15.636     17.118
REMARK INTER + INTRA:          -5.834
REMARK INTER:                  -5.708
REMARK INTRA:                  -0.127
REMARK UNBOUND:                -0.126
REMARK SMILES O=C([O-])C=Cc1ccc(O)c(O)c1
REMARK SMILES IDX 6 1 13 2 7 3 11 4 8 5 9 6 5 7 4 8 2 9 1 10 3 11 12 12 10 14
REMARK H PARENT 12 13 10 15
REMARK Flexibility Score: inf
ROOT
ATOM      1  C   UNL     1       8.700  -5.204 -10.634  1.00  0.00    -0.022 A 
ATOM      2  C   UNL     1       8.018  -5.100  -9.410  1.00  0.00     0.058 A 
ATOM      3  C   UNL     1      10.029  -5.672 -10.633  1.00  0.00     0.012 A 
ATOM      4  C   UNL     1       8.654  -5.429  -8.204  1.00  0.00     0.157 A 
ATOM      5  C   UNL     1      10.662  -6.000  -9.432  1.00  0.00     0.051 A 
ATOM      6  C   UNL     1       9.984  -5.878  -8.216  1.00  0.00     0.157 A 
ENDROOT
BRANCH   1   7
ATOM      7  C   UNL     1       7.978  -4.853 -11.882  1.00  0.00     0.010 C 
ATOM      8  C   UNL     1       7.767  -3.595 -12.293  1.00  0.00     0.025 C 
BRANCH   8   9
ATOM      9  C   UNL     1       7.035  -3.284 -13.532  1.00  0.00     0.064 C 
ATOM     10  O   UNL     1       7.105  -4.040 -14.538  1.00  0.00    -0.545 OA
ATOM     11  O   UNL     1       6.255  -2.137 -13.594  1.00  0.00    -0.545 OA
ENDBRANCH   8   9
ENDBRANCH   1   7
BRANCH   4  12
ATOM     12  O   UNL     1       7.968  -5.311  -6.996  1.00  0.00    -0.504 OA
ATOM     13  H   UNL     1       8.292  -5.771  -6.154  1.00  0.00     0.293 HD
ENDBRANCH   4  12
BRANCH   6  14
ATOM     14  O   UNL     1      10.644  -6.213  -7.035  1.00  0.00    -0.504 OA
ATOM     15  H   UNL     1      11.298  -5.582  -6.586  1.00  0.00     0.293 HD
ENDBRANCH   6  14
TORSDOF 4
ENDMDL
MODEL 9
REMARK VINA RESULT:    -4.809     14.448     18.705
REMARK INTER + INTRA:          -5.778
REMARK INTER:                  -5.648
REMARK INTRA:                  -0.130
REMARK UNBOUND:                -0.126
REMARK SMILES O=C([O-])C=Cc1ccc(O)c(O)c1
REMARK SMILES IDX 6 1 13 2 7 3 11 4 8 5 9 6 5 7 4 8 2 9 1 10 3 11 12 12 10 14
REMARK H PARENT 12 13 10 15
REMARK Flexibility Score: inf
ROOT
ATOM      1  C   UNL     1       9.568  -6.592  -7.824  1.00  0.00    -0.022 A 
ATOM      2  C   UNL     1       8.973  -5.686  -6.929  1.00  0.00     0.058 A 
ATOM      3  C   UNL     1       9.330  -7.970  -7.652  1.00  0.00     0.012 A 
ATOM      4  C   UNL     1       8.179  -6.143  -5.866  1.00  0.00     0.157 A 
ATOM      5  C   UNL     1       8.539  -8.426  -6.594  1.00  0.00     0.051 A 
ATOM      6  C   UNL     1       7.965  -7.520  -5.698  1.00  0.00     0.157 A 
ENDROOT
BRANCH   1   7
ATOM      7  C   UNL     1      10.390  -6.056  -8.936  1.00  0.00     0.010 C 
ATOM      8  C   UNL     1      11.698  -6.303  -9.083  1.00  0.00     0.025 C 
BRANCH   8   9
ATOM      9  C   UNL     1      12.486  -5.743 -10.194  1.00  0.00     0.064 C 
ATOM     10  O   UNL     1      13.640  -5.272 -10.003  1.00  0.00    -0.545 OA
ATOM     11  O   UNL     1      11.948  -5.733 -11.473  1.00  0.00    -0.545 OA
ENDBRANCH   8   9
ENDBRANCH   1   7
BRANCH   4  12
ATOM     12  O   UNL     1       7.604  -5.234  -4.980  1.00  0.00    -0.504 OA
ATOM     13  H   UNL     1       7.048  -4.453  -5.307  1.00  0.00     0.293 HD
ENDBRANCH   4  12
BRANCH   6  14
ATOM     14  O   UNL     1       7.181  -8.006  -4.652  1.00  0.00    -0.504 OA
ATOM     15  H   UNL     1       7.277  -8.953  -4.302  1.00  0.00     0.293 HD
ENDBRANCH   6  14
TORSDOF 4
ENDMDL
