MODEL 1
REMARK VINA RESULT:    -4.610      0.000      0.000
REMARK INTER + INTRA:          -5.259
REMARK INTER:                  -5.149
REMARK INTRA:                  -0.110
REMARK UNBOUND:                -0.110
REMARK SMILES COc1cc2ccc(=O)oc2cc1OC
REMARK SMILES IDX 3 1 13 2 12 3 11 4 5 5 4 6 6 7 7 8 8 9 9 10 10 11 2 12 1 13
REMARK SMILES IDX 14 14 15 15
REMARK H PARENT
REMARK Flexibility Score: inf
ROOT
ATOM      1  C   UNL     1       9.277  -0.419  17.910  1.00  0.00     0.161 A 
ATOM      2  C   UNL     1       9.839  -1.400  17.077  1.00  0.00     0.164 A 
ATOM      3  C   UNL     1      11.194  -1.757  17.231  1.00  0.00     0.098 A 
ATOM      4  C   UNL     1      11.981  -1.141  18.208  1.00  0.00     0.142 A 
ATOM      5  C   UNL     1      11.417  -0.157  19.044  1.00  0.00     0.022 A 
ATOM      6  C   UNL     1      10.073   0.202  18.894  1.00  0.00     0.062 A 
ATOM      7  C   UNL     1      12.231   0.441  20.012  1.00  0.00     0.019 A 
ATOM      8  C   UNL     1      13.565   0.051  20.121  1.00  0.00     0.094 A 
ATOM      9  C   UNL     1      14.055  -0.935  19.256  1.00  0.00     0.336 A 
ATOM     10  O   UNL     1      15.257  -1.301  19.339  1.00  0.00    -0.246 OA
ATOM     11  O   UNL     1      13.259  -1.486  18.344  1.00  0.00    -0.423 OA
ENDROOT
BRANCH   1  12
ATOM     12  O   UNL     1       7.925  -0.087  17.728  1.00  0.00    -0.493 OA
ATOM     13  C   UNL     1       7.371   1.203  17.964  1.00  0.00     0.278 C 
ENDBRANCH   1  12
BRANCH   2  14
ATOM     14  O   UNL     1       9.019  -1.998  16.106  1.00  0.00    -0.493 OA
ATOM     15  C   UNL     1       9.421  -2.272  14.768  1.00  0.00     0.278 C 
ENDBRANCH   2  14
TORSDOF 2
ENDMDL
MODEL 2
REMARK VINA RESULT:    -4.571      1.615      3.101
REMARK INTER + INTRA:          -5.215
REMARK INTER:                  -5.052
REMARK INTRA:                  -0.163
REMARK UNBOUND:                -0.110
REMARK SMILES COc1cc2ccc(=O)oc2cc1OC
REMARK SMILES IDX 3 1 13 2 12 3 11 4 5 5 4 6 6 7 7 8 8 9 9 10 10 11 2 12 1 13
REMARK SMILES IDX 14 14 15 15
REMARK H PARENT
REMARK Flexibility Score: inf
ROOT
ATOM      1  C   UNL     1       9.140   0.471  18.133  1.00  0.00     0.161 A 
ATOM      2  C   UNL     1       9.817   1.564  18.699  1.00  0.00     0.164 A 
ATOM      3  C   UNL     1      11.172   1.435  19.063  1.00  0.00     0.098 A 
ATOM      4  C   UNL     1      11.847   0.228  18.864  1.00  0.00     0.142 A 
ATOM      5  C   UNL     1      11.168  -0.869  18.296  1.00  0.00     0.022 A 
ATOM      6  C   UNL     1       9.821  -0.747  17.933  1.00  0.00     0.062 A 
ATOM      7  C   UNL     1      11.870  -2.064  18.110  1.00  0.00     0.019 A 
ATOM      8  C   UNL     1      13.211  -2.137  18.488  1.00  0.00     0.094 A 
ATOM      9  C   UNL     1      13.819  -1.006  19.045  1.00  0.00     0.336 A 
ATOM     10  O   UNL     1      15.028  -1.052  19.394  1.00  0.00    -0.246 OA
ATOM     11  O   UNL     1      13.126   0.118  19.212  1.00  0.00    -0.423 OA
ENDROOT
BRANCH   1  12
ATOM     12  O   UNL     1       7.790   0.634  17.782  1.00  0.00    -0.493 OA
ATOM     13  C   UNL     1       6.692   0.173  18.562  1.00  0.00     0.278 C 
ENDBRANCH   1  12
BRANCH   2  14
ATOM     14  O   UNL     1       9.108   2.761  18.884  1.00  0.00    -0.493 OA
ATOM     15  C   UNL     1       8.529   3.174  20.119  1.00  0.00     0.278 C 
ENDBRANCH   2  14
TORSDOF 2
ENDMDL
MODEL 3
REMARK VINA RESULT:    -4.487      2.850      5.192
REMARK INTER + INTRA:          -5.122
REMARK INTER:                  -5.020
REMARK INTRA:                  -0.102
REMARK UNBOUND:                -0.110
REMARK SMILES COc1cc2ccc(=O)oc2cc1OC
REMARK SMILES IDX 3 1 13 2 12 3 11 4 5 5 4 6 6 7 7 8 8 9 9 10 10 11 2 12 1 13
REMARK SMILES IDX 14 14 15 15
REMARK H PARENT
REMARK Flexibility Score: inf
ROOT
ATOM      1  C   UNL     1       8.409  -2.541  18.760  1.00  0.00     0.161 A 
ATOM      2  C   UNL     1       9.309  -1.462  18.758  1.00  0.00     0.164 A 
ATOM      3  C   UNL     1       9.910  -1.054  17.550  1.00  0.00     0.098 A 
ATOM      4  C   UNL     1       9.616  -1.714  16.355  1.00  0.00     0.142 A 
ATOM      5  C   UNL     1       8.712  -2.796  16.356  1.00  0.00     0.022 A 
ATOM      6  C   UNL     1       8.114  -3.207  17.553  1.00  0.00     0.062 A 
ATOM      7  C   UNL     1       8.438  -3.437  15.144  1.00  0.00     0.019 A 
ATOM      8  C   UNL     1       9.061  -2.992  13.978  1.00  0.00     0.094 A 
ATOM      9  C   UNL     1       9.946  -1.911  14.054  1.00  0.00     0.336 A 
ATOM     10  O   UNL     1      10.518  -1.494  13.012  1.00  0.00    -0.246 OA
ATOM     11  O   UNL     1      10.189  -1.320  15.221  1.00  0.00    -0.423 OA
ENDROOT
BRANCH   1  12
ATOM     12  O   UNL     1       7.830  -2.921  19.981  1.00  0.00    -0.493 OA
ATOM     13  C   UNL     1       6.844  -3.938  20.125  1.00  0.00     0.278 C 
ENDBRANCH   1  12
BRANCH   2  14
ATOM     14  O   UNL     1       9.582  -0.822  19.978  1.00  0.00    -0.493 OA
ATOM     15  C   UNL     1      10.070   0.510  20.099  1.00  0.00     0.278 C 
ENDBRANCH   2  14
TORSDOF 2
ENDMDL
MODEL 4
REMARK VINA RESULT:    -4.484      1.794      2.841
REMARK INTER + INTRA:          -5.118
REMARK INTER:                  -4.951
REMARK INTRA:                  -0.167
REMARK UNBOUND:                -0.110
REMARK SMILES COc1cc2ccc(=O)oc2cc1OC
REMARK SMILES IDX 3 1 13 2 12 3 11 4 5 5 4 6 6 7 7 8 8 9 9 10 10 11 2 12 1 13
REMARK SMILES IDX 14 14 15 15
REMARK H PARENT
REMARK Flexibility Score: inf
ROOT
ATOM      1  C   UNL     1       9.201   2.124  18.609  1.00  0.00     0.161 A 
ATOM      2  C   UNL     1       8.548   1.022  18.035  1.00  0.00     0.164 A 
ATOM      3  C   UNL     1       9.257  -0.176  17.815  1.00  0.00     0.098 A 
ATOM      4  C   UNL     1      10.606  -0.274  18.167  1.00  0.00     0.142 A 
ATOM      5  C   UNL     1      11.262   0.832  18.744  1.00  0.00     0.022 A 
ATOM      6  C   UNL     1      10.562   2.024  18.963  1.00  0.00     0.062 A 
ATOM      7  C   UNL     1      12.613   0.703  19.085  1.00  0.00     0.019 A 
ATOM      8  C   UNL     1      13.267  -0.506  18.846  1.00  0.00     0.094 A 
ATOM      9  C   UNL     1      12.550  -1.561  18.270  1.00  0.00     0.336 A 
ATOM     10  O   UNL     1      13.122  -2.660  18.046  1.00  0.00    -0.246 OA
ATOM     11  O   UNL     1      11.266  -1.410  17.955  1.00  0.00    -0.423 OA
ENDROOT
BRANCH   1  12
ATOM     12  O   UNL     1       8.464   3.302  18.813  1.00  0.00    -0.493 OA
ATOM     13  C   UNL     1       7.959   3.731  20.073  1.00  0.00     0.278 C 
ENDBRANCH   1  12
BRANCH   2  14
ATOM     14  O   UNL     1       7.193   1.156  17.693  1.00  0.00    -0.493 OA
ATOM     15  C   UNL     1       6.112   0.621  18.452  1.00  0.00     0.278 C 
ENDBRANCH   2  14
TORSDOF 2
ENDMDL
MODEL 5
REMARK VINA RESULT:    -4.447      2.196      2.611
REMARK INTER + INTRA:          -5.077
REMARK INTER:                  -4.959
REMARK INTRA:                  -0.118
REMARK UNBOUND:                -0.110
REMARK SMILES COc1cc2ccc(=O)oc2cc1OC
REMARK SMILES IDX 3 1 13 2 12 3 11 4 5 5 4 6 6 7 7 8 8 9 9 10 10 11 2 12 1 13
REMARK SMILES IDX 14 14 15 15
REMARK H PARENT
REMARK Flexibility Score: inf
ROOT
ATOM      1  C   UNL     1       8.236  -1.708  17.654  1.00  0.00     0.161 A 
ATOM      2  C   UNL     1       9.342  -1.886  16.806  1.00  0.00     0.164 A 
ATOM      3  C   UNL     1      10.471  -1.054  16.945  1.00  0.00     0.098 A 
ATOM      4  C   UNL     1      10.498  -0.055  17.921  1.00  0.00     0.142 A 
ATOM      5  C   UNL     1       9.389   0.123  18.772  1.00  0.00     0.022 A 
ATOM      6  C   UNL     1       8.264  -0.699  18.638  1.00  0.00     0.062 A 
ATOM      7  C   UNL     1       9.446   1.132  19.740  1.00  0.00     0.019 A 
ATOM      8  C   UNL     1      10.589   1.926  19.834  1.00  0.00     0.094 A 
ATOM      9  C   UNL     1      11.652   1.690  18.955  1.00  0.00     0.336 A 
ATOM     10  O   UNL     1      12.691   2.396  19.024  1.00  0.00    -0.246 OA
ATOM     11  O   UNL     1      11.570   0.724  18.044  1.00  0.00    -0.423 OA
ENDROOT
BRANCH   1  12
ATOM     12  O   UNL     1       7.127  -2.554  17.487  1.00  0.00    -0.493 OA
ATOM     13  C   UNL     1       5.973  -2.546  18.320  1.00  0.00     0.278 C 
ENDBRANCH   1  12
BRANCH   2  14
ATOM     14  O   UNL     1       9.280  -2.899  15.837  1.00  0.00    -0.493 OA
ATOM     15  C   UNL     1       9.160  -2.671  14.436  1.00  0.00     0.278 C 
ENDBRANCH   2  14
TORSDOF 2
ENDMDL
MODEL 6
REMARK VINA RESULT:    -4.424      1.831      5.479
REMARK INTER + INTRA:          -5.051
REMARK INTER:                  -4.919
REMARK INTRA:                  -0.132
REMARK UNBOUND:                -0.110
REMARK SMILES COc1cc2ccc(=O)oc2cc1OC
REMARK SMILES IDX 3 1 13 2 12 3 11 4 5 5 4 6 6 7 7 8 8 9 9 10 10 11 2 12 1 13
REMARK SMILES IDX 14 14 15 15
REMARK H PARENT
REMARK Flexibility Score: inf
ROOT
ATOM      1  C   UNL     1      12.034  -0.957  18.511  1.00  0.00     0.161 A 
ATOM      2  C   UNL     1      11.375   0.271  18.341  1.00  0.00     0.164 A 
ATOM      3  C   UNL     1       9.971   0.301  18.221  1.00  0.00     0.098 A 
ATOM      4  C   UNL     1       9.231  -0.883  18.273  1.00  0.00     0.142 A 
ATOM      5  C   UNL     1       9.892  -2.116  18.445  1.00  0.00     0.022 A 
ATOM      6  C   UNL     1      11.287  -2.151  18.563  1.00  0.00     0.062 A 
ATOM      7  C   UNL     1       9.124  -3.284  18.493  1.00  0.00     0.019 A 
ATOM      8  C   UNL     1       7.738  -3.197  18.370  1.00  0.00     0.094 A 
ATOM      9  C   UNL     1       7.151  -1.937  18.203  1.00  0.00     0.336 A 
ATOM     10  O   UNL     1       5.901  -1.838  18.089  1.00  0.00    -0.246 OA
ATOM     11  O   UNL     1       7.906  -0.843  18.160  1.00  0.00    -0.423 OA
ENDROOT
BRANCH   1  12
ATOM     12  O   UNL     1      13.434  -0.950  18.626  1.00  0.00    -0.493 OA
ATOM     13  C   UNL     1      14.151  -1.357  19.786  1.00  0.00     0.278 C 
ENDBRANCH   1  12
BRANCH   2  14
ATOM     14  O   UNL     1      12.150   1.441  18.292  1.00  0.00    -0.493 OA
ATOM     15  C   UNL     1      12.480   2.238  19.426  1.00  0.00     0.278 C 
ENDBRANCH   2  14
TORSDOF 2
ENDMDL
MODEL 7
REMARK VINA RESULT:    -4.415      9.674     11.749
REMARK INTER + INTRA:          -5.041
REMARK INTER:                  -4.951
REMARK INTRA:                  -0.090
REMARK UNBOUND:                -0.110
REMARK SMILES COc1cc2ccc(=O)oc2cc1OC
REMARK SMILES IDX 3 1 13 2 12 3 11 4 5 5 4 6 6 7 7 8 8 9 9 10 10 11 2 12 1 13
REMARK SMILES IDX 14 14 15 15
REMARK H PARENT
REMARK Flexibility Score: inf
ROOT
ATOM      1  C   UNL     1      19.938  -9.047  19.399  1.00  0.00     0.161 A 
ATOM      2  C   UNL     1      19.387  -8.961  18.109  1.00  0.00     0.164 A 
ATOM      3  C   UNL     1      19.216  -7.699  17.505  1.00  0.00     0.098 A 
ATOM      4  C   UNL     1      19.592  -6.535  18.179  1.00  0.00     0.142 A 
ATOM      5  C   UNL     1      20.145  -6.621  19.473  1.00  0.00     0.022 A 
ATOM      6  C   UNL     1      20.316  -7.872  20.078  1.00  0.00     0.062 A 
ATOM      7  C   UNL     1      20.511  -5.438  20.122  1.00  0.00     0.019 A 
ATOM      8  C   UNL     1      20.320  -4.216  19.477  1.00  0.00     0.094 A 
ATOM      9  C   UNL     1      19.766  -4.208  18.192  1.00  0.00     0.336 A 
ATOM     10  O   UNL     1      19.585  -3.115  17.594  1.00  0.00    -0.246 OA
ATOM     11  O   UNL     1      19.426  -5.349  17.598  1.00  0.00    -0.423 OA
ENDROOT
BRANCH   1  12
ATOM     12  O   UNL     1      20.093 -10.320  19.971  1.00  0.00    -0.493 OA
ATOM     13  C   UNL     1      21.338 -10.995  20.113  1.00  0.00     0.278 C 
ENDBRANCH   1  12
BRANCH   2  14
ATOM     14  O   UNL     1      19.021 -10.151  17.462  1.00  0.00    -0.493 OA
ATOM     15  C   UNL     1      19.911 -10.967  16.706  1.00  0.00     0.278 C 
ENDBRANCH   2  14
TORSDOF 2
ENDMDL
MODEL 8
REMARK VINA RESULT:    -4.359      9.936     11.739
REMARK INTER + INTRA:          -4.978
REMARK INTER:                  -4.851
REMARK INTRA:                  -0.127
REMARK UNBOUND:                -0.110
REMARK SMILES COc1cc2ccc(=O)oc2cc1OC
REMARK SMILES IDX 3 1 13 2 12 3 11 4 5 5 4 6 6 7 7 8 8 9 9 10 10 11 2 12 1 13
REMARK SMILES IDX 14 14 15 15
REMARK H PARENT
REMARK Flexibility Score: inf
ROOT
ATOM      1  C   UNL     1      19.329  -8.815  18.191  1.00  0.00     0.161 A 
ATOM      2  C   UNL     1      19.856  -8.846  19.493  1.00  0.00     0.164 A 
ATOM      3  C   UNL     1      20.232  -7.644  20.125  1.00  0.00     0.098 A 
ATOM      4  C   UNL     1      20.083  -6.421  19.465  1.00  0.00     0.142 A 
ATOM      5  C   UNL     1      19.554  -6.389  18.159  1.00  0.00     0.022 A 
ATOM      6  C   UNL     1      19.180  -7.580  17.526  1.00  0.00     0.062 A 
ATOM      7  C   UNL     1      19.417  -5.150  17.525  1.00  0.00     0.019 A 
ATOM      8  C   UNL     1      19.804  -3.990  18.197  1.00  0.00     0.094 A 
ATOM      9  C   UNL     1      20.321  -4.100  19.493  1.00  0.00     0.336 A 
ATOM     10  O   UNL     1      20.677  -3.065  20.116  1.00  0.00    -0.246 OA
ATOM     11  O   UNL     1      20.441  -5.292  20.072  1.00  0.00    -0.423 OA
ENDROOT
BRANCH   1  12
ATOM     12  O   UNL     1      18.966 -10.031  17.591  1.00  0.00    -0.493 OA
ATOM     13  C   UNL     1      19.796 -10.774  16.705  1.00  0.00     0.278 C 
ENDBRANCH   1  12
BRANCH   2  14
ATOM     14  O   UNL     1      19.992 -10.092  20.125  1.00  0.00    -0.493 OA
ATOM     15  C   UNL     1      21.180 -10.877  20.116  1.00  0.00     0.278 C 
ENDBRANCH   2  14
TORSDOF 2
ENDMDL
MODEL 9
REMARK VINA RESULT:    -4.278      2.340      4.907
REMARK INTER + INTRA:          -4.888
REMARK INTER:                  -4.739
REMARK INTRA:                  -0.149
REMARK UNBOUND:                -0.110
REMARK SMILES COc1cc2ccc(=O)oc2cc1OC
REMARK SMILES IDX 3 1 13 2 12 3 11 4 5 5 4 6 6 7 7 8 8 9 9 10 10 11 2 12 1 13
REMARK SMILES IDX 14 14 15 15
REMARK H PARENT
REMARK Flexibility Score: inf
ROOT
ATOM      1  C   UNL     1      11.170  -0.150  18.269  1.00  0.00     0.161 A 
ATOM      2  C   UNL     1      11.836  -1.384  18.356  1.00  0.00     0.164 A 
ATOM      3  C   UNL     1      11.100  -2.560  18.604  1.00  0.00     0.098 A 
ATOM      4  C   UNL     1       9.713  -2.507  18.763  1.00  0.00     0.142 A 
ATOM      5  C   UNL     1       9.044  -1.269  18.676  1.00  0.00     0.022 A 
ATOM      6  C   UNL     1       9.770  -0.098  18.431  1.00  0.00     0.062 A 
ATOM      7  C   UNL     1       7.655  -1.249  18.840  1.00  0.00     0.019 A 
ATOM      8  C   UNL     1       6.977  -2.443  19.084  1.00  0.00     0.094 A 
ATOM      9  C   UNL     1       7.708  -3.634  19.156  1.00  0.00     0.336 A 
ATOM     10  O   UNL     1       7.114  -4.722  19.376  1.00  0.00    -0.246 OA
ATOM     11  O   UNL     1       9.029  -3.624  18.997  1.00  0.00    -0.423 OA
ENDROOT
BRANCH   1  12
ATOM     12  O   UNL     1      11.933   1.002  18.022  1.00  0.00    -0.493 OA
ATOM     13  C   UNL     1      12.392   1.899  19.028  1.00  0.00     0.278 C 
ENDBRANCH   1  12
BRANCH   2  14
ATOM     14  O   UNL     1      13.230  -1.399  18.191  1.00  0.00    -0.493 OA
ATOM     15  C   UNL     1      14.169  -1.393  19.261  1.00  0.00     0.278 C 
ENDBRANCH   2  14
TORSDOF 2
ENDMDL
