MODEL 1
REMARK VINA RESULT:    -3.422      0.000      0.000
REMARK INTER + INTRA:          -4.957
REMARK INTER:                  -4.623
REMARK INTRA:                  -0.334
REMARK UNBOUND:                -0.334
REMARK SMILES CCCCCCCC(=O)[O-]
REMARK SMILES IDX 5 1 6 2 7 3 8 4 9 5 10 6 4 7 3 8 2 9 1 10
REMARK H PARENT
REMARK Flexibility Score: inf
ROOT
ATOM      1  C   UNL     1      -3.558  -9.407 -16.462  1.00  0.00     0.000 C 
ENDROOT
BRANCH   1   2
ATOM      2  C   UNL     1      -4.884 -10.081 -16.861  1.00  0.00     0.006 C 
BRANCH   2   3
ATOM      3  C   UNL     1      -4.985 -11.520 -16.339  1.00  0.00     0.053 C 
BRANCH   3   4
ATOM      4  C   UNL     1      -5.215 -12.499 -17.448  1.00  0.00     0.041 C 
ATOM      5  O   UNL     1      -5.014 -12.162 -18.644  1.00  0.00    -0.550 OA
ATOM      6  O   UNL     1      -5.683 -13.775 -17.162  1.00  0.00    -0.550 OA
ENDBRANCH   3   4
ENDBRANCH   2   3
ENDBRANCH   1   2
BRANCH   1   7
ATOM      7  C   UNL     1      -2.498 -10.432 -16.008  1.00  0.00     0.000 C 
BRANCH   7   8
ATOM      8  C   UNL     1      -1.395  -9.826 -15.125  1.00  0.00    -0.000 C 
BRANCH   8   9
ATOM      9  C   UNL     1      -0.708 -10.865 -14.230  1.00  0.00    -0.003 C 
ATOM     10  C   UNL     1      -1.240 -12.269 -14.506  1.00  0.00     0.004 C 
ENDBRANCH   8   9
ENDBRANCH   7   8
ENDBRANCH   1   7
TORSDOF 6
ENDMDL
MODEL 2
REMARK VINA RESULT:    -3.328     16.018     17.363
REMARK INTER + INTRA:          -4.829
REMARK INTER:                  -4.570
REMARK INTRA:                  -0.260
REMARK UNBOUND:                -0.334
REMARK SMILES CCCCCCCC(=O)[O-]
REMARK SMILES IDX 5 1 6 2 7 3 8 4 9 5 10 6 4 7 3 8 2 9 1 10
REMARK H PARENT
REMARK Flexibility Score: inf
ROOT
ATOM      1  C   UNL     1      11.764 -11.512 -21.499  1.00  0.00     0.000 C 
ENDROOT
BRANCH   1   2
ATOM      2  C   UNL     1      11.345 -12.234 -20.205  1.00  0.00     0.006 C 
BRANCH   2   3
ATOM      3  C   UNL     1      12.268 -13.412 -19.872  1.00  0.00     0.053 C 
BRANCH   3   4
ATOM      4  C   UNL     1      12.656 -13.424 -18.425  1.00  0.00     0.041 C 
ATOM      5  O   UNL     1      13.867 -13.344 -18.092  1.00  0.00    -0.550 OA
ATOM      6  O   UNL     1      11.680 -13.558 -17.446  1.00  0.00    -0.550 OA
ENDBRANCH   3   4
ENDBRANCH   2   3
ENDBRANCH   1   2
BRANCH   1   7
ATOM      7  C   UNL     1      13.019 -12.144 -22.137  1.00  0.00     0.000 C 
BRANCH   7   8
ATOM      8  C   UNL     1      13.403 -11.519 -23.489  1.00  0.00    -0.000 C 
BRANCH   8   9
ATOM      9  C   UNL     1      12.756 -10.147 -23.717  1.00  0.00    -0.003 C 
ATOM     10  C   UNL     1      13.721  -9.191 -24.413  1.00  0.00     0.004 C 
ENDBRANCH   8   9
ENDBRANCH   7   8
ENDBRANCH   1   7
TORSDOF 6
ENDMDL
MODEL 3
REMARK VINA RESULT:    -3.309     19.421     20.801
REMARK INTER + INTRA:          -4.804
REMARK INTER:                  -4.552
REMARK INTRA:                  -0.252
REMARK UNBOUND:                -0.334
REMARK SMILES CCCCCCCC(=O)[O-]
REMARK SMILES IDX 5 1 6 2 7 3 8 4 9 5 10 6 4 7 3 8 2 9 1 10
REMARK H PARENT
REMARK Flexibility Score: inf
ROOT
ATOM      1  C   UNL     1      11.733  -2.499 -25.008  1.00  0.00     0.000 C 
ENDROOT
BRANCH   1   2
ATOM      2  C   UNL     1      13.055  -2.077 -24.341  1.00  0.00     0.006 C 
BRANCH   2   3
ATOM      3  C   UNL     1      13.481  -3.045 -23.231  1.00  0.00     0.053 C 
BRANCH   3   4
ATOM      4  C   UNL     1      12.380  -3.278 -22.243  1.00  0.00     0.041 C 
ATOM      5  O   UNL     1      11.955  -2.332 -21.530  1.00  0.00    -0.550 OA
ATOM      6  O   UNL     1      11.845  -4.551 -22.087  1.00  0.00    -0.550 OA
ENDBRANCH   3   4
ENDBRANCH   2   3
ENDBRANCH   1   2
BRANCH   1   7
ATOM      7  C   UNL     1      11.550  -1.852 -26.398  1.00  0.00     0.000 C 
BRANCH   7   8
ATOM      8  C   UNL     1      12.551  -0.721 -26.686  1.00  0.00    -0.000 C 
BRANCH   8   9
ATOM      9  C   UNL     1      12.465  -0.202 -28.127  1.00  0.00    -0.003 C 
ATOM     10  C   UNL     1      13.786  -0.401 -28.865  1.00  0.00     0.004 C 
ENDBRANCH   8   9
ENDBRANCH   7   8
ENDBRANCH   1   7
TORSDOF 6
ENDMDL
MODEL 4
REMARK VINA RESULT:    -3.296     12.849     14.152
REMARK INTER + INTRA:          -4.786
REMARK INTER:                  -4.499
REMARK INTRA:                  -0.286
REMARK UNBOUND:                -0.334
REMARK SMILES CCCCCCCC(=O)[O-]
REMARK SMILES IDX 5 1 6 2 7 3 8 4 9 5 10 6 4 7 3 8 2 9 1 10
REMARK H PARENT
REMARK Flexibility Score: inf
ROOT
ATOM      1  C   UNL     1      -3.031  -4.531 -26.699  1.00  0.00     0.000 C 
ENDROOT
BRANCH   1   2
ATOM      2  C   UNL     1      -4.486  -4.031 -26.722  1.00  0.00     0.006 C 
BRANCH   2   3
ATOM      3  C   UNL     1      -4.588  -2.557 -27.134  1.00  0.00     0.053 C 
BRANCH   3   4
ATOM      4  C   UNL     1      -4.885  -1.671 -25.964  1.00  0.00     0.041 C 
ATOM      5  O   UNL     1      -4.855  -2.135 -24.793  1.00  0.00    -0.550 OA
ATOM      6  O   UNL     1      -5.227  -0.341 -26.169  1.00  0.00    -0.550 OA
ENDBRANCH   3   4
ENDBRANCH   2   3
ENDBRANCH   1   2
BRANCH   1   7
ATOM      7  C   UNL     1      -2.046  -3.484 -27.260  1.00  0.00     0.000 C 
BRANCH   7   8
ATOM      8  C   UNL     1      -0.824  -4.101 -27.959  1.00  0.00    -0.000 C 
BRANCH   8   9
ATOM      9  C   UNL     1       0.140  -3.046 -28.518  1.00  0.00    -0.003 C 
ATOM     10  C   UNL     1      -0.563  -1.706 -28.716  1.00  0.00     0.004 C 
ENDBRANCH   8   9
ENDBRANCH   7   8
ENDBRANCH   1   7
TORSDOF 6
ENDMDL
MODEL 5
REMARK VINA RESULT:    -3.284     19.951     21.028
REMARK INTER + INTRA:          -4.770
REMARK INTER:                  -4.561
REMARK INTRA:                  -0.209
REMARK UNBOUND:                -0.334
REMARK SMILES CCCCCCCC(=O)[O-]
REMARK SMILES IDX 5 1 6 2 7 3 8 4 9 5 10 6 4 7 3 8 2 9 1 10
REMARK H PARENT
REMARK Flexibility Score: inf
ROOT
ATOM      1  C   UNL     1      11.702  -2.493 -24.992  1.00  0.00     0.000 C 
ENDROOT
BRANCH   1   2
ATOM      2  C   UNL     1      11.518  -1.916 -26.407  1.00  0.00     0.006 C 
BRANCH   2   3
ATOM      3  C   UNL     1      12.500  -0.774 -26.702  1.00  0.00     0.053 C 
BRANCH   3   4
ATOM      4  C   UNL     1      12.329  -0.238 -28.090  1.00  0.00     0.041 C 
ATOM      5  O   UNL     1      12.851  -0.833 -29.069  1.00  0.00    -0.550 OA
ATOM      6  O   UNL     1      11.620   0.938 -28.297  1.00  0.00    -0.550 OA
ENDBRANCH   3   4
ENDBRANCH   2   3
ENDBRANCH   1   2
BRANCH   1   7
ATOM      7  C   UNL     1      13.067  -2.112 -24.381  1.00  0.00     0.000 C 
BRANCH   7   8
ATOM      8  C   UNL     1      13.350  -2.796 -23.034  1.00  0.00    -0.000 C 
BRANCH   8   9
ATOM      9  C   UNL     1      13.051  -4.300 -23.053  1.00  0.00    -0.003 C 
ATOM     10  C   UNL     1      13.528  -4.975 -21.770  1.00  0.00     0.004 C 
ENDBRANCH   8   9
ENDBRANCH   7   8
ENDBRANCH   1   7
TORSDOF 6
ENDMDL
MODEL 6
REMARK VINA RESULT:    -3.259     17.434     18.398
REMARK INTER + INTRA:          -4.736
REMARK INTER:                  -4.477
REMARK INTRA:                  -0.259
REMARK UNBOUND:                -0.334
REMARK SMILES CCCCCCCC(=O)[O-]
REMARK SMILES IDX 5 1 6 2 7 3 8 4 9 5 10 6 4 7 3 8 2 9 1 10
REMARK H PARENT
REMARK Flexibility Score: inf
ROOT
ATOM      1  C   UNL     1      10.034 -12.502 -25.577  1.00  0.00     0.000 C 
ENDROOT
BRANCH   1   2
ATOM      2  C   UNL     1      11.411 -11.831 -25.420  1.00  0.00     0.006 C 
BRANCH   2   3
ATOM      3  C   UNL     1      11.686 -11.397 -23.975  1.00  0.00     0.053 C 
BRANCH   3   4
ATOM      4  C   UNL     1      13.141 -11.136 -23.740  1.00  0.00     0.041 C 
ATOM      5  O   UNL     1      13.870 -12.023 -23.222  1.00  0.00    -0.550 OA
ATOM      6  O   UNL     1      13.686  -9.900 -24.062  1.00  0.00    -0.550 OA
ENDBRANCH   3   4
ENDBRANCH   2   3
ENDBRANCH   1   2
BRANCH   1   7
ATOM      7  C   UNL     1       9.859 -13.154 -26.965  1.00  0.00     0.000 C 
BRANCH   7   8
ATOM      8  C   UNL     1      11.135 -13.831 -27.491  1.00  0.00    -0.000 C 
BRANCH   8   9
ATOM      9  C   UNL     1      11.009 -15.357 -27.578  1.00  0.00    -0.003 C 
ATOM     10  C   UNL     1       9.570 -15.806 -27.334  1.00  0.00     0.004 C 
ENDBRANCH   8   9
ENDBRANCH   7   8
ENDBRANCH   1   7
TORSDOF 6
ENDMDL
MODEL 7
REMARK VINA RESULT:    -3.252     16.169     17.231
REMARK INTER + INTRA:          -4.726
REMARK INTER:                  -4.574
REMARK INTRA:                  -0.152
REMARK UNBOUND:                -0.334
REMARK SMILES CCCCCCCC(=O)[O-]
REMARK SMILES IDX 5 1 6 2 7 3 8 4 9 5 10 6 4 7 3 8 2 9 1 10
REMARK H PARENT
REMARK Flexibility Score: inf
ROOT
ATOM      1  C   UNL     1      12.687 -12.660 -20.813  1.00  0.00     0.000 C 
ENDROOT
BRANCH   1   2
ATOM      2  C   UNL     1      12.254 -11.705 -21.940  1.00  0.00     0.006 C 
BRANCH   2   3
ATOM      3  C   UNL     1      13.226 -11.728 -23.126  1.00  0.00     0.053 C 
BRANCH   3   4
ATOM      4  C   UNL     1      12.626 -11.106 -24.349  1.00  0.00     0.041 C 
ATOM      5  O   UNL     1      11.917 -11.796 -25.129  1.00  0.00    -0.550 OA
ATOM      6  O   UNL     1      12.877  -9.773 -24.646  1.00  0.00    -0.550 OA
ENDBRANCH   3   4
ENDBRANCH   2   3
ENDBRANCH   1   2
BRANCH   1   7
ATOM      7  C   UNL     1      11.574 -12.862 -19.763  1.00  0.00     0.000 C 
BRANCH   7   8
ATOM      8  C   UNL     1      11.914 -13.923 -18.703  1.00  0.00    -0.000 C 
BRANCH   8   9
ATOM      9  C   UNL     1      12.568 -13.327 -17.450  1.00  0.00    -0.003 C 
ATOM     10  C   UNL     1      14.085 -13.489 -17.490  1.00  0.00     0.004 C 
ENDBRANCH   8   9
ENDBRANCH   7   8
ENDBRANCH   1   7
TORSDOF 6
ENDMDL
MODEL 8
REMARK VINA RESULT:    -3.248     17.782     19.270
REMARK INTER + INTRA:          -4.721
REMARK INTER:                  -4.499
REMARK INTRA:                  -0.221
REMARK UNBOUND:                -0.334
REMARK SMILES CCCCCCCC(=O)[O-]
REMARK SMILES IDX 5 1 6 2 7 3 8 4 9 5 10 6 4 7 3 8 2 9 1 10
REMARK H PARENT
REMARK Flexibility Score: inf
ROOT
ATOM      1  C   UNL     1      13.011  -4.444 -22.974  1.00  0.00     0.000 C 
ENDROOT
BRANCH   1   2
ATOM      2  C   UNL     1      13.787  -5.173 -21.862  1.00  0.00     0.006 C 
BRANCH   2   3
ATOM      3  C   UNL     1      12.864  -5.981 -20.942  1.00  0.00     0.053 C 
BRANCH   3   4
ATOM      4  C   UNL     1      12.678  -5.313 -19.614  1.00  0.00     0.041 C 
ATOM      5  O   UNL     1      11.934  -4.302 -19.511  1.00  0.00    -0.550 OA
ATOM      6  O   UNL     1      13.354  -5.787 -18.498  1.00  0.00    -0.550 OA
ENDBRANCH   3   4
ENDBRANCH   2   3
ENDBRANCH   1   2
BRANCH   1   7
ATOM      7  C   UNL     1      13.217  -2.915 -22.922  1.00  0.00     0.000 C 
BRANCH   7   8
ATOM      8  C   UNL     1      13.028  -2.222 -24.281  1.00  0.00    -0.000 C 
BRANCH   8   9
ATOM      9  C   UNL     1      11.722  -2.622 -24.978  1.00  0.00    -0.003 C 
ATOM     10  C   UNL     1      11.544  -1.866 -26.292  1.00  0.00     0.004 C 
ENDBRANCH   8   9
ENDBRANCH   7   8
ENDBRANCH   1   7
TORSDOF 6
ENDMDL
MODEL 9
REMARK VINA RESULT:    -3.244      2.949      4.704
REMARK INTER + INTRA:          -4.716
REMARK INTER:                  -4.417
REMARK INTRA:                  -0.299
REMARK UNBOUND:                -0.334
REMARK SMILES CCCCCCCC(=O)[O-]
REMARK SMILES IDX 5 1 6 2 7 3 8 4 9 5 10 6 4 7 3 8 2 9 1 10
REMARK H PARENT
REMARK Flexibility Score: inf
ROOT
ATOM      1  C   UNL     1      -1.678 -11.226 -15.210  1.00  0.00     0.000 C 
ENDROOT
BRANCH   1   2
ATOM      2  C   UNL     1      -1.250 -12.484 -14.432  1.00  0.00     0.006 C 
BRANCH   2   3
ATOM      3  C   UNL     1      -2.221 -13.653 -14.636  1.00  0.00     0.053 C 
BRANCH   3   4
ATOM      4  C   UNL     1      -2.025 -14.725 -13.609  1.00  0.00     0.041 C 
ATOM      5  O   UNL     1      -2.778 -14.784 -12.601  1.00  0.00    -0.550 OA
ATOM      6  O   UNL     1      -0.988 -15.638 -13.747  1.00  0.00    -0.550 OA
ENDBRANCH   3   4
ENDBRANCH   2   3
ENDBRANCH   1   2
BRANCH   1   7
ATOM      7  C   UNL     1      -2.885 -11.497 -16.134  1.00  0.00     0.000 C 
BRANCH   7   8
ATOM      8  C   UNL     1      -3.760 -10.257 -16.381  1.00  0.00    -0.000 C 
BRANCH   8   9
ATOM      9  C   UNL     1      -5.259 -10.579 -16.400  1.00  0.00    -0.003 C 
ATOM     10  C   UNL     1      -5.505 -12.043 -16.755  1.00  0.00     0.004 C 
ENDBRANCH   8   9
ENDBRANCH   7   8
ENDBRANCH   1   7
TORSDOF 6
ENDMDL
