MODEL 1
REMARK VINA RESULT:     1.229      0.000      0.000
REMARK INTER + INTRA:           3.701
REMARK INTER:                   1.911
REMARK INTRA:                   1.789
REMARK UNBOUND:                 1.789
REMARK SMILES C[C@]12C[C@@H](O)[C@@H]3C[C@@]1(O[C@H]1O[C@H](CO)[C@@H](O)[C@@H](O)[C@@H]1O)[C@]3(COC(=O)c1ccccc1)C(=O)O2
REMARK SMILES IDX 1 1 2 2 3 3 4 4 6 5 7 6 8 7 21 8 32 9 33 10 34 11 9 12 10 13
REMARK SMILES IDX 19 14 11 15 17 16 12 17 15 18 20 19 18 21 13 23 14 24 16 26
REMARK SMILES IDX 5 28 22 30 23 31 24 32 25 33 26 34 27 35 31 36 28 37 30 38
REMARK SMILES IDX 29 39
REMARK H PARENT 20 20 18 22 14 25 16 27 5 29
REMARK Flexibility Score: inf
ROOT
ATOM      1  C   UNL     1      59.959  31.496  25.822  1.00  0.00     0.060 C 
ATOM      2  C   UNL     1      58.796  30.804  26.535  1.00  0.00     0.142 C 
ATOM      3  C   UNL     1      57.516  31.710  26.572  1.00  0.00     0.083 C 
ATOM      4  C   UNL     1      56.448  31.159  27.595  1.00  0.00     0.123 C 
ATOM      5  C   UNL     1      57.137  30.310  28.716  1.00  0.00     0.045 C 
ATOM      6  C   UNL     1      58.403  31.070  29.121  1.00  0.00     0.049 C 
ATOM      7  C   UNL     1      59.120  30.283  28.001  1.00  0.00     0.131 C 
ATOM      8  C   UNL     1      58.048  29.184  28.127  1.00  0.00     0.140 C 
ATOM      9  C   UNL     1      57.856  28.744  26.714  1.00  0.00     0.319 C 
ATOM     10  O   UNL     1      57.250  27.704  26.348  1.00  0.00    -0.251 OA
ATOM     11  O   UNL     1      58.420  29.635  25.830  1.00  0.00    -0.456 OA
ENDROOT
BRANCH   7  12
ATOM     12  O   UNL     1      60.444  29.812  28.227  1.00  0.00    -0.338 OA
BRANCH  12  13
ATOM     13  C   UNL     1      61.271  29.967  27.079  1.00  0.00     0.282 C 
ATOM     14  C   UNL     1      61.978  28.640  26.731  1.00  0.00     0.202 C 
ATOM     15  O   UNL     1      62.214  31.011  27.270  1.00  0.00    -0.341 OA
ATOM     16  C   UNL     1      63.038  28.283  27.791  1.00  0.00     0.179 C 
ATOM     17  C   UNL     1      63.098  30.742  28.351  1.00  0.00     0.178 C 
ATOM     18  C   UNL     1      63.955  29.492  28.048  1.00  0.00     0.177 C 
BRANCH  14  19
ATOM     19  O   UNL     1      62.593  28.771  25.472  1.00  0.00    -0.385 OA
ATOM     20  H   UNL     1      63.171  27.972  25.348  1.00  0.00     0.211 HD
ENDBRANCH  14  19
BRANCH  16  21
ATOM     21  O   UNL     1      62.411  27.900  28.989  1.00  0.00    -0.387 OA
ATOM     22  H   UNL     1      62.142  28.736  29.453  1.00  0.00     0.211 HD
ENDBRANCH  16  21
BRANCH  17  23
ATOM     23  C   UNL     1      63.973  31.990  28.561  1.00  0.00     0.191 C 
BRANCH  23  24
ATOM     24  O   UNL     1      65.239  31.656  29.066  1.00  0.00    -0.394 OA
ATOM     25  H   UNL     1      65.555  32.437  29.590  1.00  0.00     0.210 HD
ENDBRANCH  23  24
ENDBRANCH  17  23
BRANCH  18  26
ATOM     26  O   UNL     1      64.814  29.213  29.125  1.00  0.00    -0.387 OA
ATOM     27  H   UNL     1      64.385  29.586  29.938  1.00  0.00     0.211 HD
ENDBRANCH  18  26
ENDBRANCH  12  13
ENDBRANCH   7  12
BRANCH   4  28
ATOM     28  O   UNL     1      55.481  30.381  26.939  1.00  0.00    -0.393 OA
ATOM     29  H   UNL     1      54.763  30.205  27.600  1.00  0.00     0.210 HD
ENDBRANCH   4  28
BRANCH   8  30
ATOM     30  C   UNL     1      58.369  28.042  29.125  1.00  0.00     0.255 C 
BRANCH  30  31
ATOM     31  O   UNL     1      58.910  26.916  28.433  1.00  0.00    -0.461 OA
BRANCH  31  32
ATOM     32  C   UNL     1      58.639  25.580  28.750  1.00  0.00     0.338 C 
ATOM     33  O   UNL     1      59.582  24.775  28.975  1.00  0.00    -0.246 OA
BRANCH  32  34
ATOM     34  C   UNL     1      57.233  25.124  28.838  1.00  0.00     0.060 A 
ATOM     35  C   UNL     1      56.195  26.061  29.006  1.00  0.00     0.015 A 
ATOM     36  C   UNL     1      56.907  23.759  28.743  1.00  0.00     0.015 A 
ATOM     37  C   UNL     1      54.864  25.641  29.080  1.00  0.00     0.001 A 
ATOM     38  C   UNL     1      55.573  23.344  28.821  1.00  0.00     0.001 A 
ATOM     39  C   UNL     1      54.552  24.283  28.989  1.00  0.00     0.000 A 
ENDBRANCH  32  34
ENDBRANCH  31  32
ENDBRANCH  30  31
ENDBRANCH   8  30
TORSDOF 12
ENDMDL
MODEL 2
REMARK VINA RESULT:     2.119      1.378      2.371
REMARK INTER + INTRA:           5.085
REMARK INTER:                   4.302
REMARK INTRA:                   0.783
REMARK UNBOUND:                 1.789
REMARK SMILES C[C@]12C[C@@H](O)[C@@H]3C[C@@]1(O[C@H]1O[C@H](CO)[C@@H](O)[C@@H](O)[C@@H]1O)[C@]3(COC(=O)c1ccccc1)C(=O)O2
REMARK SMILES IDX 1 1 2 2 3 3 4 4 6 5 7 6 8 7 21 8 32 9 33 10 34 11 9 12 10 13
REMARK SMILES IDX 19 14 11 15 17 16 12 17 15 18 20 19 18 21 13 23 14 24 16 26
REMARK SMILES IDX 5 28 22 30 23 31 24 32 25 33 26 34 27 35 31 36 28 37 30 38
REMARK SMILES IDX 29 39
REMARK H PARENT 20 20 18 22 14 25 16 27 5 29
REMARK Flexibility Score: inf
ROOT
ATOM      1  C   UNL     1      58.976  30.999  25.408  1.00  0.00     0.060 C 
ATOM      2  C   UNL     1      57.969  30.435  26.411  1.00  0.00     0.142 C 
ATOM      3  C   UNL     1      56.832  31.466  26.737  1.00  0.00     0.083 C 
ATOM      4  C   UNL     1      56.008  31.035  28.012  1.00  0.00     0.123 C 
ATOM      5  C   UNL     1      56.872  30.130  28.953  1.00  0.00     0.045 C 
ATOM      6  C   UNL     1      58.266  30.761  29.003  1.00  0.00     0.049 C 
ATOM      7  C   UNL     1      58.600  29.896  27.767  1.00  0.00     0.131 C 
ATOM      8  C   UNL     1      57.493  28.913  28.193  1.00  0.00     0.140 C 
ATOM      9  C   UNL     1      56.911  28.482  26.889  1.00  0.00     0.319 C 
ATOM     10  O   UNL     1      56.135  27.506  26.721  1.00  0.00    -0.251 OA
ATOM     11  O   UNL     1      57.317  29.304  25.863  1.00  0.00    -0.456 OA
ENDROOT
BRANCH   7  12
ATOM     12  O   UNL     1      59.887  29.295  27.672  1.00  0.00    -0.338 OA
BRANCH  12  13
ATOM     13  C   UNL     1      60.867  30.007  28.419  1.00  0.00     0.282 C 
ATOM     14  C   UNL     1      61.686  30.937  27.499  1.00  0.00     0.202 C 
ATOM     15  O   UNL     1      61.716  29.113  29.124  1.00  0.00    -0.341 OA
ATOM     16  C   UNL     1      62.592  30.123  26.554  1.00  0.00     0.179 C 
ATOM     17  C   UNL     1      62.440  28.259  28.248  1.00  0.00     0.178 C 
ATOM     18  C   UNL     1      63.397  29.087  27.359  1.00  0.00     0.177 C 
BRANCH  14  19
ATOM     19  O   UNL     1      62.475  31.785  28.297  1.00  0.00    -0.385 OA
ATOM     20  H   UNL     1      63.281  31.267  28.562  1.00  0.00     0.211 HD
ENDBRANCH  14  19
BRANCH  16  21
ATOM     21  O   UNL     1      61.813  29.470  25.583  1.00  0.00    -0.387 OA
ATOM     22  H   UNL     1      62.390  29.355  24.783  1.00  0.00     0.211 HD
ENDBRANCH  16  21
BRANCH  17  23
ATOM     23  C   UNL     1      63.208  27.245  29.113  1.00  0.00     0.191 C 
BRANCH  23  24
ATOM     24  O   UNL     1      62.578  25.991  29.125  1.00  0.00    -0.394 OA
ATOM     25  H   UNL     1      63.021  25.453  29.831  1.00  0.00     0.210 HD
ENDBRANCH  23  24
ENDBRANCH  17  23
BRANCH  18  26
ATOM     26  O   UNL     1      64.098  28.245  26.478  1.00  0.00    -0.387 OA
ATOM     27  H   UNL     1      63.488  27.496  26.250  1.00  0.00     0.211 HD
ENDBRANCH  18  26
ENDBRANCH  12  13
ENDBRANCH   7  12
BRANCH   4  28
ATOM     28  O   UNL     1      54.838  30.354  27.644  1.00  0.00    -0.393 OA
ATOM     29  H   UNL     1      55.125  29.553  27.134  1.00  0.00     0.210 HD
ENDBRANCH   4  28
BRANCH   8  30
ATOM     30  C   UNL     1      57.944  27.753  29.118  1.00  0.00     0.255 C 
BRANCH  30  31
ATOM     31  O   UNL     1      56.964  26.714  29.125  1.00  0.00    -0.461 OA
BRANCH  31  32
ATOM     32  C   UNL     1      57.087  25.497  28.443  1.00  0.00     0.338 C 
ATOM     33  O   UNL     1      58.226  25.032  28.173  1.00  0.00    -0.246 OA
BRANCH  32  34
ATOM     34  C   UNL     1      55.866  24.753  28.058  1.00  0.00     0.060 A 
ATOM     35  C   UNL     1      55.931  23.750  27.072  1.00  0.00     0.015 A 
ATOM     36  C   UNL     1      54.630  25.022  28.675  1.00  0.00     0.015 A 
ATOM     37  C   UNL     1      54.786  23.036  26.709  1.00  0.00     0.001 A 
ATOM     38  C   UNL     1      53.487  24.305  28.305  1.00  0.00     0.001 A 
ATOM     39  C   UNL     1      53.563  23.313  27.325  1.00  0.00     0.000 A 
ENDBRANCH  32  34
ENDBRANCH  31  32
ENDBRANCH  30  31
ENDBRANCH   8  30
TORSDOF 12
ENDMDL
