MODEL 1
REMARK VINA RESULT:     1.863      0.000      0.000
REMARK INTER + INTRA:           2.251
REMARK INTER:                   2.407
REMARK INTRA:                  -0.156
REMARK UNBOUND:                -0.156
REMARK SMILES CCCCCCC(=O)[O-]
REMARK SMILES IDX 5 1 6 2 7 3 8 4 9 5 4 6 3 7 2 8 1 9
REMARK H PARENT
REMARK Flexibility Score: inf
ROOT
ATOM      1  C   UNL     1      11.240  12.448  16.643  1.00  0.00     0.006 C 
ENDROOT
BRANCH   1   2
ATOM      2  C   UNL     1      10.004  11.567  16.432  1.00  0.00     0.053 C 
BRANCH   2   3
ATOM      3  C   UNL     1       8.968  12.299  15.638  1.00  0.00     0.041 C 
ATOM      4  O   UNL     1       8.140  13.050  16.218  1.00  0.00    -0.550 OA
ATOM      5  O   UNL     1       8.883  12.112  14.264  1.00  0.00    -0.550 OA
ENDBRANCH   2   3
ENDBRANCH   1   2
BRANCH   1   6
ATOM      6  C   UNL     1      12.328  11.693  17.414  1.00  0.00     0.000 C 
BRANCH   6   7
ATOM      7  C   UNL     1      13.434  12.647  17.883  1.00  0.00    -0.000 C 
BRANCH   7   8
ATOM      8  C   UNL     1      13.994  13.458  16.708  1.00  0.00    -0.003 C 
ATOM      9  C   UNL     1      14.164  14.926  17.084  1.00  0.00     0.004 C 
ENDBRANCH   7   8
ENDBRANCH   6   7
ENDBRANCH   1   6
TORSDOF 5
ENDMDL
MODEL 2
REMARK VINA RESULT:     2.343      3.047      5.011
REMARK INTER + INTRA:           2.872
REMARK INTER:                   2.962
REMARK INTRA:                  -0.090
REMARK UNBOUND:                -0.156
REMARK SMILES CCCCCCC(=O)[O-]
REMARK SMILES IDX 5 1 6 2 7 3 8 4 9 5 4 6 3 7 2 8 1 9
REMARK H PARENT
REMARK Flexibility Score: inf
ROOT
ATOM      1  C   UNL     1      11.347  12.751  16.438  1.00  0.00     0.006 C 
ENDROOT
BRANCH   1   2
ATOM      2  C   UNL     1      12.404  12.346  17.469  1.00  0.00     0.053 C 
BRANCH   2   3
ATOM      3  C   UNL     1      13.766  12.770  17.018  1.00  0.00     0.041 C 
ATOM      4  O   UNL     1      14.623  11.906  16.693  1.00  0.00    -0.550 OA
ATOM      5  O   UNL     1      14.108  14.116  17.005  1.00  0.00    -0.550 OA
ENDBRANCH   2   3
ENDBRANCH   1   2
BRANCH   1   6
ATOM      6  C   UNL     1      10.076  11.908  16.592  1.00  0.00     0.000 C 
BRANCH   6   7
ATOM      7  C   UNL     1       9.180  12.031  15.354  1.00  0.00    -0.000 C 
BRANCH   7   8
ATOM      8  C   UNL     1       7.875  12.763  15.690  1.00  0.00    -0.003 C 
ATOM      9  C   UNL     1       7.933  13.379  17.084  1.00  0.00     0.004 C 
ENDBRANCH   7   8
ENDBRANCH   6   7
ENDBRANCH   1   6
TORSDOF 5
ENDMDL
MODEL 3
REMARK VINA RESULT:     2.435      2.995      4.975
REMARK INTER + INTRA:           2.991
REMARK INTER:                   3.046
REMARK INTRA:                  -0.055
REMARK UNBOUND:                -0.156
REMARK SMILES CCCCCCC(=O)[O-]
REMARK SMILES IDX 5 1 6 2 7 3 8 4 9 5 4 6 3 7 2 8 1 9
REMARK H PARENT
REMARK Flexibility Score: inf
ROOT
ATOM      1  C   UNL     1      11.282  12.767  16.370  1.00  0.00     0.006 C 
ENDROOT
BRANCH   1   2
ATOM      2  C   UNL     1      12.308  12.331  17.420  1.00  0.00     0.053 C 
BRANCH   2   3
ATOM      3  C   UNL     1      13.684  12.760  17.020  1.00  0.00     0.041 C 
ATOM      4  O   UNL     1      13.979  13.984  16.979  1.00  0.00    -0.550 OA
ATOM      5  O   UNL     1      14.627  11.812  16.642  1.00  0.00    -0.550 OA
ENDBRANCH   2   3
ENDBRANCH   1   2
BRANCH   1   6
ATOM      6  C   UNL     1      10.040  11.870  16.408  1.00  0.00     0.000 C 
BRANCH   6   7
ATOM      7  C   UNL     1       8.757  12.699  16.270  1.00  0.00    -0.000 C 
BRANCH   7   8
ATOM      8  C   UNL     1       8.064  12.420  14.931  1.00  0.00    -0.003 C 
ATOM      9  C   UNL     1       8.995  11.689  13.970  1.00  0.00     0.004 C 
ENDBRANCH   7   8
ENDBRANCH   6   7
ENDBRANCH   1   6
TORSDOF 5
ENDMDL
MODEL 4
REMARK VINA RESULT:     2.530      2.997      5.002
REMARK INTER + INTRA:           3.114
REMARK INTER:                   3.265
REMARK INTRA:                  -0.150
REMARK UNBOUND:                -0.156
REMARK SMILES CCCCCCC(=O)[O-]
REMARK SMILES IDX 5 1 6 2 7 3 8 4 9 5 4 6 3 7 2 8 1 9
REMARK H PARENT
REMARK Flexibility Score: inf
ROOT
ATOM      1  C   UNL     1      12.152  11.744  17.312  1.00  0.00     0.006 C 
ENDROOT
BRANCH   1   2
ATOM      2  C   UNL     1      13.181  12.647  17.998  1.00  0.00     0.053 C 
BRANCH   2   3
ATOM      3  C   UNL     1      14.058  13.309  16.982  1.00  0.00     0.041 C 
ATOM      4  O   UNL     1      14.740  12.613  16.184  1.00  0.00    -0.550 OA
ATOM      5  O   UNL     1      14.160  14.694  16.947  1.00  0.00    -0.550 OA
ENDBRANCH   2   3
ENDBRANCH   1   2
BRANCH   1   6
ATOM      6  C   UNL     1      11.086  12.574  16.588  1.00  0.00     0.000 C 
BRANCH   6   7
ATOM      7  C   UNL     1       9.771  11.795  16.465  1.00  0.00    -0.000 C 
BRANCH   7   8
ATOM      8  C   UNL     1       8.787  12.520  15.538  1.00  0.00    -0.003 C 
ATOM      9  C   UNL     1       8.767  11.886  14.152  1.00  0.00     0.004 C 
ENDBRANCH   7   8
ENDBRANCH   6   7
ENDBRANCH   1   6
TORSDOF 5
ENDMDL
MODEL 5
REMARK VINA RESULT:     3.643      3.174      4.966
REMARK INTER + INTRA:           4.552
REMARK INTER:                   4.721
REMARK INTRA:                  -0.169
REMARK UNBOUND:                -0.156
REMARK SMILES CCCCCCC(=O)[O-]
REMARK SMILES IDX 5 1 6 2 7 3 8 4 9 5 4 6 3 7 2 8 1 9
REMARK H PARENT
REMARK Flexibility Score: inf
ROOT
ATOM      1  C   UNL     1      12.723  12.540  17.713  1.00  0.00     0.006 C 
ENDROOT
BRANCH   1   2
ATOM      2  C   UNL     1      13.902  13.005  16.853  1.00  0.00     0.053 C 
BRANCH   2   3
ATOM      3  C   UNL     1      14.091  14.484  16.978  1.00  0.00     0.041 C 
ATOM      4  O   UNL     1      13.308  15.274  16.387  1.00  0.00    -0.550 OA
ATOM      5  O   UNL     1      15.161  14.991  17.705  1.00  0.00    -0.550 OA
ENDBRANCH   2   3
ENDBRANCH   1   2
BRANCH   1   6
ATOM      6  C   UNL     1      11.674  11.814  16.863  1.00  0.00     0.000 C 
BRANCH   6   7
ATOM      7  C   UNL     1      10.633  12.798  16.315  1.00  0.00    -0.000 C 
BRANCH   7   8
ATOM      8  C   UNL     1       9.288  12.102  16.082  1.00  0.00    -0.003 C 
ATOM      9  C   UNL     1       8.940  12.058  14.597  1.00  0.00     0.004 C 
ENDBRANCH   7   8
ENDBRANCH   6   7
ENDBRANCH   1   6
TORSDOF 5
ENDMDL
