MODEL 1
REMARK VINA RESULT:    -5.604      0.000      0.000
REMARK INTER + INTRA:          -6.104
REMARK INTER:                  -5.931
REMARK INTRA:                  -0.172
REMARK UNBOUND:                -0.172
REMARK SMILES C=C(C)[C@H]1CC[C@@]2(C)CCCC(=C)[C@H]2C1
REMARK SMILES IDX 4 1 5 2 6 3 7 4 9 5 10 6 11 7 12 8 13 9 14 10 15 11 8 12
REMARK SMILES IDX 2 13 3 14 1 15
REMARK H PARENT
REMARK Flexibility Score: inf
ROOT
ATOM      1  C   UNL     1      32.297  10.706  29.584  1.00  0.00     0.015 C 
ATOM      2  C   UNL     1      32.138  12.124  30.156  1.00  0.00     0.008 C 
ATOM      3  C   UNL     1      32.746  12.213  31.561  1.00  0.00     0.008 C 
ATOM      4  C   UNL     1      32.180  11.160  32.562  1.00  0.00    -0.026 C 
ATOM      5  C   UNL     1      30.721  11.536  32.969  1.00  0.00     0.008 C 
ATOM      6  C   UNL     1      30.072  10.502  33.904  1.00  0.00     0.005 C 
ATOM      7  C   UNL     1      30.105   9.088  33.317  1.00  0.00     0.031 C 
ATOM      8  C   UNL     1      31.487   8.734  32.817  1.00  0.00    -0.074 C 
ATOM      9  C   UNL     1      31.994   7.510  33.035  1.00  0.00     0.008 C 
ATOM     10  C   UNL     1      32.224   9.727  31.933  1.00  0.00     0.021 C 
ATOM     11  C   UNL     1      31.627   9.678  30.509  1.00  0.00     0.016 C 
ATOM     12  C   UNL     1      33.092  11.196  33.817  1.00  0.00     0.012 C 
ENDROOT
BRANCH   1  13
ATOM     13  C   UNL     1      31.752  10.616  28.164  1.00  0.00    -0.077 C 
ATOM     14  C   UNL     1      32.352  11.460  27.069  1.00  0.00     0.039 C 
ATOM     15  C   UNL     1      30.737   9.791  27.855  1.00  0.00     0.008 C 
ENDBRANCH   1  13
TORSDOF 1
ENDMDL
MODEL 2
REMARK VINA RESULT:    -5.440      1.466      4.994
REMARK INTER + INTRA:          -5.931
REMARK INTER:                  -5.761
REMARK INTRA:                  -0.170
REMARK UNBOUND:                -0.172
REMARK SMILES C=C(C)[C@H]1CC[C@@]2(C)CCCC(=C)[C@H]2C1
REMARK SMILES IDX 4 1 5 2 6 3 7 4 9 5 10 6 11 7 12 8 13 9 14 10 15 11 8 12
REMARK SMILES IDX 2 13 3 14 1 15
REMARK H PARENT
REMARK Flexibility Score: inf
ROOT
ATOM      1  C   UNL     1      31.553  10.314  31.273  1.00  0.00     0.015 C 
ATOM      2  C   UNL     1      32.324  11.326  30.411  1.00  0.00     0.008 C 
ATOM      3  C   UNL     1      31.462  11.805  29.236  1.00  0.00     0.008 C 
ATOM      4  C   UNL     1      30.907  10.651  28.347  1.00  0.00    -0.026 C 
ATOM      5  C   UNL     1      32.056  10.032  27.492  1.00  0.00     0.008 C 
ATOM      6  C   UNL     1      31.596   8.838  26.638  1.00  0.00     0.005 C 
ATOM      7  C   UNL     1      30.923   7.749  27.480  1.00  0.00     0.031 C 
ATOM      8  C   UNL     1      29.874   8.336  28.398  1.00  0.00    -0.074 C 
ATOM      9  C   UNL     1      28.700   7.709  28.573  1.00  0.00     0.008 C 
ATOM     10  C   UNL     1      30.230   9.554  29.235  1.00  0.00     0.021 C 
ATOM     11  C   UNL     1      31.114   9.112  30.423  1.00  0.00     0.016 C 
ATOM     12  C   UNL     1      29.844  11.277  27.407  1.00  0.00     0.012 C 
ENDROOT
BRANCH   1  13
ATOM     13  C   UNL     1      32.373   9.873  32.479  1.00  0.00    -0.077 C 
ATOM     14  C   UNL     1      32.355   8.431  32.918  1.00  0.00     0.039 C 
ATOM     15  C   UNL     1      33.125  10.745  33.172  1.00  0.00     0.008 C 
ENDBRANCH   1  13
TORSDOF 1
ENDMDL
MODEL 3
REMARK VINA RESULT:    -5.324      1.488      5.213
REMARK INTER + INTRA:          -5.808
REMARK INTER:                  -5.641
REMARK INTRA:                  -0.167
REMARK UNBOUND:                -0.172
REMARK SMILES C=C(C)[C@H]1CC[C@@]2(C)CCCC(=C)[C@H]2C1
REMARK SMILES IDX 4 1 5 2 6 3 7 4 9 5 10 6 11 7 12 8 13 9 14 10 15 11 8 12
REMARK SMILES IDX 2 13 3 14 1 15
REMARK H PARENT
REMARK Flexibility Score: inf
ROOT
ATOM      1  C   UNL     1      31.994   9.371  31.902  1.00  0.00     0.015 C 
ATOM      2  C   UNL     1      30.904   8.287  31.921  1.00  0.00     0.008 C 
ATOM      3  C   UNL     1      30.843   7.557  30.573  1.00  0.00     0.008 C 
ATOM      4  C   UNL     1      30.643   8.503  29.350  1.00  0.00    -0.026 C 
ATOM      5  C   UNL     1      29.183   9.052  29.328  1.00  0.00     0.008 C 
ATOM      6  C   UNL     1      28.932  10.050  28.185  1.00  0.00     0.005 C 
ATOM      7  C   UNL     1      29.929  11.212  28.201  1.00  0.00     0.031 C 
ATOM      8  C   UNL     1      31.351  10.713  28.328  1.00  0.00    -0.074 C 
ATOM      9  C   UNL     1      32.333  11.274  27.603  1.00  0.00     0.008 C 
ATOM     10  C   UNL     1      31.674   9.681  29.396  1.00  0.00     0.021 C 
ATOM     11  C   UNL     1      31.727  10.379  30.774  1.00  0.00     0.016 C 
ATOM     12  C   UNL     1      30.895   7.653  28.077  1.00  0.00     0.012 C 
ENDROOT
BRANCH   1  13
ATOM     13  C   UNL     1      32.109  10.066  33.253  1.00  0.00    -0.077 C 
ATOM     14  C   UNL     1      31.307   9.570  34.429  1.00  0.00     0.039 C 
ATOM     15  C   UNL     1      32.918  11.124  33.430  1.00  0.00     0.008 C 
ENDBRANCH   1  13
TORSDOF 1
ENDMDL
MODEL 4
REMARK VINA RESULT:    -5.314      1.751      5.145
REMARK INTER + INTRA:          -5.797
REMARK INTER:                  -5.627
REMARK INTRA:                  -0.170
REMARK UNBOUND:                -0.172
REMARK SMILES C=C(C)[C@H]1CC[C@@]2(C)CCCC(=C)[C@H]2C1
REMARK SMILES IDX 4 1 5 2 6 3 7 4 9 5 10 6 11 7 12 8 13 9 14 10 15 11 8 12
REMARK SMILES IDX 2 13 3 14 1 15
REMARK H PARENT
REMARK Flexibility Score: inf
ROOT
ATOM      1  C   UNL     1      31.540   8.281  33.303  1.00  0.00     0.015 C 
ATOM      2  C   UNL     1      30.376   7.581  32.584  1.00  0.00     0.008 C 
ATOM      3  C   UNL     1      30.575   7.622  31.064  1.00  0.00     0.008 C 
ATOM      4  C   UNL     1      30.779   9.057  30.491  1.00  0.00    -0.026 C 
ATOM      5  C   UNL     1      29.432   9.844  30.521  1.00  0.00     0.008 C 
ATOM      6  C   UNL     1      29.571  11.296  30.033  1.00  0.00     0.005 C 
ATOM      7  C   UNL     1      30.645  12.066  30.808  1.00  0.00     0.031 C 
ATOM      8  C   UNL     1      31.934  11.280  30.886  1.00  0.00    -0.074 C 
ATOM      9  C   UNL     1      33.116  11.897  30.724  1.00  0.00     0.008 C 
ATOM     10  C   UNL     1      31.879   9.819  31.304  1.00  0.00     0.021 C 
ATOM     11  C   UNL     1      31.662   9.738  32.831  1.00  0.00     0.016 C 
ATOM     12  C   UNL     1      31.250   8.894  29.022  1.00  0.00     0.012 C 
ENDROOT
BRANCH   1  13
ATOM     13  C   UNL     1      31.388   8.197  34.817  1.00  0.00    -0.077 C 
ATOM     14  C   UNL     1      31.223   9.455  35.630  1.00  0.00     0.039 C 
ATOM     15  C   UNL     1      31.395   7.016  35.458  1.00  0.00     0.008 C 
ENDBRANCH   1  13
TORSDOF 1
ENDMDL
MODEL 5
REMARK VINA RESULT:    -5.243      1.745      5.507
REMARK INTER + INTRA:          -5.722
REMARK INTER:                  -5.554
REMARK INTRA:                  -0.168
REMARK UNBOUND:                -0.172
REMARK SMILES C=C(C)[C@H]1CC[C@@]2(C)CCCC(=C)[C@H]2C1
REMARK SMILES IDX 4 1 5 2 6 3 7 4 9 5 10 6 11 7 12 8 13 9 14 10 15 11 8 12
REMARK SMILES IDX 2 13 3 14 1 15
REMARK H PARENT
REMARK Flexibility Score: inf
ROOT
ATOM      1  C   UNL     1      32.218  10.399  30.494  1.00  0.00     0.015 C 
ATOM      2  C   UNL     1      31.102   9.345  30.568  1.00  0.00     0.008 C 
ATOM      3  C   UNL     1      30.974   8.596  29.235  1.00  0.00     0.008 C 
ATOM      4  C   UNL     1      30.756   9.528  28.005  1.00  0.00    -0.026 C 
ATOM      5  C   UNL     1      29.310  10.115  28.025  1.00  0.00     0.008 C 
ATOM      6  C   UNL     1      29.044  11.101  26.875  1.00  0.00     0.005 C 
ATOM      7  C   UNL     1      30.071  12.238  26.838  1.00  0.00     0.031 C 
ATOM      8  C   UNL     1      31.483  11.704  26.923  1.00  0.00    -0.074 C 
ATOM      9  C   UNL     1      32.453  12.227  26.156  1.00  0.00     0.008 C 
ATOM     10  C   UNL     1      31.817  10.680  27.996  1.00  0.00     0.021 C 
ATOM     11  C   UNL     1      31.937  11.396  29.359  1.00  0.00     0.016 C 
ATOM     12  C   UNL     1      30.941   8.653  26.738  1.00  0.00     0.012 C 
ENDROOT
BRANCH   1  13
ATOM     13  C   UNL     1      32.398  11.112  31.829  1.00  0.00    -0.077 C 
ATOM     14  C   UNL     1      31.755  12.455  32.061  1.00  0.00     0.039 C 
ATOM     15  C   UNL     1      33.124  10.568  32.820  1.00  0.00     0.008 C 
ENDBRANCH   1  13
TORSDOF 1
ENDMDL
MODEL 6
REMARK VINA RESULT:    -5.195      2.300      4.844
REMARK INTER + INTRA:          -5.671
REMARK INTER:                  -5.500
REMARK INTRA:                  -0.170
REMARK UNBOUND:                -0.172
REMARK SMILES C=C(C)[C@H]1CC[C@@]2(C)CCCC(=C)[C@H]2C1
REMARK SMILES IDX 4 1 5 2 6 3 7 4 9 5 10 6 11 7 12 8 13 9 14 10 15 11 8 12
REMARK SMILES IDX 2 13 3 14 1 15
REMARK H PARENT
REMARK Flexibility Score: inf
ROOT
ATOM      1  C   UNL     1      31.623   9.622  33.022  1.00  0.00     0.015 C 
ATOM      2  C   UNL     1      32.398   8.297  32.938  1.00  0.00     0.008 C 
ATOM      3  C   UNL     1      31.451   7.103  33.117  1.00  0.00     0.008 C 
ATOM      4  C   UNL     1      30.610   7.155  34.428  1.00  0.00    -0.026 C 
ATOM      5  C   UNL     1      31.519   6.855  35.661  1.00  0.00     0.008 C 
ATOM      6  C   UNL     1      30.769   6.956  37.000  1.00  0.00     0.005 C 
ATOM      7  C   UNL     1      30.077   8.312  37.176  1.00  0.00     0.031 C 
ATOM      8  C   UNL     1      29.271   8.678  35.950  1.00  0.00    -0.074 C 
ATOM      9  C   UNL     1      28.057   9.236  36.079  1.00  0.00     0.008 C 
ATOM     10  C   UNL     1      29.919   8.551  34.581  1.00  0.00     0.021 C 
ATOM     11  C   UNL     1      30.895   9.730  34.371  1.00  0.00     0.016 C 
ATOM     12  C   UNL     1      29.522   6.055  34.309  1.00  0.00     0.012 C 
ENDROOT
BRANCH   1  13
ATOM     13  C   UNL     1      32.539  10.817  32.787  1.00  0.00    -0.077 C 
ATOM     14  C   UNL     1      32.804  11.301  31.385  1.00  0.00     0.039 C 
ATOM     15  C   UNL     1      33.125  11.462  33.810  1.00  0.00     0.008 C 
ENDBRANCH   1  13
TORSDOF 1
ENDMDL
MODEL 7
REMARK VINA RESULT:    -5.177      1.338      1.918
REMARK INTER + INTRA:          -5.653
REMARK INTER:                  -5.482
REMARK INTRA:                  -0.171
REMARK UNBOUND:                -0.172
REMARK SMILES C=C(C)[C@H]1CC[C@@]2(C)CCCC(=C)[C@H]2C1
REMARK SMILES IDX 4 1 5 2 6 3 7 4 9 5 10 6 11 7 12 8 13 9 14 10 15 11 8 12
REMARK SMILES IDX 2 13 3 14 1 15
REMARK H PARENT
REMARK Flexibility Score: inf
ROOT
ATOM      1  C   UNL     1      31.249   8.774  29.728  1.00  0.00     0.015 C 
ATOM      2  C   UNL     1      31.340  10.306  29.646  1.00  0.00     0.008 C 
ATOM      3  C   UNL     1      32.286  10.852  30.723  1.00  0.00     0.008 C 
ATOM      4  C   UNL     1      31.918  10.410  32.171  1.00  0.00    -0.026 C 
ATOM      5  C   UNL     1      30.638  11.162  32.653  1.00  0.00     0.008 C 
ATOM      6  C   UNL     1      30.174  10.724  34.053  1.00  0.00     0.005 C 
ATOM      7  C   UNL     1      29.958   9.210  34.144  1.00  0.00     0.031 C 
ATOM      8  C   UNL     1      31.142   8.453  33.586  1.00  0.00    -0.074 C 
ATOM      9  C   UNL     1      31.600   7.356  34.210  1.00  0.00     0.008 C 
ATOM     10  C   UNL     1      31.701   8.860  32.232  1.00  0.00     0.021 C 
ATOM     11  C   UNL     1      30.763   8.341  31.120  1.00  0.00     0.016 C 
ATOM     12  C   UNL     1      33.116  10.795  33.078  1.00  0.00     0.012 C 
ENDROOT
BRANCH   1  13
ATOM     13  C   UNL     1      30.359   8.210  28.627  1.00  0.00    -0.077 C 
ATOM     14  C   UNL     1      30.810   7.012  27.831  1.00  0.00     0.039 C 
ATOM     15  C   UNL     1      29.165   8.757  28.343  1.00  0.00     0.008 C 
ENDBRANCH   1  13
TORSDOF 1
ENDMDL
MODEL 8
REMARK VINA RESULT:    -5.081      2.222      3.427
REMARK INTER + INTRA:          -5.550
REMARK INTER:                  -5.381
REMARK INTRA:                  -0.169
REMARK UNBOUND:                -0.172
REMARK SMILES C=C(C)[C@H]1CC[C@@]2(C)CCCC(=C)[C@H]2C1
REMARK SMILES IDX 4 1 5 2 6 3 7 4 9 5 10 6 11 7 12 8 13 9 14 10 15 11 8 12
REMARK SMILES IDX 2 13 3 14 1 15
REMARK H PARENT
REMARK Flexibility Score: inf
ROOT
ATOM      1  C   UNL     1      31.772   9.393  32.619  1.00  0.00     0.015 C 
ATOM      2  C   UNL     1      31.454  10.849  32.992  1.00  0.00     0.008 C 
ATOM      3  C   UNL     1      31.870  11.141  34.439  1.00  0.00     0.008 C 
ATOM      4  C   UNL     1      31.247  10.167  35.485  1.00  0.00    -0.026 C 
ATOM      5  C   UNL     1      29.728  10.473  35.665  1.00  0.00     0.008 C 
ATOM      6  C   UNL     1      29.029   9.504  36.634  1.00  0.00     0.005 C 
ATOM      7  C   UNL     1      29.225   8.039  36.230  1.00  0.00     0.031 C 
ATOM      8  C   UNL     1      30.679   7.739  35.945  1.00  0.00    -0.074 C 
ATOM      9  C   UNL     1      31.229   6.589  36.369  1.00  0.00     0.008 C 
ATOM     10  C   UNL     1      31.460   8.680  35.043  1.00  0.00     0.021 C 
ATOM     11  C   UNL     1      31.054   8.427  33.574  1.00  0.00     0.016 C 
ATOM     12  C   UNL     1      31.987  10.413  36.826  1.00  0.00     0.012 C 
ENDROOT
BRANCH   1  13
ATOM     13  C   UNL     1      31.419   9.102  31.165  1.00  0.00    -0.077 C 
ATOM     14  C   UNL     1      30.853   7.760  30.779  1.00  0.00     0.039 C 
ATOM     15  C   UNL     1      31.601  10.023  30.203  1.00  0.00     0.008 C 
ENDBRANCH   1  13
TORSDOF 1
ENDMDL
