MODEL 1
REMARK VINA RESULT:    -5.054      0.000      0.000
REMARK INTER + INTRA:          -6.315
REMARK INTER:                  -6.236
REMARK INTRA:                  -0.080
REMARK UNBOUND:                -0.080
REMARK SMILES Oc1cc(O)c2cc(O)c(-c3cc(O)c(O)c(O)c3)[o+]c2c1
REMARK SMILES IDX 10 1 20 2 21 3 22 4 2 5 3 6 4 7 6 8 7 9 8 10 11 11 12 12
REMARK SMILES IDX 13 13 19 14 15 15 17 16 14 17 16 19 18 21 9 23 1 25 5 27
REMARK H PARENT 14 18 16 20 18 22 9 24 1 26 5 28
REMARK Flexibility Score: inf
ROOT
ATOM      1  C   UNL     1      -9.242   6.579  11.177  1.00  0.00     0.402 A 
ATOM      2  O   UNL     1      -8.036   6.791  11.694  1.00  0.00    -0.202 OA
ATOM      3  C   UNL     1      -7.792   6.795  13.000  1.00  0.00     0.368 A 
ATOM      4  C   UNL     1      -6.489   7.030  13.449  1.00  0.00     0.162 A 
ATOM      5  C   UNL     1      -6.204   7.044  14.815  1.00  0.00     0.128 A 
ATOM      6  C   UNL     1      -7.229   6.823  15.741  1.00  0.00     0.093 A 
ATOM      7  C   UNL     1      -8.543   6.586  15.318  1.00  0.00     0.136 A 
ATOM      8  C   UNL     1      -8.835   6.568  13.929  1.00  0.00     0.125 A 
ATOM      9  C   UNL     1     -10.120   6.325  13.414  1.00  0.00     0.078 A 
ATOM     10  C   UNL     1     -10.330   6.319  12.032  1.00  0.00     0.223 A 
ENDROOT
BRANCH   1  11
ATOM     11  C   UNL     1      -9.388   6.608   9.704  1.00  0.00     0.091 A 
ATOM     12  C   UNL     1      -8.461   5.923   8.904  1.00  0.00     0.068 A 
ATOM     13  C   UNL     1      -8.565   5.951   7.507  1.00  0.00     0.162 A 
ATOM     14  C   UNL     1     -10.405   7.356   9.083  1.00  0.00     0.068 A 
ATOM     15  C   UNL     1      -9.591   6.681   6.896  1.00  0.00     0.200 A 
ATOM     16  C   UNL     1     -10.513   7.390   7.686  1.00  0.00     0.162 A 
BRANCH  13  17
ATOM     17  O   UNL     1      -7.650   5.256   6.719  1.00  0.00    -0.504 OA
ATOM     18  H   UNL     1      -6.701   5.087   7.032  1.00  0.00     0.293 HD
ENDBRANCH  13  17
BRANCH  15  19
ATOM     19  O   UNL     1      -9.681   6.696   5.504  1.00  0.00    -0.502 OA
ATOM     20  H   UNL     1     -10.481   6.316   5.011  1.00  0.00     0.293 HD
ENDBRANCH  15  19
BRANCH  16  21
ATOM     21  O   UNL     1     -11.527   8.129   7.080  1.00  0.00    -0.504 OA
ATOM     22  H   UNL     1     -11.531   9.143   7.103  1.00  0.00     0.293 HD
ENDBRANCH  16  21
ENDBRANCH   1  11
BRANCH  10  23
ATOM     23  O   UNL     1     -11.594   6.029  11.518  1.00  0.00    -0.500 OA
ATOM     24  H   UNL     1     -11.903   6.395  10.627  1.00  0.00     0.294 HD
ENDBRANCH  10  23
BRANCH   5  25
ATOM     25  O   UNL     1      -4.900   7.278  15.241  1.00  0.00    -0.507 OA
ATOM     26  H   UNL     1      -4.549   6.893  16.110  1.00  0.00     0.293 HD
ENDBRANCH   5  25
BRANCH   7  27
ATOM     27  O   UNL     1      -9.510   6.377  16.306  1.00  0.00    -0.507 OA
ATOM     28  H   UNL     1      -9.984   7.115  16.806  1.00  0.00     0.293 HD
ENDBRANCH   7  27
TORSDOF 7
ENDMDL
MODEL 2
REMARK VINA RESULT:    -5.006      1.404      7.333
REMARK INTER + INTRA:          -6.256
REMARK INTER:                  -5.965
REMARK INTRA:                  -0.291
REMARK UNBOUND:                -0.080
REMARK SMILES Oc1cc(O)c2cc(O)c(-c3cc(O)c(O)c(O)c3)[o+]c2c1
REMARK SMILES IDX 10 1 20 2 21 3 22 4 2 5 3 6 4 7 6 8 7 9 8 10 11 11 12 12
REMARK SMILES IDX 13 13 19 14 15 15 17 16 14 17 16 19 18 21 9 23 1 25 5 27
REMARK H PARENT 14 18 16 20 18 22 9 24 1 26 5 28
REMARK Flexibility Score: inf
ROOT
ATOM      1  C   UNL     1      -9.070   6.312  11.240  1.00  0.00     0.402 A 
ATOM      2  O   UNL     1     -10.027   6.850  10.490  1.00  0.00    -0.202 OA
ATOM      3  C   UNL     1      -9.977   6.895   9.163  1.00  0.00     0.368 A 
ATOM      4  C   UNL     1     -11.032   7.484   8.461  1.00  0.00     0.162 A 
ATOM      5  C   UNL     1     -11.004   7.549   7.068  1.00  0.00     0.128 A 
ATOM      6  C   UNL     1      -9.913   7.022   6.368  1.00  0.00     0.093 A 
ATOM      7  C   UNL     1      -8.842   6.427   7.047  1.00  0.00     0.136 A 
ATOM      8  C   UNL     1      -8.869   6.357   8.465  1.00  0.00     0.125 A 
ATOM      9  C   UNL     1      -7.847   5.768   9.228  1.00  0.00     0.078 A 
ATOM     10  C   UNL     1      -7.946   5.732  10.622  1.00  0.00     0.223 A 
ENDROOT
BRANCH   1  11
ATOM     11  C   UNL     1      -9.238   6.331  12.711  1.00  0.00     0.091 A 
ATOM     12  C   UNL     1     -10.283   5.599  13.296  1.00  0.00     0.068 A 
ATOM     13  C   UNL     1     -10.476   5.616  14.683  1.00  0.00     0.162 A 
ATOM     14  C   UNL     1      -8.407   7.113  13.532  1.00  0.00     0.068 A 
ATOM     15  C   UNL     1      -9.632   6.380  15.499  1.00  0.00     0.200 A 
ATOM     16  C   UNL     1      -8.596   7.136  14.921  1.00  0.00     0.162 A 
BRANCH  13  17
ATOM     17  O   UNL     1     -11.505   4.875  15.260  1.00  0.00    -0.504 OA
ATOM     18  H   UNL     1     -12.478   5.129  15.130  1.00  0.00     0.293 HD
ENDBRANCH  13  17
BRANCH  15  19
ATOM     19  O   UNL     1      -9.837   6.384  16.878  1.00  0.00    -0.502 OA
ATOM     20  H   UNL     1      -9.229   5.883  17.515  1.00  0.00     0.293 HD
ENDBRANCH  15  19
BRANCH  16  21
ATOM     21  O   UNL     1      -7.764   7.909  15.728  1.00  0.00    -0.504 OA
ATOM     22  H   UNL     1      -7.067   7.487  16.331  1.00  0.00     0.293 HD
ENDBRANCH  16  21
ENDBRANCH   1  11
BRANCH  10  23
ATOM     23  O   UNL     1      -6.956   5.103  11.377  1.00  0.00    -0.500 OA
ATOM     24  H   UNL     1      -7.174   4.604  12.231  1.00  0.00     0.294 HD
ENDBRANCH  10  23
BRANCH   5  25
ATOM     25  O   UNL     1     -12.066   8.138   6.387  1.00  0.00    -0.507 OA
ATOM     26  H   UNL     1     -13.012   8.109   6.751  1.00  0.00     0.293 HD
ENDBRANCH   5  25
BRANCH   7  27
ATOM     27  O   UNL     1      -7.788   5.928   6.276  1.00  0.00    -0.507 OA
ATOM     28  H   UNL     1      -7.892   5.235   5.549  1.00  0.00     0.293 HD
ENDBRANCH   7  27
TORSDOF 7
ENDMDL
MODEL 3
REMARK VINA RESULT:    -4.995      1.294      7.331
REMARK INTER + INTRA:          -6.243
REMARK INTER:                  -6.229
REMARK INTRA:                  -0.015
REMARK UNBOUND:                -0.080
REMARK SMILES Oc1cc(O)c2cc(O)c(-c3cc(O)c(O)c(O)c3)[o+]c2c1
REMARK SMILES IDX 10 1 20 2 21 3 22 4 2 5 3 6 4 7 6 8 7 9 8 10 11 11 12 12
REMARK SMILES IDX 13 13 19 14 15 15 17 16 14 17 16 19 18 21 9 23 1 25 5 27
REMARK H PARENT 14 18 16 20 18 22 9 24 1 26 5 28
REMARK Flexibility Score: inf
ROOT
ATOM      1  C   UNL     1      -8.930   6.604  10.496  1.00  0.00     0.402 A 
ATOM      2  O   UNL     1     -10.027   7.092   9.924  1.00  0.00    -0.202 OA
ATOM      3  C   UNL     1     -10.248   7.051   8.614  1.00  0.00     0.368 A 
ATOM      4  C   UNL     1     -11.431   7.593   8.105  1.00  0.00     0.162 A 
ATOM      5  C   UNL     1     -11.688   7.567   6.735  1.00  0.00     0.128 A 
ATOM      6  C   UNL     1     -10.754   6.995   5.863  1.00  0.00     0.093 A 
ATOM      7  C   UNL     1      -9.560   6.446   6.347  1.00  0.00     0.136 A 
ATOM      8  C   UNL     1      -9.298   6.468   7.741  1.00  0.00     0.125 A 
ATOM      9  C   UNL     1      -8.135   5.929   8.317  1.00  0.00     0.078 A 
ATOM     10  C   UNL     1      -7.948   5.984   9.701  1.00  0.00     0.223 A 
ENDROOT
BRANCH   1  11
ATOM     11  C   UNL     1      -8.796   6.718  11.966  1.00  0.00     0.091 A 
ATOM     12  C   UNL     1      -7.588   7.174  12.516  1.00  0.00     0.068 A 
ATOM     13  C   UNL     1      -7.429   7.274  13.904  1.00  0.00     0.162 A 
ATOM     14  C   UNL     1      -9.835   6.326  12.829  1.00  0.00     0.068 A 
ATOM     15  C   UNL     1      -8.474   6.900  14.758  1.00  0.00     0.200 A 
ATOM     16  C   UNL     1      -9.680   6.420  14.219  1.00  0.00     0.162 A 
BRANCH  13  17
ATOM     17  O   UNL     1      -6.232   7.742  14.444  1.00  0.00    -0.504 OA
ATOM     18  H   UNL     1      -6.027   8.732  14.498  1.00  0.00     0.293 HD
ENDBRANCH  13  17
BRANCH  15  19
ATOM     19  O   UNL     1      -8.299   7.007  16.138  1.00  0.00    -0.502 OA
ATOM     20  H   UNL     1      -8.734   7.743  16.682  1.00  0.00     0.293 HD
ENDBRANCH  15  19
BRANCH  16  21
ATOM     21  O   UNL     1     -10.718   6.034  15.066  1.00  0.00    -0.504 OA
ATOM     22  H   UNL     1     -10.915   6.533  15.926  1.00  0.00     0.293 HD
ENDBRANCH  16  21
ENDBRANCH   1  11
BRANCH  10  23
ATOM     23  O   UNL     1      -6.818   5.405  10.277  1.00  0.00    -0.500 OA
ATOM     24  H   UNL     1      -5.919   5.871  10.271  1.00  0.00     0.294 HD
ENDBRANCH  10  23
BRANCH   5  25
ATOM     25  O   UNL     1     -12.873   8.111   6.248  1.00  0.00    -0.507 OA
ATOM     26  H   UNL     1     -13.774   7.701   6.467  1.00  0.00     0.293 HD
ENDBRANCH   5  25
BRANCH   7  27
ATOM     27  O   UNL     1      -8.678   5.897   5.411  1.00  0.00    -0.507 OA
ATOM     28  H   UNL     1      -8.685   6.115   4.425  1.00  0.00     0.293 HD
ENDBRANCH   7  27
TORSDOF 7
ENDMDL
MODEL 4
REMARK VINA RESULT:    -4.955      0.137      1.793
REMARK INTER + INTRA:          -6.193
REMARK INTER:                  -6.151
REMARK INTRA:                  -0.042
REMARK UNBOUND:                -0.080
REMARK SMILES Oc1cc(O)c2cc(O)c(-c3cc(O)c(O)c(O)c3)[o+]c2c1
REMARK SMILES IDX 10 1 20 2 21 3 22 4 2 5 3 6 4 7 6 8 7 9 8 10 11 11 12 12
REMARK SMILES IDX 13 13 19 14 15 15 17 16 14 17 16 19 18 21 9 23 1 25 5 27
REMARK H PARENT 14 18 16 20 18 22 9 24 1 26 5 28
REMARK Flexibility Score: inf
ROOT
ATOM      1  C   UNL     1      -9.254   6.612  11.151  1.00  0.00     0.402 A 
ATOM      2  O   UNL     1      -8.071   6.832  11.717  1.00  0.00    -0.202 OA
ATOM      3  C   UNL     1      -7.882   6.848  13.032  1.00  0.00     0.368 A 
ATOM      4  C   UNL     1      -6.600   7.092  13.534  1.00  0.00     0.162 A 
ATOM      5  C   UNL     1      -6.373   7.117  14.910  1.00  0.00     0.128 A 
ATOM      6  C   UNL     1      -7.435   6.899  15.794  1.00  0.00     0.093 A 
ATOM      7  C   UNL     1      -8.729   6.653  15.318  1.00  0.00     0.136 A 
ATOM      8  C   UNL     1      -8.963   6.623  13.919  1.00  0.00     0.125 A 
ATOM      9  C   UNL     1     -10.223   6.372  13.351  1.00  0.00     0.078 A 
ATOM     10  C   UNL     1     -10.375   6.354  11.962  1.00  0.00     0.223 A 
ENDROOT
BRANCH   1  11
ATOM     11  C   UNL     1      -9.338   6.629   9.673  1.00  0.00     0.091 A 
ATOM     12  C   UNL     1     -10.344   7.380   9.048  1.00  0.00     0.068 A 
ATOM     13  C   UNL     1     -10.458   7.398   7.651  1.00  0.00     0.162 A 
ATOM     14  C   UNL     1      -8.465   5.862   8.881  1.00  0.00     0.068 A 
ATOM     15  C   UNL     1      -9.573   6.648   6.867  1.00  0.00     0.200 A 
ATOM     16  C   UNL     1      -8.575   5.873   7.484  1.00  0.00     0.162 A 
BRANCH  13  17
ATOM     17  O   UNL     1     -11.450   8.159   7.035  1.00  0.00    -0.504 OA
ATOM     18  H   UNL     1     -12.252   8.502   7.551  1.00  0.00     0.293 HD
ENDBRANCH  13  17
BRANCH  15  19
ATOM     19  O   UNL     1      -9.699   6.679   5.478  1.00  0.00    -0.502 OA
ATOM     20  H   UNL     1      -9.292   5.968   4.883  1.00  0.00     0.293 HD
ENDBRANCH  15  19
BRANCH  16  21
ATOM     21  O   UNL     1      -7.702   5.114   6.707  1.00  0.00    -0.504 OA
ATOM     22  H   UNL     1      -8.036   4.366   6.111  1.00  0.00     0.293 HD
ENDBRANCH  16  21
ENDBRANCH   1  11
BRANCH  10  23
ATOM     23  O   UNL     1     -11.615   6.055  11.398  1.00  0.00    -0.500 OA
ATOM     24  H   UNL     1     -12.457   6.545  11.672  1.00  0.00     0.294 HD
ENDBRANCH  10  23
BRANCH   5  25
ATOM     25  O   UNL     1      -5.088   7.360  15.389  1.00  0.00    -0.507 OA
ATOM     26  H   UNL     1      -4.405   7.870  14.840  1.00  0.00     0.293 HD
ENDBRANCH   5  25
BRANCH   7  27
ATOM     27  O   UNL     1      -9.735   6.448  16.266  1.00  0.00    -0.507 OA
ATOM     28  H   UNL     1     -10.717   6.362  16.047  1.00  0.00     0.293 HD
ENDBRANCH   7  27
TORSDOF 7
ENDMDL
MODEL 5
REMARK VINA RESULT:    -4.759     16.029     18.224
REMARK INTER + INTRA:          -5.952
REMARK INTER:                  -5.879
REMARK INTRA:                  -0.073
REMARK UNBOUND:                -0.080
REMARK SMILES Oc1cc(O)c2cc(O)c(-c3cc(O)c(O)c(O)c3)[o+]c2c1
REMARK SMILES IDX 10 1 20 2 21 3 22 4 2 5 3 6 4 7 6 8 7 9 8 10 11 11 12 12
REMARK SMILES IDX 13 13 19 14 15 15 17 16 14 17 16 19 18 21 9 23 1 25 5 27
REMARK H PARENT 14 18 16 20 18 22 9 24 1 26 5 28
REMARK Flexibility Score: inf
ROOT
ATOM      1  C   UNL     1       5.285  12.325  19.238  1.00  0.00     0.402 A 
ATOM      2  O   UNL     1       5.006  12.258  17.940  1.00  0.00    -0.202 OA
ATOM      3  C   UNL     1       5.128  13.291  17.113  1.00  0.00     0.368 A 
ATOM      4  C   UNL     1       4.807  13.124  15.763  1.00  0.00     0.162 A 
ATOM      5  C   UNL     1       4.923  14.192  14.872  1.00  0.00     0.128 A 
ATOM      6  C   UNL     1       5.363  15.438  15.333  1.00  0.00     0.093 A 
ATOM      7  C   UNL     1       5.690  15.632  16.681  1.00  0.00     0.136 A 
ATOM      8  C   UNL     1       5.576  14.547  17.589  1.00  0.00     0.125 A 
ATOM      9  C   UNL     1       5.894  14.646  18.954  1.00  0.00     0.078 A 
ATOM     10  C   UNL     1       5.761  13.531  19.786  1.00  0.00     0.223 A 
ENDROOT
BRANCH   1  11
ATOM     11  C   UNL     1       5.099  11.106  20.059  1.00  0.00     0.091 A 
ATOM     12  C   UNL     1       4.356  11.181  21.247  1.00  0.00     0.068 A 
ATOM     13  C   UNL     1       4.181  10.047  22.051  1.00  0.00     0.162 A 
ATOM     14  C   UNL     1       5.700   9.886  19.703  1.00  0.00     0.068 A 
ATOM     15  C   UNL     1       4.764   8.829  21.681  1.00  0.00     0.200 A 
ATOM     16  C   UNL     1       5.531   8.749  20.505  1.00  0.00     0.162 A 
BRANCH  13  17
ATOM     17  O   UNL     1       3.428  10.124  23.222  1.00  0.00    -0.504 OA
ATOM     18  H   UNL     1       3.196   9.296  23.757  1.00  0.00     0.293 HD
ENDBRANCH  13  17
BRANCH  15  19
ATOM     19  O   UNL     1       4.578   7.710  22.493  1.00  0.00    -0.502 OA
ATOM     20  H   UNL     1       4.498   6.775  22.112  1.00  0.00     0.293 HD
ENDBRANCH  15  19
BRANCH  16  21
ATOM     21  O   UNL     1       6.125   7.541  20.142  1.00  0.00    -0.504 OA
ATOM     22  H   UNL     1       5.574   6.755  19.819  1.00  0.00     0.293 HD
ENDBRANCH  16  21
ENDBRANCH   1  11
BRANCH  10  23
ATOM     23  O   UNL     1       6.125  13.615  21.130  1.00  0.00    -0.500 OA
ATOM     24  H   UNL     1       7.056  13.375  21.446  1.00  0.00     0.294 HD
ENDBRANCH  10  23
BRANCH   5  25
ATOM     25  O   UNL     1       4.600  14.004  13.531  1.00  0.00    -0.507 OA
ATOM     26  H   UNL     1       4.648  13.090  13.096  1.00  0.00     0.293 HD
ENDBRANCH   5  25
BRANCH   7  27
ATOM     27  O   UNL     1       6.117  16.907  17.062  1.00  0.00    -0.507 OA
ATOM     28  H   UNL     1       6.953  17.092  17.597  1.00  0.00     0.293 HD
ENDBRANCH   7  27
TORSDOF 7
ENDMDL
MODEL 6
REMARK VINA RESULT:    -4.699      1.377      7.392
REMARK INTER + INTRA:          -5.878
REMARK INTER:                  -6.031
REMARK INTRA:                   0.153
REMARK UNBOUND:                -0.080
REMARK SMILES Oc1cc(O)c2cc(O)c(-c3cc(O)c(O)c(O)c3)[o+]c2c1
REMARK SMILES IDX 10 1 20 2 21 3 22 4 2 5 3 6 4 7 6 8 7 9 8 10 11 11 12 12
REMARK SMILES IDX 13 13 19 14 15 15 17 16 14 17 16 19 18 21 9 23 1 25 5 27
REMARK H PARENT 14 18 16 20 18 22 9 24 1 26 5 28
REMARK Flexibility Score: inf
ROOT
ATOM      1  C   UNL     1      -7.900   6.421  10.918  1.00  0.00     0.402 A 
ATOM      2  O   UNL     1      -9.046   6.961  10.515  1.00  0.00    -0.202 OA
ATOM      3  C   UNL     1      -9.558   6.767   9.303  1.00  0.00     0.368 A 
ATOM      4  C   UNL     1     -10.769   7.380   8.970  1.00  0.00     0.162 A 
ATOM      5  C   UNL     1     -11.328   7.197   7.705  1.00  0.00     0.128 A 
ATOM      6  C   UNL     1     -10.672   6.396   6.763  1.00  0.00     0.093 A 
ATOM      7  C   UNL     1      -9.457   5.772   7.072  1.00  0.00     0.136 A 
ATOM      8  C   UNL     1      -8.887   5.953   8.359  1.00  0.00     0.125 A 
ATOM      9  C   UNL     1      -7.681   5.356   8.760  1.00  0.00     0.078 A 
ATOM     10  C   UNL     1      -7.184   5.578  10.048  1.00  0.00     0.223 A 
ENDROOT
BRANCH   1  11
ATOM     11  C   UNL     1      -7.429   6.721  12.290  1.00  0.00     0.091 A 
ATOM     12  C   UNL     1      -8.366   7.014  13.293  1.00  0.00     0.068 A 
ATOM     13  C   UNL     1      -7.946   7.320  14.594  1.00  0.00     0.162 A 
ATOM     14  C   UNL     1      -6.058   6.774  12.598  1.00  0.00     0.068 A 
ATOM     15  C   UNL     1      -6.580   7.351  14.900  1.00  0.00     0.200 A 
ATOM     16  C   UNL     1      -5.631   7.081  13.897  1.00  0.00     0.162 A 
BRANCH  13  17
ATOM     17  O   UNL     1      -8.881   7.595  15.589  1.00  0.00    -0.504 OA
ATOM     18  H   UNL     1      -8.837   8.445  16.138  1.00  0.00     0.293 HD
ENDBRANCH  13  17
BRANCH  15  19
ATOM     19  O   UNL     1      -6.179   7.655  16.201  1.00  0.00    -0.502 OA
ATOM     20  H   UNL     1      -6.589   7.205  17.011  1.00  0.00     0.293 HD
ENDBRANCH  15  19
BRANCH  16  21
ATOM     21  O   UNL     1      -4.271   7.126  14.195  1.00  0.00    -0.504 OA
ATOM     22  H   UNL     1      -3.876   7.865  14.766  1.00  0.00     0.293 HD
ENDBRANCH  16  21
ENDBRANCH   1  11
BRANCH  10  23
ATOM     23  O   UNL     1      -6.012   4.945  10.464  1.00  0.00    -0.500 OA
ATOM     24  H   UNL     1      -5.689   4.087  10.034  1.00  0.00     0.294 HD
ENDBRANCH  10  23
BRANCH   5  25
ATOM     25  O   UNL     1     -12.537   7.815   7.393  1.00  0.00    -0.507 OA
ATOM     26  H   UNL     1     -12.683   8.804   7.554  1.00  0.00     0.293 HD
ENDBRANCH   5  25
BRANCH   7  27
ATOM     27  O   UNL     1      -8.863   4.991   6.076  1.00  0.00    -0.507 OA
ATOM     28  H   UNL     1      -9.356   4.312   5.514  1.00  0.00     0.293 HD
ENDBRANCH   7  27
TORSDOF 7
ENDMDL
MODEL 7
REMARK VINA RESULT:    -4.677      4.685      9.876
REMARK INTER + INTRA:          -5.851
REMARK INTER:                  -5.470
REMARK INTRA:                  -0.381
REMARK UNBOUND:                -0.080
REMARK SMILES Oc1cc(O)c2cc(O)c(-c3cc(O)c(O)c(O)c3)[o+]c2c1
REMARK SMILES IDX 10 1 20 2 21 3 22 4 2 5 3 6 4 7 6 8 7 9 8 10 11 11 12 12
REMARK SMILES IDX 13 13 19 14 15 15 17 16 14 17 16 19 18 21 9 23 1 25 5 27
REMARK H PARENT 14 18 16 20 18 22 9 24 1 26 5 28
REMARK Flexibility Score: inf
ROOT
ATOM      1  C   UNL     1      -3.911   6.351  17.202  1.00  0.00     0.402 A 
ATOM      2  O   UNL     1      -4.385   7.015  16.152  1.00  0.00    -0.202 OA
ATOM      3  C   UNL     1      -5.647   6.934  15.745  1.00  0.00     0.368 A 
ATOM      4  C   UNL     1      -6.052   7.669  14.627  1.00  0.00     0.162 A 
ATOM      5  C   UNL     1      -7.370   7.601  14.176  1.00  0.00     0.128 A 
ATOM      6  C   UNL     1      -8.294   6.790  14.846  1.00  0.00     0.093 A 
ATOM      7  C   UNL     1      -7.914   6.043  15.968  1.00  0.00     0.136 A 
ATOM      8  C   UNL     1      -6.575   6.114  16.432  1.00  0.00     0.125 A 
ATOM      9  C   UNL     1      -6.108   5.411  17.555  1.00  0.00     0.078 A 
ATOM     10  C   UNL     1      -4.775   5.533  17.955  1.00  0.00     0.223 A 
ENDROOT
BRANCH   1  11
ATOM     11  C   UNL     1      -2.482   6.518  17.550  1.00  0.00     0.091 A 
ATOM     12  C   UNL     1      -2.099   7.547  18.424  1.00  0.00     0.068 A 
ATOM     13  C   UNL     1      -0.751   7.738  18.753  1.00  0.00     0.162 A 
ATOM     14  C   UNL     1      -1.489   5.702  16.978  1.00  0.00     0.068 A 
ATOM     15  C   UNL     1       0.231   6.909  18.196  1.00  0.00     0.200 A 
ATOM     16  C   UNL     1      -0.139   5.890  17.301  1.00  0.00     0.162 A 
BRANCH  13  17
ATOM     17  O   UNL     1      -0.378   8.752  19.634  1.00  0.00    -0.504 OA
ATOM     18  H   UNL     1       0.318   8.599  20.354  1.00  0.00     0.293 HD
ENDBRANCH  13  17
BRANCH  15  19
ATOM     19  O   UNL     1       1.569   7.112  18.537  1.00  0.00    -0.502 OA
ATOM     20  H   UNL     1       1.973   6.731  19.384  1.00  0.00     0.293 HD
ENDBRANCH  15  19
BRANCH  16  21
ATOM     21  O   UNL     1       0.837   5.073  16.734  1.00  0.00    -0.504 OA
ATOM     22  H   UNL     1       0.777   4.765  15.770  1.00  0.00     0.293 HD
ENDBRANCH  16  21
ENDBRANCH   1  11
BRANCH  10  23
ATOM     23  O   UNL     1      -4.324   4.875  19.099  1.00  0.00    -0.500 OA
ATOM     24  H   UNL     1      -3.682   4.094  19.046  1.00  0.00     0.294 HD
ENDBRANCH  10  23
BRANCH   5  25
ATOM     25  O   UNL     1      -7.753   8.342  13.061  1.00  0.00    -0.507 OA
ATOM     26  H   UNL     1      -8.697   8.696  12.958  1.00  0.00     0.293 HD
ENDBRANCH   5  25
BRANCH   7  27
ATOM     27  O   UNL     1      -8.895   5.256  16.579  1.00  0.00    -0.507 OA
ATOM     28  H   UNL     1      -9.847   5.178  16.254  1.00  0.00     0.293 HD
ENDBRANCH   7  27
TORSDOF 7
ENDMDL
MODEL 8
REMARK VINA RESULT:    -4.588      4.684      7.959
REMARK INTER + INTRA:          -5.740
REMARK INTER:                  -5.641
REMARK INTRA:                  -0.099
REMARK UNBOUND:                -0.080
REMARK SMILES Oc1cc(O)c2cc(O)c(-c3cc(O)c(O)c(O)c3)[o+]c2c1
REMARK SMILES IDX 10 1 20 2 21 3 22 4 2 5 3 6 4 7 6 8 7 9 8 10 11 11 12 12
REMARK SMILES IDX 13 13 19 14 15 15 17 16 14 17 16 19 18 21 9 23 1 25 5 27
REMARK H PARENT 14 18 16 20 18 22 9 24 1 26 5 28
REMARK Flexibility Score: inf
ROOT
ATOM      1  C   UNL     1      -4.046   6.465  16.990  1.00  0.00     0.402 A 
ATOM      2  O   UNL     1      -2.852   7.049  16.989  1.00  0.00    -0.202 OA
ATOM      3  C   UNL     1      -1.934   6.837  17.926  1.00  0.00     0.368 A 
ATOM      4  C   UNL     1      -0.707   7.500  17.841  1.00  0.00     0.162 A 
ATOM      5  C   UNL     1       0.274   7.300  18.812  1.00  0.00     0.128 A 
ATOM      6  C   UNL     1       0.027   6.431  19.882  1.00  0.00     0.093 A 
ATOM      7  C   UNL     1      -1.195   5.756  19.991  1.00  0.00     0.136 A 
ATOM      8  C   UNL     1      -2.193   5.954  19.002  1.00  0.00     0.125 A 
ATOM      9  C   UNL     1      -3.441   5.310  19.024  1.00  0.00     0.078 A 
ATOM     10  C   UNL     1      -4.373   5.553  18.011  1.00  0.00     0.223 A 
ENDROOT
BRANCH   1  11
ATOM     11  C   UNL     1      -4.986   6.789  15.893  1.00  0.00     0.091 A 
ATOM     12  C   UNL     1      -4.532   6.769  14.566  1.00  0.00     0.068 A 
ATOM     13  C   UNL     1      -5.396   7.091  13.511  1.00  0.00     0.162 A 
ATOM     14  C   UNL     1      -6.313   7.174  16.156  1.00  0.00     0.068 A 
ATOM     15  C   UNL     1      -6.722   7.454  13.778  1.00  0.00     0.200 A 
ATOM     16  C   UNL     1      -7.181   7.500  15.105  1.00  0.00     0.162 A 
BRANCH  13  17
ATOM     17  O   UNL     1      -4.943   7.054  12.194  1.00  0.00    -0.504 OA
ATOM     18  H   UNL     1      -5.557   7.264  11.416  1.00  0.00     0.293 HD
ENDBRANCH  13  17
BRANCH  15  19
ATOM     19  O   UNL     1      -7.569   7.770  12.715  1.00  0.00    -0.502 OA
ATOM     20  H   UNL     1      -8.525   8.071  12.859  1.00  0.00     0.293 HD
ENDBRANCH  15  19
BRANCH  16  21
ATOM     21  O   UNL     1      -8.496   7.875  15.375  1.00  0.00    -0.504 OA
ATOM     22  H   UNL     1      -9.051   8.390  14.701  1.00  0.00     0.293 HD
ENDBRANCH  16  21
ENDBRANCH   1  11
BRANCH  10  23
ATOM     23  O   UNL     1      -5.592   4.875  18.006  1.00  0.00    -0.500 OA
ATOM     24  H   UNL     1      -6.476   5.369  17.979  1.00  0.00     0.294 HD
ENDBRANCH  10  23
BRANCH   5  25
ATOM     25  O   UNL     1       1.491   7.969  18.708  1.00  0.00    -0.507 OA
ATOM     26  H   UNL     1       1.548   8.909  18.334  1.00  0.00     0.293 HD
ENDBRANCH   5  25
BRANCH   7  27
ATOM     27  O   UNL     1      -1.365   4.908  21.090  1.00  0.00    -0.507 OA
ATOM     28  H   UNL     1      -1.728   5.201  21.986  1.00  0.00     0.293 HD
ENDBRANCH   7  27
TORSDOF 7
ENDMDL
MODEL 9
REMARK VINA RESULT:    -3.879      1.410      6.858
REMARK INTER + INTRA:          -4.866
REMARK INTER:                  -4.738
REMARK INTRA:                  -0.128
REMARK UNBOUND:                -0.080
REMARK SMILES Oc1cc(O)c2cc(O)c(-c3cc(O)c(O)c(O)c3)[o+]c2c1
REMARK SMILES IDX 10 1 20 2 21 3 22 4 2 5 3 6 4 7 6 8 7 9 8 10 11 11 12 12
REMARK SMILES IDX 13 13 19 14 15 15 17 16 14 17 16 19 18 21 9 23 1 25 5 27
REMARK H PARENT 14 18 16 20 18 22 9 24 1 26 5 28
REMARK Flexibility Score: inf
ROOT
ATOM      1  C   UNL     1      -9.278   6.656  10.455  1.00  0.00     0.402 A 
ATOM      2  O   UNL     1      -8.214   6.163   9.830  1.00  0.00    -0.202 OA
ATOM      3  C   UNL     1      -8.124   6.063   8.507  1.00  0.00     0.368 A 
ATOM      4  C   UNL     1      -6.964   5.529   7.941  1.00  0.00     0.162 A 
ATOM      5  C   UNL     1      -6.844   5.409   6.557  1.00  0.00     0.128 A 
ATOM      6  C   UNL     1      -7.893   5.825   5.729  1.00  0.00     0.093 A 
ATOM      7  C   UNL     1      -9.066   6.364   6.271  1.00  0.00     0.136 A 
ATOM      8  C   UNL     1      -9.190   6.490   7.679  1.00  0.00     0.125 A 
ATOM      9  C   UNL     1     -10.324   7.030   8.309  1.00  0.00     0.078 A 
ATOM     10  C   UNL     1     -10.371   7.126   9.703  1.00  0.00     0.223 A 
ENDROOT
BRANCH   1  11
ATOM     11  C   UNL     1      -9.261   6.706  11.935  1.00  0.00     0.091 A 
ATOM     12  C   UNL     1      -8.157   7.269  12.594  1.00  0.00     0.068 A 
ATOM     13  C   UNL     1      -8.107   7.311  13.993  1.00  0.00     0.162 A 
ATOM     14  C   UNL     1     -10.302   6.149  12.698  1.00  0.00     0.068 A 
ATOM     15  C   UNL     1      -9.157   6.773  14.748  1.00  0.00     0.200 A 
ATOM     16  C   UNL     1     -10.257   6.186  14.099  1.00  0.00     0.162 A 
BRANCH  13  17
ATOM     17  O   UNL     1      -7.016   7.886  14.641  1.00  0.00    -0.504 OA
ATOM     18  H   UNL     1      -6.093   7.469  14.597  1.00  0.00     0.293 HD
ENDBRANCH  13  17
BRANCH  15  19
ATOM     19  O   UNL     1      -9.091   6.826  16.141  1.00  0.00    -0.502 OA
ATOM     20  H   UNL     1      -8.300   7.228  16.629  1.00  0.00     0.293 HD
ENDBRANCH  15  19
BRANCH  16  21
ATOM     21  O   UNL     1     -11.296   5.637  14.847  1.00  0.00    -0.504 OA
ATOM     22  H   UNL     1     -11.523   5.981  15.773  1.00  0.00     0.293 HD
ENDBRANCH  16  21
ENDBRANCH   1  11
BRANCH  10  23
ATOM     23  O   UNL     1     -11.475   7.708  10.326  1.00  0.00    -0.500 OA
ATOM     24  H   UNL     1     -12.315   7.943   9.812  1.00  0.00     0.294 HD
ENDBRANCH  10  23
BRANCH   5  25
ATOM     25  O   UNL     1      -5.679   4.875   6.012  1.00  0.00    -0.507 OA
ATOM     26  H   UNL     1      -5.153   4.152   6.490  1.00  0.00     0.293 HD
ENDBRANCH   5  25
BRANCH   7  27
ATOM     27  O   UNL     1     -10.068   6.753   5.377  1.00  0.00    -0.507 OA
ATOM     28  H   UNL     1      -9.906   7.010   4.414  1.00  0.00     0.293 HD
ENDBRANCH   7  27
TORSDOF 7
ENDMDL
