MODEL 1
REMARK VINA RESULT:    38.109      0.000      0.000
REMARK INTER + INTRA:          59.819
REMARK INTER:                  52.591
REMARK INTRA:                   7.228
REMARK UNBOUND:                 7.228
REMARK SMILES CC[C@H](CC[C@@H](C)[C@H]1CC[C@H]2C3=CC[C@@H]4C[C@@H](O)CC[C@]4(C)[C@@H]3CC[C@@]12C)C(C)C
REMARK SMILES IDX 5 1 4 2 3 3 2 4 1 5 28 6 29 7 30 8 6 9 7 10 8 11 9 12 26 13
REMARK SMILES IDX 10 14 11 15 25 16 27 17 12 18 24 19 23 20 13 21 21 22 14 23
REMARK SMILES IDX 15 24 20 25 22 26 16 27 19 28 17 29 18 30
REMARK H PARENT 18 31
REMARK Flexibility Score: inf
ROOT
ATOM      1  C   UNL     1     -37.172  20.502   5.537  1.00  0.00     0.004 C 
ENDROOT
BRANCH   1   2
ATOM      2  C   UNL     1     -37.911  21.537   4.651  1.00  0.00     0.004 C 
BRANCH   2   3
ATOM      3  C   UNL     1     -37.202  22.915   4.477  1.00  0.00    -0.009 C 
BRANCH   3   4
ATOM      4  C   UNL     1     -36.361  22.976   3.169  1.00  0.00     0.000 C 
ATOM      5  C   UNL     1     -36.484  24.270   2.365  1.00  0.00     0.004 C 
ENDBRANCH   3   4
BRANCH   3   6
ATOM      6  C   UNL     1     -38.125  24.153   4.740  1.00  0.00    -0.014 C 
ATOM      7  C   UNL     1     -37.973  24.650   6.189  1.00  0.00     0.007 C 
ATOM      8  C   UNL     1     -37.818  25.326   3.791  1.00  0.00     0.007 C 
ENDBRANCH   3   6
ENDBRANCH   2   3
ENDBRANCH   1   2
BRANCH   1   9
ATOM      9  C   UNL     1     -37.564  20.556   7.044  1.00  0.00    -0.011 C 
ATOM     10  C   UNL     1     -37.886  19.138   7.552  1.00  0.00     0.008 C 
BRANCH   9  11
ATOM     11  C   UNL     1     -36.489  21.287   7.924  1.00  0.00    -0.002 C 
ATOM     12  C   UNL     1     -35.443  20.309   8.494  1.00  0.00     0.005 C 
ATOM     13  C   UNL     1     -35.642  22.424   7.269  1.00  0.00    -0.023 C 
ATOM     14  C   UNL     1     -34.158  21.102   8.716  1.00  0.00     0.009 C 
ATOM     15  C   UNL     1     -34.447  22.527   8.243  1.00  0.00     0.021 C 
ATOM     16  C   UNL     1     -35.152  22.039   5.840  1.00  0.00     0.008 C 
ATOM     17  C   UNL     1     -36.401  23.778   7.246  1.00  0.00     0.012 C 
ATOM     18  C   UNL     1     -33.208  23.211   7.675  1.00  0.00    -0.067 C 
ATOM     19  C   UNL     1     -34.049  22.971   5.326  1.00  0.00     0.009 C 
ATOM     20  C   UNL     1     -32.799  22.927   6.233  1.00  0.00     0.021 C 
ATOM     21  C   UNL     1     -32.380  23.825   8.534  1.00  0.00    -0.027 C 
ATOM     22  C   UNL     1     -31.582  23.783   5.683  1.00  0.00    -0.023 C 
ATOM     23  C   UNL     1     -31.151  24.556   8.106  1.00  0.00     0.031 C 
ATOM     24  C   UNL     1     -30.525  23.980   6.820  1.00  0.00     0.002 C 
ATOM     25  C   UNL     1     -32.029  25.182   5.158  1.00  0.00     0.010 C 
ATOM     26  C   UNL     1     -30.935  22.976   4.516  1.00  0.00     0.012 C 
ATOM     27  C   UNL     1     -29.338  24.873   6.376  1.00  0.00     0.036 C 
ATOM     28  C   UNL     1     -30.854  26.079   4.723  1.00  0.00     0.032 C 
ATOM     29  C   UNL     1     -29.784  26.235   5.813  1.00  0.00     0.114 C 
BRANCH  29  30
ATOM     30  O   UNL     1     -28.663  26.892   5.285  1.00  0.00    -0.393 OA
ATOM     31  H   UNL     1     -28.959  27.808   5.034  1.00  0.00     0.210 HD
ENDBRANCH  29  30
ENDBRANCH   9  11
ENDBRANCH   1   9
TORSDOF 7
ENDMDL
