MODEL 1
REMARK VINA RESULT:    -4.682      0.000      0.000
REMARK INTER + INTRA:          -8.183
REMARK INTER:                  -7.145
REMARK INTRA:                  -1.038
REMARK UNBOUND:                -1.038
REMARK SMILES O=C([O-])CCCCCCCCC(=O)[O-]
REMARK SMILES IDX 7 1 6 2 5 3 4 4 2 5 1 6 3 7 8 8 9 9 10 10 11 11 12 12 13 13
REMARK SMILES IDX 14 14
REMARK H PARENT
REMARK Flexibility Score: inf
ROOT
ATOM      1  C   UNL     1      -6.713  -7.877 -12.927  1.00  0.00     0.000 C 
ENDROOT
BRANCH   1   2
ATOM      2  C   UNL     1      -7.588  -7.109 -13.930  1.00  0.00     0.000 C 
BRANCH   2   3
ATOM      3  C   UNL     1      -6.911  -5.831 -14.451  1.00  0.00     0.006 C 
BRANCH   3   4
ATOM      4  C   UNL     1      -7.642  -4.556 -14.013  1.00  0.00     0.053 C 
BRANCH   4   5
ATOM      5  C   UNL     1      -6.726  -3.675 -13.222  1.00  0.00     0.041 C 
ATOM      6  O   UNL     1      -5.599  -4.099 -12.855  1.00  0.00    -0.550 OA
ATOM      7  O   UNL     1      -7.139  -2.403 -12.847  1.00  0.00    -0.550 OA
ENDBRANCH   4   5
ENDBRANCH   3   4
ENDBRANCH   2   3
ENDBRANCH   1   2
BRANCH   1   8
ATOM      8  C   UNL     1      -7.349  -7.871 -11.529  1.00  0.00     0.000 C 
BRANCH   8   9
ATOM      9  C   UNL     1      -8.577  -6.950 -11.439  1.00  0.00     0.000 C 
BRANCH   9  10
ATOM     10  C   UNL     1      -8.317  -5.699 -10.584  1.00  0.00     0.006 C 
BRANCH  10  11
ATOM     11  C   UNL     1      -6.895  -5.675 -10.010  1.00  0.00     0.053 C 
BRANCH  11  12
ATOM     12  C   UNL     1      -6.540  -4.330  -9.451  1.00  0.00     0.041 C 
ATOM     13  O   UNL     1      -7.257  -3.328  -9.711  1.00  0.00    -0.550 OA
ATOM     14  O   UNL     1      -5.402  -4.178  -8.669  1.00  0.00    -0.550 OA
ENDBRANCH  11  12
ENDBRANCH  10  11
ENDBRANCH   9  10
ENDBRANCH   8   9
ENDBRANCH   1   8
TORSDOF 9
ENDMDL
MODEL 2
REMARK VINA RESULT:    -4.673      0.071      3.712
REMARK INTER + INTRA:          -8.170
REMARK INTER:                  -7.145
REMARK INTRA:                  -1.025
REMARK UNBOUND:                -1.038
REMARK SMILES O=C([O-])CCCCCCCCC(=O)[O-]
REMARK SMILES IDX 7 1 6 2 5 3 4 4 2 5 1 6 3 7 8 8 9 9 10 10 11 11 12 12 13 13
REMARK SMILES IDX 14 14
REMARK H PARENT
REMARK Flexibility Score: inf
ROOT
ATOM      1  C   UNL     1      -7.359  -7.933 -11.496  1.00  0.00     0.000 C 
ENDROOT
BRANCH   1   2
ATOM      2  C   UNL     1      -8.568  -6.994 -11.371  1.00  0.00     0.000 C 
BRANCH   2   3
ATOM      3  C   UNL     1      -8.274  -5.759 -10.505  1.00  0.00     0.006 C 
BRANCH   3   4
ATOM      4  C   UNL     1      -6.811  -5.693 -10.050  1.00  0.00     0.053 C 
BRANCH   4   5
ATOM      5  C   UNL     1      -6.516  -4.362  -9.432  1.00  0.00     0.041 C 
ATOM      6  O   UNL     1      -7.248  -3.369  -9.685  1.00  0.00    -0.550 OA
ATOM      7  O   UNL     1      -5.404  -4.206  -8.615  1.00  0.00    -0.550 OA
ENDBRANCH   4   5
ENDBRANCH   3   4
ENDBRANCH   2   3
ENDBRANCH   1   2
BRANCH   1   8
ATOM      8  C   UNL     1      -6.702  -7.798 -12.878  1.00  0.00     0.000 C 
BRANCH   8   9
ATOM      9  C   UNL     1      -7.619  -7.121 -13.909  1.00  0.00     0.000 C 
BRANCH   9  10
ATOM     10  C   UNL     1      -7.002  -5.841 -14.499  1.00  0.00     0.006 C 
BRANCH  10  11
ATOM     11  C   UNL     1      -7.686  -4.573 -13.973  1.00  0.00     0.053 C 
BRANCH  11  12
ATOM     12  C   UNL     1      -6.735  -3.697 -13.216  1.00  0.00     0.041 C 
ATOM     13  O   UNL     1      -5.589  -4.123 -12.910  1.00  0.00    -0.550 OA
ATOM     14  O   UNL     1      -7.123  -2.422 -12.822  1.00  0.00    -0.550 OA
ENDBRANCH  11  12
ENDBRANCH  10  11
ENDBRANCH   9  10
ENDBRANCH   8   9
ENDBRANCH   1   8
TORSDOF 9
ENDMDL
MODEL 3
REMARK VINA RESULT:    -4.218      1.732      4.007
REMARK INTER + INTRA:          -7.475
REMARK INTER:                  -6.485
REMARK INTRA:                  -0.990
REMARK UNBOUND:                -1.038
REMARK SMILES O=C([O-])CCCCCCCCC(=O)[O-]
REMARK SMILES IDX 7 1 6 2 5 3 4 4 2 5 1 6 3 7 8 8 9 9 10 10 11 11 12 12 13 13
REMARK SMILES IDX 14 14
REMARK H PARENT
REMARK Flexibility Score: inf
ROOT
ATOM      1  C   UNL     1      -9.869  -7.267 -10.246  1.00  0.00     0.000 C 
ENDROOT
BRANCH   1   2
ATOM      2  C   UNL     1      -8.472  -7.795  -9.887  1.00  0.00     0.000 C 
BRANCH   2   3
ATOM      3  C   UNL     1      -7.354  -6.794 -10.220  1.00  0.00     0.006 C 
BRANCH   3   4
ATOM      4  C   UNL     1      -7.896  -5.406 -10.585  1.00  0.00     0.053 C 
BRANCH   4   5
ATOM      5  C   UNL     1      -6.798  -4.390 -10.542  1.00  0.00     0.041 C 
ATOM      6  O   UNL     1      -6.157  -4.192  -9.477  1.00  0.00    -0.550 OA
ATOM      7  O   UNL     1      -6.515  -3.625 -11.667  1.00  0.00    -0.550 OA
ENDBRANCH   4   5
ENDBRANCH   3   4
ENDBRANCH   2   3
ENDBRANCH   1   2
BRANCH   1   8
ATOM      8  C   UNL     1     -10.465  -8.055 -11.422  1.00  0.00     0.000 C 
BRANCH   8   9
ATOM      9  C   UNL     1     -10.397  -7.283 -12.750  1.00  0.00     0.000 C 
BRANCH   9  10
ATOM     10  C   UNL     1      -9.084  -7.531 -13.512  1.00  0.00     0.006 C 
BRANCH  10  11
ATOM     11  C   UNL     1      -8.664  -6.320 -14.354  1.00  0.00     0.053 C 
BRANCH  11  12
ATOM     12  C   UNL     1      -7.207  -6.010 -14.201  1.00  0.00     0.041 C 
ATOM     13  O   UNL     1      -6.719  -4.979 -14.737  1.00  0.00    -0.550 OA
ATOM     14  O   UNL     1      -6.381  -6.873 -13.492  1.00  0.00    -0.550 OA
ENDBRANCH  11  12
ENDBRANCH  10  11
ENDBRANCH   9  10
ENDBRANCH   8   9
ENDBRANCH   1   8
TORSDOF 9
ENDMDL
MODEL 4
REMARK VINA RESULT:    -4.196     13.171     14.062
REMARK INTER + INTRA:          -7.442
REMARK INTER:                  -6.912
REMARK INTRA:                  -0.530
REMARK UNBOUND:                -1.038
REMARK SMILES O=C([O-])CCCCCCCCC(=O)[O-]
REMARK SMILES IDX 7 1 6 2 5 3 4 4 2 5 1 6 3 7 8 8 9 9 10 10 11 11 12 12 13 13
REMARK SMILES IDX 14 14
REMARK H PARENT
REMARK Flexibility Score: inf
ROOT
ATOM      1  C   UNL     1       5.024  -3.430 -13.017  1.00  0.00     0.000 C 
ENDROOT
BRANCH   1   2
ATOM      2  C   UNL     1       5.085  -3.254 -14.541  1.00  0.00     0.000 C 
BRANCH   2   3
ATOM      3  C   UNL     1       4.294  -2.029 -15.030  1.00  0.00     0.006 C 
BRANCH   3   4
ATOM      4  C   UNL     1       4.263  -0.897 -13.996  1.00  0.00     0.053 C 
BRANCH   4   5
ATOM      5  C   UNL     1       5.397   0.052 -14.227  1.00  0.00     0.041 C 
ATOM      6  O   UNL     1       6.469  -0.070 -13.577  1.00  0.00    -0.550 OA
ATOM      7  O   UNL     1       5.252   1.102 -15.125  1.00  0.00    -0.550 OA
ENDBRANCH   4   5
ENDBRANCH   3   4
ENDBRANCH   2   3
ENDBRANCH   1   2
BRANCH   1   8
ATOM      8  C   UNL     1       6.315  -4.074 -12.488  1.00  0.00     0.000 C 
BRANCH   8   9
ATOM      9  C   UNL     1       7.381  -3.036 -12.100  1.00  0.00     0.000 C 
BRANCH   9  10
ATOM     10  C   UNL     1       8.274  -3.511 -10.942  1.00  0.00     0.006 C 
BRANCH  10  11
ATOM     11  C   UNL     1       8.332  -5.041 -10.844  1.00  0.00     0.053 C 
BRANCH  11  12
ATOM     12  C   UNL     1       8.273  -5.513  -9.423  1.00  0.00     0.041 C 
ATOM     13  O   UNL     1       7.859  -6.673  -9.158  1.00  0.00    -0.550 OA
ATOM     14  O   UNL     1       8.646  -4.662  -8.390  1.00  0.00    -0.550 OA
ENDBRANCH  11  12
ENDBRANCH  10  11
ENDBRANCH   9  10
ENDBRANCH   8   9
ENDBRANCH   1   8
TORSDOF 9
ENDMDL
MODEL 5
REMARK VINA RESULT:    -4.152      2.946      5.314
REMARK INTER + INTRA:          -7.374
REMARK INTER:                  -6.469
REMARK INTRA:                  -0.904
REMARK UNBOUND:                -1.038
REMARK SMILES O=C([O-])CCCCCCCCC(=O)[O-]
REMARK SMILES IDX 7 1 6 2 5 3 4 4 2 5 1 6 3 7 8 8 9 9 10 10 11 11 12 12 13 13
REMARK SMILES IDX 14 14
REMARK H PARENT
REMARK Flexibility Score: inf
ROOT
ATOM      1  C   UNL     1      -6.702  -4.156 -10.734  1.00  0.00     0.000 C 
ENDROOT
BRANCH   1   2
ATOM      2  C   UNL     1      -7.833  -5.192 -10.646  1.00  0.00     0.000 C 
BRANCH   2   3
ATOM      3  C   UNL     1      -7.326  -6.593 -10.270  1.00  0.00     0.006 C 
BRANCH   3   4
ATOM      4  C   UNL     1      -8.149  -7.712 -10.922  1.00  0.00     0.053 C 
BRANCH   4   5
ATOM      5  C   UNL     1      -9.598  -7.564 -10.576  1.00  0.00     0.041 C 
ATOM      6  O   UNL     1      -9.999  -7.810  -9.408  1.00  0.00    -0.550 OA
ATOM      7  O   UNL     1     -10.512  -7.201 -11.556  1.00  0.00    -0.550 OA
ENDBRANCH   4   5
ENDBRANCH   3   4
ENDBRANCH   2   3
ENDBRANCH   1   2
BRANCH   1   8
ATOM      8  C   UNL     1      -6.761  -3.393 -12.066  1.00  0.00     0.000 C 
BRANCH   8   9
ATOM      9  C   UNL     1      -6.184  -4.200 -13.240  1.00  0.00     0.000 C 
BRANCH   9  10
ATOM     10  C   UNL     1      -7.275  -4.745 -14.177  1.00  0.00     0.006 C 
BRANCH  10  11
ATOM     11  C   UNL     1      -7.244  -6.276 -14.274  1.00  0.00     0.053 C 
BRANCH  11  12
ATOM     12  C   UNL     1      -8.613  -6.851 -14.476  1.00  0.00     0.041 C 
ATOM     13  O   UNL     1      -8.784  -8.099 -14.461  1.00  0.00    -0.550 OA
ATOM     14  O   UNL     1      -9.695  -6.011 -14.712  1.00  0.00    -0.550 OA
ENDBRANCH  11  12
ENDBRANCH  10  11
ENDBRANCH   9  10
ENDBRANCH   8   9
ENDBRANCH   1   8
TORSDOF 9
ENDMDL
MODEL 6
REMARK VINA RESULT:    -4.109     12.600     14.060
REMARK INTER + INTRA:          -7.309
REMARK INTER:                  -6.871
REMARK INTRA:                  -0.438
REMARK UNBOUND:                -1.038
REMARK SMILES O=C([O-])CCCCCCCCC(=O)[O-]
REMARK SMILES IDX 7 1 6 2 5 3 4 4 2 5 1 6 3 7 8 8 9 9 10 10 11 11 12 12 13 13
REMARK SMILES IDX 14 14
REMARK H PARENT
REMARK Flexibility Score: inf
ROOT
ATOM      1  C   UNL     1       6.189  -4.051 -12.549  1.00  0.00     0.000 C 
ENDROOT
BRANCH   1   2
ATOM      2  C   UNL     1       7.247  -2.977 -12.254  1.00  0.00     0.000 C 
BRANCH   2   3
ATOM      3  C   UNL     1       8.252  -3.413 -11.177  1.00  0.00     0.006 C 
BRANCH   3   4
ATOM      4  C   UNL     1       8.290  -4.935 -10.987  1.00  0.00     0.053 C 
BRANCH   4   5
ATOM      5  C   UNL     1       8.191  -5.282  -9.534  1.00  0.00     0.041 C 
ATOM      6  O   UNL     1       8.429  -4.411  -8.656  1.00  0.00    -0.550 OA
ATOM      7  O   UNL     1       7.886  -6.581  -9.150  1.00  0.00    -0.550 OA
ENDBRANCH   4   5
ENDBRANCH   3   4
ENDBRANCH   2   3
ENDBRANCH   1   2
BRANCH   1   8
ATOM      8  C   UNL     1       4.916  -3.420 -13.133  1.00  0.00     0.000 C 
BRANCH   8   9
ATOM      9  C   UNL     1       4.999  -3.213 -14.654  1.00  0.00     0.000 C 
BRANCH   9  10
ATOM     10  C   UNL     1       4.373  -1.882 -15.105  1.00  0.00     0.006 C 
BRANCH  10  11
ATOM     11  C   UNL     1       3.897  -1.034 -13.918  1.00  0.00     0.053 C 
BRANCH  11  12
ATOM     12  C   UNL     1       3.014   0.095 -14.356  1.00  0.00     0.041 C 
ATOM     13  O   UNL     1       3.456   1.275 -14.371  1.00  0.00    -0.550 OA
ATOM     14  O   UNL     1       1.696  -0.151 -14.719  1.00  0.00    -0.550 OA
ENDBRANCH  11  12
ENDBRANCH  10  11
ENDBRANCH   9  10
ENDBRANCH   8   9
ENDBRANCH   1   8
TORSDOF 9
ENDMDL
MODEL 7
REMARK VINA RESULT:    -4.103      1.986      3.399
REMARK INTER + INTRA:          -7.299
REMARK INTER:                  -6.533
REMARK INTRA:                  -0.766
REMARK UNBOUND:                -1.038
REMARK SMILES O=C([O-])CCCCCCCCC(=O)[O-]
REMARK SMILES IDX 7 1 6 2 5 3 4 4 2 5 1 6 3 7 8 8 9 9 10 10 11 11 12 12 13 13
REMARK SMILES IDX 14 14
REMARK H PARENT
REMARK Flexibility Score: inf
ROOT
ATOM      1  C   UNL     1      -8.897  -7.937 -10.737  1.00  0.00     0.000 C 
ENDROOT
BRANCH   1   2
ATOM      2  C   UNL     1      -9.979  -7.116 -11.454  1.00  0.00     0.000 C 
BRANCH   2   3
ATOM      3  C   UNL     1     -10.371  -7.712 -12.816  1.00  0.00     0.006 C 
BRANCH   3   4
ATOM      4  C   UNL     1      -9.169  -7.881 -13.754  1.00  0.00     0.053 C 
BRANCH   4   5
ATOM      5  C   UNL     1      -8.786  -6.565 -14.355  1.00  0.00     0.041 C 
ATOM      6  O   UNL     1      -9.673  -5.782 -14.783  1.00  0.00    -0.550 OA
ATOM      7  O   UNL     1      -7.446  -6.226 -14.487  1.00  0.00    -0.550 OA
ENDBRANCH   4   5
ENDBRANCH   3   4
ENDBRANCH   2   3
ENDBRANCH   1   2
BRANCH   1   8
ATOM      8  C   UNL     1      -7.749  -7.033 -10.261  1.00  0.00     0.000 C 
BRANCH   8   9
ATOM      9  C   UNL     1      -7.786  -5.637 -10.905  1.00  0.00     0.000 C 
BRANCH   9  10
ATOM     10  C   UNL     1      -6.842  -4.641 -10.211  1.00  0.00     0.006 C 
BRANCH  10  11
ATOM     11  C   UNL     1      -6.857  -3.263 -10.886  1.00  0.00     0.053 C 
BRANCH  11  12
ATOM     12  C   UNL     1      -6.623  -3.361 -12.362  1.00  0.00     0.041 C 
ATOM     13  O   UNL     1      -7.469  -2.891 -13.170  1.00  0.00    -0.550 OA
ATOM     14  O   UNL     1      -5.488  -3.997 -12.848  1.00  0.00    -0.550 OA
ENDBRANCH  11  12
ENDBRANCH  10  11
ENDBRANCH   9  10
ENDBRANCH   8   9
ENDBRANCH   1   8
TORSDOF 9
ENDMDL
MODEL 8
REMARK VINA RESULT:    -4.088      1.955      2.957
REMARK INTER + INTRA:          -7.277
REMARK INTER:                  -6.642
REMARK INTRA:                  -0.635
REMARK UNBOUND:                -1.038
REMARK SMILES O=C([O-])CCCCCCCCC(=O)[O-]
REMARK SMILES IDX 7 1 6 2 5 3 4 4 2 5 1 6 3 7 8 8 9 9 10 10 11 11 12 12 13 13
REMARK SMILES IDX 14 14
REMARK H PARENT
REMARK Flexibility Score: inf
ROOT
ATOM      1  C   UNL     1      -8.530  -5.886 -14.366  1.00  0.00     0.000 C 
ENDROOT
BRANCH   1   2
ATOM      2  C   UNL     1      -7.003  -6.010 -14.474  1.00  0.00     0.000 C 
BRANCH   2   3
ATOM      3  C   UNL     1      -6.271  -5.403 -13.266  1.00  0.00     0.006 C 
BRANCH   3   4
ATOM      4  C   UNL     1      -6.142  -3.877 -13.360  1.00  0.00     0.053 C 
BRANCH   4   5
ATOM      5  C   UNL     1      -6.621  -3.235 -12.096  1.00  0.00     0.041 C 
ATOM      6  O   UNL     1      -7.051  -2.052 -12.109  1.00  0.00    -0.550 OA
ATOM      7  O   UNL     1      -6.546  -3.927 -10.894  1.00  0.00    -0.550 OA
ENDBRANCH   4   5
ENDBRANCH   3   4
ENDBRANCH   2   3
ENDBRANCH   1   2
BRANCH   1   8
ATOM      8  C   UNL     1      -9.189  -7.272 -14.303  1.00  0.00     0.000 C 
BRANCH   8   9
ATOM      9  C   UNL     1     -10.589  -7.237 -13.670  1.00  0.00     0.000 C 
BRANCH   9  10
ATOM     10  C   UNL     1     -10.550  -7.388 -12.140  1.00  0.00     0.006 C 
BRANCH  10  11
ATOM     11  C   UNL     1      -9.185  -7.878 -11.641  1.00  0.00     0.053 C 
BRANCH  11  12
ATOM     12  C   UNL     1      -8.589  -6.941 -10.634  1.00  0.00     0.041 C 
ATOM     13  O   UNL     1      -7.420  -7.134 -10.205  1.00  0.00    -0.550 OA
ATOM     14  O   UNL     1      -9.334  -5.875 -10.147  1.00  0.00    -0.550 OA
ENDBRANCH  11  12
ENDBRANCH  10  11
ENDBRANCH   9  10
ENDBRANCH   8   9
ENDBRANCH   1   8
TORSDOF 9
ENDMDL
MODEL 9
REMARK VINA RESULT:    -4.086      2.865      3.941
REMARK INTER + INTRA:          -7.273
REMARK INTER:                  -6.463
REMARK INTRA:                  -0.810
REMARK UNBOUND:                -1.038
REMARK SMILES O=C([O-])CCCCCCCCC(=O)[O-]
REMARK SMILES IDX 7 1 6 2 5 3 4 4 2 5 1 6 3 7 8 8 9 9 10 10 11 11 12 12 13 13
REMARK SMILES IDX 14 14
REMARK H PARENT
REMARK Flexibility Score: inf
ROOT
ATOM      1  C   UNL     1      -6.808  -3.297 -11.742  1.00  0.00     0.000 C 
ENDROOT
BRANCH   1   2
ATOM      2  C   UNL     1      -6.085  -3.891 -12.960  1.00  0.00     0.000 C 
BRANCH   2   3
ATOM      3  C   UNL     1      -7.055  -4.353 -14.059  1.00  0.00     0.006 C 
BRANCH   3   4
ATOM      4  C   UNL     1      -6.889  -5.837 -14.407  1.00  0.00     0.053 C 
BRANCH   4   5
ATOM      5  C   UNL     1      -8.218  -6.525 -14.410  1.00  0.00     0.041 C 
ATOM      6  O   UNL     1      -9.280  -5.853 -14.485  1.00  0.00    -0.550 OA
ATOM      7  O   UNL     1      -8.286  -7.906 -14.279  1.00  0.00    -0.550 OA
ENDBRANCH   4   5
ENDBRANCH   3   4
ENDBRANCH   2   3
ENDBRANCH   1   2
BRANCH   1   8
ATOM      8  C   UNL     1      -6.612  -4.183 -10.503  1.00  0.00     0.000 C 
BRANCH   8   9
ATOM      9  C   UNL     1      -7.723  -5.233 -10.341  1.00  0.00     0.000 C 
BRANCH   9  10
ATOM     10  C   UNL     1      -7.306  -6.620 -10.857  1.00  0.00     0.006 C 
BRANCH  10  11
ATOM     11  C   UNL     1      -8.140  -7.746 -10.231  1.00  0.00     0.053 C 
BRANCH  11  12
ATOM     12  C   UNL     1      -9.611  -7.505 -10.386  1.00  0.00     0.041 C 
ATOM     13  O   UNL     1     -10.122  -7.431 -11.535  1.00  0.00    -0.550 OA
ATOM     14  O   UNL     1     -10.412  -7.331  -9.264  1.00  0.00    -0.550 OA
ENDBRANCH  11  12
ENDBRANCH  10  11
ENDBRANCH   9  10
ENDBRANCH   8   9
ENDBRANCH   1   8
TORSDOF 9
ENDMDL
