MODEL 1
REMARK VINA RESULT:    -4.166      0.000      0.000
REMARK INTER + INTRA:          -9.369
REMARK INTER:                  -7.575
REMARK INTRA:                  -1.794
REMARK UNBOUND:                -1.794
REMARK SMILES CCCCCCCCCCCCCCCC(=O)[O-]
REMARK SMILES IDX 9 1 10 2 11 3 12 4 13 5 14 6 15 7 16 8 17 9 18 10 8 11 7 12
REMARK SMILES IDX 6 13 5 14 4 15 3 16 2 17 1 18
REMARK H PARENT
REMARK Flexibility Score: inf
ROOT
ATOM      1  C   UNL     1       9.407 -15.485  31.922  1.00  0.00     0.000 C 
ENDROOT
BRANCH   1   2
ATOM      2  C   UNL     1       9.646 -16.617  30.905  1.00  0.00     0.000 C 
BRANCH   2   3
ATOM      3  C   UNL     1      10.784 -17.565  31.316  1.00  0.00     0.000 C 
BRANCH   3   4
ATOM      4  C   UNL     1      10.283 -18.955  31.752  1.00  0.00     0.000 C 
BRANCH   4   5
ATOM      5  C   UNL     1       8.763 -19.171  31.635  1.00  0.00     0.000 C 
BRANCH   5   6
ATOM      6  C   UNL     1       8.382 -20.188  30.548  1.00  0.00     0.006 C 
BRANCH   6   7
ATOM      7  C   UNL     1       9.629 -20.733  29.846  1.00  0.00     0.053 C 
BRANCH   7   8
ATOM      8  C   UNL     1       9.594 -20.406  28.386  1.00  0.00     0.041 C 
ATOM      9  O   UNL     1       9.375 -21.311  27.539  1.00  0.00    -0.550 OA
ATOM     10  O   UNL     1       9.754 -19.092  27.965  1.00  0.00    -0.550 OA
ENDBRANCH   7   8
ENDBRANCH   6   7
ENDBRANCH   5   6
ENDBRANCH   4   5
ENDBRANCH   3   4
ENDBRANCH   2   3
ENDBRANCH   1   2
BRANCH   1  11
ATOM     11  C   UNL     1      10.646 -14.645  32.282  1.00  0.00     0.000 C 
BRANCH  11  12
ATOM     12  C   UNL     1      11.197 -14.956  33.684  1.00  0.00    -0.000 C 
BRANCH  12  13
ATOM     13  C   UNL     1      10.161 -14.730  34.800  1.00  0.00    -0.000 C 
BRANCH  13  14
ATOM     14  C   UNL     1       9.950 -15.920  35.759  1.00  0.00    -0.000 C 
BRANCH  14  15
ATOM     15  C   UNL     1       9.417 -17.205  35.101  1.00  0.00    -0.000 C 
BRANCH  15  16
ATOM     16  C   UNL     1       7.905 -17.204  34.808  1.00  0.00    -0.000 C 
BRANCH  16  17
ATOM     17  C   UNL     1       7.041 -16.752  36.004  1.00  0.00    -0.003 C 
ATOM     18  C   UNL     1       6.264 -17.905  36.640  1.00  0.00     0.004 C 
ENDBRANCH  16  17
ENDBRANCH  15  16
ENDBRANCH  14  15
ENDBRANCH  13  14
ENDBRANCH  12  13
ENDBRANCH  11  12
ENDBRANCH   1  11
TORSDOF 14
ENDMDL
MODEL 2
REMARK VINA RESULT:    -4.154      3.288      6.215
REMARK INTER + INTRA:          -9.348
REMARK INTER:                  -7.430
REMARK INTRA:                  -1.918
REMARK UNBOUND:                -1.794
REMARK SMILES CCCCCCCCCCCCCCCC(=O)[O-]
REMARK SMILES IDX 9 1 10 2 11 3 12 4 13 5 14 6 15 7 16 8 17 9 18 10 8 11 7 12
REMARK SMILES IDX 6 13 5 14 4 15 3 16 2 17 1 18
REMARK H PARENT
REMARK Flexibility Score: inf
ROOT
ATOM      1  C   UNL     1       9.757 -16.536  31.606  1.00  0.00     0.000 C 
ENDROOT
BRANCH   1   2
ATOM      2  C   UNL     1      10.346 -15.184  32.049  1.00  0.00     0.000 C 
BRANCH   2   3
ATOM      3  C   UNL     1      11.020 -15.244  33.429  1.00  0.00     0.000 C 
BRANCH   3   4
ATOM      4  C   UNL     1      10.045 -14.964  34.588  1.00  0.00     0.000 C 
BRANCH   4   5
ATOM      5  C   UNL     1       9.974 -16.060  35.667  1.00  0.00     0.000 C 
BRANCH   5   6
ATOM      6  C   UNL     1       9.236 -17.322  35.195  1.00  0.00     0.006 C 
BRANCH   6   7
ATOM      7  C   UNL     1       7.790 -16.998  34.808  1.00  0.00     0.053 C 
BRANCH   7   8
ATOM      8  C   UNL     1       6.907 -17.018  36.016  1.00  0.00     0.041 C 
ATOM      9  O   UNL     1       6.592 -18.112  36.553  1.00  0.00    -0.550 OA
ATOM     10  O   UNL     1       6.472 -15.825  36.578  1.00  0.00    -0.550 OA
ENDBRANCH   7   8
ENDBRANCH   6   7
ENDBRANCH   5   6
ENDBRANCH   4   5
ENDBRANCH   3   4
ENDBRANCH   2   3
ENDBRANCH   1   2
BRANCH   1  11
ATOM     11  C   UNL     1      10.788 -17.627  31.260  1.00  0.00     0.000 C 
BRANCH  11  12
ATOM     12  C   UNL     1      10.424 -19.004  31.841  1.00  0.00    -0.000 C 
BRANCH  12  13
ATOM     13  C   UNL     1      10.654 -20.155  30.843  1.00  0.00    -0.000 C 
BRANCH  13  14
ATOM     14  C   UNL     1       9.827 -20.080  29.544  1.00  0.00    -0.000 C 
BRANCH  14  15
ATOM     15  C   UNL     1       8.770 -21.186  29.374  1.00  0.00    -0.000 C 
BRANCH  15  16
ATOM     16  C   UNL     1       7.418 -20.899  30.054  1.00  0.00    -0.000 C 
BRANCH  16  17
ATOM     17  C   UNL     1       7.098 -19.395  30.190  1.00  0.00    -0.003 C 
ATOM     18  C   UNL     1       6.834 -18.976  31.636  1.00  0.00     0.004 C 
ENDBRANCH  16  17
ENDBRANCH  15  16
ENDBRANCH  14  15
ENDBRANCH  13  14
ENDBRANCH  12  13
ENDBRANCH  11  12
ENDBRANCH   1  11
TORSDOF 14
ENDMDL
MODEL 3
REMARK VINA RESULT:    -4.112      3.681      6.720
REMARK INTER + INTRA:          -9.271
REMARK INTER:                  -6.988
REMARK INTRA:                  -2.283
REMARK UNBOUND:                -1.794
REMARK SMILES CCCCCCCCCCCCCCCC(=O)[O-]
REMARK SMILES IDX 9 1 10 2 11 3 12 4 13 5 14 6 15 7 16 8 17 9 18 10 8 11 7 12
REMARK SMILES IDX 6 13 5 14 4 15 3 16 2 17 1 18
REMARK H PARENT
REMARK Flexibility Score: inf
ROOT
ATOM      1  C   UNL     1       6.602 -17.739  31.236  1.00  0.00     0.000 C 
ENDROOT
BRANCH   1   2
ATOM      2  C   UNL     1       7.023 -17.987  32.696  1.00  0.00     0.000 C 
BRANCH   2   3
ATOM      3  C   UNL     1       7.950 -16.893  33.249  1.00  0.00     0.000 C 
BRANCH   3   4
ATOM      4  C   UNL     1       9.112 -17.456  34.089  1.00  0.00     0.000 C 
BRANCH   4   5
ATOM      5  C   UNL     1       9.775 -16.453  35.050  1.00  0.00     0.000 C 
BRANCH   5   6
ATOM      6  C   UNL     1       9.984 -15.066  34.422  1.00  0.00     0.006 C 
BRANCH   6   7
ATOM      7  C   UNL     1      11.402 -14.926  33.860  1.00  0.00     0.053 C 
BRANCH   7   8
ATOM      8  C   UNL     1      12.110 -13.777  34.506  1.00  0.00     0.041 C 
ATOM      9  O   UNL     1      11.930 -13.527  35.727  1.00  0.00    -0.550 OA
ATOM     10  O   UNL     1      13.006 -13.012  33.771  1.00  0.00    -0.550 OA
ENDBRANCH   7   8
ENDBRANCH   6   7
ENDBRANCH   5   6
ENDBRANCH   4   5
ENDBRANCH   3   4
ENDBRANCH   2   3
ENDBRANCH   1   2
BRANCH   1  11
ATOM     11  C   UNL     1       6.975 -18.853  30.239  1.00  0.00     0.000 C 
BRANCH  11  12
ATOM     12  C   UNL     1       7.796 -19.984  30.881  1.00  0.00    -0.000 C 
BRANCH  12  13
ATOM     13  C   UNL     1       8.726 -20.693  29.879  1.00  0.00    -0.000 C 
BRANCH  13  14
ATOM     14  C   UNL     1      10.216 -20.304  29.970  1.00  0.00    -0.000 C 
BRANCH  14  15
ATOM     15  C   UNL     1      10.636 -19.619  31.283  1.00  0.00    -0.000 C 
BRANCH  15  16
ATOM     16  C   UNL     1      11.135 -18.170  31.126  1.00  0.00    -0.000 C 
BRANCH  16  17
ATOM     17  C   UNL     1      10.367 -17.361  30.059  1.00  0.00    -0.003 C 
ATOM     18  C   UNL     1      10.196 -15.892  30.443  1.00  0.00     0.004 C 
ENDBRANCH  16  17
ENDBRANCH  15  16
ENDBRANCH  14  15
ENDBRANCH  13  14
ENDBRANCH  12  13
ENDBRANCH  11  12
ENDBRANCH   1  11
TORSDOF 14
ENDMDL
MODEL 4
REMARK VINA RESULT:    -4.104      3.670      6.583
REMARK INTER + INTRA:          -9.257
REMARK INTER:                  -7.288
REMARK INTRA:                  -1.969
REMARK UNBOUND:                -1.794
REMARK SMILES CCCCCCCCCCCCCCCC(=O)[O-]
REMARK SMILES IDX 9 1 10 2 11 3 12 4 13 5 14 6 15 7 16 8 17 9 18 10 8 11 7 12
REMARK SMILES IDX 6 13 5 14 4 15 3 16 2 17 1 18
REMARK H PARENT
REMARK Flexibility Score: inf
ROOT
ATOM      1  C   UNL     1       8.047 -16.673  32.830  1.00  0.00     0.000 C 
ENDROOT
BRANCH   1   2
ATOM      2  C   UNL     1       7.749 -16.455  34.325  1.00  0.00     0.000 C 
BRANCH   2   3
ATOM      3  C   UNL     1       8.718 -17.210  35.248  1.00  0.00     0.000 C 
BRANCH   3   4
ATOM      4  C   UNL     1       9.951 -16.374  35.640  1.00  0.00     0.000 C 
BRANCH   4   5
ATOM      5  C   UNL     1       9.644 -14.966  36.183  1.00  0.00     0.000 C 
BRANCH   5   6
ATOM      6  C   UNL     1      10.108 -13.845  35.241  1.00  0.00     0.006 C 
BRANCH   6   7
ATOM      7  C   UNL     1      11.410 -14.228  34.531  1.00  0.00     0.053 C 
BRANCH   7   8
ATOM      8  C   UNL     1      12.521 -13.315  34.946  1.00  0.00     0.041 C 
ATOM      9  O   UNL     1      12.378 -12.555  35.940  1.00  0.00    -0.550 OA
ATOM     10  O   UNL     1      13.732 -13.341  34.267  1.00  0.00    -0.550 OA
ENDBRANCH   7   8
ENDBRANCH   6   7
ENDBRANCH   5   6
ENDBRANCH   4   5
ENDBRANCH   3   4
ENDBRANCH   2   3
ENDBRANCH   1   2
BRANCH   1  11
ATOM     11  C   UNL     1       8.484 -15.419  32.050  1.00  0.00     0.000 C 
BRANCH  11  12
ATOM     12  C   UNL     1       9.861 -15.574  31.383  1.00  0.00    -0.000 C 
BRANCH  12  13
ATOM     13  C   UNL     1      10.688 -16.729  31.978  1.00  0.00    -0.000 C 
BRANCH  13  14
ATOM     14  C   UNL     1      10.963 -17.908  31.022  1.00  0.00    -0.000 C 
BRANCH  14  15
ATOM     15  C   UNL     1      10.506 -19.286  31.532  1.00  0.00    -0.000 C 
BRANCH  15  16
ATOM     16  C   UNL     1      10.327 -20.355  30.438  1.00  0.00    -0.000 C 
BRANCH  16  17
ATOM     17  C   UNL     1       8.895 -20.426  29.867  1.00  0.00    -0.003 C 
ATOM     18  C   UNL     1       7.846 -19.881  30.836  1.00  0.00     0.004 C 
ENDBRANCH  16  17
ENDBRANCH  15  16
ENDBRANCH  14  15
ENDBRANCH  13  14
ENDBRANCH  12  13
ENDBRANCH  11  12
ENDBRANCH   1  11
TORSDOF 14
ENDMDL
MODEL 5
REMARK VINA RESULT:    -4.032      1.647      3.298
REMARK INTER + INTRA:          -9.126
REMARK INTER:                  -7.012
REMARK INTRA:                  -2.114
REMARK UNBOUND:                -1.794
REMARK SMILES CCCCCCCCCCCCCCCC(=O)[O-]
REMARK SMILES IDX 9 1 10 2 11 3 12 4 13 5 14 6 15 7 16 8 17 9 18 10 8 11 7 12
REMARK SMILES IDX 6 13 5 14 4 15 3 16 2 17 1 18
REMARK H PARENT
REMARK Flexibility Score: inf
ROOT
ATOM      1  C   UNL     1       9.603 -16.514  30.994  1.00  0.00     0.000 C 
ENDROOT
BRANCH   1   2
ATOM      2  C   UNL     1      10.741 -17.253  31.722  1.00  0.00     0.000 C 
BRANCH   2   3
ATOM      3  C   UNL     1      11.303 -18.435  30.917  1.00  0.00     0.000 C 
BRANCH   3   4
ATOM      4  C   UNL     1      10.735 -19.794  31.367  1.00  0.00     0.000 C 
BRANCH   4   5
ATOM      5  C   UNL     1      10.315 -20.741  30.228  1.00  0.00     0.000 C 
BRANCH   5   6
ATOM      6  C   UNL     1       9.092 -20.236  29.447  1.00  0.00     0.006 C 
BRANCH   6   7
ATOM      7  C   UNL     1       7.824 -20.316  30.301  1.00  0.00     0.053 C 
BRANCH   7   8
ATOM      8  C   UNL     1       6.940 -21.426  29.824  1.00  0.00     0.041 C 
ATOM      9  O   UNL     1       5.750 -21.506  30.228  1.00  0.00    -0.550 OA
ATOM     10  O   UNL     1       7.414 -22.341  28.894  1.00  0.00    -0.550 OA
ENDBRANCH   7   8
ENDBRANCH   6   7
ENDBRANCH   5   6
ENDBRANCH   4   5
ENDBRANCH   3   4
ENDBRANCH   2   3
ENDBRANCH   1   2
BRANCH   1  11
ATOM     11  C   UNL     1       8.220 -16.594  31.668  1.00  0.00     0.000 C 
BRANCH  11  12
ATOM     12  C   UNL     1       8.197 -17.537  32.883  1.00  0.00    -0.000 C 
BRANCH  12  13
ATOM     13  C   UNL     1       7.940 -16.798  34.210  1.00  0.00    -0.000 C 
BRANCH  13  14
ATOM     14  C   UNL     1       8.820 -17.243  35.396  1.00  0.00    -0.000 C 
BRANCH  14  15
ATOM     15  C   UNL     1       9.982 -16.294  35.743  1.00  0.00    -0.000 C 
BRANCH  15  16
ATOM     16  C   UNL     1       9.985 -14.964  34.966  1.00  0.00    -0.000 C 
BRANCH  16  17
ATOM     17  C   UNL     1      11.295 -14.700  34.194  1.00  0.00    -0.003 C 
ATOM     18  C   UNL     1      11.113 -13.709  33.045  1.00  0.00     0.004 C 
ENDBRANCH  16  17
ENDBRANCH  15  16
ENDBRANCH  14  15
ENDBRANCH  13  14
ENDBRANCH  12  13
ENDBRANCH  11  12
ENDBRANCH   1  11
TORSDOF 14
ENDMDL
MODEL 6
REMARK VINA RESULT:    -4.018      3.078      6.506
REMARK INTER + INTRA:          -9.100
REMARK INTER:                  -7.271
REMARK INTRA:                  -1.829
REMARK UNBOUND:                -1.794
REMARK SMILES CCCCCCCCCCCCCCCC(=O)[O-]
REMARK SMILES IDX 9 1 10 2 11 3 12 4 13 5 14 6 15 7 16 8 17 9 18 10 8 11 7 12
REMARK SMILES IDX 6 13 5 14 4 15 3 16 2 17 1 18
REMARK H PARENT
REMARK Flexibility Score: inf
ROOT
ATOM      1  C   UNL     1       9.103 -16.206  31.129  1.00  0.00     0.000 C 
ENDROOT
BRANCH   1   2
ATOM      2  C   UNL     1       7.911 -17.026  31.657  1.00  0.00     0.000 C 
BRANCH   2   3
ATOM      3  C   UNL     1       8.214 -17.742  32.983  1.00  0.00     0.000 C 
BRANCH   3   4
ATOM      4  C   UNL     1       7.280 -17.308  34.129  1.00  0.00     0.000 C 
BRANCH   4   5
ATOM      5  C   UNL     1       7.975 -17.023  35.472  1.00  0.00     0.000 C 
BRANCH   5   6
ATOM      6  C   UNL     1       9.507 -16.990  35.361  1.00  0.00     0.006 C 
BRANCH   6   7
ATOM      7  C   UNL     1      10.055 -15.610  35.738  1.00  0.00     0.053 C 
BRANCH   7   8
ATOM      8  C   UNL     1      10.404 -14.832  34.508  1.00  0.00     0.041 C 
ATOM      9  O   UNL     1       9.534 -14.121  33.940  1.00  0.00    -0.550 OA
ATOM     10  O   UNL     1      11.704 -14.852  34.019  1.00  0.00    -0.550 OA
ENDBRANCH   7   8
ENDBRANCH   6   7
ENDBRANCH   5   6
ENDBRANCH   4   5
ENDBRANCH   3   4
ENDBRANCH   2   3
ENDBRANCH   1   2
BRANCH   1  11
ATOM     11  C   UNL     1      10.495 -16.808  31.401  1.00  0.00     0.000 C 
BRANCH  11  12
ATOM     12  C   UNL     1      10.837 -17.979  30.466  1.00  0.00    -0.000 C 
BRANCH  12  13
ATOM     13  C   UNL     1      10.940 -19.326  31.205  1.00  0.00    -0.000 C 
BRANCH  13  14
ATOM     14  C   UNL     1      10.250 -20.517  30.509  1.00  0.00    -0.000 C 
BRANCH  14  15
ATOM     15  C   UNL     1       8.739 -20.349  30.265  1.00  0.00    -0.000 C 
BRANCH  15  16
ATOM     16  C   UNL     1       8.340 -20.143  28.791  1.00  0.00    -0.000 C 
BRANCH  16  17
ATOM     17  C   UNL     1       8.768 -21.301  27.865  1.00  0.00    -0.003 C 
ATOM     18  C   UNL     1       9.905 -20.912  26.921  1.00  0.00     0.004 C 
ENDBRANCH  16  17
ENDBRANCH  15  16
ENDBRANCH  14  15
ENDBRANCH  13  14
ENDBRANCH  12  13
ENDBRANCH  11  12
ENDBRANCH   1  11
TORSDOF 14
ENDMDL
MODEL 7
REMARK VINA RESULT:    -3.992      3.739      6.790
REMARK INTER + INTRA:          -9.054
REMARK INTER:                  -7.445
REMARK INTRA:                  -1.609
REMARK UNBOUND:                -1.794
REMARK SMILES CCCCCCCCCCCCCCCC(=O)[O-]
REMARK SMILES IDX 9 1 10 2 11 3 12 4 13 5 14 6 15 7 16 8 17 9 18 10 8 11 7 12
REMARK SMILES IDX 6 13 5 14 4 15 3 16 2 17 1 18
REMARK H PARENT
REMARK Flexibility Score: inf
ROOT
ATOM      1  C   UNL     1       9.429 -16.062  31.878  1.00  0.00     0.000 C 
ENDROOT
BRANCH   1   2
ATOM      2  C   UNL     1       8.447 -16.446  33.000  1.00  0.00     0.000 C 
BRANCH   2   3
ATOM      3  C   UNL     1       9.013 -17.506  33.959  1.00  0.00     0.000 C 
BRANCH   3   4
ATOM      4  C   UNL     1       9.459 -16.919  35.311  1.00  0.00     0.000 C 
BRANCH   4   5
ATOM      5  C   UNL     1       9.182 -15.416  35.498  1.00  0.00     0.000 C 
BRANCH   5   6
ATOM      6  C   UNL     1      10.433 -14.619  35.896  1.00  0.00     0.006 C 
BRANCH   6   7
ATOM      7  C   UNL     1      11.333 -14.368  34.683  1.00  0.00     0.053 C 
BRANCH   7   8
ATOM      8  C   UNL     1      12.444 -13.431  35.039  1.00  0.00     0.041 C 
ATOM      9  O   UNL     1      12.336 -12.671  36.039  1.00  0.00    -0.550 OA
ATOM     10  O   UNL     1      13.618 -13.431  34.298  1.00  0.00    -0.550 OA
ENDBRANCH   7   8
ENDBRANCH   6   7
ENDBRANCH   5   6
ENDBRANCH   4   5
ENDBRANCH   3   4
ENDBRANCH   2   3
ENDBRANCH   1   2
BRANCH   1  11
ATOM     11  C   UNL     1      10.763 -16.832  31.871  1.00  0.00     0.000 C 
BRANCH  11  12
ATOM     12  C   UNL     1      10.864 -17.849  30.722  1.00  0.00    -0.000 C 
BRANCH  12  13
ATOM     13  C   UNL     1      10.752 -19.309  31.201  1.00  0.00    -0.000 C 
BRANCH  13  14
ATOM     14  C   UNL     1       9.590 -20.118  30.589  1.00  0.00    -0.000 C 
BRANCH  14  15
ATOM     15  C   UNL     1       8.182 -19.693  31.044  1.00  0.00    -0.000 C 
BRANCH  15  16
ATOM     16  C   UNL     1       7.035 -20.178  30.139  1.00  0.00    -0.000 C 
BRANCH  16  17
ATOM     17  C   UNL     1       7.329 -21.516  29.426  1.00  0.00    -0.003 C 
ATOM     18  C   UNL     1       6.266 -22.578  29.702  1.00  0.00     0.004 C 
ENDBRANCH  16  17
ENDBRANCH  15  16
ENDBRANCH  14  15
ENDBRANCH  13  14
ENDBRANCH  12  13
ENDBRANCH  11  12
ENDBRANCH   1  11
TORSDOF 14
ENDMDL
MODEL 8
REMARK VINA RESULT:    -3.985      1.241      2.440
REMARK INTER + INTRA:          -9.040
REMARK INTER:                  -6.978
REMARK INTRA:                  -2.062
REMARK UNBOUND:                -1.794
REMARK SMILES CCCCCCCCCCCCCCCC(=O)[O-]
REMARK SMILES IDX 9 1 10 2 11 3 12 4 13 5 14 6 15 7 16 8 17 9 18 10 8 11 7 12
REMARK SMILES IDX 6 13 5 14 4 15 3 16 2 17 1 18
REMARK H PARENT
REMARK Flexibility Score: inf
ROOT
ATOM      1  C   UNL     1       7.869 -17.245  31.773  1.00  0.00     0.000 C 
ENDROOT
BRANCH   1   2
ATOM      2  C   UNL     1       8.435 -18.663  31.976  1.00  0.00     0.000 C 
BRANCH   2   3
ATOM      3  C   UNL     1       9.959 -18.681  32.173  1.00  0.00     0.000 C 
BRANCH   3   4
ATOM      4  C   UNL     1      10.709 -19.347  31.004  1.00  0.00     0.000 C 
BRANCH   4   5
ATOM      5  C   UNL     1      10.019 -20.583  30.399  1.00  0.00     0.000 C 
BRANCH   5   6
ATOM      6  C   UNL     1       9.892 -20.513  28.870  1.00  0.00     0.006 C 
BRANCH   6   7
ATOM      7  C   UNL     1       8.922 -19.405  28.450  1.00  0.00     0.053 C 
BRANCH   7   8
ATOM      8  C   UNL     1       9.620 -18.391  27.601  1.00  0.00     0.041 C 
ATOM      9  O   UNL     1      10.136 -17.370  28.128  1.00  0.00    -0.550 OA
ATOM     10  O   UNL     1       9.746 -18.598  26.234  1.00  0.00    -0.550 OA
ENDBRANCH   7   8
ENDBRANCH   6   7
ENDBRANCH   5   6
ENDBRANCH   4   5
ENDBRANCH   3   4
ENDBRANCH   2   3
ENDBRANCH   1   2
BRANCH   1  11
ATOM     11  C   UNL     1       8.873 -16.199  31.252  1.00  0.00     0.000 C 
BRANCH  11  12
ATOM     12  C   UNL     1       9.100 -15.040  32.237  1.00  0.00    -0.000 C 
BRANCH  12  13
ATOM     13  C   UNL     1      10.588 -14.689  32.418  1.00  0.00    -0.000 C 
BRANCH  13  14
ATOM     14  C   UNL     1      11.196 -15.069  33.784  1.00  0.00    -0.000 C 
BRANCH  14  15
ATOM     15  C   UNL     1      10.400 -14.591  35.012  1.00  0.00    -0.000 C 
BRANCH  15  16
ATOM     16  C   UNL     1      10.048 -15.696  36.025  1.00  0.00    -0.000 C 
BRANCH  16  17
ATOM     17  C   UNL     1       9.460 -16.968  35.376  1.00  0.00    -0.003 C 
ATOM     18  C   UNL     1       7.940 -17.049  35.508  1.00  0.00     0.004 C 
ENDBRANCH  16  17
ENDBRANCH  15  16
ENDBRANCH  14  15
ENDBRANCH  13  14
ENDBRANCH  12  13
ENDBRANCH  11  12
ENDBRANCH   1  11
TORSDOF 14
ENDMDL
MODEL 9
REMARK VINA RESULT:    -3.909      3.761      6.623
REMARK INTER + INTRA:          -8.903
REMARK INTER:                  -6.739
REMARK INTRA:                  -2.164
REMARK UNBOUND:                -1.794
REMARK SMILES CCCCCCCCCCCCCCCC(=O)[O-]
REMARK SMILES IDX 9 1 10 2 11 3 12 4 13 5 14 6 15 7 16 8 17 9 18 10 8 11 7 12
REMARK SMILES IDX 6 13 5 14 4 15 3 16 2 17 1 18
REMARK H PARENT
REMARK Flexibility Score: inf
ROOT
ATOM      1  C   UNL     1       7.481 -19.610  30.981  1.00  0.00     0.000 C 
ENDROOT
BRANCH   1   2
ATOM      2  C   UNL     1       6.995 -18.179  31.274  1.00  0.00     0.000 C 
BRANCH   2   3
ATOM      3  C   UNL     1       6.837 -17.892  32.776  1.00  0.00     0.000 C 
BRANCH   3   4
ATOM      4  C   UNL     1       8.184 -17.817  33.519  1.00  0.00     0.000 C 
BRANCH   4   5
ATOM      5  C   UNL     1       8.135 -17.141  34.901  1.00  0.00     0.000 C 
BRANCH   5   6
ATOM      6  C   UNL     1       9.527 -16.783  35.445  1.00  0.00     0.006 C 
BRANCH   6   7
ATOM      7  C   UNL     1      10.081 -15.534  34.754  1.00  0.00     0.053 C 
BRANCH   7   8
ATOM      8  C   UNL     1      10.172 -14.396  35.722  1.00  0.00     0.041 C 
ATOM      9  O   UNL     1       9.205 -14.135  36.485  1.00  0.00    -0.550 OA
ATOM     10  O   UNL     1      11.343 -13.656  35.817  1.00  0.00    -0.550 OA
ENDBRANCH   7   8
ENDBRANCH   6   7
ENDBRANCH   5   6
ENDBRANCH   4   5
ENDBRANCH   3   4
ENDBRANCH   2   3
ENDBRANCH   1   2
BRANCH   1  11
ATOM     11  C   UNL     1       8.588 -19.731  29.916  1.00  0.00     0.000 C 
BRANCH  11  12
ATOM     12  C   UNL     1       9.845 -20.450  30.434  1.00  0.00    -0.000 C 
BRANCH  12  13
ATOM     13  C   UNL     1      10.723 -19.556  31.329  1.00  0.00    -0.000 C 
BRANCH  13  14
ATOM     14  C   UNL     1      11.165 -18.219  30.698  1.00  0.00    -0.000 C 
BRANCH  14  15
ATOM     15  C   UNL     1      10.785 -16.959  31.497  1.00  0.00    -0.000 C 
BRANCH  15  16
ATOM     16  C   UNL     1       9.954 -15.924  30.717  1.00  0.00    -0.000 C 
BRANCH  16  17
ATOM     17  C   UNL     1       9.995 -16.121  29.187  1.00  0.00    -0.003 C 
ATOM     18  C   UNL     1       8.602 -16.248  28.571  1.00  0.00     0.004 C 
ENDBRANCH  16  17
ENDBRANCH  15  16
ENDBRANCH  14  15
ENDBRANCH  13  14
ENDBRANCH  12  13
ENDBRANCH  11  12
ENDBRANCH   1  11
TORSDOF 14
ENDMDL
