MODEL 1
REMARK VINA RESULT:    -5.287      0.000      0.000
REMARK INTER + INTRA:         -12.159
REMARK INTER:                  -9.923
REMARK INTRA:                  -2.236
REMARK UNBOUND:                -2.236
REMARK SMILES CCCCCCCCC=CCCCCCCCC(=O)[O-]
REMARK SMILES IDX 10 1 9 2 11 3 12 4 13 5 14 6 15 7 16 8 17 9 18 10 19 11
REMARK SMILES IDX 20 12 8 13 7 14 6 15 5 16 4 17 3 18 2 19 1 20
REMARK H PARENT
REMARK Flexibility Score: inf
ROOT
ATOM      1  C   UNL     1     150.844 168.838 150.872  1.00  0.00    -0.031 C 
ATOM      2  C   UNL     1     150.660 168.178 152.024  1.00  0.00    -0.031 C 
ENDROOT
BRANCH   1   3
ATOM      3  C   UNL     1     150.810 168.135 149.542  1.00  0.00     0.027 C 
BRANCH   3   4
ATOM      4  C   UNL     1     149.835 168.818 148.574  1.00  0.00     0.004 C 
BRANCH   4   5
ATOM      5  C   UNL     1     148.672 169.508 149.310  1.00  0.00     0.000 C 
BRANCH   5   6
ATOM      6  C   UNL     1     147.393 168.642 149.332  1.00  0.00     0.000 C 
BRANCH   6   7
ATOM      7  C   UNL     1     146.468 168.925 150.531  1.00  0.00     0.000 C 
BRANCH   7   8
ATOM      8  C   UNL     1     147.183 169.038 151.888  1.00  0.00     0.006 C 
BRANCH   8   9
ATOM      9  C   UNL     1     146.983 170.408 152.550  1.00  0.00     0.053 C 
BRANCH   9  10
ATOM     10  C   UNL     1     146.703 170.249 154.011  1.00  0.00     0.041 C 
ATOM     11  O   UNL     1     147.474 169.558 154.731  1.00  0.00    -0.550 OA
ATOM     12  O   UNL     1     145.580 170.843 154.575  1.00  0.00    -0.550 OA
ENDBRANCH   9  10
ENDBRANCH   8   9
ENDBRANCH   7   8
ENDBRANCH   6   7
ENDBRANCH   5   6
ENDBRANCH   4   5
ENDBRANCH   3   4
ENDBRANCH   1   3
BRANCH   2  13
ATOM     13  C   UNL     1     150.749 168.878 153.352  1.00  0.00     0.027 C 
BRANCH  13  14
ATOM     14  C   UNL     1     150.600 170.397 153.183  1.00  0.00     0.004 C 
BRANCH  14  15
ATOM     15  C   UNL     1     151.754 171.175 153.834  1.00  0.00     0.000 C 
BRANCH  15  16
ATOM     16  C   UNL     1     153.012 171.213 152.946  1.00  0.00     0.000 C 
BRANCH  16  17
ATOM     17  C   UNL     1     154.009 170.091 153.303  1.00  0.00    -0.000 C 
BRANCH  17  18
ATOM     18  C   UNL     1     154.933 169.692 152.137  1.00  0.00    -0.000 C 
BRANCH  18  19
ATOM     19  C   UNL     1     154.767 168.224 151.715  1.00  0.00    -0.003 C 
ATOM     20  C   UNL     1     155.230 167.278 152.821  1.00  0.00     0.004 C 
ENDBRANCH  18  19
ENDBRANCH  17  18
ENDBRANCH  16  17
ENDBRANCH  15  16
ENDBRANCH  14  15
ENDBRANCH  13  14
ENDBRANCH   2  13
TORSDOF 15
ENDMDL
MODEL 2
REMARK VINA RESULT:    -5.275      3.387      6.547
REMARK INTER + INTRA:         -12.137
REMARK INTER:                  -9.695
REMARK INTRA:                  -2.442
REMARK UNBOUND:                -2.236
REMARK SMILES CCCCCCCCC=CCCCCCCCC(=O)[O-]
REMARK SMILES IDX 10 1 9 2 11 3 12 4 13 5 14 6 15 7 16 8 17 9 18 10 19 11
REMARK SMILES IDX 20 12 8 13 7 14 6 15 5 16 4 17 3 18 2 19 1 20
REMARK H PARENT
REMARK Flexibility Score: inf
ROOT
ATOM      1  C   UNL     1     149.020 171.180 150.746  1.00  0.00    -0.031 C 
ATOM      2  C   UNL     1     149.287 169.917 150.382  1.00  0.00    -0.031 C 
ENDROOT
BRANCH   1   3
ATOM      3  C   UNL     1     149.478 171.738 152.066  1.00  0.00     0.027 C 
BRANCH   3   4
ATOM      4  C   UNL     1     149.420 170.676 153.172  1.00  0.00     0.004 C 
BRANCH   4   5
ATOM      5  C   UNL     1     150.769 170.516 153.896  1.00  0.00     0.000 C 
BRANCH   5   6
ATOM      6  C   UNL     1     151.903 171.311 153.212  1.00  0.00     0.000 C 
BRANCH   6   7
ATOM      7  C   UNL     1     153.107 170.447 152.793  1.00  0.00     0.000 C 
BRANCH   7   8
ATOM      8  C   UNL     1     152.820 168.939 152.697  1.00  0.00     0.006 C 
BRANCH   8   9
ATOM      9  C   UNL     1     153.565 168.125 153.763  1.00  0.00     0.053 C 
BRANCH   9  10
ATOM     10  C   UNL     1     154.992 167.918 153.364  1.00  0.00     0.041 C 
ATOM     11  O   UNL     1     155.875 168.747 153.718  1.00  0.00    -0.550 OA
ATOM     12  O   UNL     1     155.346 166.824 152.582  1.00  0.00    -0.550 OA
ENDBRANCH   9  10
ENDBRANCH   8   9
ENDBRANCH   7   8
ENDBRANCH   6   7
ENDBRANCH   5   6
ENDBRANCH   4   5
ENDBRANCH   3   4
ENDBRANCH   1   3
BRANCH   2  13
ATOM     13  C   UNL     1     148.779 169.350 149.086  1.00  0.00     0.027 C 
BRANCH  13  14
ATOM     14  C   UNL     1     147.639 168.351 149.333  1.00  0.00     0.004 C 
BRANCH  14  15
ATOM     15  C   UNL     1     146.532 168.933 150.225  1.00  0.00     0.000 C 
BRANCH  15  16
ATOM     16  C   UNL     1     146.058 167.937 151.299  1.00  0.00     0.000 C 
BRANCH  16  17
ATOM     17  C   UNL     1     147.152 166.916 151.670  1.00  0.00    -0.000 C 
BRANCH  17  18
ATOM     18  C   UNL     1     148.000 167.333 152.887  1.00  0.00    -0.000 C 
BRANCH  18  19
ATOM     19  C   UNL     1     149.490 166.994 152.725  1.00  0.00    -0.003 C 
ATOM     20  C   UNL     1     150.121 166.631 154.066  1.00  0.00     0.004 C 
ENDBRANCH  18  19
ENDBRANCH  17  18
ENDBRANCH  16  17
ENDBRANCH  15  16
ENDBRANCH  14  15
ENDBRANCH  13  14
ENDBRANCH   2  13
TORSDOF 15
ENDMDL
MODEL 3
REMARK VINA RESULT:    -5.238      3.288      6.550
REMARK INTER + INTRA:         -12.067
REMARK INTER:                  -9.564
REMARK INTRA:                  -2.504
REMARK UNBOUND:                -2.236
REMARK SMILES CCCCCCCCC=CCCCCCCCC(=O)[O-]
REMARK SMILES IDX 10 1 9 2 11 3 12 4 13 5 14 6 15 7 16 8 17 9 18 10 19 11
REMARK SMILES IDX 20 12 8 13 7 14 6 15 5 16 4 17 3 18 2 19 1 20
REMARK H PARENT
REMARK Flexibility Score: inf
ROOT
ATOM      1  C   UNL     1     149.560 170.721 151.051  1.00  0.00    -0.031 C 
ATOM      2  C   UNL     1     148.630 170.401 150.139  1.00  0.00    -0.031 C 
ENDROOT
BRANCH   1   3
ATOM      3  C   UNL     1     149.519 172.026 151.799  1.00  0.00     0.027 C 
BRANCH   3   4
ATOM      4  C   UNL     1     150.518 172.033 152.964  1.00  0.00     0.004 C 
BRANCH   4   5
ATOM      5  C   UNL     1     151.768 171.187 152.663  1.00  0.00     0.000 C 
BRANCH   5   6
ATOM      6  C   UNL     1     152.043 170.133 153.758  1.00  0.00     0.000 C 
BRANCH   6   7
ATOM      7  C   UNL     1     152.613 168.807 153.220  1.00  0.00     0.000 C 
BRANCH   7   8
ATOM      8  C   UNL     1     153.889 168.316 153.927  1.00  0.00     0.006 C 
BRANCH   8   9
ATOM      9  C   UNL     1     154.949 167.801 152.945  1.00  0.00     0.053 C 
BRANCH   9  10
ATOM     10  C   UNL     1     155.029 168.689 151.744  1.00  0.00     0.041 C 
ATOM     11  O   UNL     1     154.667 168.260 150.615  1.00  0.00    -0.550 OA
ATOM     12  O   UNL     1     155.523 169.983 151.865  1.00  0.00    -0.550 OA
ENDBRANCH   9  10
ENDBRANCH   8   9
ENDBRANCH   7   8
ENDBRANCH   6   7
ENDBRANCH   5   6
ENDBRANCH   4   5
ENDBRANCH   3   4
ENDBRANCH   1   3
BRANCH   2  13
ATOM     13  C   UNL     1     148.707 169.120 149.357  1.00  0.00     0.027 C 
BRANCH  13  14
ATOM     14  C   UNL     1     149.892 168.262 149.824  1.00  0.00     0.004 C 
BRANCH  14  15
ATOM     15  C   UNL     1     149.442 167.002 150.580  1.00  0.00     0.000 C 
BRANCH  15  16
ATOM     16  C   UNL     1     149.467 167.191 152.107  1.00  0.00     0.000 C 
BRANCH  16  17
ATOM     17  C   UNL     1     148.058 167.100 152.729  1.00  0.00    -0.000 C 
BRANCH  17  18
ATOM     18  C   UNL     1     147.506 168.455 153.211  1.00  0.00    -0.000 C 
BRANCH  18  19
ATOM     19  C   UNL     1     148.484 169.212 154.121  1.00  0.00    -0.003 C 
ATOM     20  C   UNL     1     148.537 168.588 155.513  1.00  0.00     0.004 C 
ENDBRANCH  18  19
ENDBRANCH  17  18
ENDBRANCH  16  17
ENDBRANCH  15  16
ENDBRANCH  14  15
ENDBRANCH  13  14
ENDBRANCH   2  13
TORSDOF 15
ENDMDL
MODEL 4
REMARK VINA RESULT:    -5.205      1.912      2.526
REMARK INTER + INTRA:         -12.006
REMARK INTER:                  -9.964
REMARK INTRA:                  -2.041
REMARK UNBOUND:                -2.236
REMARK SMILES CCCCCCCCC=CCCCCCCCC(=O)[O-]
REMARK SMILES IDX 10 1 9 2 11 3 12 4 13 5 14 6 15 7 16 8 17 9 18 10 19 11
REMARK SMILES IDX 20 12 8 13 7 14 6 15 5 16 4 17 3 18 2 19 1 20
REMARK H PARENT
REMARK Flexibility Score: inf
ROOT
ATOM      1  C   UNL     1     150.633 169.491 151.108  1.00  0.00    -0.031 C 
ATOM      2  C   UNL     1     150.612 169.043 152.371  1.00  0.00    -0.031 C 
ENDROOT
BRANCH   1   3
ATOM      3  C   UNL     1     150.866 168.566 149.943  1.00  0.00     0.027 C 
BRANCH   3   4
ATOM      4  C   UNL     1     149.788 168.742 148.866  1.00  0.00     0.004 C 
BRANCH   4   5
ATOM      5  C   UNL     1     148.723 169.777 149.273  1.00  0.00     0.000 C 
BRANCH   5   6
ATOM      6  C   UNL     1     147.386 169.117 149.678  1.00  0.00     0.000 C 
BRANCH   6   7
ATOM      7  C   UNL     1     147.007 169.330 151.156  1.00  0.00     0.000 C 
BRANCH   7   8
ATOM      8  C   UNL     1     146.520 168.067 151.887  1.00  0.00     0.006 C 
BRANCH   8   9
ATOM      9  C   UNL     1     146.930 166.773 151.172  1.00  0.00     0.053 C 
BRANCH   9  10
ATOM     10  C   UNL     1     147.964 166.039 151.966  1.00  0.00     0.041 C 
ATOM     11  O   UNL     1     147.672 165.561 153.096  1.00  0.00    -0.550 OA
ATOM     12  O   UNL     1     149.256 165.902 151.471  1.00  0.00    -0.550 OA
ENDBRANCH   9  10
ENDBRANCH   8   9
ENDBRANCH   7   8
ENDBRANCH   6   7
ENDBRANCH   5   6
ENDBRANCH   4   5
ENDBRANCH   3   4
ENDBRANCH   1   3
BRANCH   2  13
ATOM     13  C   UNL     1     150.433 169.981 153.533  1.00  0.00     0.027 C 
BRANCH  13  14
ATOM     14  C   UNL     1     151.690 170.837 153.746  1.00  0.00     0.004 C 
BRANCH  14  15
ATOM     15  C   UNL     1     152.981 170.004 153.700  1.00  0.00     0.000 C 
BRANCH  15  16
ATOM     16  C   UNL     1     153.958 170.494 152.615  1.00  0.00     0.000 C 
BRANCH  16  17
ATOM     17  C   UNL     1     155.157 169.540 152.439  1.00  0.00    -0.000 C 
BRANCH  17  18
ATOM     18  C   UNL     1     154.756 168.113 152.019  1.00  0.00    -0.000 C 
BRANCH  18  19
ATOM     19  C   UNL     1     155.361 167.029 152.923  1.00  0.00    -0.003 C 
ATOM     20  C   UNL     1     154.335 166.518 153.932  1.00  0.00     0.004 C 
ENDBRANCH  18  19
ENDBRANCH  17  18
ENDBRANCH  16  17
ENDBRANCH  15  16
ENDBRANCH  14  15
ENDBRANCH  13  14
ENDBRANCH   2  13
TORSDOF 15
ENDMDL
MODEL 5
REMARK VINA RESULT:    -5.191      2.166      4.158
REMARK INTER + INTRA:         -11.980
REMARK INTER:                  -9.129
REMARK INTRA:                  -2.851
REMARK UNBOUND:                -2.236
REMARK SMILES CCCCCCCCC=CCCCCCCCC(=O)[O-]
REMARK SMILES IDX 10 1 9 2 11 3 12 4 13 5 14 6 15 7 16 8 17 9 18 10 19 11
REMARK SMILES IDX 20 12 8 13 7 14 6 15 5 16 4 17 3 18 2 19 1 20
REMARK H PARENT
REMARK Flexibility Score: inf
ROOT
ATOM      1  C   UNL     1     150.896 168.453 149.569  1.00  0.00    -0.031 C 
ATOM      2  C   UNL     1     151.024 169.086 150.744  1.00  0.00    -0.031 C 
ENDROOT
BRANCH   1   3
ATOM      3  C   UNL     1     149.756 168.746 148.631  1.00  0.00     0.027 C 
BRANCH   3   4
ATOM      4  C   UNL     1     148.750 169.719 149.262  1.00  0.00     0.004 C 
BRANCH   4   5
ATOM      5  C   UNL     1     147.412 169.035 149.598  1.00  0.00     0.000 C 
BRANCH   5   6
ATOM      6  C   UNL     1     147.089 169.084 151.107  1.00  0.00     0.000 C 
BRANCH   6   7
ATOM      7  C   UNL     1     147.022 167.698 151.777  1.00  0.00     0.000 C 
BRANCH   7   8
ATOM      8  C   UNL     1     147.861 166.606 151.091  1.00  0.00     0.006 C 
BRANCH   8   9
ATOM      9  C   UNL     1     149.067 166.169 151.932  1.00  0.00     0.053 C 
BRANCH   9  10
ATOM     10  C   UNL     1     148.619 165.382 153.123  1.00  0.00     0.041 C 
ATOM     11  O   UNL     1     148.031 164.277 152.966  1.00  0.00    -0.550 OA
ATOM     12  O   UNL     1     148.829 165.877 154.405  1.00  0.00    -0.550 OA
ENDBRANCH   9  10
ENDBRANCH   8   9
ENDBRANCH   7   8
ENDBRANCH   6   7
ENDBRANCH   5   6
ENDBRANCH   4   5
ENDBRANCH   3   4
ENDBRANCH   1   3
BRANCH   2  13
ATOM     13  C   UNL     1     152.135 168.749 151.699  1.00  0.00     0.027 C 
BRANCH  13  14
ATOM     14  C   UNL     1     152.707 170.020 152.345  1.00  0.00     0.004 C 
BRANCH  14  15
ATOM     15  C   UNL     1     152.074 170.317 153.714  1.00  0.00     0.000 C 
BRANCH  15  16
ATOM     16  C   UNL     1     150.976 171.393 153.633  1.00  0.00     0.000 C 
BRANCH  16  17
ATOM     17  C   UNL     1     149.577 170.783 153.409  1.00  0.00    -0.000 C 
BRANCH  17  18
ATOM     18  C   UNL     1     149.399 169.395 154.053  1.00  0.00    -0.000 C 
BRANCH  18  19
ATOM     19  C   UNL     1     148.223 169.337 155.040  1.00  0.00    -0.003 C 
ATOM     20  C   UNL     1     147.081 170.244 154.588  1.00  0.00     0.004 C 
ENDBRANCH  18  19
ENDBRANCH  17  18
ENDBRANCH  16  17
ENDBRANCH  15  16
ENDBRANCH  14  15
ENDBRANCH  13  14
ENDBRANCH   2  13
TORSDOF 15
ENDMDL
MODEL 6
REMARK VINA RESULT:    -5.168      5.646      7.424
REMARK INTER + INTRA:         -11.936
REMARK INTER:                 -10.681
REMARK INTRA:                  -1.255
REMARK UNBOUND:                -2.236
REMARK SMILES CCCCCCCCC=CCCCCCCCC(=O)[O-]
REMARK SMILES IDX 10 1 9 2 11 3 12 4 13 5 14 6 15 7 16 8 17 9 18 10 19 11
REMARK SMILES IDX 20 12 8 13 7 14 6 15 5 16 4 17 3 18 2 19 1 20
REMARK H PARENT
REMARK Flexibility Score: inf
ROOT
ATOM      1  C   UNL     1     147.753 166.491 150.736  1.00  0.00    -0.031 C 
ATOM      2  C   UNL     1     147.135 167.675 150.854  1.00  0.00    -0.031 C 
ENDROOT
BRANCH   1   3
ATOM      3  C   UNL     1     147.795 165.502 151.869  1.00  0.00     0.027 C 
BRANCH   3   4
ATOM      4  C   UNL     1     149.089 164.679 151.845  1.00  0.00     0.004 C 
BRANCH   4   5
ATOM      5  C   UNL     1     148.931 163.371 151.049  1.00  0.00     0.000 C 
BRANCH   5   6
ATOM      6  C   UNL     1     149.342 162.129 151.869  1.00  0.00     0.000 C 
BRANCH   6   7
ATOM      7  C   UNL     1     150.859 161.860 151.880  1.00  0.00     0.000 C 
BRANCH   7   8
ATOM      8  C   UNL     1     151.313 160.674 151.012  1.00  0.00     0.006 C 
BRANCH   8   9
ATOM      9  C   UNL     1     150.175 159.688 150.715  1.00  0.00     0.053 C 
BRANCH   9  10
ATOM     10  C   UNL     1     149.862 159.673 149.252  1.00  0.00     0.041 C 
ATOM     11  O   UNL     1     148.753 160.108 148.838  1.00  0.00    -0.550 OA
ATOM     12  O   UNL     1     150.783 159.159 148.347  1.00  0.00    -0.550 OA
ENDBRANCH   9  10
ENDBRANCH   8   9
ENDBRANCH   7   8
ENDBRANCH   6   7
ENDBRANCH   5   6
ENDBRANCH   4   5
ENDBRANCH   3   4
ENDBRANCH   1   3
BRANCH   2  13
ATOM     13  C   UNL     1     147.145 168.680 149.736  1.00  0.00     0.027 C 
BRANCH  13  14
ATOM     14  C   UNL     1     148.389 169.577 149.815  1.00  0.00     0.004 C 
BRANCH  14  15
ATOM     15  C   UNL     1     149.509 169.110 148.872  1.00  0.00     0.000 C 
BRANCH  15  16
ATOM     16  C   UNL     1     150.689 168.475 149.630  1.00  0.00     0.000 C 
BRANCH  16  17
ATOM     17  C   UNL     1     150.677 168.833 151.131  1.00  0.00    -0.000 C 
BRANCH  17  18
ATOM     18  C   UNL     1     152.069 169.173 151.697  1.00  0.00    -0.000 C 
BRANCH  18  19
ATOM     19  C   UNL     1     152.006 169.927 153.034  1.00  0.00    -0.003 C 
ATOM     20  C   UNL     1     151.405 171.319 152.852  1.00  0.00     0.004 C 
ENDBRANCH  18  19
ENDBRANCH  17  18
ENDBRANCH  16  17
ENDBRANCH  15  16
ENDBRANCH  14  15
ENDBRANCH  13  14
ENDBRANCH   2  13
TORSDOF 15
ENDMDL
MODEL 7
REMARK VINA RESULT:    -5.164      2.301      4.709
REMARK INTER + INTRA:         -11.928
REMARK INTER:                  -8.948
REMARK INTRA:                  -2.980
REMARK UNBOUND:                -2.236
REMARK SMILES CCCCCCCCC=CCCCCCCCC(=O)[O-]
REMARK SMILES IDX 10 1 9 2 11 3 12 4 13 5 14 6 15 7 16 8 17 9 18 10 19 11
REMARK SMILES IDX 20 12 8 13 7 14 6 15 5 16 4 17 3 18 2 19 1 20
REMARK H PARENT
REMARK Flexibility Score: inf
ROOT
ATOM      1  C   UNL     1     147.309 170.021 152.252  1.00  0.00    -0.031 C 
ATOM      2  C   UNL     1     148.324 170.831 151.917  1.00  0.00    -0.031 C 
ENDROOT
BRANCH   1   3
ATOM      3  C   UNL     1     146.879 169.840 153.682  1.00  0.00     0.027 C 
BRANCH   3   4
ATOM      4  C   UNL     1     148.078 169.542 154.593  1.00  0.00     0.004 C 
BRANCH   4   5
ATOM      5  C   UNL     1     148.045 168.106 155.146  1.00  0.00     0.000 C 
BRANCH   5   6
ATOM      6  C   UNL     1     149.292 167.290 154.740  1.00  0.00     0.000 C 
BRANCH   6   7
ATOM      7  C   UNL     1     149.193 166.653 153.340  1.00  0.00     0.000 C 
BRANCH   7   8
ATOM      8  C   UNL     1     147.841 165.992 153.023  1.00  0.00     0.006 C 
BRANCH   8   9
ATOM      9  C   UNL     1     147.260 166.446 151.678  1.00  0.00     0.053 C 
BRANCH   9  10
ATOM     10  C   UNL     1     145.783 166.659 151.789  1.00  0.00     0.041 C 
ATOM     11  O   UNL     1     145.102 165.960 152.589  1.00  0.00    -0.550 OA
ATOM     12  O   UNL     1     145.154 167.610 150.994  1.00  0.00    -0.550 OA
ENDBRANCH   9  10
ENDBRANCH   8   9
ENDBRANCH   7   8
ENDBRANCH   6   7
ENDBRANCH   5   6
ENDBRANCH   4   5
ENDBRANCH   3   4
ENDBRANCH   1   3
BRANCH   2  13
ATOM     13  C   UNL     1     148.783 170.965 150.492  1.00  0.00     0.027 C 
BRANCH  13  14
ATOM     14  C   UNL     1     148.425 169.711 149.680  1.00  0.00     0.004 C 
BRANCH  14  15
ATOM     15  C   UNL     1     149.669 168.979 149.152  1.00  0.00     0.000 C 
BRANCH  15  16
ATOM     16  C   UNL     1     150.331 168.096 150.226  1.00  0.00     0.000 C 
BRANCH  16  17
ATOM     17  C   UNL     1     151.608 168.741 150.802  1.00  0.00    -0.000 C 
BRANCH  17  18
ATOM     18  C   UNL     1     151.497 169.105 152.295  1.00  0.00    -0.000 C 
BRANCH  18  19
ATOM     19  C   UNL     1     152.366 170.310 152.685  1.00  0.00    -0.003 C 
ATOM     20  C   UNL     1     151.643 171.209 153.685  1.00  0.00     0.004 C 
ENDBRANCH  18  19
ENDBRANCH  17  18
ENDBRANCH  16  17
ENDBRANCH  15  16
ENDBRANCH  14  15
ENDBRANCH  13  14
ENDBRANCH   2  13
TORSDOF 15
ENDMDL
MODEL 8
REMARK VINA RESULT:    -5.140      3.049      5.543
REMARK INTER + INTRA:         -11.884
REMARK INTER:                  -8.971
REMARK INTRA:                  -2.912
REMARK UNBOUND:                -2.236
REMARK SMILES CCCCCCCCC=CCCCCCCCC(=O)[O-]
REMARK SMILES IDX 10 1 9 2 11 3 12 4 13 5 14 6 15 7 16 8 17 9 18 10 19 11
REMARK SMILES IDX 20 12 8 13 7 14 6 15 5 16 4 17 3 18 2 19 1 20
REMARK H PARENT
REMARK Flexibility Score: inf
ROOT
ATOM      1  C   UNL     1     147.009 169.161 151.169  1.00  0.00    -0.031 C 
ATOM      2  C   UNL     1     147.277 170.210 151.961  1.00  0.00    -0.031 C 
ENDROOT
BRANCH   1   3
ATOM      3  C   UNL     1     147.380 169.155 149.711  1.00  0.00     0.027 C 
BRANCH   3   4
ATOM      4  C   UNL     1     148.773 169.757 149.487  1.00  0.00     0.004 C 
BRANCH   4   5
ATOM      5  C   UNL     1     149.841 168.675 149.239  1.00  0.00     0.000 C 
BRANCH   5   6
ATOM      6  C   UNL     1     151.044 168.805 150.199  1.00  0.00     0.000 C 
BRANCH   6   7
ATOM      7  C   UNL     1     150.694 169.444 151.556  1.00  0.00     0.000 C 
BRANCH   7   8
ATOM      8  C   UNL     1     151.905 169.861 152.407  1.00  0.00     0.006 C 
BRANCH   8   9
ATOM      9  C   UNL     1     152.420 168.725 153.302  1.00  0.00     0.053 C 
BRANCH   9  10
ATOM     10  C   UNL     1     153.883 168.504 153.079  1.00  0.00     0.041 C 
ATOM     11  O   UNL     1     154.328 168.348 151.909  1.00  0.00    -0.550 OA
ATOM     12  O   UNL     1     154.752 168.448 154.162  1.00  0.00    -0.550 OA
ENDBRANCH   9  10
ENDBRANCH   8   9
ENDBRANCH   7   8
ENDBRANCH   6   7
ENDBRANCH   5   6
ENDBRANCH   4   5
ENDBRANCH   3   4
ENDBRANCH   1   3
BRANCH   2  13
ATOM     13  C   UNL     1     146.855 170.231 153.404  1.00  0.00     0.027 C 
BRANCH  13  14
ATOM     14  C   UNL     1     147.133 168.878 154.077  1.00  0.00     0.004 C 
BRANCH  14  15
ATOM     15  C   UNL     1     148.568 168.775 154.615  1.00  0.00     0.000 C 
BRANCH  15  16
ATOM     16  C   UNL     1     149.149 167.357 154.473  1.00  0.00     0.000 C 
BRANCH  16  17
ATOM     17  C   UNL     1     148.384 166.517 153.429  1.00  0.00    -0.000 C 
BRANCH  17  18
ATOM     18  C   UNL     1     149.176 166.277 152.129  1.00  0.00    -0.000 C 
BRANCH  18  19
ATOM     19  C   UNL     1     148.315 165.685 151.003  1.00  0.00    -0.003 C 
ATOM     20  C   UNL     1     148.710 164.240 150.710  1.00  0.00     0.004 C 
ENDBRANCH  18  19
ENDBRANCH  17  18
ENDBRANCH  16  17
ENDBRANCH  15  16
ENDBRANCH  14  15
ENDBRANCH  13  14
ENDBRANCH   2  13
TORSDOF 15
ENDMDL
MODEL 9
REMARK VINA RESULT:    -5.131      2.811      5.174
REMARK INTER + INTRA:         -11.867
REMARK INTER:                  -9.172
REMARK INTRA:                  -2.695
REMARK UNBOUND:                -2.236
REMARK SMILES CCCCCCCCC=CCCCCCCCC(=O)[O-]
REMARK SMILES IDX 10 1 9 2 11 3 12 4 13 5 14 6 15 7 16 8 17 9 18 10 19 11
REMARK SMILES IDX 20 12 8 13 7 14 6 15 5 16 4 17 3 18 2 19 1 20
REMARK H PARENT
REMARK Flexibility Score: inf
ROOT
ATOM      1  C   UNL     1     147.601 169.915 151.560  1.00  0.00    -0.031 C 
ATOM      2  C   UNL     1     146.987 169.210 150.598  1.00  0.00    -0.031 C 
ENDROOT
BRANCH   1   3
ATOM      3  C   UNL     1     146.862 170.408 152.775  1.00  0.00     0.027 C 
BRANCH   3   4
ATOM      4  C   UNL     1     147.285 169.642 154.035  1.00  0.00     0.004 C 
BRANCH   4   5
ATOM      5  C   UNL     1     148.767 169.227 153.993  1.00  0.00     0.000 C 
BRANCH   5   6
ATOM      6  C   UNL     1     149.060 167.999 154.883  1.00  0.00     0.000 C 
BRANCH   6   7
ATOM      7  C   UNL     1     148.958 166.652 154.143  1.00  0.00     0.000 C 
BRANCH   7   8
ATOM      8  C   UNL     1     149.267 166.715 152.638  1.00  0.00     0.006 C 
BRANCH   8   9
ATOM      9  C   UNL     1     148.296 165.877 151.797  1.00  0.00     0.053 C 
BRANCH   9  10
ATOM     10  C   UNL     1     148.942 164.598 151.366  1.00  0.00     0.041 C 
ATOM     11  O   UNL     1     148.763 164.162 150.196  1.00  0.00    -0.550 OA
ATOM     12  O   UNL     1     149.722 163.876 152.261  1.00  0.00    -0.550 OA
ENDBRANCH   9  10
ENDBRANCH   8   9
ENDBRANCH   7   8
ENDBRANCH   6   7
ENDBRANCH   5   6
ENDBRANCH   4   5
ENDBRANCH   3   4
ENDBRANCH   1   3
BRANCH   2  13
ATOM     13  C   UNL     1     147.719 168.767 149.362  1.00  0.00     0.027 C 
BRANCH  13  14
ATOM     14  C   UNL     1     149.102 169.429 149.277  1.00  0.00     0.004 C 
BRANCH  14  15
ATOM     15  C   UNL     1     150.212 168.425 148.928  1.00  0.00     0.000 C 
BRANCH  15  16
ATOM     16  C   UNL     1     151.337 168.404 149.979  1.00  0.00     0.000 C 
BRANCH  16  17
ATOM     17  C   UNL     1     151.070 169.386 151.138  1.00  0.00    -0.000 C 
BRANCH  17  18
ATOM     18  C   UNL     1     152.039 169.222 152.324  1.00  0.00    -0.000 C 
BRANCH  18  19
ATOM     19  C   UNL     1     152.742 170.532 152.711  1.00  0.00    -0.003 C 
ATOM     20  C   UNL     1     151.866 171.373 153.635  1.00  0.00     0.004 C 
ENDBRANCH  18  19
ENDBRANCH  17  18
ENDBRANCH  16  17
ENDBRANCH  15  16
ENDBRANCH  14  15
ENDBRANCH  13  14
ENDBRANCH   2  13
TORSDOF 15
ENDMDL
