MODEL 1
REMARK VINA RESULT:    -3.555      0.000      0.000
REMARK INTER + INTRA:         -12.573
REMARK INTER:                  -8.127
REMARK INTRA:                  -4.446
REMARK UNBOUND:                -4.446
REMARK SMILES CCCCCCCCCCCCCCCCCCCCCCCC(=O)[O-]
REMARK SMILES IDX 13 1 14 2 15 3 16 4 17 5 18 6 19 7 20 8 21 9 22 10 23 11
REMARK SMILES IDX 24 12 25 13 26 14 12 15 11 16 10 17 9 18 8 19 7 20 6 21 5 22
REMARK SMILES IDX 4 23 3 24 2 25 1 26
REMARK H PARENT
REMARK Flexibility Score: inf
ROOT
ATOM      1  C   UNL     1      39.313  21.620 224.884  1.00  0.00     0.000 C 
ENDROOT
BRANCH   1   2
ATOM      2  C   UNL     1      39.999  22.234 226.117  1.00  0.00     0.000 C 
BRANCH   2   3
ATOM      3  C   UNL     1      40.783  23.512 225.774  1.00  0.00     0.000 C 
BRANCH   3   4
ATOM      4  C   UNL     1      42.237  23.453 226.269  1.00  0.00     0.000 C 
BRANCH   4   5
ATOM      5  C   UNL     1      43.206  23.220 225.103  1.00  0.00     0.000 C 
BRANCH   5   6
ATOM      6  C   UNL     1      43.645  21.748 225.041  1.00  0.00     0.000 C 
BRANCH   6   7
ATOM      7  C   UNL     1      43.614  21.066 226.418  1.00  0.00     0.000 C 
BRANCH   7   8
ATOM      8  C   UNL     1      42.844  19.737 226.394  1.00  0.00     0.000 C 
BRANCH   8   9
ATOM      9  C   UNL     1      41.992  19.571 227.662  1.00  0.00     0.000 C 
BRANCH   9  10
ATOM     10  C   UNL     1      40.871  18.527 227.496  1.00  0.00     0.006 C 
BRANCH  10  11
ATOM     11  C   UNL     1      40.750  17.946 226.078  1.00  0.00     0.053 C 
BRANCH  11  12
ATOM     12  C   UNL     1      39.391  17.372 225.818  1.00  0.00     0.041 C 
ATOM     13  O   UNL     1      39.017  16.333 226.423  1.00  0.00    -0.550 OA
ATOM     14  O   UNL     1      38.528  17.998 224.925  1.00  0.00    -0.550 OA
ENDBRANCH  11  12
ENDBRANCH  10  11
ENDBRANCH   9  10
ENDBRANCH   8   9
ENDBRANCH   7   8
ENDBRANCH   6   7
ENDBRANCH   5   6
ENDBRANCH   4   5
ENDBRANCH   3   4
ENDBRANCH   2   3
ENDBRANCH   1   2
BRANCH   1  15
ATOM     15  C   UNL     1      40.311  20.873 223.975  1.00  0.00     0.000 C 
BRANCH  15  16
ATOM     16  C   UNL     1      40.248  21.300 222.498  1.00  0.00     0.000 C 
BRANCH  16  17
ATOM     17  C   UNL     1      41.276  22.388 222.149  1.00  0.00     0.000 C 
BRANCH  17  18
ATOM     18  C   UNL     1      40.682  23.809 222.172  1.00  0.00    -0.000 C 
BRANCH  18  19
ATOM     19  C   UNL     1      39.154  23.887 221.996  1.00  0.00    -0.000 C 
BRANCH  19  20
ATOM     20  C   UNL     1      38.476  24.808 223.022  1.00  0.00    -0.000 C 
BRANCH  20  21
ATOM     21  C   UNL     1      37.094  24.273 223.415  1.00  0.00    -0.000 C 
BRANCH  21  22
ATOM     22  C   UNL     1      36.746  23.008 222.617  1.00  0.00    -0.000 C 
BRANCH  22  23
ATOM     23  C   UNL     1      35.598  23.228 221.614  1.00  0.00    -0.000 C 
BRANCH  23  24
ATOM     24  C   UNL     1      35.771  24.443 220.684  1.00  0.00    -0.000 C 
BRANCH  24  25
ATOM     25  C   UNL     1      35.808  24.061 219.197  1.00  0.00    -0.003 C 
ATOM     26  C   UNL     1      37.078  23.283 218.862  1.00  0.00     0.004 C 
ENDBRANCH  24  25
ENDBRANCH  23  24
ENDBRANCH  22  23
ENDBRANCH  21  22
ENDBRANCH  20  21
ENDBRANCH  19  20
ENDBRANCH  18  19
ENDBRANCH  17  18
ENDBRANCH  16  17
ENDBRANCH  15  16
ENDBRANCH   1  15
TORSDOF 22
ENDMDL
MODEL 2
REMARK VINA RESULT:    -3.495      3.169      7.324
REMARK INTER + INTRA:         -12.436
REMARK INTER:                  -8.072
REMARK INTRA:                  -4.365
REMARK UNBOUND:                -4.446
REMARK SMILES CCCCCCCCCCCCCCCCCCCCCCCC(=O)[O-]
REMARK SMILES IDX 13 1 14 2 15 3 16 4 17 5 18 6 19 7 20 8 21 9 22 10 23 11
REMARK SMILES IDX 24 12 25 13 26 14 12 15 11 16 10 17 9 18 8 19 7 20 6 21 5 22
REMARK SMILES IDX 4 23 3 24 2 25 1 26
REMARK H PARENT
REMARK Flexibility Score: inf
ROOT
ATOM      1  C   UNL     1      39.450  20.796 223.882  1.00  0.00     0.000 C 
ENDROOT
BRANCH   1   2
ATOM      2  C   UNL     1      39.128  22.291 223.715  1.00  0.00     0.000 C 
BRANCH   2   3
ATOM      3  C   UNL     1      39.441  22.802 222.298  1.00  0.00     0.000 C 
BRANCH   3   4
ATOM      4  C   UNL     1      39.614  24.328 222.255  1.00  0.00     0.000 C 
BRANCH   4   5
ATOM      5  C   UNL     1      39.656  24.918 223.670  1.00  0.00     0.000 C 
BRANCH   5   6
ATOM      6  C   UNL     1      38.648  26.069 223.815  1.00  0.00     0.000 C 
BRANCH   6   7
ATOM      7  C   UNL     1      37.467  25.945 222.839  1.00  0.00     0.000 C 
BRANCH   7   8
ATOM      8  C   UNL     1      36.217  25.355 223.508  1.00  0.00     0.000 C 
BRANCH   8   9
ATOM      9  C   UNL     1      35.915  23.947 222.971  1.00  0.00     0.000 C 
BRANCH   9  10
ATOM     10  C   UNL     1      35.309  23.965 221.555  1.00  0.00     0.006 C 
BRANCH  10  11
ATOM     11  C   UNL     1      36.154  23.243 220.493  1.00  0.00     0.053 C 
BRANCH  11  12
ATOM     12  C   UNL     1      35.920  23.789 219.118  1.00  0.00     0.041 C 
ATOM     13  O   UNL     1      36.878  23.896 218.308  1.00  0.00    -0.550 OA
ATOM     14  O   UNL     1      34.638  24.155 218.723  1.00  0.00    -0.550 OA
ENDBRANCH  11  12
ENDBRANCH  10  11
ENDBRANCH   9  10
ENDBRANCH   8   9
ENDBRANCH   7   8
ENDBRANCH   6   7
ENDBRANCH   5   6
ENDBRANCH   4   5
ENDBRANCH   3   4
ENDBRANCH   2   3
ENDBRANCH   1   2
BRANCH   1  15
ATOM     15  C   UNL     1      39.376  20.347 225.357  1.00  0.00     0.000 C 
BRANCH  15  16
ATOM     16  C   UNL     1      40.295  19.160 225.693  1.00  0.00     0.000 C 
BRANCH  16  17
ATOM     17  C   UNL     1      40.963  18.553 224.449  1.00  0.00     0.000 C 
BRANCH  17  18
ATOM     18  C   UNL     1      42.460  18.898 224.339  1.00  0.00    -0.000 C 
BRANCH  18  19
ATOM     19  C   UNL     1      42.923  19.388 222.953  1.00  0.00    -0.000 C 
BRANCH  19  20
ATOM     20  C   UNL     1      42.947  20.919 222.832  1.00  0.00    -0.000 C 
BRANCH  20  21
ATOM     21  C   UNL     1      43.245  21.575 224.186  1.00  0.00    -0.000 C 
BRANCH  21  22
ATOM     22  C   UNL     1      42.763  23.033 224.209  1.00  0.00    -0.000 C 
BRANCH  22  23
ATOM     23  C   UNL     1      42.268  23.480 225.597  1.00  0.00    -0.000 C 
BRANCH  23  24
ATOM     24  C   UNL     1      42.465  22.445 226.721  1.00  0.00    -0.000 C 
BRANCH  24  25
ATOM     25  C   UNL     1      41.234  22.304 227.629  1.00  0.00    -0.003 C 
ATOM     26  C   UNL     1      40.208  23.395 227.338  1.00  0.00     0.004 C 
ENDBRANCH  24  25
ENDBRANCH  23  24
ENDBRANCH  22  23
ENDBRANCH  21  22
ENDBRANCH  20  21
ENDBRANCH  19  20
ENDBRANCH  18  19
ENDBRANCH  17  18
ENDBRANCH  16  17
ENDBRANCH  15  16
ENDBRANCH   1  15
TORSDOF 22
ENDMDL
MODEL 3
REMARK VINA RESULT:    -3.407      1.819      3.623
REMARK INTER + INTRA:         -12.236
REMARK INTER:                  -8.292
REMARK INTRA:                  -3.944
REMARK UNBOUND:                -4.446
REMARK SMILES CCCCCCCCCCCCCCCCCCCCCCCC(=O)[O-]
REMARK SMILES IDX 13 1 14 2 15 3 16 4 17 5 18 6 19 7 20 8 21 9 22 10 23 11
REMARK SMILES IDX 24 12 25 13 26 14 12 15 11 16 10 17 9 18 8 19 7 20 6 21 5 22
REMARK SMILES IDX 4 23 3 24 2 25 1 26
REMARK H PARENT
REMARK Flexibility Score: inf
ROOT
ATOM      1  C   UNL     1      41.209  22.860 225.457  1.00  0.00     0.000 C 
ENDROOT
BRANCH   1   2
ATOM      2  C   UNL     1      42.488  23.699 225.285  1.00  0.00     0.000 C 
BRANCH   2   3
ATOM      3  C   UNL     1      43.763  22.884 225.554  1.00  0.00     0.000 C 
BRANCH   3   4
ATOM      4  C   UNL     1      43.517  21.370 225.462  1.00  0.00     0.000 C 
BRANCH   4   5
ATOM      5  C   UNL     1      44.052  20.805 224.140  1.00  0.00     0.000 C 
BRANCH   5   6
ATOM      6  C   UNL     1      43.216  19.600 223.680  1.00  0.00     0.000 C 
BRANCH   6   7
ATOM      7  C   UNL     1      42.321  19.930 222.475  1.00  0.00     0.000 C 
BRANCH   7   8
ATOM      8  C   UNL     1      40.867  19.485 222.688  1.00  0.00     0.000 C 
BRANCH   8   9
ATOM      9  C   UNL     1      40.591  19.192 224.170  1.00  0.00     0.000 C 
BRANCH   9  10
ATOM     10  C   UNL     1      39.288  18.400 224.391  1.00  0.00     0.006 C 
BRANCH  10  11
ATOM     11  C   UNL     1      39.232  17.627 225.719  1.00  0.00     0.053 C 
BRANCH  11  12
ATOM     12  C   UNL     1      38.226  18.205 226.666  1.00  0.00     0.041 C 
ATOM     13  O   UNL     1      37.684  17.474 227.537  1.00  0.00    -0.550 OA
ATOM     14  O   UNL     1      37.906  19.557 226.603  1.00  0.00    -0.550 OA
ENDBRANCH  11  12
ENDBRANCH  10  11
ENDBRANCH   9  10
ENDBRANCH   8   9
ENDBRANCH   7   8
ENDBRANCH   6   7
ENDBRANCH   5   6
ENDBRANCH   4   5
ENDBRANCH   3   4
ENDBRANCH   2   3
ENDBRANCH   1   2
BRANCH   1  15
ATOM     15  C   UNL     1      40.360  22.824 224.169  1.00  0.00     0.000 C 
BRANCH  15  16
ATOM     16  C   UNL     1      41.082  23.384 222.931  1.00  0.00     0.000 C 
BRANCH  16  17
ATOM     17  C   UNL     1      40.123  24.058 221.937  1.00  0.00     0.000 C 
BRANCH  17  18
ATOM     18  C   UNL     1      39.165  23.063 221.254  1.00  0.00    -0.000 C 
BRANCH  18  19
ATOM     19  C   UNL     1      37.675  23.456 221.287  1.00  0.00    -0.000 C 
BRANCH  19  20
ATOM     20  C   UNL     1      36.943  22.940 222.535  1.00  0.00    -0.000 C 
BRANCH  20  21
ATOM     21  C   UNL     1      36.247  24.086 223.279  1.00  0.00    -0.000 C 
BRANCH  21  22
ATOM     22  C   UNL     1      37.079  24.546 224.485  1.00  0.00    -0.000 C 
BRANCH  22  23
ATOM     23  C   UNL     1      37.993  25.742 224.163  1.00  0.00    -0.000 C 
BRANCH  23  24
ATOM     24  C   UNL     1      38.996  26.112 225.272  1.00  0.00    -0.000 C 
BRANCH  24  25
ATOM     25  C   UNL     1      39.780  27.397 224.968  1.00  0.00    -0.003 C 
ATOM     26  C   UNL     1      41.275  27.197 225.205  1.00  0.00     0.004 C 
ENDBRANCH  24  25
ENDBRANCH  23  24
ENDBRANCH  22  23
ENDBRANCH  21  22
ENDBRANCH  20  21
ENDBRANCH  19  20
ENDBRANCH  18  19
ENDBRANCH  17  18
ENDBRANCH  16  17
ENDBRANCH  15  16
ENDBRANCH   1  15
TORSDOF 22
ENDMDL
MODEL 4
REMARK VINA RESULT:    -3.385      1.710      3.125
REMARK INTER + INTRA:         -12.183
REMARK INTER:                  -8.365
REMARK INTRA:                  -3.819
REMARK UNBOUND:                -4.446
REMARK SMILES CCCCCCCCCCCCCCCCCCCCCCCC(=O)[O-]
REMARK SMILES IDX 13 1 14 2 15 3 16 4 17 5 18 6 19 7 20 8 21 9 22 10 23 11
REMARK SMILES IDX 24 12 25 13 26 14 12 15 11 16 10 17 9 18 8 19 7 20 6 21 5 22
REMARK SMILES IDX 4 23 3 24 2 25 1 26
REMARK H PARENT
REMARK Flexibility Score: inf
ROOT
ATOM      1  C   UNL     1      40.006  21.938 222.170  1.00  0.00     0.000 C 
ENDROOT
BRANCH   1   2
ATOM      2  C   UNL     1      41.200  21.374 221.379  1.00  0.00     0.000 C 
BRANCH   2   3
ATOM      3  C   UNL     1      41.901  20.223 222.120  1.00  0.00     0.000 C 
BRANCH   3   4
ATOM      4  C   UNL     1      40.996  19.577 223.181  1.00  0.00     0.000 C 
BRANCH   4   5
ATOM      5  C   UNL     1      41.738  19.415 224.513  1.00  0.00     0.000 C 
BRANCH   5   6
ATOM      6  C   UNL     1      41.963  20.778 225.185  1.00  0.00     0.000 C 
BRANCH   6   7
ATOM      7  C   UNL     1      41.131  20.948 226.466  1.00  0.00     0.000 C 
BRANCH   7   8
ATOM      8  C   UNL     1      39.717  21.474 226.179  1.00  0.00     0.000 C 
BRANCH   8   9
ATOM      9  C   UNL     1      38.664  20.379 226.408  1.00  0.00     0.000 C 
BRANCH   9  10
ATOM     10  C   UNL     1      38.039  19.867 225.096  1.00  0.00     0.006 C 
BRANCH  10  11
ATOM     11  C   UNL     1      37.806  18.348 225.054  1.00  0.00     0.053 C 
BRANCH  11  12
ATOM     12  C   UNL     1      37.032  17.863 226.242  1.00  0.00     0.041 C 
ATOM     13  O   UNL     1      35.813  18.154 226.363  1.00  0.00    -0.550 OA
ATOM     14  O   UNL     1      37.651  17.068 227.200  1.00  0.00    -0.550 OA
ENDBRANCH  11  12
ENDBRANCH  10  11
ENDBRANCH   9  10
ENDBRANCH   8   9
ENDBRANCH   7   8
ENDBRANCH   6   7
ENDBRANCH   5   6
ENDBRANCH   4   5
ENDBRANCH   3   4
ENDBRANCH   2   3
ENDBRANCH   1   2
BRANCH   1  15
ATOM     15  C   UNL     1      40.148  23.451 222.435  1.00  0.00     0.000 C 
BRANCH  15  16
ATOM     16  C   UNL     1      41.103  23.794 223.591  1.00  0.00     0.000 C 
BRANCH  16  17
ATOM     17  C   UNL     1      40.509  24.819 224.570  1.00  0.00     0.000 C 
BRANCH  17  18
ATOM     18  C   UNL     1      39.265  25.536 224.013  1.00  0.00    -0.000 C 
BRANCH  18  19
ATOM     19  C   UNL     1      38.049  25.574 224.957  1.00  0.00    -0.000 C 
BRANCH  19  20
ATOM     20  C   UNL     1      37.431  24.189 225.200  1.00  0.00    -0.000 C 
BRANCH  20  21
ATOM     21  C   UNL     1      36.928  23.571 223.890  1.00  0.00    -0.000 C 
BRANCH  21  22
ATOM     22  C   UNL     1      35.959  24.521 223.170  1.00  0.00    -0.000 C 
BRANCH  22  23
ATOM     23  C   UNL     1      36.305  24.719 221.683  1.00  0.00    -0.000 C 
BRANCH  23  24
ATOM     24  C   UNL     1      35.989  23.514 220.777  1.00  0.00    -0.000 C 
BRANCH  24  25
ATOM     25  C   UNL     1      36.027  23.862 219.281  1.00  0.00    -0.003 C 
ATOM     26  C   UNL     1      37.195  23.169 218.585  1.00  0.00     0.004 C 
ENDBRANCH  24  25
ENDBRANCH  23  24
ENDBRANCH  22  23
ENDBRANCH  21  22
ENDBRANCH  20  21
ENDBRANCH  19  20
ENDBRANCH  18  19
ENDBRANCH  17  18
ENDBRANCH  16  17
ENDBRANCH  15  16
ENDBRANCH   1  15
TORSDOF 22
ENDMDL
MODEL 5
REMARK VINA RESULT:    -3.324      1.587      2.569
REMARK INTER + INTRA:         -12.045
REMARK INTER:                  -9.276
REMARK INTRA:                  -2.768
REMARK UNBOUND:                -4.446
REMARK SMILES CCCCCCCCCCCCCCCCCCCCCCCC(=O)[O-]
REMARK SMILES IDX 13 1 14 2 15 3 16 4 17 5 18 6 19 7 20 8 21 9 22 10 23 11
REMARK SMILES IDX 24 12 25 13 26 14 12 15 11 16 10 17 9 18 8 19 7 20 6 21 5 22
REMARK SMILES IDX 4 23 3 24 2 25 1 26
REMARK H PARENT
REMARK Flexibility Score: inf
ROOT
ATOM      1  C   UNL     1      42.495  20.615 221.690  1.00  0.00     0.000 C 
ENDROOT
BRANCH   1   2
ATOM      2  C   UNL     1      43.520  19.875 222.567  1.00  0.00     0.000 C 
BRANCH   2   3
ATOM      3  C   UNL     1      44.074  20.763 223.694  1.00  0.00     0.000 C 
BRANCH   3   4
ATOM      4  C   UNL     1      43.310  20.573 225.013  1.00  0.00     0.000 C 
BRANCH   4   5
ATOM      5  C   UNL     1      42.799  21.915 225.552  1.00  0.00     0.000 C 
BRANCH   5   6
ATOM      6  C   UNL     1      41.329  21.807 225.988  1.00  0.00     0.000 C 
BRANCH   6   7
ATOM      7  C   UNL     1      41.148  20.925 227.233  1.00  0.00     0.000 C 
BRANCH   7   8
ATOM      8  C   UNL     1      40.577  19.541 226.891  1.00  0.00     0.000 C 
BRANCH   8   9
ATOM      9  C   UNL     1      39.339  19.662 225.989  1.00  0.00     0.000 C 
BRANCH   9  10
ATOM     10  C   UNL     1      38.021  19.413 226.747  1.00  0.00     0.006 C 
BRANCH  10  11
ATOM     11  C   UNL     1      37.115  18.346 226.111  1.00  0.00     0.053 C 
BRANCH  11  12
ATOM     12  C   UNL     1      37.227  17.024 226.807  1.00  0.00     0.041 C 
ATOM     13  O   UNL     1      36.233  16.253 226.863  1.00  0.00    -0.550 OA
ATOM     14  O   UNL     1      38.436  16.633 227.371  1.00  0.00    -0.550 OA
ENDBRANCH  11  12
ENDBRANCH  10  11
ENDBRANCH   9  10
ENDBRANCH   8   9
ENDBRANCH   7   8
ENDBRANCH   6   7
ENDBRANCH   5   6
ENDBRANCH   4   5
ENDBRANCH   3   4
ENDBRANCH   2   3
ENDBRANCH   1   2
BRANCH   1  15
ATOM     15  C   UNL     1      41.042  20.311 222.111  1.00  0.00     0.000 C 
BRANCH  15  16
ATOM     16  C   UNL     1      40.280  21.535 222.648  1.00  0.00     0.000 C 
BRANCH  16  17
ATOM     17  C   UNL     1      40.946  22.866 222.266  1.00  0.00     0.000 C 
BRANCH  17  18
ATOM     18  C   UNL     1      39.931  23.986 221.966  1.00  0.00    -0.000 C 
BRANCH  18  19
ATOM     19  C   UNL     1      39.348  24.693 223.204  1.00  0.00    -0.000 C 
BRANCH  19  20
ATOM     20  C   UNL     1      37.860  25.045 223.051  1.00  0.00    -0.000 C 
BRANCH  20  21
ATOM     21  C   UNL     1      36.969  23.945 223.640  1.00  0.00    -0.000 C 
BRANCH  21  22
ATOM     22  C   UNL     1      36.453  23.007 222.539  1.00  0.00    -0.000 C 
BRANCH  22  23
ATOM     23  C   UNL     1      35.272  23.601 221.749  1.00  0.00    -0.000 C 
BRANCH  23  24
ATOM     24  C   UNL     1      35.616  24.070 220.323  1.00  0.00    -0.000 C 
BRANCH  24  25
ATOM     25  C   UNL     1      36.826  23.338 219.725  1.00  0.00    -0.003 C 
ATOM     26  C   UNL     1      36.791  23.372 218.199  1.00  0.00     0.004 C 
ENDBRANCH  24  25
ENDBRANCH  23  24
ENDBRANCH  22  23
ENDBRANCH  21  22
ENDBRANCH  20  21
ENDBRANCH  19  20
ENDBRANCH  18  19
ENDBRANCH  17  18
ENDBRANCH  16  17
ENDBRANCH  15  16
ENDBRANCH   1  15
TORSDOF 22
ENDMDL
MODEL 6
REMARK VINA RESULT:    -3.291      2.912      6.118
REMARK INTER + INTRA:         -11.969
REMARK INTER:                  -7.279
REMARK INTRA:                  -4.690
REMARK UNBOUND:                -4.446
REMARK SMILES CCCCCCCCCCCCCCCCCCCCCCCC(=O)[O-]
REMARK SMILES IDX 13 1 14 2 15 3 16 4 17 5 18 6 19 7 20 8 21 9 22 10 23 11
REMARK SMILES IDX 24 12 25 13 26 14 12 15 11 16 10 17 9 18 8 19 7 20 6 21 5 22
REMARK SMILES IDX 4 23 3 24 2 25 1 26
REMARK H PARENT
REMARK Flexibility Score: inf
ROOT
ATOM      1  C   UNL     1      43.051  19.429 226.046  1.00  0.00     0.000 C 
ENDROOT
BRANCH   1   2
ATOM      2  C   UNL     1      43.490  20.582 225.126  1.00  0.00     0.000 C 
BRANCH   2   3
ATOM      3  C   UNL     1      44.480  20.122 224.043  1.00  0.00     0.000 C 
BRANCH   3   4
ATOM      4  C   UNL     1      44.016  20.505 222.629  1.00  0.00     0.000 C 
BRANCH   4   5
ATOM      5  C   UNL     1      42.773  21.402 222.682  1.00  0.00     0.000 C 
BRANCH   5   6
ATOM      6  C   UNL     1      41.657  20.847 221.784  1.00  0.00     0.000 C 
BRANCH   6   7
ATOM      7  C   UNL     1      40.483  21.827 221.628  1.00  0.00     0.000 C 
BRANCH   7   8
ATOM      8  C   UNL     1      40.832  23.239 222.123  1.00  0.00     0.000 C 
BRANCH   8   9
ATOM      9  C   UNL     1      39.582  24.132 222.166  1.00  0.00     0.000 C 
BRANCH   9  10
ATOM     10  C   UNL     1      38.271  23.334 222.041  1.00  0.00     0.006 C 
BRANCH  10  11
ATOM     11  C   UNL     1      37.300  23.520 223.219  1.00  0.00     0.053 C 
BRANCH  11  12
ATOM     12  C   UNL     1      36.252  24.550 222.929  1.00  0.00     0.041 C 
ATOM     13  O   UNL     1      35.682  25.156 223.874  1.00  0.00    -0.550 OA
ATOM     14  O   UNL     1      35.923  24.858 221.614  1.00  0.00    -0.550 OA
ENDBRANCH  11  12
ENDBRANCH  10  11
ENDBRANCH   9  10
ENDBRANCH   8   9
ENDBRANCH   7   8
ENDBRANCH   6   7
ENDBRANCH   5   6
ENDBRANCH   4   5
ENDBRANCH   3   4
ENDBRANCH   2   3
ENDBRANCH   1   2
BRANCH   1  15
ATOM     15  C   UNL     1      42.203  18.379 225.298  1.00  0.00     0.000 C 
BRANCH  15  16
ATOM     16  C   UNL     1      40.701  18.442 225.628  1.00  0.00     0.000 C 
BRANCH  16  17
ATOM     17  C   UNL     1      39.823  18.608 224.378  1.00  0.00     0.000 C 
BRANCH  17  18
ATOM     18  C   UNL     1      39.166  19.999 224.282  1.00  0.00    -0.000 C 
BRANCH  18  19
ATOM     19  C   UNL     1      39.096  20.787 225.604  1.00  0.00    -0.000 C 
BRANCH  19  20
ATOM     20  C   UNL     1      39.913  22.088 225.574  1.00  0.00    -0.000 C 
BRANCH  20  21
ATOM     21  C   UNL     1      40.736  22.253 226.857  1.00  0.00    -0.000 C 
BRANCH  21  22
ATOM     22  C   UNL     1      41.690  23.451 226.749  1.00  0.00    -0.000 C 
BRANCH  22  23
ATOM     23  C   UNL     1      41.672  24.109 225.357  1.00  0.00    -0.000 C 
BRANCH  23  24
ATOM     24  C   UNL     1      41.278  25.598 225.348  1.00  0.00    -0.000 C 
BRANCH  24  25
ATOM     25  C   UNL     1      39.774  25.823 225.563  1.00  0.00    -0.003 C 
ATOM     26  C   UNL     1      39.186  26.696 224.457  1.00  0.00     0.004 C 
ENDBRANCH  24  25
ENDBRANCH  23  24
ENDBRANCH  22  23
ENDBRANCH  21  22
ENDBRANCH  20  21
ENDBRANCH  19  20
ENDBRANCH  18  19
ENDBRANCH  17  18
ENDBRANCH  16  17
ENDBRANCH  15  16
ENDBRANCH   1  15
TORSDOF 22
ENDMDL
MODEL 7
REMARK VINA RESULT:    -3.280      2.932      6.519
REMARK INTER + INTRA:         -11.945
REMARK INTER:                  -7.804
REMARK INTRA:                  -4.141
REMARK UNBOUND:                -4.446
REMARK SMILES CCCCCCCCCCCCCCCCCCCCCCCC(=O)[O-]
REMARK SMILES IDX 13 1 14 2 15 3 16 4 17 5 18 6 19 7 20 8 21 9 22 10 23 11
REMARK SMILES IDX 24 12 25 13 26 14 12 15 11 16 10 17 9 18 8 19 7 20 6 21 5 22
REMARK SMILES IDX 4 23 3 24 2 25 1 26
REMARK H PARENT
REMARK Flexibility Score: inf
ROOT
ATOM      1  C   UNL     1      42.877  21.749 225.993  1.00  0.00     0.000 C 
ENDROOT
BRANCH   1   2
ATOM      2  C   UNL     1      43.551  23.013 225.432  1.00  0.00     0.000 C 
BRANCH   2   3
ATOM      3  C   UNL     1      42.568  23.906 224.658  1.00  0.00     0.000 C 
BRANCH   3   4
ATOM      4  C   UNL     1      41.306  23.143 224.224  1.00  0.00     0.000 C 
BRANCH   4   5
ATOM      5  C   UNL     1      41.251  22.992 222.699  1.00  0.00     0.000 C 
BRANCH   5   6
ATOM      6  C   UNL     1      40.198  23.932 222.092  1.00  0.00     0.000 C 
BRANCH   6   7
ATOM      7  C   UNL     1      39.077  23.171 221.367  1.00  0.00     0.000 C 
BRANCH   7   8
ATOM      8  C   UNL     1      37.681  23.686 221.747  1.00  0.00     0.000 C 
BRANCH   8   9
ATOM      9  C   UNL     1      37.064  22.832 222.866  1.00  0.00     0.000 C 
BRANCH   9  10
ATOM     10  C   UNL     1      37.234  23.461 224.262  1.00  0.00     0.006 C 
BRANCH  10  11
ATOM     11  C   UNL     1      37.133  24.994 224.283  1.00  0.00     0.053 C 
BRANCH  11  12
ATOM     12  C   UNL     1      38.216  25.620 225.108  1.00  0.00     0.041 C 
ATOM     13  O   UNL     1      39.229  26.118 224.549  1.00  0.00    -0.550 OA
ATOM     14  O   UNL     1      38.094  25.676 226.492  1.00  0.00    -0.550 OA
ENDBRANCH  11  12
ENDBRANCH  10  11
ENDBRANCH   9  10
ENDBRANCH   8   9
ENDBRANCH   7   8
ENDBRANCH   6   7
ENDBRANCH   5   6
ENDBRANCH   4   5
ENDBRANCH   3   4
ENDBRANCH   2   3
ENDBRANCH   1   2
BRANCH   1  15
ATOM     15  C   UNL     1      43.530  20.457 225.460  1.00  0.00     0.000 C 
BRANCH  15  16
ATOM     16  C   UNL     1      44.338  20.656 224.165  1.00  0.00     0.000 C 
BRANCH  16  17
ATOM     17  C   UNL     1      43.575  20.197 222.912  1.00  0.00     0.000 C 
BRANCH  17  18
ATOM     18  C   UNL     1      42.527  19.107 223.208  1.00  0.00    -0.000 C 
BRANCH  18  19
ATOM     19  C   UNL     1      41.079  19.465 222.823  1.00  0.00    -0.000 C 
BRANCH  19  20
ATOM     20  C   UNL     1      40.051  19.036 223.881  1.00  0.00    -0.000 C 
BRANCH  20  21
ATOM     21  C   UNL     1      39.205  20.228 224.344  1.00  0.00    -0.000 C 
BRANCH  21  22
ATOM     22  C   UNL     1      39.378  20.474 225.850  1.00  0.00    -0.000 C 
BRANCH  22  23
ATOM     23  C   UNL     1      39.562  19.173 226.653  1.00  0.00    -0.000 C 
BRANCH  23  24
ATOM     24  C   UNL     1      38.376  18.797 227.562  1.00  0.00    -0.000 C 
BRANCH  24  25
ATOM     25  C   UNL     1      37.700  17.480 227.153  1.00  0.00    -0.003 C 
ATOM     26  C   UNL     1      36.492  17.737 226.257  1.00  0.00     0.004 C 
ENDBRANCH  24  25
ENDBRANCH  23  24
ENDBRANCH  22  23
ENDBRANCH  21  22
ENDBRANCH  20  21
ENDBRANCH  19  20
ENDBRANCH  18  19
ENDBRANCH  17  18
ENDBRANCH  16  17
ENDBRANCH  15  16
ENDBRANCH   1  15
TORSDOF 22
ENDMDL
MODEL 8
REMARK VINA RESULT:    -3.274      1.868      4.526
REMARK INTER + INTRA:         -11.930
REMARK INTER:                  -7.661
REMARK INTRA:                  -4.269
REMARK UNBOUND:                -4.446
REMARK SMILES CCCCCCCCCCCCCCCCCCCCCCCC(=O)[O-]
REMARK SMILES IDX 13 1 14 2 15 3 16 4 17 5 18 6 19 7 20 8 21 9 22 10 23 11
REMARK SMILES IDX 24 12 25 13 26 14 12 15 11 16 10 17 9 18 8 19 7 20 6 21 5 22
REMARK SMILES IDX 4 23 3 24 2 25 1 26
REMARK H PARENT
REMARK Flexibility Score: inf
ROOT
ATOM      1  C   UNL     1      36.857  25.021 223.844  1.00  0.00     0.000 C 
ENDROOT
BRANCH   1   2
ATOM      2  C   UNL     1      36.499  24.831 225.329  1.00  0.00     0.000 C 
BRANCH   2   3
ATOM      3  C   UNL     1      37.716  24.423 226.175  1.00  0.00     0.000 C 
BRANCH   3   4
ATOM      4  C   UNL     1      37.508  23.075 226.882  1.00  0.00     0.000 C 
BRANCH   4   5
ATOM      5  C   UNL     1      38.180  21.936 226.105  1.00  0.00     0.000 C 
BRANCH   5   6
ATOM      6  C   UNL     1      39.632  21.737 226.569  1.00  0.00     0.000 C 
BRANCH   6   7
ATOM      7  C   UNL     1      39.727  20.948 227.885  1.00  0.00     0.000 C 
BRANCH   7   8
ATOM      8  C   UNL     1      39.262  19.493 227.729  1.00  0.00     0.000 C 
BRANCH   8   9
ATOM      9  C   UNL     1      40.123  18.746 226.698  1.00  0.00     0.000 C 
BRANCH   9  10
ATOM     10  C   UNL     1      39.311  17.746 225.853  1.00  0.00     0.006 C 
BRANCH  10  11
ATOM     11  C   UNL     1      38.341  18.399 224.855  1.00  0.00     0.053 C 
BRANCH  11  12
ATOM     12  C   UNL     1      36.912  18.063 225.155  1.00  0.00     0.041 C 
ATOM     13  O   UNL     1      36.056  18.060 224.231  1.00  0.00    -0.550 OA
ATOM     14  O   UNL     1      36.532  17.730 226.450  1.00  0.00    -0.550 OA
ENDBRANCH  11  12
ENDBRANCH  10  11
ENDBRANCH   9  10
ENDBRANCH   8   9
ENDBRANCH   7   8
ENDBRANCH   6   7
ENDBRANCH   5   6
ENDBRANCH   4   5
ENDBRANCH   3   4
ENDBRANCH   2   3
ENDBRANCH   1   2
BRANCH   1  15
ATOM     15  C   UNL     1      35.902  24.245 222.912  1.00  0.00     0.000 C 
BRANCH  15  16
ATOM     16  C   UNL     1      36.603  23.176 222.054  1.00  0.00     0.000 C 
BRANCH  16  17
ATOM     17  C   UNL     1      38.015  22.839 222.559  1.00  0.00     0.000 C 
BRANCH  17  18
ATOM     18  C   UNL     1      39.120  23.215 221.554  1.00  0.00    -0.000 C 
BRANCH  18  19
ATOM     19  C   UNL     1      40.318  23.981 222.149  1.00  0.00    -0.000 C 
BRANCH  19  20
ATOM     20  C   UNL     1      40.354  23.944 223.685  1.00  0.00    -0.000 C 
BRANCH  20  21
ATOM     21  C   UNL     1      41.778  23.702 224.198  1.00  0.00    -0.000 C 
BRANCH  21  22
ATOM     22  C   UNL     1      42.392  22.453 223.548  1.00  0.00    -0.000 C 
BRANCH  22  23
ATOM     23  C   UNL     1      42.235  21.188 224.411  1.00  0.00    -0.000 C 
BRANCH  23  24
ATOM     24  C   UNL     1      41.943  19.896 223.623  1.00  0.00    -0.000 C 
BRANCH  24  25
ATOM     25  C   UNL     1      40.821  20.065 222.587  1.00  0.00    -0.003 C 
ATOM     26  C   UNL     1      41.392  20.247 221.183  1.00  0.00     0.004 C 
ENDBRANCH  24  25
ENDBRANCH  23  24
ENDBRANCH  22  23
ENDBRANCH  21  22
ENDBRANCH  20  21
ENDBRANCH  19  20
ENDBRANCH  18  19
ENDBRANCH  17  18
ENDBRANCH  16  17
ENDBRANCH  15  16
ENDBRANCH   1  15
TORSDOF 22
ENDMDL
MODEL 9
REMARK VINA RESULT:    -3.259      2.914      6.817
REMARK INTER + INTRA:         -11.897
REMARK INTER:                  -7.840
REMARK INTRA:                  -4.057
REMARK UNBOUND:                -4.446
REMARK SMILES CCCCCCCCCCCCCCCCCCCCCCCC(=O)[O-]
REMARK SMILES IDX 13 1 14 2 15 3 16 4 17 5 18 6 19 7 20 8 21 9 22 10 23 11
REMARK SMILES IDX 24 12 25 13 26 14 12 15 11 16 10 17 9 18 8 19 7 20 6 21 5 22
REMARK SMILES IDX 4 23 3 24 2 25 1 26
REMARK H PARENT
REMARK Flexibility Score: inf
ROOT
ATOM      1  C   UNL     1      43.198  19.285 226.142  1.00  0.00     0.000 C 
ENDROOT
BRANCH   1   2
ATOM      2  C   UNL     1      43.381  18.666 224.745  1.00  0.00     0.000 C 
BRANCH   2   3
ATOM      3  C   UNL     1      42.540  19.379 223.674  1.00  0.00     0.000 C 
BRANCH   3   4
ATOM      4  C   UNL     1      43.394  19.868 222.493  1.00  0.00     0.000 C 
BRANCH   4   5
ATOM      5  C   UNL     1      42.691  21.002 221.737  1.00  0.00     0.000 C 
BRANCH   5   6
ATOM      6  C   UNL     1      41.803  21.825 222.683  1.00  0.00     0.000 C 
BRANCH   6   7
ATOM      7  C   UNL     1      40.439  22.168 222.063  1.00  0.00     0.000 C 
BRANCH   7   8
ATOM      8  C   UNL     1      40.171  23.679 222.038  1.00  0.00     0.000 C 
BRANCH   8   9
ATOM      9  C   UNL     1      38.666  23.975 222.131  1.00  0.00     0.000 C 
BRANCH   9  10
ATOM     10  C   UNL     1      37.904  22.936 222.975  1.00  0.00     0.006 C 
BRANCH  10  11
ATOM     11  C   UNL     1      36.517  22.566 222.425  1.00  0.00     0.053 C 
BRANCH  11  12
ATOM     12  C   UNL     1      35.636  23.767 222.260  1.00  0.00     0.041 C 
ATOM     13  O   UNL     1      35.067  23.987 221.159  1.00  0.00    -0.550 OA
ATOM     14  O   UNL     1      35.425  24.629 223.331  1.00  0.00    -0.550 OA
ENDBRANCH  11  12
ENDBRANCH  10  11
ENDBRANCH   9  10
ENDBRANCH   8   9
ENDBRANCH   7   8
ENDBRANCH   6   7
ENDBRANCH   5   6
ENDBRANCH   4   5
ENDBRANCH   3   4
ENDBRANCH   2   3
ENDBRANCH   1   2
BRANCH   1  15
ATOM     15  C   UNL     1      42.530  18.306 227.129  1.00  0.00     0.000 C 
BRANCH  15  16
ATOM     16  C   UNL     1      41.590  17.289 226.458  1.00  0.00     0.000 C 
BRANCH  16  17
ATOM     17  C   UNL     1      40.441  16.844 227.376  1.00  0.00     0.000 C 
BRANCH  17  18
ATOM     18  C   UNL     1      39.908  17.980 228.269  1.00  0.00    -0.000 C 
BRANCH  18  19
ATOM     19  C   UNL     1      38.374  18.103 228.332  1.00  0.00    -0.000 C 
BRANCH  19  20
ATOM     20  C   UNL     1      37.666  17.434 227.144  1.00  0.00    -0.000 C 
BRANCH  20  21
ATOM     21  C   UNL     1      37.246  18.471 226.096  1.00  0.00    -0.000 C 
BRANCH  21  22
ATOM     22  C   UNL     1      38.114  18.361 224.833  1.00  0.00    -0.000 C 
BRANCH  22  23
ATOM     23  C   UNL     1      39.126  19.514 224.698  1.00  0.00    -0.000 C 
BRANCH  23  24
ATOM     24  C   UNL     1      38.889  20.702 225.649  1.00  0.00    -0.000 C 
BRANCH  24  25
ATOM     25  C   UNL     1      40.190  21.275 226.229  1.00  0.00    -0.003 C 
ATOM     26  C   UNL     1      40.356  22.746 225.858  1.00  0.00     0.004 C 
ENDBRANCH  24  25
ENDBRANCH  23  24
ENDBRANCH  22  23
ENDBRANCH  21  22
ENDBRANCH  20  21
ENDBRANCH  19  20
ENDBRANCH  18  19
ENDBRANCH  17  18
ENDBRANCH  16  17
ENDBRANCH  15  16
ENDBRANCH   1  15
TORSDOF 22
ENDMDL
