MODEL 1
REMARK VINA RESULT:    -4.458      0.000      0.000
REMARK INTER + INTRA:          -7.503
REMARK INTER:                  -6.152
REMARK INTRA:                  -1.351
REMARK UNBOUND:                -1.351
REMARK SMILES CCCCc1cccc(O)c1CCCC
REMARK SMILES IDX 5 1 11 2 9 3 8 4 7 5 6 6 4 7 3 8 2 9 1 10 12 11 13 12 14 13
REMARK SMILES IDX 15 14 10 15
REMARK H PARENT 10 16
REMARK Flexibility Score: inf
ROOT
ATOM      1  C   UNL     1      37.724  18.559  54.292  1.00  0.00    -0.041 A 
ATOM      2  C   UNL     1      39.094  18.644  53.907  1.00  0.00    -0.003 A 
ATOM      3  C   UNL     1      39.791  19.858  54.110  1.00  0.00     0.119 A 
ATOM      4  C   UNL     1      39.132  20.970  54.647  1.00  0.00     0.046 A 
ATOM      5  C   UNL     1      37.789  20.888  55.002  1.00  0.00     0.004 A 
ATOM      6  C   UNL     1      37.092  19.695  54.830  1.00  0.00     0.004 A 
ENDROOT
BRANCH   1   7
ATOM      7  C   UNL     1      36.890  17.300  54.142  1.00  0.00     0.036 C 
BRANCH   7   8
ATOM      8  C   UNL     1      36.024  17.325  52.873  1.00  0.00     0.004 C 
BRANCH   8   9
ATOM      9  C   UNL     1      35.671  15.919  52.372  1.00  0.00    -0.003 C 
ATOM     10  C   UNL     1      35.793  14.890  53.492  1.00  0.00     0.004 C 
ENDBRANCH   8   9
ENDBRANCH   7   8
ENDBRANCH   1   7
BRANCH   2  11
ATOM     11  C   UNL     1      39.851  17.455  53.350  1.00  0.00     0.040 C 
BRANCH  11  12
ATOM     12  C   UNL     1      39.747  17.411  51.822  1.00  0.00     0.005 C 
BRANCH  12  13
ATOM     13  C   UNL     1      39.246  16.045  51.343  1.00  0.00    -0.003 C 
ATOM     14  C   UNL     1      39.358  14.997  52.446  1.00  0.00     0.004 C 
ENDBRANCH  12  13
ENDBRANCH  11  12
ENDBRANCH   2  11
BRANCH   3  15
ATOM     15  O   UNL     1      41.143  19.957  53.782  1.00  0.00    -0.508 OA
ATOM     16  H   UNL     1      41.490  19.700  52.865  1.00  0.00     0.293 HD
ENDBRANCH   3  15
TORSDOF 7
ENDMDL
MODEL 2
REMARK VINA RESULT:    -4.230      5.315      7.519
REMARK INTER + INTRA:          -7.189
REMARK INTER:                  -6.270
REMARK INTRA:                  -0.919
REMARK UNBOUND:                -1.351
REMARK SMILES CCCCc1cccc(O)c1CCCC
REMARK SMILES IDX 5 1 11 2 9 3 8 4 7 5 6 6 4 7 3 8 2 9 1 10 12 11 13 12 14 13
REMARK SMILES IDX 15 14 10 15
REMARK H PARENT 10 16
REMARK Flexibility Score: inf
ROOT
ATOM      1  C   UNL     1      40.710  25.107  53.329  1.00  0.00    -0.041 A 
ATOM      2  C   UNL     1      41.940  25.809  53.166  1.00  0.00    -0.003 A 
ATOM      3  C   UNL     1      42.193  26.947  53.966  1.00  0.00     0.119 A 
ATOM      4  C   UNL     1      41.232  27.398  54.877  1.00  0.00     0.046 A 
ATOM      5  C   UNL     1      40.024  26.722  55.017  1.00  0.00     0.004 A 
ATOM      6  C   UNL     1      39.765  25.586  54.255  1.00  0.00     0.004 A 
ENDROOT
BRANCH   1   7
ATOM      7  C   UNL     1      40.348  23.861  52.541  1.00  0.00     0.036 C 
BRANCH   7   8
ATOM      8  C   UNL     1      39.664  22.799  53.416  1.00  0.00     0.004 C 
BRANCH   8   9
ATOM      9  C   UNL     1      40.156  21.379  53.112  1.00  0.00    -0.003 C 
ATOM     10  C   UNL     1      40.012  20.473  54.332  1.00  0.00     0.004 C 
ENDBRANCH   8   9
ENDBRANCH   7   8
ENDBRANCH   1   7
BRANCH   2  11
ATOM     11  C   UNL     1      43.020  25.335  52.213  1.00  0.00     0.040 C 
BRANCH  11  12
ATOM     12  C   UNL     1      44.016  24.420  52.932  1.00  0.00     0.005 C 
BRANCH  12  13
ATOM     13  C   UNL     1      43.625  22.947  52.774  1.00  0.00    -0.003 C 
ATOM     14  C   UNL     1      43.605  22.535  51.305  1.00  0.00     0.004 C 
ENDBRANCH  12  13
ENDBRANCH  11  12
ENDBRANCH   2  11
BRANCH   3  15
ATOM     15  O   UNL     1      43.406  27.629  53.858  1.00  0.00    -0.508 OA
ATOM     16  H   UNL     1      43.445  28.633  53.726  1.00  0.00     0.293 HD
ENDBRANCH   3  15
TORSDOF 7
ENDMDL
MODEL 3
REMARK VINA RESULT:    -4.187      1.815      4.503
REMARK INTER + INTRA:          -7.128
REMARK INTER:                  -5.981
REMARK INTRA:                  -1.147
REMARK UNBOUND:                -1.351
REMARK SMILES CCCCc1cccc(O)c1CCCC
REMARK SMILES IDX 5 1 11 2 9 3 8 4 7 5 6 6 4 7 3 8 2 9 1 10 12 11 13 12 14 13
REMARK SMILES IDX 15 14 10 15
REMARK H PARENT 10 16
REMARK Flexibility Score: inf
ROOT
ATOM      1  C   UNL     1      38.007  18.866  52.712  1.00  0.00    -0.041 A 
ATOM      2  C   UNL     1      39.430  18.879  52.617  1.00  0.00    -0.003 A 
ATOM      3  C   UNL     1      40.144  17.678  52.837  1.00  0.00     0.119 A 
ATOM      4  C   UNL     1      39.464  16.504  53.179  1.00  0.00     0.046 A 
ATOM      5  C   UNL     1      38.077  16.502  53.292  1.00  0.00     0.004 A 
ATOM      6  C   UNL     1      37.354  17.669  53.057  1.00  0.00     0.004 A 
ENDROOT
BRANCH   1   7
ATOM      7  C   UNL     1      37.143  20.090  52.472  1.00  0.00     0.036 C 
BRANCH   7   8
ATOM      8  C   UNL     1      36.477  20.594  53.763  1.00  0.00     0.004 C 
BRANCH   8   9
ATOM      9  C   UNL     1      37.326  20.315  55.011  1.00  0.00    -0.003 C 
ATOM     10  C   UNL     1      37.388  21.541  55.918  1.00  0.00     0.004 C 
ENDBRANCH   8   9
ENDBRANCH   7   8
ENDBRANCH   1   7
BRANCH   2  11
ATOM     11  C   UNL     1      40.201  20.122  52.219  1.00  0.00     0.040 C 
BRANCH  11  12
ATOM     12  C   UNL     1      40.534  20.972  53.450  1.00  0.00     0.005 C 
BRANCH  12  13
ATOM     13  C   UNL     1      40.003  22.401  53.294  1.00  0.00    -0.003 C 
ATOM     14  C   UNL     1      39.906  22.796  51.823  1.00  0.00     0.004 C 
ENDBRANCH  12  13
ENDBRANCH  11  12
ENDBRANCH   2  11
BRANCH   3  15
ATOM     15  O   UNL     1      41.533  17.652  52.709  1.00  0.00    -0.508 OA
ATOM     16  H   UNL     1      42.010  18.144  51.962  1.00  0.00     0.293 HD
ENDBRANCH   3  15
TORSDOF 7
ENDMDL
MODEL 4
REMARK VINA RESULT:    -4.185      6.288      9.916
REMARK INTER + INTRA:          -7.126
REMARK INTER:                  -6.316
REMARK INTRA:                  -0.810
REMARK UNBOUND:                -1.351
REMARK SMILES CCCCc1cccc(O)c1CCCC
REMARK SMILES IDX 5 1 11 2 9 3 8 4 7 5 6 6 4 7 3 8 2 9 1 10 12 11 13 12 14 13
REMARK SMILES IDX 15 14 10 15
REMARK H PARENT 10 16
REMARK Flexibility Score: inf
ROOT
ATOM      1  C   UNL     1      43.305  24.311  52.619  1.00  0.00    -0.041 A 
ATOM      2  C   UNL     1      41.983  24.746  52.932  1.00  0.00    -0.003 A 
ATOM      3  C   UNL     1      40.913  23.829  52.815  1.00  0.00     0.119 A 
ATOM      4  C   UNL     1      41.145  22.526  52.363  1.00  0.00     0.046 A 
ATOM      5  C   UNL     1      42.434  22.112  52.039  1.00  0.00     0.004 A 
ATOM      6  C   UNL     1      43.504  22.994  52.169  1.00  0.00     0.004 A 
ENDROOT
BRANCH   1   7
ATOM      7  C   UNL     1      44.527  25.204  52.734  1.00  0.00     0.036 C 
BRANCH   7   8
ATOM      8  C   UNL     1      44.935  25.807  51.380  1.00  0.00     0.004 C 
BRANCH   8   9
ATOM      9  C   UNL     1      45.411  27.260  51.501  1.00  0.00    -0.003 C 
ATOM     10  C   UNL     1      44.251  28.192  51.838  1.00  0.00     0.004 C 
ENDBRANCH   8   9
ENDBRANCH   7   8
ENDBRANCH   1   7
BRANCH   2  11
ATOM     11  C   UNL     1      41.694  26.140  53.453  1.00  0.00     0.040 C 
BRANCH  11  12
ATOM     12  C   UNL     1      42.107  26.266  54.923  1.00  0.00     0.005 C 
BRANCH  12  13
ATOM     13  C   UNL     1      41.034  26.996  55.737  1.00  0.00    -0.003 C 
ATOM     14  C   UNL     1      39.718  27.076  54.970  1.00  0.00     0.004 C 
ENDBRANCH  12  13
ENDBRANCH  11  12
ENDBRANCH   2  11
BRANCH   3  15
ATOM     15  O   UNL     1      39.615  24.214  53.154  1.00  0.00    -0.508 OA
ATOM     16  H   UNL     1      39.411  25.138  53.519  1.00  0.00     0.293 HD
ENDBRANCH   3  15
TORSDOF 7
ENDMDL
MODEL 5
REMARK VINA RESULT:    -4.161      7.132      9.979
REMARK INTER + INTRA:          -7.093
REMARK INTER:                  -6.213
REMARK INTRA:                  -0.880
REMARK UNBOUND:                -1.351
REMARK SMILES CCCCc1cccc(O)c1CCCC
REMARK SMILES IDX 5 1 11 2 9 3 8 4 7 5 6 6 4 7 3 8 2 9 1 10 12 11 13 12 14 13
REMARK SMILES IDX 15 14 10 15
REMARK H PARENT 10 16
REMARK Flexibility Score: inf
ROOT
ATOM      1  C   UNL     1      44.252  25.476  52.552  1.00  0.00    -0.041 A 
ATOM      2  C   UNL     1      43.389  26.601  52.703  1.00  0.00    -0.003 A 
ATOM      3  C   UNL     1      43.794  27.852  52.182  1.00  0.00     0.119 A 
ATOM      4  C   UNL     1      45.040  27.989  51.562  1.00  0.00     0.046 A 
ATOM      5  C   UNL     1      45.888  26.893  51.436  1.00  0.00     0.004 A 
ATOM      6  C   UNL     1      45.498  25.648  51.923  1.00  0.00     0.004 A 
ENDROOT
BRANCH   1   7
ATOM      7  C   UNL     1      43.906  24.085  53.051  1.00  0.00     0.036 C 
BRANCH   7   8
ATOM      8  C   UNL     1      43.506  23.141  51.906  1.00  0.00     0.004 C 
BRANCH   8   9
ATOM      9  C   UNL     1      42.251  22.320  52.230  1.00  0.00    -0.003 C 
ATOM     10  C   UNL     1      41.019  23.214  52.331  1.00  0.00     0.004 C 
ENDBRANCH   8   9
ENDBRANCH   7   8
ENDBRANCH   1   7
BRANCH   2  11
ATOM     11  C   UNL     1      42.018  26.487  53.340  1.00  0.00     0.040 C 
BRANCH  11  12
ATOM     12  C   UNL     1      42.115  26.623  54.864  1.00  0.00     0.005 C 
BRANCH  12  13
ATOM     13  C   UNL     1      40.736  26.864  55.485  1.00  0.00    -0.003 C 
ATOM     14  C   UNL     1      39.626  26.298  54.603  1.00  0.00     0.004 C 
ENDBRANCH  12  13
ENDBRANCH  11  12
ENDBRANCH   2  11
BRANCH   3  15
ATOM     15  O   UNL     1      42.951  28.960  52.277  1.00  0.00    -0.508 OA
ATOM     16  H   UNL     1      43.209  29.783  52.810  1.00  0.00     0.293 HD
ENDBRANCH   3  15
TORSDOF 7
ENDMDL
MODEL 6
REMARK VINA RESULT:    -4.156     17.921     19.901
REMARK INTER + INTRA:          -7.086
REMARK INTER:                  -6.576
REMARK INTRA:                  -0.510
REMARK UNBOUND:                -1.351
REMARK SMILES CCCCc1cccc(O)c1CCCC
REMARK SMILES IDX 5 1 11 2 9 3 8 4 7 5 6 6 4 7 3 8 2 9 1 10 12 11 13 12 14 13
REMARK SMILES IDX 15 14 10 15
REMARK H PARENT 10 16
REMARK Flexibility Score: inf
ROOT
ATOM      1  C   UNL     1      46.466  33.244  62.525  1.00  0.00    -0.041 A 
ATOM      2  C   UNL     1      46.614  33.572  61.145  1.00  0.00    -0.003 A 
ATOM      3  C   UNL     1      45.499  33.440  60.285  1.00  0.00     0.119 A 
ATOM      4  C   UNL     1      44.280  32.959  60.775  1.00  0.00     0.046 A 
ATOM      5  C   UNL     1      44.147  32.621  62.118  1.00  0.00     0.004 A 
ATOM      6  C   UNL     1      45.227  32.764  62.986  1.00  0.00     0.004 A 
ENDROOT
BRANCH   1   7
ATOM      7  C   UNL     1      47.588  33.372  63.539  1.00  0.00     0.036 C 
BRANCH   7   8
ATOM      8  C   UNL     1      47.065  33.710  64.944  1.00  0.00     0.004 C 
BRANCH   8   9
ATOM      9  C   UNL     1      47.506  32.686  65.998  1.00  0.00    -0.003 C 
ATOM     10  C   UNL     1      48.440  33.321  67.024  1.00  0.00     0.004 C 
ENDBRANCH   8   9
ENDBRANCH   7   8
ENDBRANCH   1   7
BRANCH   2  11
ATOM     11  C   UNL     1      47.908  34.125  60.581  1.00  0.00     0.040 C 
BRANCH  11  12
ATOM     12  C   UNL     1      48.660  33.048  59.793  1.00  0.00     0.005 C 
BRANCH  12  13
ATOM     13  C   UNL     1      49.668  33.676  58.825  1.00  0.00    -0.003 C 
ATOM     14  C   UNL     1      49.109  33.736  57.407  1.00  0.00     0.004 C 
ENDBRANCH  12  13
ENDBRANCH  11  12
ENDBRANCH   2  11
BRANCH   3  15
ATOM     15  O   UNL     1      45.603  33.794  58.939  1.00  0.00    -0.508 OA
ATOM     16  H   UNL     1      45.756  33.102  58.215  1.00  0.00     0.293 HD
ENDBRANCH   3  15
TORSDOF 7
ENDMDL
MODEL 7
REMARK VINA RESULT:    -4.058      2.200      4.021
REMARK INTER + INTRA:          -6.951
REMARK INTER:                  -5.826
REMARK INTRA:                  -1.125
REMARK UNBOUND:                -1.351
REMARK SMILES CCCCc1cccc(O)c1CCCC
REMARK SMILES IDX 5 1 11 2 9 3 8 4 7 5 6 6 4 7 3 8 2 9 1 10 12 11 13 12 14 13
REMARK SMILES IDX 15 14 10 15
REMARK H PARENT 10 16
REMARK Flexibility Score: inf
ROOT
ATOM      1  C   UNL     1      39.759  19.960  52.116  1.00  0.00    -0.041 A 
ATOM      2  C   UNL     1      39.395  20.875  53.146  1.00  0.00    -0.003 A 
ATOM      3  C   UNL     1      39.834  22.217  53.061  1.00  0.00     0.119 A 
ATOM      4  C   UNL     1      40.645  22.629  51.998  1.00  0.00     0.046 A 
ATOM      5  C   UNL     1      41.015  21.726  51.005  1.00  0.00     0.004 A 
ATOM      6  C   UNL     1      40.575  20.407  51.060  1.00  0.00     0.004 A 
ENDROOT
BRANCH   1   7
ATOM      7  C   UNL     1      39.323  18.507  52.097  1.00  0.00     0.036 C 
BRANCH   7   8
ATOM      8  C   UNL     1      40.297  17.598  52.863  1.00  0.00     0.004 C 
BRANCH   8   9
ATOM      9  C   UNL     1      39.653  16.274  53.293  1.00  0.00    -0.003 C 
ATOM     10  C   UNL     1      38.215  16.174  52.792  1.00  0.00     0.004 C 
ENDBRANCH   8   9
ENDBRANCH   7   8
ENDBRANCH   1   7
BRANCH   2  11
ATOM     11  C   UNL     1      38.493  20.477  54.298  1.00  0.00     0.040 C 
BRANCH  11  12
ATOM     12  C   UNL     1      37.019  20.558  53.887  1.00  0.00     0.005 C 
BRANCH  12  13
ATOM     13  C   UNL     1      36.341  19.189  53.992  1.00  0.00    -0.003 C 
ATOM     14  C   UNL     1      36.761  18.461  55.266  1.00  0.00     0.004 C 
ENDBRANCH  12  13
ENDBRANCH  11  12
ENDBRANCH   2  11
BRANCH   3  15
ATOM     15  O   UNL     1      39.457  23.145  54.032  1.00  0.00    -0.508 OA
ATOM     16  H   UNL     1      39.812  23.099  54.981  1.00  0.00     0.293 HD
ENDBRANCH   3  15
TORSDOF 7
ENDMDL
MODEL 8
REMARK VINA RESULT:    -4.017      4.844      7.802
REMARK INTER + INTRA:          -6.894
REMARK INTER:                  -6.017
REMARK INTRA:                  -0.877
REMARK UNBOUND:                -1.351
REMARK SMILES CCCCc1cccc(O)c1CCCC
REMARK SMILES IDX 5 1 11 2 9 3 8 4 7 5 6 6 4 7 3 8 2 9 1 10 12 11 13 12 14 13
REMARK SMILES IDX 15 14 10 15
REMARK H PARENT 10 16
REMARK Flexibility Score: inf
ROOT
ATOM      1  C   UNL     1      41.362  23.414  52.336  1.00  0.00    -0.041 A 
ATOM      2  C   UNL     1      41.620  24.724  52.835  1.00  0.00    -0.003 A 
ATOM      3  C   UNL     1      42.956  25.111  53.091  1.00  0.00     0.119 A 
ATOM      4  C   UNL     1      44.004  24.206  52.892  1.00  0.00     0.046 A 
ATOM      5  C   UNL     1      43.745  22.921  52.425  1.00  0.00     0.004 A 
ATOM      6  C   UNL     1      42.438  22.528  52.146  1.00  0.00     0.004 A 
ENDROOT
BRANCH   1   7
ATOM      7  C   UNL     1      39.971  22.905  52.005  1.00  0.00     0.036 C 
BRANCH   7   8
ATOM      8  C   UNL     1      39.647  21.588  52.728  1.00  0.00     0.004 C 
BRANCH   8   9
ATOM      9  C   UNL     1      39.271  21.801  54.200  1.00  0.00    -0.003 C 
ATOM     10  C   UNL     1      38.129  20.879  54.615  1.00  0.00     0.004 C 
ENDBRANCH   8   9
ENDBRANCH   7   8
ENDBRANCH   1   7
BRANCH   2  11
ATOM     11  C   UNL     1      40.516  25.744  53.035  1.00  0.00     0.040 C 
BRANCH  11  12
ATOM     12  C   UNL     1      39.930  25.640  54.447  1.00  0.00     0.005 C 
BRANCH  12  13
ATOM     13  C   UNL     1      39.717  27.028  55.059  1.00  0.00    -0.003 C 
ATOM     14  C   UNL     1      40.712  27.294  56.185  1.00  0.00     0.004 C 
ENDBRANCH  12  13
ENDBRANCH  11  12
ENDBRANCH   2  11
BRANCH   3  15
ATOM     15  O   UNL     1      43.242  26.401  53.539  1.00  0.00    -0.508 OA
ATOM     16  H   UNL     1      42.632  27.184  53.336  1.00  0.00     0.293 HD
ENDBRANCH   3  15
TORSDOF 7
ENDMDL
MODEL 9
REMARK VINA RESULT:    -3.995      1.995      3.561
REMARK INTER + INTRA:          -6.864
REMARK INTER:                  -5.747
REMARK INTRA:                  -1.117
REMARK UNBOUND:                -1.351
REMARK SMILES CCCCc1cccc(O)c1CCCC
REMARK SMILES IDX 5 1 11 2 9 3 8 4 7 5 6 6 4 7 3 8 2 9 1 10 12 11 13 12 14 13
REMARK SMILES IDX 15 14 10 15
REMARK H PARENT 10 16
REMARK Flexibility Score: inf
ROOT
ATOM      1  C   UNL     1      38.795  18.748  53.958  1.00  0.00    -0.041 A 
ATOM      2  C   UNL     1      39.359  20.055  53.874  1.00  0.00    -0.003 A 
ATOM      3  C   UNL     1      38.663  21.142  54.451  1.00  0.00     0.119 A 
ATOM      4  C   UNL     1      37.421  20.942  55.063  1.00  0.00     0.046 A 
ATOM      5  C   UNL     1      36.864  19.667  55.124  1.00  0.00     0.004 A 
ATOM      6  C   UNL     1      37.545  18.581  54.581  1.00  0.00     0.004 A 
ENDROOT
BRANCH   1   7
ATOM      7  C   UNL     1      39.469  17.510  53.396  1.00  0.00     0.036 C 
BRANCH   7   8
ATOM      8  C   UNL     1      38.605  16.811  52.334  1.00  0.00     0.004 C 
BRANCH   8   9
ATOM      9  C   UNL     1      38.431  17.657  51.066  1.00  0.00    -0.003 C 
ATOM     10  C   UNL     1      36.975  18.071  50.876  1.00  0.00     0.004 C 
ENDBRANCH   8   9
ENDBRANCH   7   8
ENDBRANCH   1   7
BRANCH   2  11
ATOM     11  C   UNL     1      40.716  20.310  53.248  1.00  0.00     0.040 C 
BRANCH  11  12
ATOM     12  C   UNL     1      40.572  20.659  51.763  1.00  0.00     0.005 C 
BRANCH  12  13
ATOM     13  C   UNL     1      41.241  22.000  51.444  1.00  0.00    -0.003 C 
ATOM     14  C   UNL     1      42.495  22.206  52.289  1.00  0.00     0.004 C 
ENDBRANCH  12  13
ENDBRANCH  11  12
ENDBRANCH   2  11
BRANCH   3  15
ATOM     15  O   UNL     1      39.211  22.425  54.422  1.00  0.00    -0.508 OA
ATOM     16  H   UNL     1      39.001  23.079  53.676  1.00  0.00     0.293 HD
ENDBRANCH   3  15
TORSDOF 7
ENDMDL
