MODEL 1
REMARK VINA RESULT:    -3.405      0.000      0.000
REMARK INTER + INTRA:          -3.870
REMARK INTER:                  -3.803
REMARK INTRA:                  -0.067
REMARK UNBOUND:                -0.067
REMARK SMILES CCCC(=O)[O-]
REMARK SMILES IDX 3 1 4 2 5 3 6 4 2 5 1 6
REMARK H PARENT
REMARK Flexibility Score: inf
ROOT
ATOM      1  C   UNL     1     -13.345  59.994  38.730  1.00  0.00     0.052 C 
ENDROOT
BRANCH   1   2
ATOM      2  C   UNL     1     -12.683  60.150  40.062  1.00  0.00     0.041 C 
ATOM      3  O   UNL     1     -13.311  59.873  41.118  1.00  0.00    -0.550 OA
ATOM      4  O   UNL     1     -11.389  60.650  40.142  1.00  0.00    -0.550 OA
ENDBRANCH   1   2
BRANCH   1   5
ATOM      5  C   UNL     1     -14.677  60.747  38.703  1.00  0.00     0.003 C 
ATOM      6  C   UNL     1     -14.457  62.257  38.749  1.00  0.00     0.004 C 
ENDBRANCH   1   5
TORSDOF 2
ENDMDL
MODEL 2
REMARK VINA RESULT:    -3.381      0.107      1.325
REMARK INTER + INTRA:          -3.844
REMARK INTER:                  -3.772
REMARK INTRA:                  -0.072
REMARK UNBOUND:                -0.067
REMARK SMILES CCCC(=O)[O-]
REMARK SMILES IDX 3 1 4 2 5 3 6 4 2 5 1 6
REMARK H PARENT
REMARK Flexibility Score: inf
ROOT
ATOM      1  C   UNL     1     -13.333  60.017  38.784  1.00  0.00     0.052 C 
ENDROOT
BRANCH   1   2
ATOM      2  C   UNL     1     -12.658  60.200  40.106  1.00  0.00     0.041 C 
ATOM      3  O   UNL     1     -11.461  60.585  40.158  1.00  0.00    -0.550 OA
ATOM      4  O   UNL     1     -13.336  59.898  41.281  1.00  0.00    -0.550 OA
ENDBRANCH   1   2
BRANCH   1   5
ATOM      5  C   UNL     1     -14.637  60.816  38.733  1.00  0.00     0.003 C 
ATOM      6  C   UNL     1     -14.366  62.317  38.806  1.00  0.00     0.004 C 
ENDBRANCH   1   5
TORSDOF 2
ENDMDL
MODEL 3
REMARK VINA RESULT:    -3.306     16.836     17.479
REMARK INTER + INTRA:          -3.760
REMARK INTER:                  -3.749
REMARK INTRA:                  -0.011
REMARK UNBOUND:                -0.067
REMARK SMILES CCCC(=O)[O-]
REMARK SMILES IDX 3 1 4 2 5 3 6 4 2 5 1 6
REMARK H PARENT
REMARK Flexibility Score: inf
ROOT
ATOM      1  C   UNL     1     -12.240  49.878  53.936  1.00  0.00     0.052 C 
ENDROOT
BRANCH   1   2
ATOM      2  C   UNL     1     -13.404  49.841  52.997  1.00  0.00     0.041 C 
ATOM      3  O   UNL     1     -14.498  49.338  53.363  1.00  0.00    -0.550 OA
ATOM      4  O   UNL     1     -13.266  50.317  51.699  1.00  0.00    -0.550 OA
ENDBRANCH   1   2
BRANCH   1   5
ATOM      5  C   UNL     1     -11.299  51.030  53.578  1.00  0.00     0.003 C 
ATOM      6  C   UNL     1      -9.946  50.870  54.266  1.00  0.00     0.004 C 
ENDBRANCH   1   5
TORSDOF 2
ENDMDL
MODEL 4
REMARK VINA RESULT:    -3.230     15.548     16.585
REMARK INTER + INTRA:          -3.676
REMARK INTER:                  -3.656
REMARK INTRA:                  -0.020
REMARK UNBOUND:                -0.067
REMARK SMILES CCCC(=O)[O-]
REMARK SMILES IDX 3 1 4 2 5 3 6 4 2 5 1 6
REMARK H PARENT
REMARK Flexibility Score: inf
ROOT
ATOM      1  C   UNL     1      -6.625  60.888  54.225  1.00  0.00     0.052 C 
ENDROOT
BRANCH   1   2
ATOM      2  C   UNL     1      -7.408  62.137  53.973  1.00  0.00     0.041 C 
ATOM      3  O   UNL     1      -8.192  62.582  54.852  1.00  0.00    -0.550 OA
ATOM      4  O   UNL     1      -7.310  62.784  52.747  1.00  0.00    -0.550 OA
ENDBRANCH   1   2
BRANCH   1   5
ATOM      5  C   UNL     1      -6.337  60.729  55.720  1.00  0.00     0.003 C 
ATOM      6  C   UNL     1      -6.265  59.256  56.113  1.00  0.00     0.004 C 
ENDBRANCH   1   5
TORSDOF 2
ENDMDL
MODEL 5
REMARK VINA RESULT:    -3.227     16.632     17.352
REMARK INTER + INTRA:          -3.672
REMARK INTER:                  -3.663
REMARK INTRA:                  -0.008
REMARK UNBOUND:                -0.067
REMARK SMILES CCCC(=O)[O-]
REMARK SMILES IDX 3 1 4 2 5 3 6 4 2 5 1 6
REMARK H PARENT
REMARK Flexibility Score: inf
ROOT
ATOM      1  C   UNL     1     -11.761  50.155  53.933  1.00  0.00     0.052 C 
ENDROOT
BRANCH   1   2
ATOM      2  C   UNL     1     -10.434  50.845  53.976  1.00  0.00     0.041 C 
ATOM      3  O   UNL     1     -10.350  52.073  53.713  1.00  0.00    -0.550 OA
ATOM      4  O   UNL     1      -9.282  50.121  54.259  1.00  0.00    -0.550 OA
ENDBRANCH   1   2
BRANCH   1   5
ATOM      5  C   UNL     1     -12.592  50.666  52.754  1.00  0.00     0.003 C 
ATOM      6  C   UNL     1     -13.663  49.654  52.356  1.00  0.00     0.004 C 
ENDBRANCH   1   5
TORSDOF 2
ENDMDL
MODEL 6
REMARK VINA RESULT:    -3.165     15.268     16.027
REMARK INTER + INTRA:          -3.603
REMARK INTER:                  -3.567
REMARK INTRA:                  -0.036
REMARK UNBOUND:                -0.067
REMARK SMILES CCCC(=O)[O-]
REMARK SMILES IDX 3 1 4 2 5 3 6 4 2 5 1 6
REMARK H PARENT
REMARK Flexibility Score: inf
ROOT
ATOM      1  C   UNL     1      -7.841  62.574  54.429  1.00  0.00     0.052 C 
ENDROOT
BRANCH   1   2
ATOM      2  C   UNL     1      -7.372  63.479  53.335  1.00  0.00     0.041 C 
ATOM      3  O   UNL     1      -6.318  63.213  52.700  1.00  0.00    -0.550 OA
ATOM      4  O   UNL     1      -8.070  64.646  53.050  1.00  0.00    -0.550 OA
ENDBRANCH   1   2
BRANCH   1   5
ATOM      5  C   UNL     1      -7.128  61.222  54.348  1.00  0.00     0.003 C 
ATOM      6  C   UNL     1      -6.395  60.907  55.650  1.00  0.00     0.004 C 
ENDBRANCH   1   5
TORSDOF 2
ENDMDL
MODEL 7
REMARK VINA RESULT:    -3.162      2.058      3.117
REMARK INTER + INTRA:          -3.599
REMARK INTER:                  -3.558
REMARK INTRA:                  -0.041
REMARK UNBOUND:                -0.067
REMARK SMILES CCCC(=O)[O-]
REMARK SMILES IDX 3 1 4 2 5 3 6 4 2 5 1 6
REMARK H PARENT
REMARK Flexibility Score: inf
ROOT
ATOM      1  C   UNL     1     -13.595  60.181  38.750  1.00  0.00     0.052 C 
ENDROOT
BRANCH   1   2
ATOM      2  C   UNL     1     -14.600  61.261  38.998  1.00  0.00     0.041 C 
ATOM      3  O   UNL     1     -14.319  62.460  38.736  1.00  0.00    -0.550 OA
ATOM      4  O   UNL     1     -15.829  60.951  39.566  1.00  0.00    -0.550 OA
ENDBRANCH   1   2
BRANCH   1   5
ATOM      5  C   UNL     1     -12.851  59.836  40.041  1.00  0.00     0.003 C 
ATOM      6  C   UNL     1     -11.604  60.702  40.207  1.00  0.00     0.004 C 
ENDBRANCH   1   5
TORSDOF 2
ENDMDL
MODEL 8
REMARK VINA RESULT:    -3.133      2.962      3.618
REMARK INTER + INTRA:          -3.566
REMARK INTER:                  -3.557
REMARK INTRA:                  -0.009
REMARK UNBOUND:                -0.067
REMARK SMILES CCCC(=O)[O-]
REMARK SMILES IDX 3 1 4 2 5 3 6 4 2 5 1 6
REMARK H PARENT
REMARK Flexibility Score: inf
ROOT
ATOM      1  C   UNL     1     -14.803  60.918  39.554  1.00  0.00     0.052 C 
ENDROOT
BRANCH   1   2
ATOM      2  C   UNL     1     -16.038  60.830  38.715  1.00  0.00     0.041 C 
ATOM      3  O   UNL     1     -16.742  59.787  38.731  1.00  0.00    -0.550 OA
ATOM      4  O   UNL     1     -16.385  61.882  37.875  1.00  0.00    -0.550 OA
ENDBRANCH   1   2
BRANCH   1   5
ATOM      5  C   UNL     1     -13.604  60.332  38.805  1.00  0.00     0.003 C 
ATOM      6  C   UNL     1     -12.588  59.735  39.775  1.00  0.00     0.004 C 
ENDBRANCH   1   5
TORSDOF 2
ENDMDL
MODEL 9
REMARK VINA RESULT:    -3.078     16.548     17.439
REMARK INTER + INTRA:          -3.505
REMARK INTER:                  -3.473
REMARK INTRA:                  -0.032
REMARK UNBOUND:                -0.067
REMARK SMILES CCCC(=O)[O-]
REMARK SMILES IDX 3 1 4 2 5 3 6 4 2 5 1 6
REMARK H PARENT
REMARK Flexibility Score: inf
ROOT
ATOM      1  C   UNL     1      -6.016  61.011  55.548  1.00  0.00     0.052 C 
ENDROOT
BRANCH   1   2
ATOM      2  C   UNL     1      -5.767  59.695  56.215  1.00  0.00     0.041 C 
ATOM      3  O   UNL     1      -6.595  58.756  56.093  1.00  0.00    -0.550 OA
ATOM      4  O   UNL     1      -4.643  59.522  57.015  1.00  0.00    -0.550 OA
ENDBRANCH   1   2
BRANCH   1   5
ATOM      5  C   UNL     1      -6.407  60.803  54.083  1.00  0.00     0.003 C 
ATOM      6  C   UNL     1      -7.680  61.572  53.739  1.00  0.00     0.004 C 
ENDBRANCH   1   5
TORSDOF 2
ENDMDL
