MODEL 1
REMARK VINA RESULT:    -7.287      0.000      0.000
REMARK INTER + INTRA:         -10.866
REMARK INTER:                  -9.629
REMARK INTRA:                  -1.236
REMARK UNBOUND:                -1.236
REMARK SMILES C=C(CC[C@@H](C)[C@@H]1CC[C@@]2(C)[C@@H]3CC[C@@H]4C(C)(C)[C@@H](O)CC[C@@]45C[C@@]35CC[C@]12C)C(C)C
REMARK SMILES IDX 4 1 3 2 2 3 1 4 30 5 31 6 32 7 5 8 6 9 7 10 8 11 28 12 9 13
REMARK SMILES IDX 10 14 27 15 29 16 11 17 12 18 26 19 25 20 13 21 23 22 24 23
REMARK SMILES IDX 14 24 15 25 22 26 16 27 21 28 19 29 17 30 18 31 20 32
REMARK H PARENT 20 33
REMARK Flexibility Score: inf
ROOT
ATOM      1  C   UNL     1      12.148 -13.676  29.212  1.00  0.00     0.008 C 
ENDROOT
BRANCH   1   2
ATOM      2  C   UNL     1      11.390 -14.905  29.750  1.00  0.00     0.031 C 
BRANCH   2   3
ATOM      3  C   UNL     1      12.177 -15.594  30.848  1.00  0.00    -0.075 C 
ATOM      4  C   UNL     1      13.519 -15.573  30.804  1.00  0.00     0.008 C 
BRANCH   3   5
ATOM      5  C   UNL     1      11.469 -16.264  32.018  1.00  0.00     0.008 C 
ATOM      6  C   UNL     1      11.369 -17.781  31.811  1.00  0.00     0.012 C 
ATOM      7  C   UNL     1      10.084 -15.649  32.257  1.00  0.00     0.012 C 
ENDBRANCH   3   5
ENDBRANCH   2   3
ENDBRANCH   1   2
BRANCH   1   8
ATOM      8  C   UNL     1      12.625 -13.796  27.735  1.00  0.00    -0.010 C 
ATOM      9  C   UNL     1      11.697 -12.985  26.806  1.00  0.00     0.008 C 
BRANCH   8  10
ATOM     10  C   UNL     1      14.184 -13.594  27.576  1.00  0.00    -0.002 C 
ATOM     11  C   UNL     1      14.700 -12.330  26.840  1.00  0.00     0.005 C 
ATOM     12  C   UNL     1      15.066 -14.789  27.023  1.00  0.00    -0.024 C 
ATOM     13  C   UNL     1      15.923 -12.766  26.008  1.00  0.00     0.008 C 
ATOM     14  C   UNL     1      15.660 -14.242  25.675  1.00  0.00    -0.024 C 
ATOM     15  C   UNL     1      14.405 -16.176  26.745  1.00  0.00     0.008 C 
ATOM     16  C   UNL     1      16.154 -15.022  28.135  1.00  0.00     0.012 C 
ATOM     17  C   UNL     1      14.603 -14.221  24.508  1.00  0.00     0.012 C 
ATOM     18  C   UNL     1      16.934 -15.084  25.256  1.00  0.00     0.002 C 
ATOM     19  C   UNL     1      15.245 -17.108  25.803  1.00  0.00     0.008 C 
ATOM     20  C   UNL     1      16.705 -16.614  25.527  1.00  0.00    -0.020 C 
ATOM     21  C   UNL     1      17.319 -14.872  23.755  1.00  0.00     0.005 C 
ATOM     22  C   UNL     1      17.761 -17.498  24.808  1.00  0.00    -0.020 C 
ATOM     23  C   UNL     1      17.727 -17.462  26.322  1.00  0.00     0.015 C 
ATOM     24  C   UNL     1      18.549 -15.659  23.255  1.00  0.00     0.005 C 
ATOM     25  C   UNL     1      19.004 -16.768  24.218  1.00  0.00     0.004 C 
ATOM     26  C   UNL     1      17.162 -18.686  24.029  1.00  0.00     0.010 C 
ATOM     27  C   UNL     1      20.050 -17.783  23.626  1.00  0.00    -0.006 C 
ATOM     28  C   UNL     1      18.244 -19.616  23.487  1.00  0.00     0.033 C 
ATOM     29  C   UNL     1      19.338 -18.848  22.727  1.00  0.00     0.120 C 
ATOM     30  C   UNL     1      20.796 -18.472  24.803  1.00  0.00     0.014 C 
ATOM     31  C   UNL     1      21.123 -17.040  22.789  1.00  0.00     0.014 C 
BRANCH  29  32
ATOM     32  O   UNL     1      20.268 -19.781  22.231  1.00  0.00    -0.393 OA
ATOM     33  H   UNL     1      20.874 -20.022  22.979  1.00  0.00     0.210 HD
ENDBRANCH  29  32
ENDBRANCH   8  10
ENDBRANCH   1   8
TORSDOF 6
ENDMDL
MODEL 2
REMARK VINA RESULT:    -6.583      1.282      2.752
REMARK INTER + INTRA:          -9.935
REMARK INTER:                  -9.337
REMARK INTRA:                  -0.598
REMARK UNBOUND:                -1.236
REMARK SMILES C=C(CC[C@@H](C)[C@@H]1CC[C@@]2(C)[C@@H]3CC[C@@H]4C(C)(C)[C@@H](O)CC[C@@]45C[C@@]35CC[C@]12C)C(C)C
REMARK SMILES IDX 4 1 3 2 2 3 1 4 30 5 31 6 32 7 5 8 6 9 7 10 8 11 28 12 9 13
REMARK SMILES IDX 10 14 27 15 29 16 11 17 12 18 26 19 25 20 13 21 23 22 24 23
REMARK SMILES IDX 14 24 15 25 22 26 16 27 21 28 19 29 17 30 18 31 20 32
REMARK H PARENT 20 33
REMARK Flexibility Score: inf
ROOT
ATOM      1  C   UNL     1      11.655 -13.768  28.706  1.00  0.00     0.008 C 
ENDROOT
BRANCH   1   2
ATOM      2  C   UNL     1      12.641 -14.337  29.744  1.00  0.00     0.031 C 
BRANCH   2   3
ATOM      3  C   UNL     1      11.980 -15.402  30.597  1.00  0.00    -0.075 C 
ATOM      4  C   UNL     1      10.691 -15.257  30.945  1.00  0.00     0.008 C 
BRANCH   3   5
ATOM      5  C   UNL     1      12.743 -16.650  31.022  1.00  0.00     0.008 C 
ATOM      6  C   UNL     1      11.799 -17.695  31.633  1.00  0.00     0.012 C 
ATOM      7  C   UNL     1      13.881 -16.304  31.990  1.00  0.00     0.012 C 
ENDBRANCH   3   5
ENDBRANCH   2   3
ENDBRANCH   1   2
BRANCH   1   8
ATOM      8  C   UNL     1      12.302 -12.869  27.611  1.00  0.00    -0.010 C 
ATOM      9  C   UNL     1      13.420 -12.001  28.226  1.00  0.00     0.008 C 
BRANCH   8  10
ATOM     10  C   UNL     1      12.630 -13.660  26.284  1.00  0.00    -0.002 C 
ATOM     11  C   UNL     1      11.711 -14.840  25.873  1.00  0.00     0.005 C 
ATOM     12  C   UNL     1      14.108 -14.175  26.035  1.00  0.00    -0.024 C 
ATOM     13  C   UNL     1      12.625 -15.931  25.280  1.00  0.00     0.008 C 
ATOM     14  C   UNL     1      13.972 -15.739  25.992  1.00  0.00    -0.024 C 
ATOM     15  C   UNL     1      15.238 -13.806  27.049  1.00  0.00     0.008 C 
ATOM     16  C   UNL     1      14.517 -13.545  24.653  1.00  0.00     0.012 C 
ATOM     17  C   UNL     1      13.779 -16.375  27.420  1.00  0.00     0.012 C 
ATOM     18  C   UNL     1      15.225 -16.379  25.264  1.00  0.00     0.002 C 
ATOM     19  C   UNL     1      16.510 -14.718  26.948  1.00  0.00     0.008 C 
ATOM     20  C   UNL     1      16.549 -15.652  25.692  1.00  0.00    -0.020 C 
ATOM     21  C   UNL     1      15.357 -17.912  25.545  1.00  0.00     0.005 C 
ATOM     22  C   UNL     1      17.814 -16.461  25.295  1.00  0.00    -0.020 C 
ATOM     23  C   UNL     1      17.558 -15.117  24.647  1.00  0.00     0.015 C 
ATOM     24  C   UNL     1      16.555 -18.621  24.880  1.00  0.00     0.005 C 
ATOM     25  C   UNL     1      17.606 -17.652  24.312  1.00  0.00     0.004 C 
ATOM     26  C   UNL     1      18.846 -16.611  26.430  1.00  0.00     0.010 C 
ATOM     27  C   UNL     1      18.973 -18.311  23.898  1.00  0.00    -0.006 C 
ATOM     28  C   UNL     1      20.138 -17.264  25.943  1.00  0.00     0.033 C 
ATOM     29  C   UNL     1      19.871 -18.556  25.155  1.00  0.00     0.120 C 
ATOM     30  C   UNL     1      19.692 -17.374  22.887  1.00  0.00     0.014 C 
ATOM     31  C   UNL     1      18.734 -19.658  23.167  1.00  0.00     0.014 C 
BRANCH  29  32
ATOM     32  O   UNL     1      21.111 -19.108  24.781  1.00  0.00    -0.393 OA
ATOM     33  H   UNL     1      21.176 -20.003  25.204  1.00  0.00     0.210 HD
ENDBRANCH  29  32
ENDBRANCH   8  10
ENDBRANCH   1   8
TORSDOF 6
ENDMDL
MODEL 3
REMARK VINA RESULT:    -6.547      2.093      3.987
REMARK INTER + INTRA:          -9.889
REMARK INTER:                  -9.592
REMARK INTRA:                  -0.297
REMARK UNBOUND:                -1.236
REMARK SMILES C=C(CC[C@@H](C)[C@@H]1CC[C@@]2(C)[C@@H]3CC[C@@H]4C(C)(C)[C@@H](O)CC[C@@]45C[C@@]35CC[C@]12C)C(C)C
REMARK SMILES IDX 4 1 3 2 2 3 1 4 30 5 31 6 32 7 5 8 6 9 7 10 8 11 28 12 9 13
REMARK SMILES IDX 10 14 27 15 29 16 11 17 12 18 26 19 25 20 13 21 23 22 24 23
REMARK SMILES IDX 14 24 15 25 22 26 16 27 21 28 19 29 17 30 18 31 20 32
REMARK H PARENT 20 33
REMARK Flexibility Score: inf
ROOT
ATOM      1  C   UNL     1      11.724 -16.736  30.645  1.00  0.00     0.008 C 
ENDROOT
BRANCH   1   2
ATOM      2  C   UNL     1      11.648 -17.971  31.562  1.00  0.00     0.031 C 
BRANCH   2   3
ATOM      3  C   UNL     1      10.344 -17.995  32.337  1.00  0.00    -0.075 C 
ATOM      4  C   UNL     1       9.829 -16.839  32.788  1.00  0.00     0.008 C 
BRANCH   3   5
ATOM      5  C   UNL     1       9.593 -19.299  32.568  1.00  0.00     0.008 C 
ATOM      6  C   UNL     1      10.124 -20.033  33.806  1.00  0.00     0.012 C 
ATOM      7  C   UNL     1       9.647 -20.200  31.328  1.00  0.00     0.012 C 
ENDBRANCH   3   5
ENDBRANCH   2   3
ENDBRANCH   1   2
BRANCH   1   8
ATOM      8  C   UNL     1      12.669 -15.604  31.148  1.00  0.00    -0.010 C 
ATOM      9  C   UNL     1      13.947 -16.210  31.764  1.00  0.00     0.008 C 
BRANCH   8  10
ATOM     10  C   UNL     1      12.840 -14.437  30.098  1.00  0.00    -0.002 C 
ATOM     11  C   UNL     1      11.625 -14.042  29.217  1.00  0.00     0.005 C 
ATOM     12  C   UNL     1      14.080 -14.459  29.111  1.00  0.00    -0.024 C 
ATOM     13  C   UNL     1      12.177 -13.714  27.816  1.00  0.00     0.008 C 
ATOM     14  C   UNL     1      13.439 -14.580  27.683  1.00  0.00    -0.024 C 
ATOM     15  C   UNL     1      15.168 -15.571  29.260  1.00  0.00     0.008 C 
ATOM     16  C   UNL     1      14.804 -13.084  29.357  1.00  0.00     0.012 C 
ATOM     17  C   UNL     1      12.912 -16.031  27.371  1.00  0.00     0.012 C 
ATOM     18  C   UNL     1      14.472 -14.114  26.576  1.00  0.00     0.002 C 
ATOM     19  C   UNL     1      16.069 -15.757  27.989  1.00  0.00     0.008 C 
ATOM     20  C   UNL     1      15.916 -14.635  26.907  1.00  0.00    -0.020 C 
ATOM     21  C   UNL     1      14.062 -14.588  25.143  1.00  0.00     0.005 C 
ATOM     22  C   UNL     1      16.872 -14.517  25.689  1.00  0.00    -0.020 C 
ATOM     23  C   UNL     1      17.139 -13.686  26.928  1.00  0.00     0.015 C 
ATOM     24  C   UNL     1      15.015 -14.184  23.999  1.00  0.00     0.005 C 
ATOM     25  C   UNL     1      16.376 -13.660  24.487  1.00  0.00     0.004 C 
ATOM     26  C   UNL     1      17.685 -15.795  25.401  1.00  0.00     0.010 C 
ATOM     27  C   UNL     1      17.480 -13.521  23.375  1.00  0.00    -0.006 C 
ATOM     28  C   UNL     1      18.728 -15.573  24.308  1.00  0.00     0.033 C 
ATOM     29  C   UNL     1      18.123 -14.912  23.059  1.00  0.00     0.120 C 
ATOM     30  C   UNL     1      18.561 -12.519  23.869  1.00  0.00     0.014 C 
ATOM     31  C   UNL     1      16.879 -12.926  22.076  1.00  0.00     0.014 C 
BRANCH  29  32
ATOM     32  O   UNL     1      19.140 -14.781  22.094  1.00  0.00    -0.393 OA
ATOM     33  H   UNL     1      19.995 -14.651  22.580  1.00  0.00     0.210 HD
ENDBRANCH  29  32
ENDBRANCH   8  10
ENDBRANCH   1   8
TORSDOF 6
ENDMDL
MODEL 4
REMARK VINA RESULT:    -6.138      9.913     13.800
REMARK INTER + INTRA:          -9.348
REMARK INTER:                  -7.726
REMARK INTRA:                  -1.622
REMARK UNBOUND:                -1.236
REMARK SMILES C=C(CC[C@@H](C)[C@@H]1CC[C@@]2(C)[C@@H]3CC[C@@H]4C(C)(C)[C@@H](O)CC[C@@]45C[C@@]35CC[C@]12C)C(C)C
REMARK SMILES IDX 4 1 3 2 2 3 1 4 30 5 31 6 32 7 5 8 6 9 7 10 8 11 28 12 9 13
REMARK SMILES IDX 10 14 27 15 29 16 11 17 12 18 26 19 25 20 13 21 23 22 24 23
REMARK SMILES IDX 14 24 15 25 22 26 16 27 21 28 19 29 17 30 18 31 20 32
REMARK H PARENT 20 33
REMARK Flexibility Score: inf
ROOT
ATOM      1  C   UNL     1       5.419 -17.293  21.239  1.00  0.00     0.008 C 
ENDROOT
BRANCH   1   2
ATOM      2  C   UNL     1       5.597 -18.781  20.883  1.00  0.00     0.031 C 
BRANCH   2   3
ATOM      3  C   UNL     1       6.984 -19.268  21.255  1.00  0.00    -0.075 C 
ATOM      4  C   UNL     1       7.630 -18.687  22.279  1.00  0.00     0.008 C 
BRANCH   3   5
ATOM      5  C   UNL     1       7.631 -20.433  20.516  1.00  0.00     0.008 C 
ATOM      6  C   UNL     1       6.898 -21.749  20.807  1.00  0.00     0.012 C 
ATOM      7  C   UNL     1       9.122 -20.547  20.854  1.00  0.00     0.012 C 
ENDBRANCH   3   5
ENDBRANCH   2   3
ENDBRANCH   1   2
BRANCH   1   8
ATOM      8  C   UNL     1       4.437 -17.014  22.416  1.00  0.00    -0.010 C 
ATOM      9  C   UNL     1       3.382 -15.970  21.995  1.00  0.00     0.008 C 
BRANCH   8  10
ATOM     10  C   UNL     1       3.926 -18.336  23.113  1.00  0.00    -0.002 C 
ATOM     11  C   UNL     1       2.398 -18.598  23.186  1.00  0.00     0.005 C 
ATOM     12  C   UNL     1       4.484 -18.720  24.546  1.00  0.00    -0.024 C 
ATOM     13  C   UNL     1       2.121 -19.240  24.560  1.00  0.00     0.008 C 
ATOM     14  C   UNL     1       3.219 -18.685  25.478  1.00  0.00    -0.024 C 
ATOM     15  C   UNL     1       5.604 -17.849  25.200  1.00  0.00     0.008 C 
ATOM     16  C   UNL     1       5.084 -20.163  24.362  1.00  0.00     0.012 C 
ATOM     17  C   UNL     1       2.762 -17.220  25.830  1.00  0.00     0.012 C 
ATOM     18  C   UNL     1       3.489 -19.516  26.799  1.00  0.00     0.002 C 
ATOM     19  C   UNL     1       5.744 -18.047  26.750  1.00  0.00     0.008 C 
ATOM     20  C   UNL     1       4.945 -19.262  27.330  1.00  0.00    -0.020 C 
ATOM     21  C   UNL     1       2.457 -19.188  27.927  1.00  0.00     0.005 C 
ATOM     22  C   UNL     1       5.127 -19.758  28.791  1.00  0.00    -0.020 C 
ATOM     23  C   UNL     1       5.900 -20.430  27.675  1.00  0.00     0.015 C 
ATOM     24  C   UNL     1       2.645 -19.948  29.257  1.00  0.00     0.005 C 
ATOM     25  C   UNL     1       4.001 -20.664  29.371  1.00  0.00     0.004 C 
ATOM     26  C   UNL     1       5.806 -18.735  29.722  1.00  0.00     0.010 C 
ATOM     27  C   UNL     1       4.362 -21.195  30.808  1.00  0.00    -0.006 C 
ATOM     28  C   UNL     1       6.116 -19.330  31.094  1.00  0.00     0.033 C 
ATOM     29  C   UNL     1       4.894 -20.031  31.708  1.00  0.00     0.120 C 
ATOM     30  C   UNL     1       5.432 -22.314  30.671  1.00  0.00     0.014 C 
ATOM     31  C   UNL     1       3.123 -21.840  31.481  1.00  0.00     0.014 C 
BRANCH  29  32
ATOM     32  O   UNL     1       5.256 -20.513  32.980  1.00  0.00    -0.393 OA
ATOM     33  H   UNL     1       4.550 -20.229  33.616  1.00  0.00     0.210 HD
ENDBRANCH  29  32
ENDBRANCH   8  10
ENDBRANCH   1   8
TORSDOF 6
ENDMDL
MODEL 5
REMARK VINA RESULT:    -5.894      8.401     12.771
REMARK INTER + INTRA:          -9.026
REMARK INTER:                  -7.449
REMARK INTRA:                  -1.577
REMARK UNBOUND:                -1.236
REMARK SMILES C=C(CC[C@@H](C)[C@@H]1CC[C@@]2(C)[C@@H]3CC[C@@H]4C(C)(C)[C@@H](O)CC[C@@]45C[C@@]35CC[C@]12C)C(C)C
REMARK SMILES IDX 4 1 3 2 2 3 1 4 30 5 31 6 32 7 5 8 6 9 7 10 8 11 28 12 9 13
REMARK SMILES IDX 10 14 27 15 29 16 11 17 12 18 26 19 25 20 13 21 23 22 24 23
REMARK SMILES IDX 14 24 15 25 22 26 16 27 21 28 19 29 17 30 18 31 20 32
REMARK H PARENT 20 33
REMARK Flexibility Score: inf
ROOT
ATOM      1  C   UNL     1       9.003 -21.265  33.334  1.00  0.00     0.008 C 
ENDROOT
BRANCH   1   2
ATOM      2  C   UNL     1       9.041 -19.729  33.448  1.00  0.00     0.031 C 
BRANCH   2   3
ATOM      3  C   UNL     1       9.994 -19.130  32.433  1.00  0.00    -0.075 C 
ATOM      4  C   UNL     1      10.208 -19.775  31.274  1.00  0.00     0.008 C 
BRANCH   3   5
ATOM      5  C   UNL     1      10.673 -17.790  32.689  1.00  0.00     0.008 C 
ATOM      6  C   UNL     1       9.645 -16.654  32.765  1.00  0.00     0.012 C 
ATOM      7  C   UNL     1      11.741 -17.496  31.629  1.00  0.00     0.012 C 
ENDBRANCH   3   5
ENDBRANCH   2   3
ENDBRANCH   1   2
BRANCH   1   8
ATOM      8  C   UNL     1       7.649 -21.851  32.836  1.00  0.00    -0.010 C 
ATOM      9  C   UNL     1       7.217 -23.031  33.732  1.00  0.00     0.008 C 
BRANCH   8  10
ATOM     10  C   UNL     1       6.576 -20.735  32.522  1.00  0.00    -0.002 C 
ATOM     11  C   UNL     1       5.157 -20.871  33.135  1.00  0.00     0.005 C 
ATOM     12  C   UNL     1       6.341 -20.289  31.020  1.00  0.00    -0.024 C 
ATOM     13  C   UNL     1       4.160 -20.384  32.064  1.00  0.00     0.008 C 
ATOM     14  C   UNL     1       4.849 -20.685  30.726  1.00  0.00    -0.024 C 
ATOM     15  C   UNL     1       7.241 -20.878  29.887  1.00  0.00     0.008 C 
ATOM     16  C   UNL     1       6.584 -18.734  31.027  1.00  0.00     0.012 C 
ATOM     17  C   UNL     1       4.662 -22.233  30.504  1.00  0.00     0.012 C 
ATOM     18  C   UNL     1       4.302 -19.875  29.480  1.00  0.00     0.002 C 
ATOM     19  C   UNL     1       6.639 -20.722  28.447  1.00  0.00     0.008 C 
ATOM     20  C   UNL     1       5.394 -19.777  28.355  1.00  0.00    -0.020 C 
ATOM     21  C   UNL     1       2.999 -20.505  28.887  1.00  0.00     0.005 C 
ATOM     22  C   UNL     1       4.795 -19.319  26.998  1.00  0.00    -0.020 C 
ATOM     23  C   UNL     1       5.784 -18.423  27.714  1.00  0.00     0.015 C 
ATOM     24  C   UNL     1       2.395 -19.784  27.664  1.00  0.00     0.005 C 
ATOM     25  C   UNL     1       3.343 -18.754  27.025  1.00  0.00     0.004 C 
ATOM     26  C   UNL     1       5.230 -20.180  25.795  1.00  0.00     0.010 C 
ATOM     27  C   UNL     1       2.899 -18.216  25.615  1.00  0.00    -0.006 C 
ATOM     28  C   UNL     1       4.754 -19.590  24.470  1.00  0.00     0.033 C 
ATOM     29  C   UNL     1       3.256 -19.248  24.494  1.00  0.00     0.120 C 
ATOM     30  C   UNL     1       3.609 -16.859  25.354  1.00  0.00     0.014 C 
ATOM     31  C   UNL     1       1.375 -17.937  25.590  1.00  0.00     0.014 C 
BRANCH  29  32
ATOM     32  O   UNL     1       2.897 -18.750  23.228  1.00  0.00    -0.393 OA
ATOM     33  H   UNL     1       1.953 -19.008  23.064  1.00  0.00     0.210 HD
ENDBRANCH  29  32
ENDBRANCH   8  10
ENDBRANCH   1   8
TORSDOF 6
ENDMDL
MODEL 6
REMARK VINA RESULT:    -5.842      2.888      8.029
REMARK INTER + INTRA:          -8.956
REMARK INTER:                  -7.585
REMARK INTRA:                  -1.372
REMARK UNBOUND:                -1.236
REMARK SMILES C=C(CC[C@@H](C)[C@@H]1CC[C@@]2(C)[C@@H]3CC[C@@H]4C(C)(C)[C@@H](O)CC[C@@]45C[C@@]35CC[C@]12C)C(C)C
REMARK SMILES IDX 4 1 3 2 2 3 1 4 30 5 31 6 32 7 5 8 6 9 7 10 8 11 28 12 9 13
REMARK SMILES IDX 10 14 27 15 29 16 11 17 12 18 26 19 25 20 13 21 23 22 24 23
REMARK SMILES IDX 14 24 15 25 22 26 16 27 21 28 19 29 17 30 18 31 20 32
REMARK H PARENT 20 33
REMARK Flexibility Score: inf
ROOT
ATOM      1  C   UNL     1      21.069 -16.222  24.404  1.00  0.00     0.008 C 
ENDROOT
BRANCH   1   2
ATOM      2  C   UNL     1      21.124 -17.753  24.247  1.00  0.00     0.031 C 
BRANCH   2   3
ATOM      3  C   UNL     1      20.207 -18.437  25.242  1.00  0.00    -0.075 C 
ATOM      4  C   UNL     1      20.023 -17.883  26.452  1.00  0.00     0.008 C 
BRANCH   3   5
ATOM      5  C   UNL     1      19.458 -19.711  24.872  1.00  0.00     0.008 C 
ATOM      6  C   UNL     1      20.426 -20.883  24.665  1.00  0.00     0.012 C 
ATOM      7  C   UNL     1      18.577 -19.499  23.635  1.00  0.00     0.012 C 
ENDBRANCH   3   5
ENDBRANCH   2   3
ENDBRANCH   1   2
BRANCH   1   8
ATOM      8  C   UNL     1      20.718 -15.443  23.102  1.00  0.00    -0.010 C 
ATOM      9  C   UNL     1      20.339 -16.427  21.976  1.00  0.00     0.008 C 
BRANCH   8  10
ATOM     10  C   UNL     1      19.756 -14.217  23.362  1.00  0.00    -0.002 C 
ATOM     11  C   UNL     1      20.306 -12.989  24.135  1.00  0.00     0.005 C 
ATOM     12  C   UNL     1      18.315 -14.478  23.966  1.00  0.00    -0.024 C 
ATOM     13  C   UNL     1      19.166 -12.485  25.042  1.00  0.00     0.008 C 
ATOM     14  C   UNL     1      18.334 -13.738  25.351  1.00  0.00    -0.024 C 
ATOM     15  C   UNL     1      17.826 -15.944  24.196  1.00  0.00     0.008 C 
ATOM     16  C   UNL     1      17.328 -13.832  22.925  1.00  0.00     0.012 C 
ATOM     17  C   UNL     1      19.152 -14.517  26.448  1.00  0.00     0.012 C 
ATOM     18  C   UNL     1      16.855 -13.468  25.849  1.00  0.00     0.002 C 
ATOM     19  C   UNL     1      16.616 -16.066  25.187  1.00  0.00     0.008 C 
ATOM     20  C   UNL     1      15.934 -14.707  25.559  1.00  0.00    -0.020 C 
ATOM     21  C   UNL     1      16.794 -13.119  27.372  1.00  0.00     0.005 C 
ATOM     22  C   UNL     1      14.594 -14.634  26.341  1.00  0.00    -0.020 C 
ATOM     23  C   UNL     1      14.577 -14.559  24.828  1.00  0.00     0.015 C 
ATOM     24  C   UNL     1      15.389 -12.845  27.948  1.00  0.00     0.005 C 
ATOM     25  C   UNL     1      14.245 -13.273  27.013  1.00  0.00     0.004 C 
ATOM     26  C   UNL     1      14.222 -15.937  27.075  1.00  0.00     0.010 C 
ATOM     27  C   UNL     1      12.815 -13.294  27.667  1.00  0.00    -0.006 C 
ATOM     28  C   UNL     1      12.823 -15.870  27.683  1.00  0.00     0.033 C 
ATOM     29  C   UNL     1      12.615 -14.594  28.514  1.00  0.00     0.120 C 
ATOM     30  C   UNL     1      11.750 -13.208  26.538  1.00  0.00     0.014 C 
ATOM     31  C   UNL     1      12.608 -12.054  28.574  1.00  0.00     0.014 C 
BRANCH  29  32
ATOM     32  O   UNL     1      11.321 -14.634  29.066  1.00  0.00    -0.393 OA
ATOM     33  H   UNL     1      11.305 -15.368  29.732  1.00  0.00     0.210 HD
ENDBRANCH  29  32
ENDBRANCH   8  10
ENDBRANCH   1   8
TORSDOF 6
ENDMDL
MODEL 7
REMARK VINA RESULT:    -5.809      2.033      3.288
REMARK INTER + INTRA:          -8.913
REMARK INTER:                  -7.366
REMARK INTRA:                  -1.547
REMARK UNBOUND:                -1.236
REMARK SMILES C=C(CC[C@@H](C)[C@@H]1CC[C@@]2(C)[C@@H]3CC[C@@H]4C(C)(C)[C@@H](O)CC[C@@]45C[C@@]35CC[C@]12C)C(C)C
REMARK SMILES IDX 4 1 3 2 2 3 1 4 30 5 31 6 32 7 5 8 6 9 7 10 8 11 28 12 9 13
REMARK SMILES IDX 10 14 27 15 29 16 11 17 12 18 26 19 25 20 13 21 23 22 24 23
REMARK SMILES IDX 14 24 15 25 22 26 16 27 21 28 19 29 17 30 18 31 20 32
REMARK H PARENT 20 33
REMARK Flexibility Score: inf
ROOT
ATOM      1  C   UNL     1      15.000 -12.024  27.891  1.00  0.00     0.008 C 
ENDROOT
BRANCH   1   2
ATOM      2  C   UNL     1      13.463 -12.029  27.987  1.00  0.00     0.031 C 
BRANCH   2   3
ATOM      3  C   UNL     1      12.892 -13.359  27.535  1.00  0.00    -0.075 C 
ATOM      4  C   UNL     1      12.796 -14.365  28.420  1.00  0.00     0.008 C 
BRANCH   3   5
ATOM      5  C   UNL     1      12.384 -13.553  26.112  1.00  0.00     0.008 C 
ATOM      6  C   UNL     1      11.752 -12.265  25.569  1.00  0.00     0.012 C 
ATOM      7  C   UNL     1      11.402 -14.727  26.027  1.00  0.00     0.012 C 
ENDBRANCH   3   5
ENDBRANCH   2   3
ENDBRANCH   1   2
BRANCH   1   8
ATOM      8  C   UNL     1      15.566 -11.862  26.450  1.00  0.00    -0.010 C 
ATOM      9  C   UNL     1      15.316 -10.429  25.936  1.00  0.00     0.008 C 
BRANCH   8  10
ATOM     10  C   UNL     1      17.020 -12.457  26.292  1.00  0.00    -0.002 C 
ATOM     11  C   UNL     1      17.990 -11.797  25.275  1.00  0.00     0.005 C 
ATOM     12  C   UNL     1      17.200 -14.018  26.085  1.00  0.00    -0.024 C 
ATOM     13  C   UNL     1      18.792 -12.938  24.618  1.00  0.00     0.008 C 
ATOM     14  C   UNL     1      17.850 -14.150  24.662  1.00  0.00    -0.024 C 
ATOM     15  C   UNL     1      15.952 -14.956  26.147  1.00  0.00     0.008 C 
ATOM     16  C   UNL     1      18.157 -14.462  27.253  1.00  0.00     0.012 C 
ATOM     17  C   UNL     1      16.818 -13.914  23.496  1.00  0.00     0.012 C 
ATOM     18  C   UNL     1      18.550 -15.562  24.507  1.00  0.00     0.002 C 
ATOM     19  C   UNL     1      16.179 -16.365  25.497  1.00  0.00     0.008 C 
ATOM     20  C   UNL     1      17.670 -16.694  25.149  1.00  0.00    -0.020 C 
ATOM     21  C   UNL     1      18.848 -15.918  23.014  1.00  0.00     0.005 C 
ATOM     22  C   UNL     1      18.130 -18.111  24.709  1.00  0.00    -0.020 C 
ATOM     23  C   UNL     1      18.257 -17.705  26.163  1.00  0.00     0.015 C 
ATOM     24  C   UNL     1      19.526 -17.281  22.765  1.00  0.00     0.005 C 
ATOM     25  C   UNL     1      19.508 -18.211  23.991  1.00  0.00     0.004 C 
ATOM     26  C   UNL     1      16.982 -19.026  24.238  1.00  0.00     0.010 C 
ATOM     27  C   UNL     1      19.911 -19.705  23.706  1.00  0.00    -0.006 C 
ATOM     28  C   UNL     1      17.460 -20.453  23.981  1.00  0.00     0.033 C 
ATOM     29  C   UNL     1      18.709 -20.491  23.085  1.00  0.00     0.120 C 
ATOM     30  C   UNL     1      20.362 -20.361  25.041  1.00  0.00     0.014 C 
ATOM     31  C   UNL     1      21.122 -19.773  22.742  1.00  0.00     0.014 C 
BRANCH  29  32
ATOM     32  O   UNL     1      19.055 -21.839  22.869  1.00  0.00    -0.393 OA
ATOM     33  H   UNL     1      19.459 -21.899  21.966  1.00  0.00     0.210 HD
ENDBRANCH  29  32
ENDBRANCH   8  10
ENDBRANCH   1   8
TORSDOF 6
ENDMDL
MODEL 8
REMARK VINA RESULT:    -5.767     10.978     15.007
REMARK INTER + INTRA:          -8.858
REMARK INTER:                  -7.678
REMARK INTRA:                  -1.180
REMARK UNBOUND:                -1.236
REMARK SMILES C=C(CC[C@@H](C)[C@@H]1CC[C@@]2(C)[C@@H]3CC[C@@H]4C(C)(C)[C@@H](O)CC[C@@]45C[C@@]35CC[C@]12C)C(C)C
REMARK SMILES IDX 4 1 3 2 2 3 1 4 30 5 31 6 32 7 5 8 6 9 7 10 8 11 28 12 9 13
REMARK SMILES IDX 10 14 27 15 29 16 11 17 12 18 26 19 25 20 13 21 23 22 24 23
REMARK SMILES IDX 14 24 15 25 22 26 16 27 21 28 19 29 17 30 18 31 20 32
REMARK H PARENT 20 33
REMARK Flexibility Score: inf
ROOT
ATOM      1  C   UNL     1       3.037 -16.391  21.402  1.00  0.00     0.008 C 
ENDROOT
BRANCH   1   2
ATOM      2  C   UNL     1       4.059 -17.006  20.427  1.00  0.00     0.031 C 
BRANCH   2   3
ATOM      3  C   UNL     1       5.470 -16.561  20.762  1.00  0.00    -0.075 C 
ATOM      4  C   UNL     1       5.689 -15.278  21.097  1.00  0.00     0.008 C 
BRANCH   3   5
ATOM      5  C   UNL     1       6.625 -17.553  20.771  1.00  0.00     0.008 C 
ATOM      6  C   UNL     1       6.286 -18.805  19.952  1.00  0.00     0.012 C 
ATOM      7  C   UNL     1       7.029 -17.924  22.203  1.00  0.00     0.012 C 
ENDBRANCH   3   5
ENDBRANCH   2   3
ENDBRANCH   1   2
BRANCH   1   8
ATOM      8  C   UNL     1       2.546 -17.350  22.527  1.00  0.00    -0.010 C 
ATOM      9  C   UNL     1       2.752 -18.819  22.103  1.00  0.00     0.008 C 
BRANCH   8  10
ATOM     10  C   UNL     1       3.049 -16.921  23.961  1.00  0.00    -0.002 C 
ATOM     11  C   UNL     1       4.575 -16.777  24.204  1.00  0.00     0.005 C 
ATOM     12  C   UNL     1       2.494 -17.681  25.236  1.00  0.00    -0.024 C 
ATOM     13  C   UNL     1       4.853 -17.308  25.625  1.00  0.00     0.008 C 
ATOM     14  C   UNL     1       3.762 -18.361  25.866  1.00  0.00    -0.024 C 
ATOM     15  C   UNL     1       1.383 -18.767  25.067  1.00  0.00     0.008 C 
ATOM     16  C   UNL     1       1.882 -16.545  26.136  1.00  0.00     0.012 C 
ATOM     17  C   UNL     1       4.232 -19.634  25.066  1.00  0.00     0.012 C 
ATOM     18  C   UNL     1       3.491 -18.727  27.383  1.00  0.00     0.002 C 
ATOM     19  C   UNL     1       1.247 -19.737  26.292  1.00  0.00     0.008 C 
ATOM     20  C   UNL     1       2.039 -19.297  27.569  1.00  0.00    -0.020 C 
ATOM     21  C   UNL     1       4.529 -19.755  27.941  1.00  0.00     0.005 C 
ATOM     22  C   UNL     1       1.858 -19.995  28.944  1.00  0.00    -0.020 C 
ATOM     23  C   UNL     1       1.075 -18.734  28.641  1.00  0.00     0.015 C 
ATOM     24  C   UNL     1       4.340 -20.175  29.414  1.00  0.00     0.005 C 
ATOM     25  C   UNL     1       2.979 -19.767  30.001  1.00  0.00     0.004 C 
ATOM     26  C   UNL     1       1.190 -21.382  28.861  1.00  0.00     0.010 C 
ATOM     27  C   UNL     1       2.619 -20.426  31.384  1.00  0.00    -0.006 C 
ATOM     28  C   UNL     1       0.881 -21.949  30.245  1.00  0.00     0.033 C 
ATOM     29  C   UNL     1       2.099 -21.888  31.180  1.00  0.00     0.120 C 
ATOM     30  C   UNL     1       1.539 -19.555  32.084  1.00  0.00     0.014 C 
ATOM     31  C   UNL     1       3.855 -20.447  32.320  1.00  0.00     0.014 C 
BRANCH  29  32
ATOM     32  O   UNL     1       1.738 -22.464  32.412  1.00  0.00    -0.393 OA
ATOM     33  H   UNL     1       0.954 -23.047  32.248  1.00  0.00     0.210 HD
ENDBRANCH  29  32
ENDBRANCH   8  10
ENDBRANCH   1   8
TORSDOF 6
ENDMDL
MODEL 9
REMARK VINA RESULT:    -5.711      2.804      8.463
REMARK INTER + INTRA:          -8.784
REMARK INTER:                  -7.642
REMARK INTRA:                  -1.142
REMARK UNBOUND:                -1.236
REMARK SMILES C=C(CC[C@@H](C)[C@@H]1CC[C@@]2(C)[C@@H]3CC[C@@H]4C(C)(C)[C@@H](O)CC[C@@]45C[C@@]35CC[C@]12C)C(C)C
REMARK SMILES IDX 4 1 3 2 2 3 1 4 30 5 31 6 32 7 5 8 6 9 7 10 8 11 28 12 9 13
REMARK SMILES IDX 10 14 27 15 29 16 11 17 12 18 26 19 25 20 13 21 23 22 24 23
REMARK SMILES IDX 14 24 15 25 22 26 16 27 21 28 19 29 17 30 18 31 20 32
REMARK H PARENT 20 33
REMARK Flexibility Score: inf
ROOT
ATOM      1  C   UNL     1      19.768 -17.625  22.345  1.00  0.00     0.008 C 
ENDROOT
BRANCH   1   2
ATOM      2  C   UNL     1      20.258 -19.084  22.285  1.00  0.00     0.031 C 
BRANCH   2   3
ATOM      3  C   UNL     1      19.149 -20.048  22.658  1.00  0.00    -0.075 C 
ATOM      4  C   UNL     1      19.256 -20.762  23.791  1.00  0.00     0.008 C 
BRANCH   3   5
ATOM      5  C   UNL     1      17.901 -20.181  21.795  1.00  0.00     0.008 C 
ATOM      6  C   UNL     1      16.675 -20.541  22.645  1.00  0.00     0.012 C 
ATOM      7  C   UNL     1      18.109 -21.200  20.669  1.00  0.00     0.012 C 
ENDBRANCH   3   5
ENDBRANCH   2   3
ENDBRANCH   1   2
BRANCH   1   8
ATOM      8  C   UNL     1      20.754 -16.630  23.026  1.00  0.00    -0.010 C 
ATOM      9  C   UNL     1      21.054 -15.446  22.084  1.00  0.00     0.008 C 
BRANCH   8  10
ATOM     10  C   UNL     1      20.359 -16.301  24.519  1.00  0.00    -0.002 C 
ATOM     11  C   UNL     1      20.347 -17.453  25.559  1.00  0.00     0.005 C 
ATOM     12  C   UNL     1      19.042 -15.467  24.806  1.00  0.00    -0.024 C 
ATOM     13  C   UNL     1      19.144 -17.201  26.490  1.00  0.00     0.008 C 
ATOM     14  C   UNL     1      18.127 -16.453  25.617  1.00  0.00    -0.024 C 
ATOM     15  C   UNL     1      18.214 -14.894  23.611  1.00  0.00     0.008 C 
ATOM     16  C   UNL     1      19.533 -14.233  25.649  1.00  0.00     0.012 C 
ATOM     17  C   UNL     1      17.467 -17.559  24.711  1.00  0.00     0.012 C 
ATOM     18  C   UNL     1      17.015 -15.645  26.405  1.00  0.00     0.002 C 
ATOM     19  C   UNL     1      16.743 -14.497  23.986  1.00  0.00     0.008 C 
ATOM     20  C   UNL     1      16.439 -14.481  25.522  1.00  0.00    -0.020 C 
ATOM     21  C   UNL     1      15.844 -16.562  26.888  1.00  0.00     0.005 C 
ATOM     22  C   UNL     1      15.120 -13.904  26.105  1.00  0.00    -0.020 C 
ATOM     23  C   UNL     1      16.354 -13.027  26.046  1.00  0.00     0.015 C 
ATOM     24  C   UNL     1      14.710 -15.859  27.663  1.00  0.00     0.005 C 
ATOM     25  C   UNL     1      14.751 -14.325  27.558  1.00  0.00     0.004 C 
ATOM     26  C   UNL     1      13.989 -13.752  25.069  1.00  0.00     0.010 C 
ATOM     27  C   UNL     1      13.462 -13.582  28.071  1.00  0.00    -0.006 C 
ATOM     28  C   UNL     1      12.778 -13.027  25.650  1.00  0.00     0.033 C 
ATOM     29  C   UNL     1      12.331 -13.631  26.991  1.00  0.00     0.120 C 
ATOM     30  C   UNL     1      13.836 -12.111  28.405  1.00  0.00     0.014 C 
ATOM     31  C   UNL     1      12.946 -14.223  29.385  1.00  0.00     0.014 C 
BRANCH  29  32
ATOM     32  O   UNL     1      11.192 -12.931  27.432  1.00  0.00    -0.393 OA
ATOM     33  H   UNL     1      10.397 -13.432  27.118  1.00  0.00     0.210 HD
ENDBRANCH  29  32
ENDBRANCH   8  10
ENDBRANCH   1   8
TORSDOF 6
ENDMDL
