MODEL 1
REMARK VINA RESULT:    -2.036      0.000      0.000
REMARK INTER + INTRA:          -1.761
REMARK INTER:                  -2.512
REMARK INTRA:                   0.751
REMARK UNBOUND:                 0.751
REMARK SMILES CC1=CC=CC(C)(C)CC1=O
REMARK SMILES IDX 1 1 2 2 3 3 10 4 11 5 9 6 4 8 5 9 6 10 7 11 8 12
REMARK H PARENT
REMARK Flexibility Score: 80.00
ROOT
ATOM      1  C   UNL     1      -9.407 -22.179  20.688  1.00  0.00     0.048 C 
ATOM      2  C   UNL     1      -9.552 -22.739  22.084  1.00  0.00    -0.008 C 
ATOM      3  C   UNL     1      -8.812 -23.822  22.405  1.00  0.00     0.007 C 
ENDROOT
BRANCH   2   4
ATOM      4  C   UNL     1     -10.444 -22.005  23.016  1.00  0.00     0.159 C 
ATOM      5  O   UNL     1     -10.884 -20.873  22.673  1.00  0.00    -0.295 OA
BRANCH   4   6
ATOM      6  C   UNL     1     -10.865 -22.540  24.350  1.00  0.00     0.091 CG0
ATOM      7  G   UNL     1      -9.677 -22.838  25.291  1.00  0.00     0.000 G0
ENDBRANCH   4   6
ENDBRANCH   2   4
BRANCH   3   8
ATOM      8  C   UNL     1      -8.721 -24.568  23.682  1.00  0.00    -0.003 C 
ATOM      9  C   UNL     1      -9.071 -24.177  24.914  1.00  0.00    -0.020 C 
BRANCH   9  10
ATOM     10  C   UNL     1      -9.684 -22.851  25.295  1.00  0.00    -0.010 CG0
ATOM     11  C   UNL     1     -10.249 -22.971  26.729  1.00  0.00     0.016 C 
ATOM     12  C   UNL     1      -8.599 -21.749  25.301  1.00  0.00     0.016 C 
ATOM     13  G   UNL     1     -10.856 -22.527  24.342  1.00  0.00     0.000 G0
ENDBRANCH   9  10
ENDBRANCH   3   8
TORSDOF 0
ENDMDL
MODEL 2
REMARK VINA RESULT:    -2.009      2.078      4.024
REMARK INTER + INTRA:          -1.728
REMARK INTER:                  -2.479
REMARK INTRA:                   0.751
REMARK UNBOUND:                 0.751
REMARK SMILES CC1=CC=CC(C)(C)CC1=O
REMARK SMILES IDX 1 1 2 2 3 3 10 4 11 5 9 6 4 8 5 9 6 10 7 11 8 12
REMARK H PARENT
REMARK Flexibility Score: 80.00
ROOT
ATOM      1  C   UNL     1      -9.542 -22.169  25.910  1.00  0.00     0.048 C 
ATOM      2  C   UNL     1     -10.022 -22.452  24.506  1.00  0.00    -0.008 C 
ATOM      3  C   UNL     1     -10.590 -21.435  23.822  1.00  0.00     0.007 C 
ENDROOT
BRANCH   2   4
ATOM      4  C   UNL     1      -9.763 -23.808  23.963  1.00  0.00     0.159 C 
ATOM      5  O   UNL     1      -8.981 -24.575  24.589  1.00  0.00    -0.295 OA
BRANCH   4   6
ATOM      6  C   UNL     1     -10.393 -24.330  22.709  1.00  0.00     0.091 CG0
ATOM      7  G   UNL     1     -10.047 -23.492  21.458  1.00  0.00     0.000 G0
ENDBRANCH   4   6
ENDBRANCH   2   4
BRANCH   3   8
ATOM      8  C   UNL     1     -11.125 -21.398  22.440  1.00  0.00    -0.003 C 
ATOM      9  C   UNL     1     -10.898 -22.242  21.425  1.00  0.00    -0.020 C 
BRANCH   9  10
ATOM     10  C   UNL     1     -10.035 -23.481  21.463  1.00  0.00    -0.010 CG0
ATOM     11  C   UNL     1     -10.353 -24.332  20.212  1.00  0.00     0.016 C 
ATOM     12  C   UNL     1      -8.542 -23.087  21.405  1.00  0.00     0.016 C 
ATOM     13  G   UNL     1     -10.383 -24.317  22.715  1.00  0.00     0.000 G0
ENDBRANCH   9  10
ENDBRANCH   3   8
TORSDOF 0
ENDMDL
MODEL 3
REMARK VINA RESULT:    -1.711      1.456      3.460
REMARK INTER + INTRA:          -1.360
REMARK INTER:                  -2.387
REMARK INTRA:                   1.026
REMARK UNBOUND:                 0.751
REMARK SMILES CC1=CC=CC(C)(C)CC1=O
REMARK SMILES IDX 1 1 2 2 3 3 10 4 11 5 9 6 4 8 5 9 6 10 7 11 8 12
REMARK H PARENT
REMARK Flexibility Score: 80.00
ROOT
ATOM      1  C   UNL     1      -8.784 -22.188  25.668  1.00  0.00     0.048 C 
ATOM      2  C   UNL     1      -9.181 -22.836  24.362  1.00  0.00    -0.008 C 
ATOM      3  C   UNL     1      -8.496 -23.933  23.974  1.00  0.00     0.007 C 
ENDROOT
BRANCH   2   4
ATOM      4  C   UNL     1     -10.345 -22.257  23.647  1.00  0.00     0.159 C 
ATOM      5  O   UNL     1     -10.756 -21.111  23.980  1.00  0.00    -0.295 OA
BRANCH   4   6
ATOM      6  C   UNL     1     -11.061 -22.955  22.532  1.00  0.00     0.091 CG0
ATOM      7  G   UNL     1     -10.143 -23.293  21.336  1.00  0.00     0.000 G0
ENDBRANCH   4   6
ENDBRANCH   2   4
BRANCH   3   8
ATOM      8  C   UNL     1      -8.668 -24.788  22.776  1.00  0.00    -0.003 C 
ATOM      9  C   UNL     1      -9.365 -24.545  21.659  1.00  0.00    -0.020 C 
BRANCH   9  10
ATOM     10  C   UNL     1     -10.142 -23.289  21.340  1.00  0.00    -0.010 CG0
ATOM     11  C   UNL     1      -9.135 -22.134  21.138  1.00  0.00     0.016 C 
ATOM     12  C   UNL     1     -10.927 -23.474  20.022  1.00  0.00     0.016 C 
ATOM     13  G   UNL     1     -11.056 -22.928  22.533  1.00  0.00     0.000 G0
ENDBRANCH   9  10
ENDBRANCH   3   8
TORSDOF 0
ENDMDL
MODEL 4
REMARK VINA RESULT:    -0.039     20.770     21.658
REMARK INTER + INTRA:           0.703
REMARK INTER:                  -0.059
REMARK INTRA:                   0.762
REMARK UNBOUND:                 0.751
REMARK SMILES CC1=CC=CC(C)(C)CC1=O
REMARK SMILES IDX 1 1 2 2 3 3 10 4 11 5 9 6 4 8 5 9 6 10 7 11 8 12
REMARK H PARENT
REMARK Flexibility Score: 80.00
ROOT
ATOM      1  C   UNL     1       5.793 -23.127   7.782  1.00  0.00     0.048 C 
ATOM      2  C   UNL     1       6.606 -23.798   8.864  1.00  0.00    -0.008 C 
ATOM      3  C   UNL     1       7.931 -23.948   8.650  1.00  0.00     0.007 C 
ENDROOT
BRANCH   2   4
ATOM      4  C   UNL     1       5.894 -24.170  10.112  1.00  0.00     0.159 C 
ATOM      5  O   UNL     1       4.708 -23.771  10.277  1.00  0.00    -0.295 OA
BRANCH   4   6
ATOM      6  C   UNL     1       6.502 -25.010  11.192  1.00  0.00     0.091 CG0
ATOM      7  G   UNL     1       7.807 -24.415  11.766  1.00  0.00     0.000 G0
ENDBRANCH   4   6
ENDBRANCH   2   4
BRANCH   3   8
ATOM      8  C   UNL     1       8.976 -24.534   9.523  1.00  0.00    -0.003 C 
ATOM      9  C   UNL     1       8.954 -24.736  10.846  1.00  0.00    -0.020 C 
BRANCH   9  10
ATOM     10  C   UNL     1       7.811 -24.426  11.783  1.00  0.00    -0.010 CG0
ATOM     11  C   UNL     1       8.087 -25.125  13.134  1.00  0.00     0.016 C 
ATOM     12  C   UNL     1       7.737 -22.904  12.040  1.00  0.00     0.016 C 
ATOM     13  G   UNL     1       6.497 -24.998  11.206  1.00  0.00     0.000 G0
ENDBRANCH   9  10
ENDBRANCH   3   8
TORSDOF 0
ENDMDL
MODEL 5
REMARK VINA RESULT:     0.094     20.350     21.393
REMARK INTER + INTRA:           0.867
REMARK INTER:                   0.112
REMARK INTRA:                   0.755
REMARK UNBOUND:                 0.751
REMARK SMILES CC1=CC=CC(C)(C)CC1=O
REMARK SMILES IDX 1 1 2 2 3 3 10 4 11 5 9 6 4 8 5 9 6 10 7 11 8 12
REMARK H PARENT
REMARK Flexibility Score: 80.00
ROOT
ATOM      1  C   UNL     1       2.397 -23.918   7.498  1.00  0.00     0.048 C 
ATOM      2  C   UNL     1       3.838 -24.127   7.903  1.00  0.00    -0.008 C 
ATOM      3  C   UNL     1       4.795 -23.748   7.029  1.00  0.00     0.007 C 
ENDROOT
BRANCH   2   4
ATOM      4  C   UNL     1       4.087 -24.663   9.264  1.00  0.00     0.159 C 
ATOM      5  O   UNL     1       3.119 -24.750  10.070  1.00  0.00    -0.295 OA
BRANCH   4   6
ATOM      6  C   UNL     1       5.430 -25.125   9.738  1.00  0.00     0.091 CG0
ATOM      7  G   UNL     1       6.517 -24.030   9.648  1.00  0.00     0.000 G0
ENDBRANCH   4   6
ENDBRANCH   2   4
BRANCH   3   8
ATOM      8  C   UNL     1       6.271 -23.801   7.151  1.00  0.00    -0.003 C 
ATOM      9  C   UNL     1       7.022 -23.923   8.253  1.00  0.00    -0.020 C 
BRANCH   9  10
ATOM     10  C   UNL     1       6.521 -24.065   9.670  1.00  0.00    -0.010 CG0
ATOM     11  C   UNL     1       7.696 -24.541  10.555  1.00  0.00     0.016 C 
ATOM     12  C   UNL     1       6.048 -22.694  10.203  1.00  0.00     0.016 C 
ATOM     13  G   UNL     1       5.412 -25.140   9.724  1.00  0.00     0.000 G0
ENDBRANCH   9  10
ENDBRANCH   3   8
TORSDOF 0
ENDMDL
MODEL 6
REMARK VINA RESULT:     0.422     20.513     22.213
REMARK INTER + INTRA:           1.272
REMARK INTER:                   0.261
REMARK INTRA:                   1.011
REMARK UNBOUND:                 0.751
REMARK SMILES CC1=CC=CC(C)(C)CC1=O
REMARK SMILES IDX 1 1 2 2 3 3 10 4 11 5 9 6 4 8 5 9 6 10 7 11 8 12
REMARK H PARENT
REMARK Flexibility Score: 80.00
ROOT
ATOM      1  C   UNL     1       2.796 -23.217   9.224  1.00  0.00     0.048 C 
ATOM      2  C   UNL     1       4.123 -23.606   8.618  1.00  0.00    -0.008 C 
ATOM      3  C   UNL     1       4.120 -24.560   7.662  1.00  0.00     0.007 C 
ENDROOT
BRANCH   2   4
ATOM      4  C   UNL     1       5.319 -22.851   9.069  1.00  0.00     0.159 C 
ATOM      5  O   UNL     1       5.226 -22.120  10.094  1.00  0.00    -0.295 OA
BRANCH   4   6
ATOM      6  C   UNL     1       6.647 -22.918   8.380  1.00  0.00     0.091 CG0
ATOM      7  G   UNL     1       7.206 -24.354   8.271  1.00  0.00     0.000 G0
ENDBRANCH   4   6
ENDBRANCH   2   4
BRANCH   3   8
ATOM      8  C   UNL     1       5.243 -25.125   6.877  1.00  0.00    -0.003 C 
ATOM      9  C   UNL     1       6.560 -25.035   7.103  1.00  0.00    -0.020 C 
BRANCH   9  10
ATOM     10  C   UNL     1       7.226 -24.335   8.264  1.00  0.00    -0.010 CG0
ATOM     11  C   UNL     1       6.903 -25.123   9.555  1.00  0.00     0.016 C 
ATOM     12  C   UNL     1       8.760 -24.340   8.074  1.00  0.00     0.016 C 
ATOM     13  G   UNL     1       6.648 -22.910   8.413  1.00  0.00     0.000 G0
ENDBRANCH   9  10
ENDBRANCH   3   8
TORSDOF 0
ENDMDL
