MODEL 1
REMARK VINA RESULT:    -2.710      0.000      0.000
REMARK INTER + INTRA:          -3.300
REMARK INTER:                  -3.186
REMARK INTRA:                  -0.114
REMARK UNBOUND:                -0.114
REMARK SMILES O=C([O-])CCC(=O)[O-]
REMARK SMILES IDX 4 1 2 2 1 3 3 4 5 5 6 6 7 7 8 8
REMARK H PARENT
REMARK Flexibility Score: inf
ROOT
ATOM      1  C   UNL     1      27.994  72.260  11.073  1.00  0.00     0.059 C 
ENDROOT
BRANCH   1   2
ATOM      2  C   UNL     1      27.672  71.081  10.205  1.00  0.00     0.042 C 
ATOM      3  O   UNL     1      26.529  70.556  10.250  1.00  0.00    -0.550 OA
ATOM      4  O   UNL     1      28.621  70.590   9.318  1.00  0.00    -0.550 OA
ENDBRANCH   1   2
BRANCH   1   5
ATOM      5  C   UNL     1      28.706  71.836  12.362  1.00  0.00     0.059 C 
BRANCH   5   6
ATOM      6  C   UNL     1      27.831  72.026  13.563  1.00  0.00     0.042 C 
ATOM      7  O   UNL     1      28.340  72.319  14.677  1.00  0.00    -0.550 OA
ATOM      8  O   UNL     1      26.451  71.919  13.444  1.00  0.00    -0.550 OA
ENDBRANCH   5   6
ENDBRANCH   1   5
TORSDOF 3
ENDMDL
MODEL 2
REMARK VINA RESULT:    -2.672      0.305      4.086
REMARK INTER + INTRA:          -3.255
REMARK INTER:                  -3.190
REMARK INTRA:                  -0.065
REMARK UNBOUND:                -0.114
REMARK SMILES O=C([O-])CCC(=O)[O-]
REMARK SMILES IDX 4 1 2 2 1 3 3 4 5 5 6 6 7 7 8 8
REMARK H PARENT
REMARK Flexibility Score: inf
ROOT
ATOM      1  C   UNL     1      28.566  71.975  12.154  1.00  0.00     0.059 C 
ENDROOT
BRANCH   1   2
ATOM      2  C   UNL     1      27.834  72.090  13.456  1.00  0.00     0.042 C 
ATOM      3  O   UNL     1      28.461  72.358  14.513  1.00  0.00    -0.550 OA
ATOM      4  O   UNL     1      26.454  71.941  13.494  1.00  0.00    -0.550 OA
ENDBRANCH   1   2
BRANCH   1   5
ATOM      5  C   UNL     1      27.653  72.286  10.962  1.00  0.00     0.059 C 
BRANCH   5   6
ATOM      6  C   UNL     1      27.597  71.142   9.996  1.00  0.00     0.042 C 
ATOM      7  O   UNL     1      26.487  70.664   9.645  1.00  0.00    -0.550 OA
ATOM      8  O   UNL     1      28.770  70.631   9.453  1.00  0.00    -0.550 OA
ENDBRANCH   5   6
ENDBRANCH   1   5
TORSDOF 3
ENDMDL
MODEL 3
REMARK VINA RESULT:    -2.650      8.085      8.658
REMARK INTER + INTRA:          -3.228
REMARK INTER:                  -3.200
REMARK INTRA:                  -0.028
REMARK UNBOUND:                -0.114
REMARK SMILES O=C([O-])CCC(=O)[O-]
REMARK SMILES IDX 4 1 2 2 1 3 3 4 5 5 6 6 7 7 8 8
REMARK H PARENT
REMARK Flexibility Score: inf
ROOT
ATOM      1  C   UNL     1      22.407  67.771  17.085  1.00  0.00     0.059 C 
ENDROOT
BRANCH   1   2
ATOM      2  C   UNL     1      23.285  66.568  17.251  1.00  0.00     0.042 C 
ATOM      3  O   UNL     1      24.210  66.342  16.427  1.00  0.00    -0.550 OA
ATOM      4  O   UNL     1      23.109  65.722  18.337  1.00  0.00    -0.550 OA
ENDBRANCH   1   2
BRANCH   1   5
ATOM      5  C   UNL     1      22.398  68.642  18.346  1.00  0.00     0.059 C 
BRANCH   5   6
ATOM      6  C   UNL     1      22.300  70.099  18.010  1.00  0.00     0.042 C 
ATOM      7  O   UNL     1      23.308  70.844  18.127  1.00  0.00    -0.550 OA
ATOM      8  O   UNL     1      21.107  70.624  17.529  1.00  0.00    -0.550 OA
ENDBRANCH   5   6
ENDBRANCH   1   5
TORSDOF 3
ENDMDL
MODEL 4
REMARK VINA RESULT:    -2.636      8.743     10.275
REMARK INTER + INTRA:          -3.213
REMARK INTER:                  -3.120
REMARK INTRA:                  -0.093
REMARK UNBOUND:                -0.114
REMARK SMILES O=C([O-])CCC(=O)[O-]
REMARK SMILES IDX 4 1 2 2 1 3 3 4 5 5 6 6 7 7 8 8
REMARK H PARENT
REMARK Flexibility Score: inf
ROOT
ATOM      1  C   UNL     1      22.499  68.257  18.414  1.00  0.00     0.059 C 
ENDROOT
BRANCH   1   2
ATOM      2  C   UNL     1      22.220  69.677  18.028  1.00  0.00     0.042 C 
ATOM      3  O   UNL     1      23.118  70.552  18.143  1.00  0.00    -0.550 OA
ATOM      4  O   UNL     1      20.983  70.026  17.502  1.00  0.00    -0.550 OA
ENDBRANCH   1   2
BRANCH   1   5
ATOM      5  C   UNL     1      21.476  67.736  19.429  1.00  0.00     0.059 C 
BRANCH   5   6
ATOM      6  C   UNL     1      20.830  66.467  18.962  1.00  0.00     0.042 C 
ATOM      7  O   UNL     1      19.905  66.505  18.108  1.00  0.00    -0.550 OA
ATOM      8  O   UNL     1      21.278  65.241  19.438  1.00  0.00    -0.550 OA
ENDBRANCH   5   6
ENDBRANCH   1   5
TORSDOF 3
ENDMDL
MODEL 5
REMARK VINA RESULT:    -2.623      0.496      1.649
REMARK INTER + INTRA:          -3.197
REMARK INTER:                  -3.133
REMARK INTRA:                  -0.064
REMARK UNBOUND:                -0.114
REMARK SMILES O=C([O-])CCC(=O)[O-]
REMARK SMILES IDX 4 1 2 2 1 3 3 4 5 5 6 6 7 7 8 8
REMARK H PARENT
REMARK Flexibility Score: inf
ROOT
ATOM      1  C   UNL     1      27.627  72.234  10.731  1.00  0.00     0.059 C 
ENDROOT
BRANCH   1   2
ATOM      2  C   UNL     1      27.654  71.104   9.747  1.00  0.00     0.042 C 
ATOM      3  O   UNL     1      28.751  70.596   9.397  1.00  0.00    -0.550 OA
ATOM      4  O   UNL     1      26.465  70.585   9.251  1.00  0.00    -0.550 OA
ENDBRANCH   1   2
BRANCH   1   5
ATOM      5  C   UNL     1      28.533  71.957  11.935  1.00  0.00     0.059 C 
BRANCH   5   6
ATOM      6  C   UNL     1      27.778  72.050  13.226  1.00  0.00     0.042 C 
ATOM      7  O   UNL     1      26.537  71.840  13.251  1.00  0.00    -0.550 OA
ATOM      8  O   UNL     1      28.453  72.329  14.409  1.00  0.00    -0.550 OA
ENDBRANCH   5   6
ENDBRANCH   1   5
TORSDOF 3
ENDMDL
MODEL 6
REMARK VINA RESULT:    -2.622      8.714     10.063
REMARK INTER + INTRA:          -3.195
REMARK INTER:                  -3.158
REMARK INTRA:                  -0.037
REMARK UNBOUND:                -0.114
REMARK SMILES O=C([O-])CCC(=O)[O-]
REMARK SMILES IDX 4 1 2 2 1 3 3 4 5 5 6 6 7 7 8 8
REMARK H PARENT
REMARK Flexibility Score: inf
ROOT
ATOM      1  C   UNL     1      21.273  67.705  19.200  1.00  0.00     0.059 C 
ENDROOT
BRANCH   1   2
ATOM      2  C   UNL     1      21.192  66.223  18.994  1.00  0.00     0.042 C 
ATOM      3  O   UNL     1      20.083  65.632  19.071  1.00  0.00    -0.550 OA
ATOM      4  O   UNL     1      22.336  65.501  18.677  1.00  0.00    -0.550 OA
ENDBRANCH   1   2
BRANCH   1   5
ATOM      5  C   UNL     1      22.460  68.316  18.448  1.00  0.00     0.059 C 
BRANCH   5   6
ATOM      6  C   UNL     1      22.207  69.747  18.086  1.00  0.00     0.042 C 
ATOM      7  O   UNL     1      23.131  70.597  18.178  1.00  0.00    -0.550 OA
ATOM      8  O   UNL     1      20.961  70.135  17.608  1.00  0.00    -0.550 OA
ENDBRANCH   5   6
ENDBRANCH   1   5
TORSDOF 3
ENDMDL
MODEL 7
REMARK VINA RESULT:    -2.542      9.461     10.752
REMARK INTER + INTRA:          -3.102
REMARK INTER:                  -2.978
REMARK INTRA:                  -0.124
REMARK UNBOUND:                -0.114
REMARK SMILES O=C([O-])CCC(=O)[O-]
REMARK SMILES IDX 4 1 2 2 1 3 3 4 5 5 6 6 7 7 8 8
REMARK H PARENT
REMARK Flexibility Score: inf
ROOT
ATOM      1  C   UNL     1      20.304  67.008  18.282  1.00  0.00     0.059 C 
ENDROOT
BRANCH   1   2
ATOM      2  C   UNL     1      20.240  65.617  18.836  1.00  0.00     0.042 C 
ATOM      3  O   UNL     1      19.203  64.921  18.681  1.00  0.00    -0.550 OA
ATOM      4  O   UNL     1      21.341  65.076  19.487  1.00  0.00    -0.550 OA
ENDBRANCH   1   2
BRANCH   1   5
ATOM      5  C   UNL     1      21.242  67.901  19.102  1.00  0.00     0.059 C 
BRANCH   5   6
ATOM      6  C   UNL     1      22.449  68.304  18.313  1.00  0.00     0.042 C 
ATOM      7  O   UNL     1      23.153  67.430  17.742  1.00  0.00    -0.550 OA
ATOM      8  O   UNL     1      22.774  69.648  18.174  1.00  0.00    -0.550 OA
ENDBRANCH   5   6
ENDBRANCH   1   5
TORSDOF 3
ENDMDL
MODEL 8
REMARK VINA RESULT:    -2.535      1.466      3.727
REMARK INTER + INTRA:          -3.093
REMARK INTER:                  -2.997
REMARK INTRA:                  -0.096
REMARK UNBOUND:                -0.114
REMARK SMILES O=C([O-])CCC(=O)[O-]
REMARK SMILES IDX 4 1 2 2 1 3 3 4 5 5 6 6 7 7 8 8
REMARK H PARENT
REMARK Flexibility Score: inf
ROOT
ATOM      1  C   UNL     1      26.711  71.718  12.750  1.00  0.00     0.059 C 
ENDROOT
BRANCH   1   2
ATOM      2  C   UNL     1      28.130  72.040  13.105  1.00  0.00     0.042 C 
ATOM      3  O   UNL     1      28.426  72.389  14.278  1.00  0.00    -0.550 OA
ATOM      4  O   UNL     1      29.133  71.914  12.152  1.00  0.00    -0.550 OA
ENDBRANCH   1   2
BRANCH   1   5
ATOM      5  C   UNL     1      26.366  72.178  11.329  1.00  0.00     0.059 C 
BRANCH   5   6
ATOM      6  C   UNL     1      26.311  71.026  10.374  1.00  0.00     0.042 C 
ATOM      7  O   UNL     1      27.242  70.847   9.544  1.00  0.00    -0.550 OA
ATOM      8  O   UNL     1      25.253  70.126  10.426  1.00  0.00    -0.550 OA
ENDBRANCH   5   6
ENDBRANCH   1   5
TORSDOF 3
ENDMDL
MODEL 9
REMARK VINA RESULT:    -2.533      9.525     10.877
REMARK INTER + INTRA:          -3.091
REMARK INTER:                  -2.972
REMARK INTRA:                  -0.119
REMARK UNBOUND:                -0.114
REMARK SMILES O=C([O-])CCC(=O)[O-]
REMARK SMILES IDX 4 1 2 2 1 3 3 4 5 5 6 6 7 7 8 8
REMARK H PARENT
REMARK Flexibility Score: inf
ROOT
ATOM      1  C   UNL     1      20.157  67.386  18.687  1.00  0.00     0.059 C 
ENDROOT
BRANCH   1   2
ATOM      2  C   UNL     1      19.898  65.921  18.866  1.00  0.00     0.042 C 
ATOM      3  O   UNL     1      20.841  65.144  19.168  1.00  0.00    -0.550 OA
ATOM      4  O   UNL     1      18.608  65.421  18.742  1.00  0.00    -0.550 OA
ENDBRANCH   1   2
BRANCH   1   5
ATOM      5  C   UNL     1      21.477  67.811  19.339  1.00  0.00     0.059 C 
BRANCH   5   6
ATOM      6  C   UNL     1      22.498  68.200  18.314  1.00  0.00     0.042 C 
ATOM      7  O   UNL     1      22.753  69.415  18.105  1.00  0.00    -0.550 OA
ATOM      8  O   UNL     1      23.197  67.220  17.620  1.00  0.00    -0.550 OA
ENDBRANCH   5   6
ENDBRANCH   1   5
TORSDOF 3
ENDMDL
