MODEL 1
REMARK VINA RESULT:    -4.546      0.000      0.000
REMARK INTER + INTRA:         -10.075
REMARK INTER:                  -8.000
REMARK INTRA:                  -2.074
REMARK UNBOUND:                -2.074
REMARK SMILES CCCCCCC=CCCCCCCCC(=O)[O-]
REMARK SMILES IDX 10 1 11 2 12 3 13 4 14 5 15 6 16 7 17 8 18 9 9 10 8 11 7 12
REMARK SMILES IDX 6 13 5 14 4 15 3 16 2 17 1 18
REMARK H PARENT
REMARK Flexibility Score: inf
ROOT
ATOM      1  C   UNL     1     -23.230  21.187 -21.107  1.00  0.00     0.004 C 
ENDROOT
BRANCH   1   2
ATOM      2  C   UNL     1     -24.675  21.468 -21.558  1.00  0.00     0.000 C 
BRANCH   2   3
ATOM      3  C   UNL     1     -24.768  22.627 -22.562  1.00  0.00     0.000 C 
BRANCH   3   4
ATOM      4  C   UNL     1     -23.395  23.045 -23.117  1.00  0.00     0.000 C 
BRANCH   4   5
ATOM      5  C   UNL     1     -23.225  22.687 -24.603  1.00  0.00     0.006 C 
BRANCH   5   6
ATOM      6  C   UNL     1     -21.764  22.422 -24.983  1.00  0.00     0.053 C 
BRANCH   6   7
ATOM      7  C   UNL     1     -21.155  23.641 -25.602  1.00  0.00     0.041 C 
ATOM      8  O   UNL     1     -20.950  23.685 -26.844  1.00  0.00    -0.550 OA
ATOM      9  O   UNL     1     -20.847  24.743 -24.814  1.00  0.00    -0.550 OA
ENDBRANCH   6   7
ENDBRANCH   5   6
ENDBRANCH   4   5
ENDBRANCH   3   4
ENDBRANCH   2   3
ENDBRANCH   1   2
BRANCH   1  10
ATOM     10  C   UNL     1     -22.854  19.709 -21.271  1.00  0.00     0.027 C 
BRANCH  10  11
ATOM     11  C   UNL     1     -23.382  19.139 -22.559  1.00  0.00    -0.031 C 
ATOM     12  C   UNL     1     -22.641  19.114 -23.676  1.00  0.00    -0.031 C 
BRANCH  12  13
ATOM     13  C   UNL     1     -23.166  18.513 -24.951  1.00  0.00     0.027 C 
BRANCH  13  14
ATOM     14  C   UNL     1     -22.394  17.247 -25.351  1.00  0.00     0.004 C 
BRANCH  14  15
ATOM     15  C   UNL     1     -20.954  17.259 -24.804  1.00  0.00     0.000 C 
BRANCH  15  16
ATOM     16  C   UNL     1     -20.635  16.027 -23.942  1.00  0.00    -0.000 C 
BRANCH  16  17
ATOM     17  C   UNL     1     -20.425  16.378 -22.461  1.00  0.00    -0.003 C 
ATOM     18  C   UNL     1     -21.641  15.987 -21.626  1.00  0.00     0.004 C 
ENDBRANCH  16  17
ENDBRANCH  15  16
ENDBRANCH  14  15
ENDBRANCH  13  14
ENDBRANCH  12  13
ENDBRANCH  10  11
ENDBRANCH   1  10
TORSDOF 13
ENDMDL
MODEL 2
REMARK VINA RESULT:    -4.525      1.324      2.640
REMARK INTER + INTRA:         -10.038
REMARK INTER:                  -8.476
REMARK INTRA:                  -1.562
REMARK UNBOUND:                -2.074
REMARK SMILES CCCCCCC=CCCCCCCCC(=O)[O-]
REMARK SMILES IDX 10 1 11 2 12 3 13 4 14 5 15 6 16 7 17 8 18 9 9 10 8 11 7 12
REMARK SMILES IDX 6 13 5 14 4 15 3 16 2 17 1 18
REMARK H PARENT
REMARK Flexibility Score: inf
ROOT
ATOM      1  C   UNL     1     -22.911  19.888 -21.584  1.00  0.00     0.004 C 
ENDROOT
BRANCH   1   2
ATOM      2  C   UNL     1     -23.229  20.960 -22.642  1.00  0.00     0.000 C 
BRANCH   2   3
ATOM      3  C   UNL     1     -22.828  20.528 -24.062  1.00  0.00     0.000 C 
BRANCH   3   4
ATOM      4  C   UNL     1     -22.153  21.658 -24.859  1.00  0.00     0.000 C 
BRANCH   4   5
ATOM      5  C   UNL     1     -22.493  23.053 -24.309  1.00  0.00     0.006 C 
BRANCH   5   6
ATOM      6  C   UNL     1     -22.084  24.181 -25.265  1.00  0.00     0.053 C 
BRANCH   6   7
ATOM      7  C   UNL     1     -20.658  24.016 -25.688  1.00  0.00     0.041 C 
ATOM      8  O   UNL     1     -20.365  23.950 -26.911  1.00  0.00    -0.550 OA
ATOM      9  O   UNL     1     -19.648  23.973 -24.735  1.00  0.00    -0.550 OA
ENDBRANCH   6   7
ENDBRANCH   5   6
ENDBRANCH   4   5
ENDBRANCH   3   4
ENDBRANCH   2   3
ENDBRANCH   1   2
BRANCH   1  10
ATOM     10  C   UNL     1     -23.925  18.737 -21.610  1.00  0.00     0.027 C 
BRANCH  10  11
ATOM     11  C   UNL     1     -23.300  17.455 -22.087  1.00  0.00    -0.031 C 
ATOM     12  C   UNL     1     -21.969  17.302 -22.155  1.00  0.00    -0.031 C 
BRANCH  12  13
ATOM     13  C   UNL     1     -21.352  16.005 -22.603  1.00  0.00     0.027 C 
BRANCH  13  14
ATOM     14  C   UNL     1     -20.565  16.165 -23.913  1.00  0.00     0.004 C 
BRANCH  14  15
ATOM     15  C   UNL     1     -19.830  17.517 -23.978  1.00  0.00     0.000 C 
BRANCH  15  16
ATOM     16  C   UNL     1     -20.295  18.390 -25.155  1.00  0.00    -0.000 C 
BRANCH  16  17
ATOM     17  C   UNL     1     -21.362  17.701 -26.019  1.00  0.00    -0.003 C 
ATOM     18  C   UNL     1     -21.095  17.925 -27.505  1.00  0.00     0.004 C 
ENDBRANCH  16  17
ENDBRANCH  15  16
ENDBRANCH  14  15
ENDBRANCH  13  14
ENDBRANCH  12  13
ENDBRANCH  10  11
ENDBRANCH   1  10
TORSDOF 13
ENDMDL
MODEL 3
REMARK VINA RESULT:    -4.463      2.403      3.567
REMARK INTER + INTRA:          -9.929
REMARK INTER:                  -8.248
REMARK INTRA:                  -1.681
REMARK UNBOUND:                -2.074
REMARK SMILES CCCCCCC=CCCCCCCCC(=O)[O-]
REMARK SMILES IDX 10 1 11 2 12 3 13 4 14 5 15 6 16 7 17 8 18 9 9 10 8 11 7 12
REMARK SMILES IDX 6 13 5 14 4 15 3 16 2 17 1 18
REMARK H PARENT
REMARK Flexibility Score: inf
ROOT
ATOM      1  C   UNL     1     -23.208  20.336 -21.367  1.00  0.00     0.004 C 
ENDROOT
BRANCH   1   2
ATOM      2  C   UNL     1     -23.936  21.263 -22.357  1.00  0.00     0.000 C 
BRANCH   2   3
ATOM      3  C   UNL     1     -22.970  22.159 -23.149  1.00  0.00     0.000 C 
BRANCH   3   4
ATOM      4  C   UNL     1     -22.996  21.870 -24.660  1.00  0.00     0.000 C 
BRANCH   4   5
ATOM      5  C   UNL     1     -21.809  21.005 -25.117  1.00  0.00     0.006 C 
BRANCH   5   6
ATOM      6  C   UNL     1     -22.170  19.519 -25.231  1.00  0.00     0.053 C 
BRANCH   6   7
ATOM      7  C   UNL     1     -21.039  18.751 -25.839  1.00  0.00     0.041 C 
ATOM      8  O   UNL     1     -19.996  18.526 -25.170  1.00  0.00    -0.550 OA
ATOM      9  O   UNL     1     -21.150  18.251 -27.130  1.00  0.00    -0.550 OA
ENDBRANCH   6   7
ENDBRANCH   5   6
ENDBRANCH   4   5
ENDBRANCH   3   4
ENDBRANCH   2   3
ENDBRANCH   1   2
BRANCH   1  10
ATOM     10  C   UNL     1     -23.385  18.855 -21.730  1.00  0.00     0.027 C 
BRANCH  10  11
ATOM     11  C   UNL     1     -22.085  18.103 -21.650  1.00  0.00    -0.031 C 
ATOM     12  C   UNL     1     -21.780  17.129 -22.519  1.00  0.00    -0.031 C 
BRANCH  12  13
ATOM     13  C   UNL     1     -20.463  16.404 -22.452  1.00  0.00     0.027 C 
BRANCH  13  14
ATOM     14  C   UNL     1     -20.612  14.910 -22.781  1.00  0.00     0.004 C 
BRANCH  14  15
ATOM     15  C   UNL     1     -20.255  14.020 -21.576  1.00  0.00     0.000 C 
BRANCH  15  16
ATOM     16  C   UNL     1     -21.269  14.139 -20.427  1.00  0.00    -0.000 C 
BRANCH  16  17
ATOM     17  C   UNL     1     -22.681  13.693 -20.834  1.00  0.00    -0.003 C 
ATOM     18  C   UNL     1     -23.707  14.785 -20.546  1.00  0.00     0.004 C 
ENDBRANCH  16  17
ENDBRANCH  15  16
ENDBRANCH  14  15
ENDBRANCH  13  14
ENDBRANCH  12  13
ENDBRANCH  10  11
ENDBRANCH   1  10
TORSDOF 13
ENDMDL
MODEL 4
REMARK VINA RESULT:    -4.438      3.669      6.620
REMARK INTER + INTRA:          -9.885
REMARK INTER:                  -8.192
REMARK INTRA:                  -1.693
REMARK UNBOUND:                -2.074
REMARK SMILES CCCCCCC=CCCCCCCCC(=O)[O-]
REMARK SMILES IDX 10 1 11 2 12 3 13 4 14 5 15 6 16 7 17 8 18 9 9 10 8 11 7 12
REMARK SMILES IDX 6 13 5 14 4 15 3 16 2 17 1 18
REMARK H PARENT
REMARK Flexibility Score: inf
ROOT
ATOM      1  C   UNL     1     -22.493  17.317 -25.434  1.00  0.00     0.004 C 
ENDROOT
BRANCH   1   2
ATOM      2  C   UNL     1     -23.423  17.902 -24.356  1.00  0.00     0.000 C 
BRANCH   2   3
ATOM      3  C   UNL     1     -23.371  17.114 -23.037  1.00  0.00     0.000 C 
BRANCH   3   4
ATOM      4  C   UNL     1     -22.305  17.648 -22.066  1.00  0.00     0.000 C 
BRANCH   4   5
ATOM      5  C   UNL     1     -21.037  16.777 -22.044  1.00  0.00     0.006 C 
BRANCH   5   6
ATOM      6  C   UNL     1     -21.337  15.305 -21.735  1.00  0.00     0.053 C 
BRANCH   6   7
ATOM      7  C   UNL     1     -20.696  14.415 -22.753  1.00  0.00     0.041 C 
ATOM      8  O   UNL     1     -20.438  13.215 -22.472  1.00  0.00    -0.550 OA
ATOM      9  O   UNL     1     -20.416  14.899 -24.025  1.00  0.00    -0.550 OA
ENDBRANCH   6   7
ENDBRANCH   5   6
ENDBRANCH   4   5
ENDBRANCH   3   4
ENDBRANCH   2   3
ENDBRANCH   1   2
BRANCH   1  10
ATOM     10  C   UNL     1     -21.426  18.325 -25.881  1.00  0.00     0.027 C 
BRANCH  10  11
ATOM     11  C   UNL     1     -21.527  19.618 -25.120  1.00  0.00    -0.031 C 
ATOM     12  C   UNL     1     -21.593  20.801 -25.746  1.00  0.00    -0.031 C 
BRANCH  12  13
ATOM     13  C   UNL     1     -21.727  22.088 -24.978  1.00  0.00     0.027 C 
BRANCH  13  14
ATOM     14  C   UNL     1     -23.184  22.367 -24.574  1.00  0.00     0.004 C 
BRANCH  14  15
ATOM     15  C   UNL     1     -23.345  22.466 -23.046  1.00  0.00     0.000 C 
BRANCH  15  16
ATOM     16  C   UNL     1     -23.302  21.094 -22.354  1.00  0.00    -0.000 C 
BRANCH  16  17
ATOM     17  C   UNL     1     -23.623  21.176 -20.854  1.00  0.00    -0.003 C 
ATOM     18  C   UNL     1     -23.276  22.552 -20.292  1.00  0.00     0.004 C 
ENDBRANCH  16  17
ENDBRANCH  15  16
ENDBRANCH  14  15
ENDBRANCH  13  14
ENDBRANCH  12  13
ENDBRANCH  10  11
ENDBRANCH   1  10
TORSDOF 13
ENDMDL
MODEL 5
REMARK VINA RESULT:    -4.426      1.861      4.370
REMARK INTER + INTRA:          -9.864
REMARK INTER:                  -7.959
REMARK INTRA:                  -1.905
REMARK UNBOUND:                -2.074
REMARK SMILES CCCCCCC=CCCCCCCCC(=O)[O-]
REMARK SMILES IDX 10 1 11 2 12 3 13 4 14 5 15 6 16 7 17 8 18 9 9 10 8 11 7 12
REMARK SMILES IDX 6 13 5 14 4 15 3 16 2 17 1 18
REMARK H PARENT
REMARK Flexibility Score: inf
ROOT
ATOM      1  C   UNL     1     -20.625  18.419 -25.246  1.00  0.00     0.004 C 
ENDROOT
BRANCH   1   2
ATOM      2  C   UNL     1     -21.380  19.574 -25.927  1.00  0.00     0.000 C 
BRANCH   2   3
ATOM      3  C   UNL     1     -21.493  20.818 -25.031  1.00  0.00     0.000 C 
BRANCH   3   4
ATOM      4  C   UNL     1     -22.951  21.235 -24.774  1.00  0.00     0.000 C 
BRANCH   4   5
ATOM      5  C   UNL     1     -23.066  22.658 -24.202  1.00  0.00     0.006 C 
BRANCH   5   6
ATOM      6  C   UNL     1     -24.300  23.406 -24.724  1.00  0.00     0.053 C 
BRANCH   6   7
ATOM      7  C   UNL     1     -23.962  24.835 -25.012  1.00  0.00     0.041 C 
ATOM      8  O   UNL     1     -23.751  25.209 -26.195  1.00  0.00    -0.550 OA
ATOM      9  O   UNL     1     -23.918  25.763 -23.978  1.00  0.00    -0.550 OA
ENDBRANCH   6   7
ENDBRANCH   5   6
ENDBRANCH   4   5
ENDBRANCH   3   4
ENDBRANCH   2   3
ENDBRANCH   1   2
BRANCH   1  10
ATOM     10  C   UNL     1     -21.396  17.095 -25.336  1.00  0.00     0.027 C 
BRANCH  10  11
ATOM     11  C   UNL     1     -22.780  17.217 -24.759  1.00  0.00    -0.031 C 
ATOM     12  C   UNL     1     -22.994  17.220 -23.435  1.00  0.00    -0.031 C 
BRANCH  12  13
ATOM     13  C   UNL     1     -24.378  17.375 -22.865  1.00  0.00     0.027 C 
BRANCH  13  14
ATOM     14  C   UNL     1     -24.469  18.560 -21.891  1.00  0.00     0.004 C 
BRANCH  14  15
ATOM     15  C   UNL     1     -23.083  19.160 -21.589  1.00  0.00     0.000 C 
BRANCH  15  16
ATOM     16  C   UNL     1     -23.158  20.623 -21.122  1.00  0.00    -0.000 C 
BRANCH  16  17
ATOM     17  C   UNL     1     -24.582  21.195 -21.189  1.00  0.00    -0.003 C 
ATOM     18  C   UNL     1     -24.615  22.646 -20.718  1.00  0.00     0.004 C 
ENDBRANCH  16  17
ENDBRANCH  15  16
ENDBRANCH  14  15
ENDBRANCH  13  14
ENDBRANCH  12  13
ENDBRANCH  10  11
ENDBRANCH   1  10
TORSDOF 13
ENDMDL
MODEL 6
REMARK VINA RESULT:    -4.425      4.104      6.945
REMARK INTER + INTRA:          -9.863
REMARK INTER:                  -8.180
REMARK INTRA:                  -1.682
REMARK UNBOUND:                -2.074
REMARK SMILES CCCCCCC=CCCCCCCCC(=O)[O-]
REMARK SMILES IDX 10 1 11 2 12 3 13 4 14 5 15 6 16 7 17 8 18 9 9 10 8 11 7 12
REMARK SMILES IDX 6 13 5 14 4 15 3 16 2 17 1 18
REMARK H PARENT
REMARK Flexibility Score: inf
ROOT
ATOM      1  C   UNL     1     -21.251  18.520 -25.712  1.00  0.00     0.004 C 
ENDROOT
BRANCH   1   2
ATOM      2  C   UNL     1     -20.125  18.002 -24.799  1.00  0.00     0.000 C 
BRANCH   2   3
ATOM      3  C   UNL     1     -20.655  17.174 -23.617  1.00  0.00     0.000 C 
BRANCH   3   4
ATOM      4  C   UNL     1     -20.546  15.658 -23.856  1.00  0.00     0.000 C 
BRANCH   4   5
ATOM      5  C   UNL     1     -20.541  14.853 -22.546  1.00  0.00     0.006 C 
BRANCH   5   6
ATOM      6  C   UNL     1     -21.352  15.530 -21.434  1.00  0.00     0.053 C 
BRANCH   6   7
ATOM      7  C   UNL     1     -22.284  14.548 -20.794  1.00  0.00     0.041 C 
ATOM      8  O   UNL     1     -23.524  14.625 -21.002  1.00  0.00    -0.550 OA
ATOM      9  O   UNL     1     -21.781  13.525 -20.000  1.00  0.00    -0.550 OA
ENDBRANCH   6   7
ENDBRANCH   5   6
ENDBRANCH   4   5
ENDBRANCH   3   4
ENDBRANCH   2   3
ENDBRANCH   1   2
BRANCH   1  10
ATOM     10  C   UNL     1     -21.399  20.045 -25.632  1.00  0.00     0.027 C 
BRANCH  10  11
ATOM     11  C   UNL     1     -22.443  20.452 -24.629  1.00  0.00    -0.031 C 
ATOM     12  C   UNL     1     -22.567  21.721 -24.215  1.00  0.00    -0.031 C 
BRANCH  12  13
ATOM     13  C   UNL     1     -23.636  22.125 -23.235  1.00  0.00     0.027 C 
BRANCH  13  14
ATOM     14  C   UNL     1     -23.243  21.792 -21.787  1.00  0.00     0.004 C 
BRANCH  14  15
ATOM     15  C   UNL     1     -23.974  20.540 -21.269  1.00  0.00     0.000 C 
BRANCH  15  16
ATOM     16  C   UNL     1     -23.187  19.244 -21.523  1.00  0.00    -0.000 C 
BRANCH  16  17
ATOM     17  C   UNL     1     -24.099  18.021 -21.697  1.00  0.00    -0.003 C 
ATOM     18  C   UNL     1     -24.179  17.598 -23.161  1.00  0.00     0.004 C 
ENDBRANCH  16  17
ENDBRANCH  15  16
ENDBRANCH  14  15
ENDBRANCH  13  14
ENDBRANCH  12  13
ENDBRANCH  10  11
ENDBRANCH   1  10
TORSDOF 13
ENDMDL
MODEL 7
REMARK VINA RESULT:    -4.411      2.368      5.901
REMARK INTER + INTRA:          -9.837
REMARK INTER:                  -8.251
REMARK INTRA:                  -1.585
REMARK UNBOUND:                -2.074
REMARK SMILES CCCCCCC=CCCCCCCCC(=O)[O-]
REMARK SMILES IDX 10 1 11 2 12 3 13 4 14 5 15 6 16 7 17 8 18 9 9 10 8 11 7 12
REMARK SMILES IDX 6 13 5 14 4 15 3 16 2 17 1 18
REMARK H PARENT
REMARK Flexibility Score: inf
ROOT
ATOM      1  C   UNL     1     -20.742  14.898 -21.373  1.00  0.00     0.004 C 
ENDROOT
BRANCH   1   2
ATOM      2  C   UNL     1     -20.392  14.321 -22.756  1.00  0.00     0.000 C 
BRANCH   2   3
ATOM      3  C   UNL     1     -20.609  15.334 -23.893  1.00  0.00     0.000 C 
BRANCH   3   4
ATOM      4  C   UNL     1     -20.209  16.766 -23.498  1.00  0.00     0.000 C 
BRANCH   4   5
ATOM      5  C   UNL     1     -20.402  17.770 -24.647  1.00  0.00     0.006 C 
BRANCH   5   6
ATOM      6  C   UNL     1     -21.328  17.238 -25.747  1.00  0.00     0.053 C 
BRANCH   6   7
ATOM      7  C   UNL     1     -21.194  18.064 -26.988  1.00  0.00     0.041 C 
ATOM      8  O   UNL     1     -21.258  19.320 -26.922  1.00  0.00    -0.550 OA
ATOM      9  O   UNL     1     -20.961  17.450 -28.212  1.00  0.00    -0.550 OA
ENDBRANCH   6   7
ENDBRANCH   5   6
ENDBRANCH   4   5
ENDBRANCH   3   4
ENDBRANCH   2   3
ENDBRANCH   1   2
BRANCH   1  10
ATOM     10  C   UNL     1     -21.897  14.136 -20.708  1.00  0.00     0.027 C 
BRANCH  10  11
ATOM     11  C   UNL     1     -23.200  14.876 -20.839  1.00  0.00    -0.031 C 
ATOM     12  C   UNL     1     -23.311  15.979 -21.592  1.00  0.00    -0.031 C 
BRANCH  12  13
ATOM     13  C   UNL     1     -24.627  16.694 -21.744  1.00  0.00     0.027 C 
BRANCH  13  14
ATOM     14  C   UNL     1     -24.473  18.217 -21.606  1.00  0.00     0.004 C 
BRANCH  14  15
ATOM     15  C   UNL     1     -23.159  18.718 -22.236  1.00  0.00     0.000 C 
BRANCH  15  16
ATOM     16  C   UNL     1     -23.203  20.213 -22.592  1.00  0.00    -0.000 C 
BRANCH  16  17
ATOM     17  C   UNL     1     -22.573  20.516 -23.959  1.00  0.00    -0.003 C 
ATOM     18  C   UNL     1     -22.902  21.936 -24.413  1.00  0.00     0.004 C 
ENDBRANCH  16  17
ENDBRANCH  15  16
ENDBRANCH  14  15
ENDBRANCH  13  14
ENDBRANCH  12  13
ENDBRANCH  10  11
ENDBRANCH   1  10
TORSDOF 13
ENDMDL
MODEL 8
REMARK VINA RESULT:    -4.403      1.567      2.612
REMARK INTER + INTRA:          -9.823
REMARK INTER:                  -8.203
REMARK INTRA:                  -1.620
REMARK UNBOUND:                -2.074
REMARK SMILES CCCCCCC=CCCCCCCCC(=O)[O-]
REMARK SMILES IDX 10 1 11 2 12 3 13 4 14 5 15 6 16 7 17 8 18 9 9 10 8 11 7 12
REMARK SMILES IDX 6 13 5 14 4 15 3 16 2 17 1 18
REMARK H PARENT
REMARK Flexibility Score: inf
ROOT
ATOM      1  C   UNL     1     -23.277  22.360 -22.295  1.00  0.00     0.004 C 
ENDROOT
BRANCH   1   2
ATOM      2  C   UNL     1     -22.901  21.817 -23.685  1.00  0.00     0.000 C 
BRANCH   2   3
ATOM      3  C   UNL     1     -22.536  22.931 -24.678  1.00  0.00     0.000 C 
BRANCH   3   4
ATOM      4  C   UNL     1     -22.069  24.221 -23.980  1.00  0.00     0.000 C 
BRANCH   4   5
ATOM      5  C   UNL     1     -20.805  24.815 -24.623  1.00  0.00     0.006 C 
BRANCH   5   6
ATOM      6  C   UNL     1     -20.175  23.880 -25.662  1.00  0.00     0.053 C 
BRANCH   6   7
ATOM      7  C   UNL     1     -20.185  24.519 -27.015  1.00  0.00     0.041 C 
ATOM      8  O   UNL     1     -19.135  24.545 -27.711  1.00  0.00    -0.550 OA
ATOM      9  O   UNL     1     -21.362  25.054 -27.525  1.00  0.00    -0.550 OA
ENDBRANCH   6   7
ENDBRANCH   5   6
ENDBRANCH   4   5
ENDBRANCH   3   4
ENDBRANCH   2   3
ENDBRANCH   1   2
BRANCH   1  10
ATOM     10  C   UNL     1     -23.259  21.262 -21.224  1.00  0.00     0.027 C 
BRANCH  10  11
ATOM     11  C   UNL     1     -23.489  19.900 -21.819  1.00  0.00    -0.031 C 
ATOM     12  C   UNL     1     -22.632  18.889 -21.617  1.00  0.00    -0.031 C 
BRANCH  12  13
ATOM     13  C   UNL     1     -22.885  17.521 -22.190  1.00  0.00     0.027 C 
BRANCH  13  14
ATOM     14  C   UNL     1     -23.575  17.590 -23.562  1.00  0.00     0.004 C 
BRANCH  14  15
ATOM     15  C   UNL     1     -22.644  17.121 -24.695  1.00  0.00     0.000 C 
BRANCH  15  16
ATOM     16  C   UNL     1     -22.299  18.245 -25.685  1.00  0.00    -0.000 C 
BRANCH  16  17
ATOM     17  C   UNL     1     -21.060  19.049 -25.260  1.00  0.00    -0.003 C 
ATOM     18  C   UNL     1     -19.984  18.135 -24.682  1.00  0.00     0.004 C 
ENDBRANCH  16  17
ENDBRANCH  15  16
ENDBRANCH  14  15
ENDBRANCH  13  14
ENDBRANCH  12  13
ENDBRANCH  10  11
ENDBRANCH   1  10
TORSDOF 13
ENDMDL
MODEL 9
REMARK VINA RESULT:    -4.355      2.548      4.751
REMARK INTER + INTRA:          -9.739
REMARK INTER:                  -7.987
REMARK INTRA:                  -1.752
REMARK UNBOUND:                -2.074
REMARK SMILES CCCCCCC=CCCCCCCCC(=O)[O-]
REMARK SMILES IDX 10 1 11 2 12 3 13 4 14 5 15 6 16 7 17 8 18 9 9 10 8 11 7 12
REMARK SMILES IDX 6 13 5 14 4 15 3 16 2 17 1 18
REMARK H PARENT
REMARK Flexibility Score: inf
ROOT
ATOM      1  C   UNL     1     -20.605  16.299 -23.637  1.00  0.00     0.004 C 
ENDROOT
BRANCH   1   2
ATOM      2  C   UNL     1     -20.768  17.468 -24.625  1.00  0.00     0.000 C 
BRANCH   2   3
ATOM      3  C   UNL     1     -22.095  17.411 -25.397  1.00  0.00     0.000 C 
BRANCH   3   4
ATOM      4  C   UNL     1     -23.066  18.534 -24.995  1.00  0.00     0.000 C 
BRANCH   4   5
ATOM      5  C   UNL     1     -22.391  19.622 -24.143  1.00  0.00     0.006 C 
BRANCH   5   6
ATOM      6  C   UNL     1     -22.354  20.984 -24.845  1.00  0.00     0.053 C 
BRANCH   6   7
ATOM      7  C   UNL     1     -23.124  21.999 -24.059  1.00  0.00     0.041 C 
ATOM      8  O   UNL     1     -23.229  21.884 -22.810  1.00  0.00    -0.550 OA
ATOM      9  O   UNL     1     -23.693  23.092 -24.700  1.00  0.00    -0.550 OA
ENDBRANCH   6   7
ENDBRANCH   5   6
ENDBRANCH   4   5
ENDBRANCH   3   4
ENDBRANCH   2   3
ENDBRANCH   1   2
BRANCH   1  10
ATOM     10  C   UNL     1     -20.986  16.699 -22.206  1.00  0.00     0.027 C 
BRANCH  10  11
ATOM     11  C   UNL     1     -22.309  16.112 -21.797  1.00  0.00    -0.031 C 
ATOM     12  C   UNL     1     -23.426  16.852 -21.755  1.00  0.00    -0.031 C 
BRANCH  12  13
ATOM     13  C   UNL     1     -24.752  16.249 -21.377  1.00  0.00     0.027 C 
BRANCH  13  14
ATOM     14  C   UNL     1     -24.640  15.344 -20.140  1.00  0.00     0.004 C 
BRANCH  14  15
ATOM     15  C   UNL     1     -25.021  13.887 -20.461  1.00  0.00     0.000 C 
BRANCH  15  16
ATOM     16  C   UNL     1     -23.810  12.939 -20.449  1.00  0.00    -0.000 C 
BRANCH  16  17
ATOM     17  C   UNL     1     -22.807  13.273 -19.334  1.00  0.00    -0.003 C 
ATOM     18  C   UNL     1     -21.371  13.180 -19.840  1.00  0.00     0.004 C 
ENDBRANCH  16  17
ENDBRANCH  15  16
ENDBRANCH  14  15
ENDBRANCH  13  14
ENDBRANCH  12  13
ENDBRANCH  10  11
ENDBRANCH   1  10
TORSDOF 13
ENDMDL
