MODEL 1
REMARK VINA RESULT:    -5.063      0.000      0.000
REMARK INTER + INTRA:         -17.011
REMARK INTER:                 -13.351
REMARK INTRA:                  -3.659
REMARK UNBOUND:                -3.659
REMARK SMILES CCCCCCCCCCCCCCCCCCCCCCCCCCCCCC(=O)[O-]
REMARK SMILES IDX 16 1 17 2 18 3 19 4 20 5 21 6 22 7 23 8 24 9 25 10 26 11
REMARK SMILES IDX 27 12 28 13 29 14 30 15 31 16 32 17 15 18 14 19 13 20 12 21
REMARK SMILES IDX 11 22 10 23 9 24 8 25 7 26 6 27 5 28 4 29 3 30 2 31 1 32
REMARK H PARENT
REMARK Flexibility Score: inf
ROOT
ATOM      1  C   UNL     1      10.493   5.932  12.680  1.00  0.00     0.000 C 
ENDROOT
BRANCH   1   2
ATOM      2  C   UNL     1      11.594   6.202  11.643  1.00  0.00     0.000 C 
BRANCH   2   3
ATOM      3  C   UNL     1      11.263   5.614  10.262  1.00  0.00     0.000 C 
BRANCH   3   4
ATOM      4  C   UNL     1      10.171   4.535  10.336  1.00  0.00     0.000 C 
BRANCH   4   5
ATOM      5  C   UNL     1      10.001   3.823   8.986  1.00  0.00     0.000 C 
BRANCH   5   6
ATOM      6  C   UNL     1      10.098   2.293   9.110  1.00  0.00     0.000 C 
BRANCH   6   7
ATOM      7  C   UNL     1      11.552   1.789   9.043  1.00  0.00     0.000 C 
BRANCH   7   8
ATOM      8  C   UNL     1      11.825   0.620  10.004  1.00  0.00     0.000 C 
BRANCH   8   9
ATOM      9  C   UNL     1      12.592   0.995  11.287  1.00  0.00     0.000 C 
BRANCH   9  10
ATOM     10  C   UNL     1      13.215   2.406  11.289  1.00  0.00     0.000 C 
BRANCH  10  11
ATOM     11  C   UNL     1      13.128   3.154  12.631  1.00  0.00     0.000 C 
BRANCH  11  12
ATOM     12  C   UNL     1      12.321   2.391  13.692  1.00  0.00     0.000 C 
BRANCH  12  13
ATOM     13  C   UNL     1      13.196   2.053  14.905  1.00  0.00     0.006 C 
BRANCH  13  14
ATOM     14  C   UNL     1      12.947   0.617  15.379  1.00  0.00     0.053 C 
BRANCH  14  15
ATOM     15  C   UNL     1      11.621   0.501  16.067  1.00  0.00     0.041 C 
ATOM     16  O   UNL     1      11.296   1.334  16.955  1.00  0.00    -0.550 OA
ATOM     17  O   UNL     1      10.736  -0.513  15.713  1.00  0.00    -0.550 OA
ENDBRANCH  14  15
ENDBRANCH  13  14
ENDBRANCH  12  13
ENDBRANCH  11  12
ENDBRANCH  10  11
ENDBRANCH   9  10
ENDBRANCH   8   9
ENDBRANCH   7   8
ENDBRANCH   6   7
ENDBRANCH   5   6
ENDBRANCH   4   5
ENDBRANCH   3   4
ENDBRANCH   2   3
ENDBRANCH   1   2
BRANCH   1  18
ATOM     18  C   UNL     1      10.503   7.003  13.778  1.00  0.00     0.000 C 
BRANCH  18  19
ATOM     19  C   UNL     1      10.060   6.417  15.129  1.00  0.00     0.000 C 
BRANCH  19  20
ATOM     20  C   UNL     1       9.138   7.367  15.920  1.00  0.00     0.000 C 
BRANCH  20  21
ATOM     21  C   UNL     1       9.574   8.844  15.887  1.00  0.00     0.000 C 
BRANCH  21  22
ATOM     22  C   UNL     1       8.490   9.866  16.276  1.00  0.00     0.000 C 
BRANCH  22  23
ATOM     23  C   UNL     1       8.698  11.292  15.728  1.00  0.00     0.000 C 
BRANCH  23  24
ATOM     24  C   UNL     1      10.123  11.530  15.200  1.00  0.00    -0.000 C 
BRANCH  24  25
ATOM     25  C   UNL     1      10.172  12.528  14.027  1.00  0.00    -0.000 C 
BRANCH  25  26
ATOM     26  C   UNL     1      10.043  11.904  12.625  1.00  0.00    -0.000 C 
BRANCH  26  27
ATOM     27  C   UNL     1      10.191  10.374  12.634  1.00  0.00    -0.000 C 
BRANCH  27  28
ATOM     28  C   UNL     1      11.267   9.919  11.638  1.00  0.00    -0.000 C 
BRANCH  28  29
ATOM     29  C   UNL     1      12.238  11.046  11.243  1.00  0.00    -0.000 C 
BRANCH  29  30
ATOM     30  C   UNL     1      12.768  10.930   9.799  1.00  0.00    -0.000 C 
BRANCH  30  31
ATOM     31  C   UNL     1      12.510  12.208   8.986  1.00  0.00    -0.003 C 
ATOM     32  C   UNL     1      12.111  13.368   9.892  1.00  0.00     0.004 C 
ENDBRANCH  30  31
ENDBRANCH  29  30
ENDBRANCH  28  29
ENDBRANCH  27  28
ENDBRANCH  26  27
ENDBRANCH  25  26
ENDBRANCH  24  25
ENDBRANCH  23  24
ENDBRANCH  22  23
ENDBRANCH  21  22
ENDBRANCH  20  21
ENDBRANCH  19  20
ENDBRANCH  18  19
ENDBRANCH   1  18
TORSDOF 28
ENDMDL
MODEL 2
REMARK VINA RESULT:    -5.022      1.493      3.998
REMARK INTER + INTRA:         -16.903
REMARK INTER:                 -12.835
REMARK INTRA:                  -4.067
REMARK UNBOUND:                -3.659
REMARK SMILES CCCCCCCCCCCCCCCCCCCCCCCCCCCCCC(=O)[O-]
REMARK SMILES IDX 16 1 17 2 18 3 19 4 20 5 21 6 22 7 23 8 24 9 25 10 26 11
REMARK SMILES IDX 27 12 28 13 29 14 30 15 31 16 32 17 15 18 14 19 13 20 12 21
REMARK SMILES IDX 11 22 10 23 9 24 8 25 7 26 6 27 5 28 4 29 3 30 2 31 1 32
REMARK H PARENT
REMARK Flexibility Score: inf
ROOT
ATOM      1  C   UNL     1      10.023   6.254  13.530  1.00  0.00     0.000 C 
ENDROOT
BRANCH   1   2
ATOM      2  C   UNL     1      10.828   4.959  13.719  1.00  0.00     0.000 C 
BRANCH   2   3
ATOM      3  C   UNL     1       9.992   3.698  13.450  1.00  0.00     0.000 C 
BRANCH   3   4
ATOM      4  C   UNL     1       8.811   3.974  12.506  1.00  0.00     0.000 C 
BRANCH   4   5
ATOM      5  C   UNL     1       9.017   3.293  11.144  1.00  0.00     0.000 C 
BRANCH   5   6
ATOM      6  C   UNL     1       9.261   4.303  10.010  1.00  0.00     0.000 C 
BRANCH   6   7
ATOM      7  C   UNL     1      10.574   4.031   9.254  1.00  0.00     0.000 C 
BRANCH   7   8
ATOM      8  C   UNL     1      11.575   3.198  10.073  1.00  0.00     0.000 C 
BRANCH   8   9
ATOM      9  C   UNL     1      11.919   1.819   9.478  1.00  0.00     0.000 C 
BRANCH   9  10
ATOM     10  C   UNL     1      12.166   0.701  10.511  1.00  0.00     0.000 C 
BRANCH  10  11
ATOM     11  C   UNL     1      11.948   1.111  11.978  1.00  0.00     0.000 C 
BRANCH  11  12
ATOM     12  C   UNL     1      13.232   1.038  12.818  1.00  0.00     0.000 C 
BRANCH  12  13
ATOM     13  C   UNL     1      13.369   2.273  13.716  1.00  0.00     0.006 C 
BRANCH  13  14
ATOM     14  C   UNL     1      13.661   1.869  15.166  1.00  0.00     0.053 C 
BRANCH  14  15
ATOM     15  C   UNL     1      12.427   1.352  15.839  1.00  0.00     0.041 C 
ATOM     16  O   UNL     1      11.538   2.154  16.232  1.00  0.00    -0.550 OA
ATOM     17  O   UNL     1      12.247  -0.018  16.013  1.00  0.00    -0.550 OA
ENDBRANCH  14  15
ENDBRANCH  13  14
ENDBRANCH  12  13
ENDBRANCH  11  12
ENDBRANCH  10  11
ENDBRANCH   9  10
ENDBRANCH   8   9
ENDBRANCH   7   8
ENDBRANCH   6   7
ENDBRANCH   5   6
ENDBRANCH   4   5
ENDBRANCH   3   4
ENDBRANCH   2   3
ENDBRANCH   1   2
BRANCH   1  18
ATOM     18  C   UNL     1      10.855   7.311  12.792  1.00  0.00     0.000 C 
BRANCH  18  19
ATOM     19  C   UNL     1      11.423   6.751  11.477  1.00  0.00     0.000 C 
BRANCH  19  20
ATOM     20  C   UNL     1      11.982   7.850  10.550  1.00  0.00     0.000 C 
BRANCH  20  21
ATOM     21  C   UNL     1      11.653   9.285  11.003  1.00  0.00     0.000 C 
BRANCH  21  22
ATOM     22  C   UNL     1      12.347  10.408  10.209  1.00  0.00     0.000 C 
BRANCH  22  23
ATOM     23  C   UNL     1      12.340  11.795  10.880  1.00  0.00     0.000 C 
BRANCH  23  24
ATOM     24  C   UNL     1      11.931  11.743  12.362  1.00  0.00    -0.000 C 
BRANCH  24  25
ATOM     25  C   UNL     1      10.709  12.625  12.681  1.00  0.00    -0.000 C 
BRANCH  25  26
ATOM     26  C   UNL     1       9.425  11.861  13.055  1.00  0.00    -0.000 C 
BRANCH  26  27
ATOM     27  C   UNL     1       9.676  10.713  14.045  1.00  0.00    -0.000 C 
BRANCH  27  28
ATOM     28  C   UNL     1       8.724  10.803  15.247  1.00  0.00    -0.000 C 
BRANCH  28  29
ATOM     29  C   UNL     1       9.448  10.675  16.599  1.00  0.00    -0.000 C 
BRANCH  29  30
ATOM     30  C   UNL     1      10.627  11.655  16.767  1.00  0.00    -0.000 C 
BRANCH  30  31
ATOM     31  C   UNL     1      10.149  13.093  17.021  1.00  0.00    -0.003 C 
ATOM     32  C   UNL     1      11.253  13.942  17.643  1.00  0.00     0.004 C 
ENDBRANCH  30  31
ENDBRANCH  29  30
ENDBRANCH  28  29
ENDBRANCH  27  28
ENDBRANCH  26  27
ENDBRANCH  25  26
ENDBRANCH  24  25
ENDBRANCH  23  24
ENDBRANCH  22  23
ENDBRANCH  21  22
ENDBRANCH  20  21
ENDBRANCH  19  20
ENDBRANCH  18  19
ENDBRANCH   1  18
TORSDOF 28
ENDMDL
MODEL 3
REMARK VINA RESULT:    -4.993      2.994      8.280
REMARK INTER + INTRA:         -16.825
REMARK INTER:                 -11.928
REMARK INTRA:                  -4.898
REMARK UNBOUND:                -3.659
REMARK SMILES CCCCCCCCCCCCCCCCCCCCCCCCCCCCCC(=O)[O-]
REMARK SMILES IDX 16 1 17 2 18 3 19 4 20 5 21 6 22 7 23 8 24 9 25 10 26 11
REMARK SMILES IDX 27 12 28 13 29 14 30 15 31 16 32 17 15 18 14 19 13 20 12 21
REMARK SMILES IDX 11 22 10 23 9 24 8 25 7 26 6 27 5 28 4 29 3 30 2 31 1 32
REMARK H PARENT
REMARK Flexibility Score: inf
ROOT
ATOM      1  C   UNL     1      11.223   7.873  11.954  1.00  0.00     0.000 C 
ENDROOT
BRANCH   1   2
ATOM      2  C   UNL     1      10.489   6.676  12.577  1.00  0.00     0.000 C 
BRANCH   2   3
ATOM      3  C   UNL     1      10.399   6.771  14.109  1.00  0.00     0.000 C 
BRANCH   3   4
ATOM      4  C   UNL     1      10.305   5.388  14.773  1.00  0.00     0.000 C 
BRANCH   4   5
ATOM      5  C   UNL     1       8.842   4.945  14.931  1.00  0.00     0.000 C 
BRANCH   5   6
ATOM      6  C   UNL     1       8.536   3.641  14.174  1.00  0.00     0.000 C 
BRANCH   6   7
ATOM      7  C   UNL     1       9.751   3.121  13.384  1.00  0.00     0.000 C 
BRANCH   7   8
ATOM      8  C   UNL     1       9.355   2.405  12.081  1.00  0.00     0.000 C 
BRANCH   8   9
ATOM      9  C   UNL     1       9.150   3.328  10.865  1.00  0.00     0.000 C 
BRANCH   9  10
ATOM     10  C   UNL     1       9.308   2.648   9.491  1.00  0.00     0.000 C 
BRANCH  10  11
ATOM     11  C   UNL     1      10.762   2.443   9.029  1.00  0.00     0.000 C 
BRANCH  11  12
ATOM     12  C   UNL     1      11.293   1.033   9.326  1.00  0.00     0.000 C 
BRANCH  12  13
ATOM     13  C   UNL     1      10.191  -0.016   9.140  1.00  0.00     0.006 C 
BRANCH  13  14
ATOM     14  C   UNL     1       9.876  -0.723  10.463  1.00  0.00     0.053 C 
BRANCH  14  15
ATOM     15  C   UNL     1      11.032  -1.564  10.911  1.00  0.00     0.041 C 
ATOM     16  O   UNL     1      11.674  -2.253  10.074  1.00  0.00    -0.550 OA
ATOM     17  O   UNL     1      11.414  -1.570  12.250  1.00  0.00    -0.550 OA
ENDBRANCH  14  15
ENDBRANCH  13  14
ENDBRANCH  12  13
ENDBRANCH  11  12
ENDBRANCH  10  11
ENDBRANCH   9  10
ENDBRANCH   8   9
ENDBRANCH   7   8
ENDBRANCH   6   7
ENDBRANCH   5   6
ENDBRANCH   4   5
ENDBRANCH   3   4
ENDBRANCH   2   3
ENDBRANCH   1   2
BRANCH   1  18
ATOM     18  C   UNL     1      11.950   7.458  10.670  1.00  0.00     0.000 C 
BRANCH  18  19
ATOM     19  C   UNL     1      11.693   5.979  10.339  1.00  0.00     0.000 C 
BRANCH  19  20
ATOM     20  C   UNL     1      12.939   5.093  10.544  1.00  0.00     0.000 C 
BRANCH  20  21
ATOM     21  C   UNL     1      12.839   4.130  11.741  1.00  0.00     0.000 C 
BRANCH  21  22
ATOM     22  C   UNL     1      13.448   2.732  11.523  1.00  0.00     0.000 C 
BRANCH  22  23
ATOM     23  C   UNL     1      12.991   1.649  12.519  1.00  0.00     0.000 C 
BRANCH  23  24
ATOM     24  C   UNL     1      13.419   1.944  13.967  1.00  0.00    -0.000 C 
BRANCH  24  25
ATOM     25  C   UNL     1      13.397   0.695  14.868  1.00  0.00    -0.000 C 
BRANCH  25  26
ATOM     26  C   UNL     1      12.225   0.623  15.865  1.00  0.00    -0.000 C 
BRANCH  26  27
ATOM     27  C   UNL     1      11.689   2.007  16.262  1.00  0.00    -0.000 C 
BRANCH  27  28
ATOM     28  C   UNL     1      10.385   1.884  17.063  1.00  0.00    -0.000 C 
BRANCH  28  29
ATOM     29  C   UNL     1      10.370   2.763  18.327  1.00  0.00    -0.000 C 
BRANCH  29  30
ATOM     30  C   UNL     1       9.717   2.081  19.548  1.00  0.00    -0.000 C 
BRANCH  30  31
ATOM     31  C   UNL     1      10.698   1.942  20.722  1.00  0.00    -0.003 C 
ATOM     32  C   UNL     1      10.857   0.483  21.141  1.00  0.00     0.004 C 
ENDBRANCH  30  31
ENDBRANCH  29  30
ENDBRANCH  28  29
ENDBRANCH  27  28
ENDBRANCH  26  27
ENDBRANCH  25  26
ENDBRANCH  24  25
ENDBRANCH  23  24
ENDBRANCH  22  23
ENDBRANCH  21  22
ENDBRANCH  20  21
ENDBRANCH  19  20
ENDBRANCH  18  19
ENDBRANCH   1  18
TORSDOF 28
ENDMDL
MODEL 4
REMARK VINA RESULT:    -4.990      3.706      9.538
REMARK INTER + INTRA:         -16.817
REMARK INTER:                 -12.758
REMARK INTRA:                  -4.059
REMARK UNBOUND:                -3.659
REMARK SMILES CCCCCCCCCCCCCCCCCCCCCCCCCCCCCC(=O)[O-]
REMARK SMILES IDX 16 1 17 2 18 3 19 4 20 5 21 6 22 7 23 8 24 9 25 10 26 11
REMARK SMILES IDX 27 12 28 13 29 14 30 15 31 16 32 17 15 18 14 19 13 20 12 21
REMARK SMILES IDX 11 22 10 23 9 24 8 25 7 26 6 27 5 28 4 29 3 30 2 31 1 32
REMARK H PARENT
REMARK Flexibility Score: inf
ROOT
ATOM      1  C   UNL     1      10.202   6.825  12.888  1.00  0.00     0.000 C 
ENDROOT
BRANCH   1   2
ATOM      2  C   UNL     1      11.603   6.931  12.266  1.00  0.00     0.000 C 
BRANCH   2   3
ATOM      3  C   UNL     1      11.600   7.692  10.930  1.00  0.00     0.000 C 
BRANCH   3   4
ATOM      4  C   UNL     1      11.596   9.216  11.128  1.00  0.00     0.000 C 
BRANCH   4   5
ATOM      5  C   UNL     1      12.334   9.927   9.983  1.00  0.00     0.000 C 
BRANCH   5   6
ATOM      6  C   UNL     1      12.365  11.455  10.162  1.00  0.00     0.000 C 
BRANCH   6   7
ATOM      7  C   UNL     1      12.363  11.873  11.643  1.00  0.00     0.000 C 
BRANCH   7   8
ATOM      8  C   UNL     1      11.346  12.987  11.949  1.00  0.00     0.000 C 
BRANCH   8   9
ATOM      9  C   UNL     1       9.981  12.498  12.468  1.00  0.00     0.000 C 
BRANCH   9  10
ATOM     10  C   UNL     1      10.044  11.507  13.648  1.00  0.00     0.000 C 
BRANCH  10  11
ATOM     11  C   UNL     1       8.746  11.386  14.467  1.00  0.00     0.000 C 
BRANCH  11  12
ATOM     12  C   UNL     1       8.973  10.794  15.865  1.00  0.00     0.000 C 
BRANCH  12  13
ATOM     13  C   UNL     1      10.238  11.377  16.507  1.00  0.00     0.006 C 
BRANCH  13  14
ATOM     14  C   UNL     1       9.926  12.681  17.251  1.00  0.00     0.053 C 
BRANCH  14  15
ATOM     15  C   UNL     1      10.903  13.755  16.884  1.00  0.00     0.041 C 
ATOM     16  O   UNL     1      10.936  14.204  15.707  1.00  0.00    -0.550 OA
ATOM     17  O   UNL     1      11.762  14.277  17.847  1.00  0.00    -0.550 OA
ENDBRANCH  14  15
ENDBRANCH  13  14
ENDBRANCH  12  13
ENDBRANCH  11  12
ENDBRANCH  10  11
ENDBRANCH   9  10
ENDBRANCH   8   9
ENDBRANCH   7   8
ENDBRANCH   6   7
ENDBRANCH   5   6
ENDBRANCH   4   5
ENDBRANCH   3   4
ENDBRANCH   2   3
ENDBRANCH   1   2
BRANCH   1  18
ATOM     18  C   UNL     1      10.168   5.743  13.973  1.00  0.00     0.000 C 
BRANCH  18  19
ATOM     19  C   UNL     1      10.545   4.367  13.397  1.00  0.00     0.000 C 
BRANCH  19  20
ATOM     20  C   UNL     1       9.318   3.553  12.938  1.00  0.00     0.000 C 
BRANCH  20  21
ATOM     21  C   UNL     1       9.337   3.168  11.448  1.00  0.00     0.000 C 
BRANCH  21  22
ATOM     22  C   UNL     1       9.072   4.320  10.460  1.00  0.00     0.000 C 
BRANCH  22  23
ATOM     23  C   UNL     1      10.219   4.626   9.478  1.00  0.00     0.000 C 
BRANCH  23  24
ATOM     24  C   UNL     1      11.382   3.625   9.581  1.00  0.00    -0.000 C 
BRANCH  24  25
ATOM     25  C   UNL     1      12.653   4.239  10.198  1.00  0.00    -0.000 C 
BRANCH  25  26
ATOM     26  C   UNL     1      13.214   3.496  11.426  1.00  0.00    -0.000 C 
BRANCH  26  27
ATOM     27  C   UNL     1      13.190   1.968  11.265  1.00  0.00    -0.000 C 
BRANCH  27  28
ATOM     28  C   UNL     1      12.405   1.305  12.406  1.00  0.00    -0.000 C 
BRANCH  28  29
ATOM     29  C   UNL     1      13.294   0.913  13.600  1.00  0.00    -0.000 C 
BRANCH  29  30
ATOM     30  C   UNL     1      13.432   2.025  14.661  1.00  0.00    -0.000 C 
BRANCH  30  31
ATOM     31  C   UNL     1      12.566   1.749  15.900  1.00  0.00    -0.003 C 
ATOM     32  C   UNL     1      12.221   0.268  16.015  1.00  0.00     0.004 C 
ENDBRANCH  30  31
ENDBRANCH  29  30
ENDBRANCH  28  29
ENDBRANCH  27  28
ENDBRANCH  26  27
ENDBRANCH  25  26
ENDBRANCH  24  25
ENDBRANCH  23  24
ENDBRANCH  22  23
ENDBRANCH  21  22
ENDBRANCH  20  21
ENDBRANCH  19  20
ENDBRANCH  18  19
ENDBRANCH   1  18
TORSDOF 28
ENDMDL
MODEL 5
REMARK VINA RESULT:    -4.974      2.987      9.759
REMARK INTER + INTRA:         -16.776
REMARK INTER:                 -12.983
REMARK INTRA:                  -3.793
REMARK UNBOUND:                -3.659
REMARK SMILES CCCCCCCCCCCCCCCCCCCCCCCCCCCCCC(=O)[O-]
REMARK SMILES IDX 16 1 17 2 18 3 19 4 20 5 21 6 22 7 23 8 24 9 25 10 26 11
REMARK SMILES IDX 27 12 28 13 29 14 30 15 31 16 32 17 15 18 14 19 13 20 12 21
REMARK SMILES IDX 11 22 10 23 9 24 8 25 7 26 6 27 5 28 4 29 3 30 2 31 1 32
REMARK H PARENT
REMARK Flexibility Score: inf
ROOT
ATOM      1  C   UNL     1      11.511   5.399  10.260  1.00  0.00     0.000 C 
ENDROOT
BRANCH   1   2
ATOM      2  C   UNL     1      12.001   6.836  10.495  1.00  0.00     0.000 C 
BRANCH   2   3
ATOM      3  C   UNL     1      11.278   7.523  11.665  1.00  0.00     0.000 C 
BRANCH   3   4
ATOM      4  C   UNL     1      11.509   9.043  11.680  1.00  0.00     0.000 C 
BRANCH   4   5
ATOM      5  C   UNL     1      12.020   9.541  10.320  1.00  0.00     0.000 C 
BRANCH   5   6
ATOM      6  C   UNL     1      12.757  10.888  10.424  1.00  0.00     0.000 C 
BRANCH   6   7
ATOM      7  C   UNL     1      12.441  11.823   9.242  1.00  0.00     0.000 C 
BRANCH   7   8
ATOM      8  C   UNL     1      12.343  13.301   9.659  1.00  0.00     0.000 C 
BRANCH   8   9
ATOM      9  C   UNL     1      11.840  13.541  11.095  1.00  0.00     0.000 C 
BRANCH   9  10
ATOM     10  C   UNL     1      10.498  14.292  11.203  1.00  0.00     0.000 C 
BRANCH  10  11
ATOM     11  C   UNL     1       9.383  13.530  11.942  1.00  0.00     0.000 C 
BRANCH  11  12
ATOM     12  C   UNL     1       9.820  12.135  12.412  1.00  0.00     0.000 C 
BRANCH  12  13
ATOM     13  C   UNL     1       8.947  11.652  13.576  1.00  0.00     0.006 C 
BRANCH  13  14
ATOM     14  C   UNL     1       9.745  10.748  14.523  1.00  0.00     0.053 C 
BRANCH  14  15
ATOM     15  C   UNL     1       9.761  11.306  15.913  1.00  0.00     0.041 C 
ATOM     16  O   UNL     1       9.290  12.453  16.138  1.00  0.00    -0.550 OA
ATOM     17  O   UNL     1      10.276  10.552  16.963  1.00  0.00    -0.550 OA
ENDBRANCH  14  15
ENDBRANCH  13  14
ENDBRANCH  12  13
ENDBRANCH  11  12
ENDBRANCH  10  11
ENDBRANCH   9  10
ENDBRANCH   8   9
ENDBRANCH   7   8
ENDBRANCH   6   7
ENDBRANCH   5   6
ENDBRANCH   4   5
ENDBRANCH   3   4
ENDBRANCH   2   3
ENDBRANCH   1   2
BRANCH   1  18
ATOM     18  C   UNL     1      10.132   5.182  10.895  1.00  0.00     0.000 C 
BRANCH  18  19
ATOM     19  C   UNL     1       9.204   4.398   9.952  1.00  0.00     0.000 C 
BRANCH  19  20
ATOM     20  C   UNL     1       9.969   3.661   8.833  1.00  0.00     0.000 C 
BRANCH  20  21
ATOM     21  C   UNL     1       9.808   2.130   8.861  1.00  0.00     0.000 C 
BRANCH  21  22
ATOM     22  C   UNL     1      11.118   1.325   8.940  1.00  0.00     0.000 C 
BRANCH  22  23
ATOM     23  C   UNL     1      12.211   1.926   9.845  1.00  0.00     0.000 C 
BRANCH  23  24
ATOM     24  C   UNL     1      12.373   1.169  11.175  1.00  0.00    -0.000 C 
BRANCH  24  25
ATOM     25  C   UNL     1      11.257   0.137  11.421  1.00  0.00    -0.000 C 
BRANCH  25  26
ATOM     26  C   UNL     1      10.307   0.460  12.590  1.00  0.00    -0.000 C 
BRANCH  26  27
ATOM     27  C   UNL     1       9.723   1.878  12.514  1.00  0.00    -0.000 C 
BRANCH  27  28
ATOM     28  C   UNL     1       9.592   2.497  13.913  1.00  0.00    -0.000 C 
BRANCH  28  29
ATOM     29  C   UNL     1      10.826   3.317  14.327  1.00  0.00    -0.000 C 
BRANCH  29  30
ATOM     30  C   UNL     1      11.768   2.574  15.298  1.00  0.00    -0.000 C 
BRANCH  30  31
ATOM     31  C   UNL     1      13.042   2.078  14.598  1.00  0.00    -0.003 C 
ATOM     32  C   UNL     1      14.260   2.208  15.506  1.00  0.00     0.004 C 
ENDBRANCH  30  31
ENDBRANCH  29  30
ENDBRANCH  28  29
ENDBRANCH  27  28
ENDBRANCH  26  27
ENDBRANCH  25  26
ENDBRANCH  24  25
ENDBRANCH  23  24
ENDBRANCH  22  23
ENDBRANCH  21  22
ENDBRANCH  20  21
ENDBRANCH  19  20
ENDBRANCH  18  19
ENDBRANCH   1  18
TORSDOF 28
ENDMDL
MODEL 6
REMARK VINA RESULT:    -4.969      4.006      8.838
REMARK INTER + INTRA:         -16.763
REMARK INTER:                 -11.927
REMARK INTRA:                  -4.836
REMARK UNBOUND:                -3.659
REMARK SMILES CCCCCCCCCCCCCCCCCCCCCCCCCCCCCC(=O)[O-]
REMARK SMILES IDX 16 1 17 2 18 3 19 4 20 5 21 6 22 7 23 8 24 9 25 10 26 11
REMARK SMILES IDX 27 12 28 13 29 14 30 15 31 16 32 17 15 18 14 19 13 20 12 21
REMARK SMILES IDX 11 22 10 23 9 24 8 25 7 26 6 27 5 28 4 29 3 30 2 31 1 32
REMARK H PARENT
REMARK Flexibility Score: inf
ROOT
ATOM      1  C   UNL     1      13.091   2.819  12.458  1.00  0.00     0.000 C 
ENDROOT
BRANCH   1   2
ATOM      2  C   UNL     1      12.853   2.253  11.049  1.00  0.00     0.000 C 
BRANCH   2   3
ATOM      3  C   UNL     1      11.561   1.426  10.954  1.00  0.00     0.000 C 
BRANCH   3   4
ATOM      4  C   UNL     1      10.607   1.959   9.874  1.00  0.00     0.000 C 
BRANCH   4   5
ATOM      5  C   UNL     1      11.264   3.080   9.055  1.00  0.00     0.000 C 
BRANCH   5   6
ATOM      6  C   UNL     1      10.442   4.380   9.069  1.00  0.00     0.000 C 
BRANCH   6   7
ATOM      7  C   UNL     1       9.530   4.485  10.305  1.00  0.00     0.000 C 
BRANCH   7   8
ATOM      8  C   UNL     1      10.134   5.353  11.423  1.00  0.00     0.000 C 
BRANCH   8   9
ATOM      9  C   UNL     1      11.258   6.306  10.972  1.00  0.00     0.000 C 
BRANCH   9  10
ATOM     10  C   UNL     1      11.632   7.404  11.988  1.00  0.00     0.000 C 
BRANCH  10  11
ATOM     11  C   UNL     1      11.238   8.834  11.575  1.00  0.00     0.000 C 
BRANCH  11  12
ATOM     12  C   UNL     1      12.061   9.364  10.392  1.00  0.00     0.000 C 
BRANCH  12  13
ATOM     13  C   UNL     1      12.431  10.838  10.601  1.00  0.00     0.006 C 
BRANCH  13  14
ATOM     14  C   UNL     1      12.510  11.580   9.261  1.00  0.00     0.053 C 
BRANCH  14  15
ATOM     15  C   UNL     1      12.442  13.062   9.464  1.00  0.00     0.041 C 
ATOM     16  O   UNL     1      12.668  13.843   8.501  1.00  0.00    -0.550 OA
ATOM     17  O   UNL     1      12.108  13.583  10.711  1.00  0.00    -0.550 OA
ENDBRANCH  14  15
ENDBRANCH  13  14
ENDBRANCH  12  13
ENDBRANCH  11  12
ENDBRANCH  10  11
ENDBRANCH   9  10
ENDBRANCH   8   9
ENDBRANCH   7   8
ENDBRANCH   6   7
ENDBRANCH   5   6
ENDBRANCH   4   5
ENDBRANCH   3   4
ENDBRANCH   2   3
ENDBRANCH   1   2
BRANCH   1  18
ATOM     18  C   UNL     1      11.800   2.785  13.284  1.00  0.00     0.000 C 
BRANCH  18  19
ATOM     19  C   UNL     1      12.104   2.777  14.791  1.00  0.00     0.000 C 
BRANCH  19  20
ATOM     20  C   UNL     1      13.429   2.063  15.131  1.00  0.00     0.000 C 
BRANCH  20  21
ATOM     21  C   UNL     1      13.402   0.541  14.904  1.00  0.00     0.000 C 
BRANCH  21  22
ATOM     22  C   UNL     1      12.049  -0.147  15.168  1.00  0.00     0.000 C 
BRANCH  22  23
ATOM     23  C   UNL     1      11.417  -0.854  13.952  1.00  0.00     0.000 C 
BRANCH  23  24
ATOM     24  C   UNL     1       9.896  -1.040  14.090  1.00  0.00    -0.000 C 
BRANCH  24  25
ATOM     25  C   UNL     1       9.118   0.288  14.026  1.00  0.00    -0.000 C 
BRANCH  25  26
ATOM     26  C   UNL     1       8.431   0.711  15.338  1.00  0.00    -0.000 C 
BRANCH  26  27
ATOM     27  C   UNL     1       8.512   2.224  15.597  1.00  0.00    -0.000 C 
BRANCH  27  28
ATOM     28  C   UNL     1       8.317   3.016  14.296  1.00  0.00    -0.000 C 
BRANCH  28  29
ATOM     29  C   UNL     1       8.271   4.539  14.520  1.00  0.00    -0.000 C 
BRANCH  29  30
ATOM     30  C   UNL     1       9.263   5.038  15.592  1.00  0.00    -0.000 C 
BRANCH  30  31
ATOM     31  C   UNL     1      10.233   6.089  15.033  1.00  0.00    -0.003 C 
ATOM     32  C   UNL     1       9.831   7.497  15.461  1.00  0.00     0.004 C 
ENDBRANCH  30  31
ENDBRANCH  29  30
ENDBRANCH  28  29
ENDBRANCH  27  28
ENDBRANCH  26  27
ENDBRANCH  25  26
ENDBRANCH  24  25
ENDBRANCH  23  24
ENDBRANCH  22  23
ENDBRANCH  21  22
ENDBRANCH  20  21
ENDBRANCH  19  20
ENDBRANCH  18  19
ENDBRANCH   1  18
TORSDOF 28
ENDMDL
MODEL 7
REMARK VINA RESULT:    -4.955      3.882      9.656
REMARK INTER + INTRA:         -16.725
REMARK INTER:                 -11.207
REMARK INTRA:                  -5.518
REMARK UNBOUND:                -3.659
REMARK SMILES CCCCCCCCCCCCCCCCCCCCCCCCCCCCCC(=O)[O-]
REMARK SMILES IDX 16 1 17 2 18 3 19 4 20 5 21 6 22 7 23 8 24 9 25 10 26 11
REMARK SMILES IDX 27 12 28 13 29 14 30 15 31 16 32 17 15 18 14 19 13 20 12 21
REMARK SMILES IDX 11 22 10 23 9 24 8 25 7 26 6 27 5 28 4 29 3 30 2 31 1 32
REMARK H PARENT
REMARK Flexibility Score: inf
ROOT
ATOM      1  C   UNL     1      12.613   4.784  10.585  1.00  0.00     0.000 C 
ENDROOT
BRANCH   1   2
ATOM      2  C   UNL     1      13.570   3.918  11.419  1.00  0.00     0.000 C 
BRANCH   2   3
ATOM      3  C   UNL     1      13.099   2.459  11.534  1.00  0.00     0.000 C 
BRANCH   3   4
ATOM      4  C   UNL     1      12.963   2.005  12.996  1.00  0.00     0.000 C 
BRANCH   4   5
ATOM      5  C   UNL     1      12.023   2.932  13.782  1.00  0.00     0.000 C 
BRANCH   5   6
ATOM      6  C   UNL     1      10.569   2.855  13.285  1.00  0.00     0.000 C 
BRANCH   6   7
ATOM      7  C   UNL     1       9.877   4.231  13.281  1.00  0.00     0.000 C 
BRANCH   7   8
ATOM      8  C   UNL     1      10.471   5.202  14.316  1.00  0.00     0.000 C 
BRANCH   8   9
ATOM      9  C   UNL     1      10.367   6.694  13.945  1.00  0.00     0.000 C 
BRANCH   9  10
ATOM     10  C   UNL     1      10.485   7.006  12.440  1.00  0.00     0.000 C 
BRANCH  10  11
ATOM     11  C   UNL     1      11.666   7.914  12.054  1.00  0.00     0.000 C 
BRANCH  11  12
ATOM     12  C   UNL     1      11.701   8.248  10.555  1.00  0.00     0.000 C 
BRANCH  12  13
ATOM     13  C   UNL     1      12.086   9.716  10.332  1.00  0.00     0.006 C 
BRANCH  13  14
ATOM     14  C   UNL     1      11.875  10.540  11.607  1.00  0.00     0.053 C 
BRANCH  14  15
ATOM     15  C   UNL     1      11.753  11.999  11.290  1.00  0.00     0.041 C 
ATOM     16  O   UNL     1      11.022  12.740  11.999  1.00  0.00    -0.550 OA
ATOM     17  O   UNL     1      12.464  12.544  10.224  1.00  0.00    -0.550 OA
ENDBRANCH  14  15
ENDBRANCH  13  14
ENDBRANCH  12  13
ENDBRANCH  11  12
ENDBRANCH  10  11
ENDBRANCH   9  10
ENDBRANCH   8   9
ENDBRANCH   7   8
ENDBRANCH   6   7
ENDBRANCH   5   6
ENDBRANCH   4   5
ENDBRANCH   3   4
ENDBRANCH   2   3
ENDBRANCH   1   2
BRANCH   1  18
ATOM     18  C   UNL     1      11.624   3.909   9.807  1.00  0.00     0.000 C 
BRANCH  18  19
ATOM     19  C   UNL     1      10.333   4.680   9.486  1.00  0.00     0.000 C 
BRANCH  19  20
ATOM     20  C   UNL     1       9.132   3.752   9.214  1.00  0.00     0.000 C 
BRANCH  20  21
ATOM     21  C   UNL     1       9.186   2.411   9.969  1.00  0.00     0.000 C 
BRANCH  21  22
ATOM     22  C   UNL     1       8.949   1.154   9.111  1.00  0.00     0.000 C 
BRANCH  22  23
ATOM     23  C   UNL     1      10.203   0.568   8.434  1.00  0.00     0.000 C 
BRANCH  23  24
ATOM     24  C   UNL     1      11.323   0.231   9.433  1.00  0.00    -0.000 C 
BRANCH  24  25
ATOM     25  C   UNL     1      11.259  -1.222   9.942  1.00  0.00    -0.000 C 
BRANCH  25  26
ATOM     26  C   UNL     1      11.233  -1.383  11.474  1.00  0.00    -0.000 C 
BRANCH  26  27
ATOM     27  C   UNL     1      10.281  -0.395  12.165  1.00  0.00    -0.000 C 
BRANCH  27  28
ATOM     28  C   UNL     1       9.830  -0.929  13.532  1.00  0.00    -0.000 C 
BRANCH  28  29
ATOM     29  C   UNL     1      10.828  -0.613  14.661  1.00  0.00    -0.000 C 
BRANCH  29  30
ATOM     30  C   UNL     1      10.179   0.052  15.893  1.00  0.00    -0.000 C 
BRANCH  30  31
ATOM     31  C   UNL     1      11.179   0.919  16.673  1.00  0.00    -0.003 C 
ATOM     32  C   UNL     1      10.535   2.219  17.144  1.00  0.00     0.004 C 
ENDBRANCH  30  31
ENDBRANCH  29  30
ENDBRANCH  28  29
ENDBRANCH  27  28
ENDBRANCH  26  27
ENDBRANCH  25  26
ENDBRANCH  24  25
ENDBRANCH  23  24
ENDBRANCH  22  23
ENDBRANCH  21  22
ENDBRANCH  20  21
ENDBRANCH  19  20
ENDBRANCH  18  19
ENDBRANCH   1  18
TORSDOF 28
ENDMDL
MODEL 8
REMARK VINA RESULT:    -4.940      3.050      7.229
REMARK INTER + INTRA:         -16.686
REMARK INTER:                 -10.737
REMARK INTRA:                  -5.949
REMARK UNBOUND:                -3.659
REMARK SMILES CCCCCCCCCCCCCCCCCCCCCCCCCCCCCC(=O)[O-]
REMARK SMILES IDX 16 1 17 2 18 3 19 4 20 5 21 6 22 7 23 8 24 9 25 10 26 11
REMARK SMILES IDX 27 12 28 13 29 14 30 15 31 16 32 17 15 18 14 19 13 20 12 21
REMARK SMILES IDX 11 22 10 23 9 24 8 25 7 26 6 27 5 28 4 29 3 30 2 31 1 32
REMARK H PARENT
REMARK Flexibility Score: inf
ROOT
ATOM      1  C   UNL     1       9.516   5.340  15.221  1.00  0.00     0.000 C 
ENDROOT
BRANCH   1   2
ATOM      2  C   UNL     1      10.535   5.718  14.135  1.00  0.00     0.000 C 
BRANCH   2   3
ATOM      3  C   UNL     1      10.355   7.160  13.632  1.00  0.00     0.000 C 
BRANCH   3   4
ATOM      4  C   UNL     1      11.120   7.420  12.325  1.00  0.00     0.000 C 
BRANCH   4   5
ATOM      5  C   UNL     1      10.985   6.235  11.357  1.00  0.00     0.000 C 
BRANCH   5   6
ATOM      6  C   UNL     1      12.288   5.949  10.590  1.00  0.00     0.000 C 
BRANCH   6   7
ATOM      7  C   UNL     1      12.370   4.493  10.093  1.00  0.00     0.000 C 
BRANCH   7   8
ATOM      8  C   UNL     1      11.984   3.470  11.176  1.00  0.00     0.000 C 
BRANCH   8   9
ATOM      9  C   UNL     1      13.151   2.977  12.052  1.00  0.00     0.000 C 
BRANCH   9  10
ATOM     10  C   UNL     1      12.747   2.070  13.232  1.00  0.00     0.000 C 
BRANCH  10  11
ATOM     11  C   UNL     1      13.640   2.188  14.480  1.00  0.00     0.000 C 
BRANCH  11  12
ATOM     12  C   UNL     1      12.931   1.746  15.769  1.00  0.00     0.000 C 
BRANCH  12  13
ATOM     13  C   UNL     1      11.475   2.227  15.784  1.00  0.00     0.006 C 
BRANCH  13  14
ATOM     14  C   UNL     1      10.546   1.148  16.350  1.00  0.00     0.053 C 
BRANCH  14  15
ATOM     15  C   UNL     1      10.425   1.270  17.838  1.00  0.00     0.041 C 
ATOM     16  O   UNL     1      10.460   2.405  18.384  1.00  0.00    -0.550 OA
ATOM     17  O   UNL     1      10.252   0.132  18.621  1.00  0.00    -0.550 OA
ENDBRANCH  14  15
ENDBRANCH  13  14
ENDBRANCH  12  13
ENDBRANCH  11  12
ENDBRANCH  10  11
ENDBRANCH   9  10
ENDBRANCH   8   9
ENDBRANCH   7   8
ENDBRANCH   6   7
ENDBRANCH   5   6
ENDBRANCH   4   5
ENDBRANCH   3   4
ENDBRANCH   2   3
ENDBRANCH   1   2
BRANCH   1  18
ATOM     18  C   UNL     1       8.524   4.294  14.698  1.00  0.00     0.000 C 
BRANCH  18  19
ATOM     19  C   UNL     1       8.984   3.718  13.349  1.00  0.00     0.000 C 
BRANCH  19  20
ATOM     20  C   UNL     1       8.322   2.366  13.016  1.00  0.00     0.000 C 
BRANCH  20  21
ATOM     21  C   UNL     1       9.319   1.235  12.703  1.00  0.00     0.000 C 
BRANCH  21  22
ATOM     22  C   UNL     1       8.708  -0.173  12.574  1.00  0.00     0.000 C 
BRANCH  22  23
ATOM     23  C   UNL     1       9.622  -1.235  11.932  1.00  0.00     0.000 C 
BRANCH  23  24
ATOM     24  C   UNL     1      11.110  -0.848  11.969  1.00  0.00    -0.000 C 
BRANCH  24  25
ATOM     25  C   UNL     1      11.771  -0.860  10.578  1.00  0.00    -0.000 C 
BRANCH  25  26
ATOM     26  C   UNL     1      11.404   0.325   9.664  1.00  0.00    -0.000 C 
BRANCH  26  27
ATOM     27  C   UNL     1      10.653  -0.105   8.395  1.00  0.00    -0.000 C 
BRANCH  27  28
ATOM     28  C   UNL     1       9.157   0.226   8.500  1.00  0.00    -0.000 C 
BRANCH  28  29
ATOM     29  C   UNL     1       8.852   1.716   8.264  1.00  0.00    -0.000 C 
BRANCH  29  30
ATOM     30  C   UNL     1       8.174   2.408   9.465  1.00  0.00    -0.000 C 
BRANCH  30  31
ATOM     31  C   UNL     1       8.434   3.922   9.479  1.00  0.00    -0.003 C 
ATOM     32  C   UNL     1       9.383   4.331   8.357  1.00  0.00     0.004 C 
ENDBRANCH  30  31
ENDBRANCH  29  30
ENDBRANCH  28  29
ENDBRANCH  27  28
ENDBRANCH  26  27
ENDBRANCH  25  26
ENDBRANCH  24  25
ENDBRANCH  23  24
ENDBRANCH  22  23
ENDBRANCH  21  22
ENDBRANCH  20  21
ENDBRANCH  19  20
ENDBRANCH  18  19
ENDBRANCH   1  18
TORSDOF 28
ENDMDL
MODEL 9
REMARK VINA RESULT:    -4.936      3.492      7.400
REMARK INTER + INTRA:         -16.675
REMARK INTER:                 -10.191
REMARK INTRA:                  -6.484
REMARK UNBOUND:                -3.659
REMARK SMILES CCCCCCCCCCCCCCCCCCCCCCCCCCCCCC(=O)[O-]
REMARK SMILES IDX 16 1 17 2 18 3 19 4 20 5 21 6 22 7 23 8 24 9 25 10 26 11
REMARK SMILES IDX 27 12 28 13 29 14 30 15 31 16 32 17 15 18 14 19 13 20 12 21
REMARK SMILES IDX 11 22 10 23 9 24 8 25 7 26 6 27 5 28 4 29 3 30 2 31 1 32
REMARK H PARENT
REMARK Flexibility Score: inf
ROOT
ATOM      1  C   UNL     1      13.042   1.753  15.460  1.00  0.00     0.000 C 
ENDROOT
BRANCH   1   2
ATOM      2  C   UNL     1      12.187   0.547  15.880  1.00  0.00     0.000 C 
BRANCH   2   3
ATOM      3  C   UNL     1      11.469  -0.111  14.691  1.00  0.00     0.000 C 
BRANCH   3   4
ATOM      4  C   UNL     1       9.953   0.141  14.715  1.00  0.00     0.000 C 
BRANCH   4   5
ATOM      5  C   UNL     1       9.440   0.576  13.334  1.00  0.00     0.000 C 
BRANCH   5   6
ATOM      6  C   UNL     1       9.651   2.078  13.073  1.00  0.00     0.000 C 
BRANCH   6   7
ATOM      7  C   UNL     1       8.394   2.911  13.382  1.00  0.00     0.000 C 
BRANCH   7   8
ATOM      8  C   UNL     1       8.616   3.934  14.509  1.00  0.00     0.000 C 
BRANCH   8   9
ATOM      9  C   UNL     1      10.033   3.942  15.113  1.00  0.00     0.000 C 
BRANCH   9  10
ATOM     10  C   UNL     1      10.094   3.781  16.645  1.00  0.00     0.000 C 
BRANCH  10  11
ATOM     11  C   UNL     1       9.209   2.660  17.218  1.00  0.00     0.000 C 
BRANCH  11  12
ATOM     12  C   UNL     1       9.201   2.627  18.754  1.00  0.00     0.000 C 
BRANCH  12  13
ATOM     13  C   UNL     1      10.403   1.840  19.289  1.00  0.00     0.006 C 
BRANCH  13  14
ATOM     14  C   UNL     1      10.258   0.343  18.989  1.00  0.00     0.053 C 
BRANCH  14  15
ATOM     15  C   UNL     1      10.423  -0.473  20.234  1.00  0.00     0.041 C 
ATOM     16  O   UNL     1       9.722  -0.223  21.251  1.00  0.00    -0.550 OA
ATOM     17  O   UNL     1      11.336  -1.523  20.266  1.00  0.00    -0.550 OA
ENDBRANCH  14  15
ENDBRANCH  13  14
ENDBRANCH  12  13
ENDBRANCH  11  12
ENDBRANCH  10  11
ENDBRANCH   9  10
ENDBRANCH   8   9
ENDBRANCH   7   8
ENDBRANCH   6   7
ENDBRANCH   5   6
ENDBRANCH   4   5
ENDBRANCH   3   4
ENDBRANCH   2   3
ENDBRANCH   1   2
BRANCH   1  18
ATOM     18  C   UNL     1      13.481   1.626  13.997  1.00  0.00     0.000 C 
BRANCH  18  19
ATOM     19  C   UNL     1      13.101   2.880  13.192  1.00  0.00     0.000 C 
BRANCH  19  20
ATOM     20  C   UNL     1      13.107   2.640  11.669  1.00  0.00     0.000 C 
BRANCH  20  21
ATOM     21  C   UNL     1      12.696   1.216  11.253  1.00  0.00     0.000 C 
BRANCH  21  22
ATOM     22  C   UNL     1      11.974   1.102   9.897  1.00  0.00     0.000 C 
BRANCH  22  23
ATOM     23  C   UNL     1      10.692   0.246   9.900  1.00  0.00     0.000 C 
BRANCH  23  24
ATOM     24  C   UNL     1       9.934   0.294   8.563  1.00  0.00    -0.000 C 
BRANCH  24  25
ATOM     25  C   UNL     1       9.229   1.642   8.318  1.00  0.00    -0.000 C 
BRANCH  25  26
ATOM     26  C   UNL     1       8.506   2.239   9.540  1.00  0.00    -0.000 C 
BRANCH  26  27
ATOM     27  C   UNL     1       8.644   3.766   9.632  1.00  0.00    -0.000 C 
BRANCH  27  28
ATOM     28  C   UNL     1       9.938   4.244   8.958  1.00  0.00    -0.000 C 
BRANCH  28  29
ATOM     29  C   UNL     1      10.854   5.038   9.908  1.00  0.00    -0.000 C 
BRANCH  29  30
ATOM     30  C   UNL     1      10.216   5.330  11.283  1.00  0.00    -0.000 C 
BRANCH  30  31
ATOM     31  C   UNL     1      11.208   6.001  12.246  1.00  0.00    -0.003 C 
ATOM     32  C   UNL     1      10.501   6.985  13.172  1.00  0.00     0.004 C 
ENDBRANCH  30  31
ENDBRANCH  29  30
ENDBRANCH  28  29
ENDBRANCH  27  28
ENDBRANCH  26  27
ENDBRANCH  25  26
ENDBRANCH  24  25
ENDBRANCH  23  24
ENDBRANCH  22  23
ENDBRANCH  21  22
ENDBRANCH  20  21
ENDBRANCH  19  20
ENDBRANCH  18  19
ENDBRANCH   1  18
TORSDOF 28
ENDMDL
