MODEL 1
REMARK VINA RESULT:    -3.868      0.000      0.000
REMARK INTER + INTRA:          -7.672
REMARK INTER:                  -6.808
REMARK INTRA:                  -0.864
REMARK UNBOUND:                -0.864
REMARK SMILES CCCCCCCCCCCCCCC(=O)[O-]
REMARK SMILES IDX 9 1 10 2 11 3 12 4 13 5 14 6 15 7 16 8 17 9 8 10 7 11 6 12
REMARK SMILES IDX 5 13 4 14 3 15 2 16 1 17
REMARK H PARENT
REMARK Flexibility Score: inf
ROOT
ATOM      1  C   UNL     1     -31.493 -22.755 -34.006  1.00  0.00     0.000 C 
ENDROOT
BRANCH   1   2
ATOM      2  C   UNL     1     -30.899 -21.347 -33.830  1.00  0.00     0.000 C 
BRANCH   2   3
ATOM      3  C   UNL     1     -29.392 -21.366 -33.515  1.00  0.00     0.000 C 
BRANCH   3   4
ATOM      4  C   UNL     1     -28.835 -20.074 -32.888  1.00  0.00     0.000 C 
BRANCH   4   5
ATOM      5  C   UNL     1     -28.767 -20.132 -31.353  1.00  0.00     0.006 C 
BRANCH   5   6
ATOM      6  C   UNL     1     -30.132 -19.875 -30.702  1.00  0.00     0.053 C 
BRANCH   6   7
ATOM      7  C   UNL     1     -30.643 -21.087 -29.984  1.00  0.00     0.041 C 
ATOM      8  O   UNL     1     -31.409 -20.961 -28.993  1.00  0.00    -0.550 OA
ATOM      9  O   UNL     1     -30.293 -22.356 -30.428  1.00  0.00    -0.550 OA
ENDBRANCH   6   7
ENDBRANCH   5   6
ENDBRANCH   4   5
ENDBRANCH   3   4
ENDBRANCH   2   3
ENDBRANCH   1   2
BRANCH   1  10
ATOM     10  C   UNL     1     -32.611 -22.804 -35.064  1.00  0.00     0.000 C 
BRANCH  10  11
ATOM     11  C   UNL     1     -33.198 -21.437 -35.471  1.00  0.00    -0.000 C 
BRANCH  11  12
ATOM     12  C   UNL     1     -33.857 -21.394 -36.862  1.00  0.00    -0.000 C 
BRANCH  12  13
ATOM     13  C   UNL     1     -33.500 -22.613 -37.729  1.00  0.00    -0.000 C 
BRANCH  13  14
ATOM     14  C   UNL     1     -32.101 -22.500 -38.357  1.00  0.00    -0.000 C 
BRANCH  14  15
ATOM     15  C   UNL     1     -31.651 -23.806 -39.037  1.00  0.00    -0.000 C 
BRANCH  15  16
ATOM     16  C   UNL     1     -31.175 -24.861 -38.027  1.00  0.00    -0.003 C 
ATOM     17  C   UNL     1     -32.049 -26.115 -38.022  1.00  0.00     0.004 C 
ENDBRANCH  15  16
ENDBRANCH  14  15
ENDBRANCH  13  14
ENDBRANCH  12  13
ENDBRANCH  11  12
ENDBRANCH  10  11
ENDBRANCH   1  10
TORSDOF 13
ENDMDL
MODEL 2
REMARK VINA RESULT:    -3.836      1.201      1.934
REMARK INTER + INTRA:          -7.616
REMARK INTER:                  -6.798
REMARK INTRA:                  -0.818
REMARK UNBOUND:                -0.864
REMARK SMILES CCCCCCCCCCCCCCC(=O)[O-]
REMARK SMILES IDX 9 1 10 2 11 3 12 4 13 5 14 6 15 7 16 8 17 9 8 10 7 11 6 12
REMARK SMILES IDX 5 13 4 14 3 15 2 16 1 17
REMARK H PARENT
REMARK Flexibility Score: inf
ROOT
ATOM      1  C   UNL     1     -31.446 -22.447 -33.717  1.00  0.00     0.000 C 
ENDROOT
BRANCH   1   2
ATOM      2  C   UNL     1     -30.108 -21.740 -33.987  1.00  0.00     0.000 C 
BRANCH   2   3
ATOM      3  C   UNL     1     -29.968 -20.408 -33.226  1.00  0.00     0.000 C 
BRANCH   3   4
ATOM      4  C   UNL     1     -28.799 -20.341 -32.226  1.00  0.00     0.000 C 
BRANCH   4   5
ATOM      5  C   UNL     1     -29.250 -19.995 -30.797  1.00  0.00     0.006 C 
BRANCH   5   6
ATOM      6  C   UNL     1     -30.538 -20.729 -30.402  1.00  0.00     0.053 C 
BRANCH   6   7
ATOM      7  C   UNL     1     -30.257 -22.111 -29.896  1.00  0.00     0.041 C 
ATOM      8  O   UNL     1     -29.724 -22.278 -28.768  1.00  0.00    -0.550 OA
ATOM      9  O   UNL     1     -30.610 -23.216 -30.662  1.00  0.00    -0.550 OA
ENDBRANCH   6   7
ENDBRANCH   5   6
ENDBRANCH   4   5
ENDBRANCH   3   4
ENDBRANCH   2   3
ENDBRANCH   1   2
BRANCH   1  10
ATOM     10  C   UNL     1     -32.399 -22.407 -34.926  1.00  0.00     0.000 C 
BRANCH  10  11
ATOM     11  C   UNL     1     -32.402 -23.672 -35.809  1.00  0.00    -0.000 C 
BRANCH  11  12
ATOM     12  C   UNL     1     -32.660 -23.426 -37.307  1.00  0.00    -0.000 C 
BRANCH  12  13
ATOM     13  C   UNL     1     -31.557 -24.011 -38.205  1.00  0.00    -0.000 C 
BRANCH  13  14
ATOM     14  C   UNL     1     -31.239 -25.478 -37.870  1.00  0.00    -0.000 C 
BRANCH  14  15
ATOM     15  C   UNL     1     -32.043 -26.468 -38.732  1.00  0.00    -0.000 C 
BRANCH  15  16
ATOM     16  C   UNL     1     -33.183 -27.137 -37.947  1.00  0.00    -0.003 C 
ATOM     17  C   UNL     1     -33.910 -28.211 -38.756  1.00  0.00     0.004 C 
ENDBRANCH  15  16
ENDBRANCH  14  15
ENDBRANCH  13  14
ENDBRANCH  12  13
ENDBRANCH  11  12
ENDBRANCH  10  11
ENDBRANCH   1  10
TORSDOF 13
ENDMDL
MODEL 3
REMARK VINA RESULT:    -3.835      4.136      7.509
REMARK INTER + INTRA:          -7.613
REMARK INTER:                  -6.725
REMARK INTRA:                  -0.889
REMARK UNBOUND:                -0.864
REMARK SMILES CCCCCCCCCCCCCCC(=O)[O-]
REMARK SMILES IDX 9 1 10 2 11 3 12 4 13 5 14 6 15 7 16 8 17 9 8 10 7 11 6 12
REMARK SMILES IDX 5 13 4 14 3 15 2 16 1 17
REMARK H PARENT
REMARK Flexibility Score: inf
ROOT
ATOM      1  C   UNL     1     -32.720 -23.219 -35.624  1.00  0.00     0.000 C 
ENDROOT
BRANCH   1   2
ATOM      2  C   UNL     1     -31.320 -23.597 -36.135  1.00  0.00     0.000 C 
BRANCH   2   3
ATOM      3  C   UNL     1     -31.138 -23.329 -37.641  1.00  0.00     0.000 C 
BRANCH   3   4
ATOM      4  C   UNL     1     -31.785 -24.368 -38.577  1.00  0.00     0.000 C 
BRANCH   4   5
ATOM      5  C   UNL     1     -31.556 -25.817 -38.115  1.00  0.00     0.006 C 
BRANCH   5   6
ATOM      6  C   UNL     1     -32.872 -26.592 -37.968  1.00  0.00     0.053 C 
BRANCH   6   7
ATOM      7  C   UNL     1     -32.774 -27.968 -38.552  1.00  0.00     0.041 C 
ATOM      8  O   UNL     1     -33.810 -28.667 -38.707  1.00  0.00    -0.550 OA
ATOM      9  O   UNL     1     -31.540 -28.469 -38.948  1.00  0.00    -0.550 OA
ENDBRANCH   6   7
ENDBRANCH   5   6
ENDBRANCH   4   5
ENDBRANCH   3   4
ENDBRANCH   2   3
ENDBRANCH   1   2
BRANCH   1  10
ATOM     10  C   UNL     1     -33.177 -21.829 -36.103  1.00  0.00     0.000 C 
BRANCH  10  11
ATOM     11  C   UNL     1     -33.575 -20.841 -34.987  1.00  0.00    -0.000 C 
BRANCH  11  12
ATOM     12  C   UNL     1     -32.433 -19.956 -34.456  1.00  0.00    -0.000 C 
BRANCH  12  13
ATOM     13  C   UNL     1     -31.714 -20.573 -33.244  1.00  0.00    -0.000 C 
BRANCH  13  14
ATOM     14  C   UNL     1     -30.193 -20.352 -33.285  1.00  0.00    -0.000 C 
BRANCH  14  15
ATOM     15  C   UNL     1     -29.423 -21.385 -32.443  1.00  0.00    -0.000 C 
BRANCH  15  16
ATOM     16  C   UNL     1     -30.288 -21.998 -31.330  1.00  0.00    -0.003 C 
ATOM     17  C   UNL     1     -30.477 -21.058 -30.140  1.00  0.00     0.004 C 
ENDBRANCH  15  16
ENDBRANCH  14  15
ENDBRANCH  13  14
ENDBRANCH  12  13
ENDBRANCH  11  12
ENDBRANCH  10  11
ENDBRANCH   1  10
TORSDOF 13
ENDMDL
MODEL 4
REMARK VINA RESULT:    -3.308      2.867      7.172
REMARK INTER + INTRA:          -6.686
REMARK INTER:                  -5.535
REMARK INTRA:                  -1.152
REMARK UNBOUND:                -0.864
REMARK SMILES CCCCCCCCCCCCCCC(=O)[O-]
REMARK SMILES IDX 9 1 10 2 11 3 12 4 13 5 14 6 15 7 16 8 17 9 8 10 7 11 6 12
REMARK SMILES IDX 5 13 4 14 3 15 2 16 1 17
REMARK H PARENT
REMARK Flexibility Score: inf
ROOT
ATOM      1  C   UNL     1     -33.622 -21.360 -35.375  1.00  0.00     0.000 C 
ENDROOT
BRANCH   1   2
ATOM      2  C   UNL     1     -33.867 -20.946 -36.836  1.00  0.00     0.000 C 
BRANCH   2   3
ATOM      3  C   UNL     1     -33.673 -22.106 -37.829  1.00  0.00     0.000 C 
BRANCH   3   4
ATOM      4  C   UNL     1     -32.687 -21.829 -38.980  1.00  0.00     0.000 C 
BRANCH   4   5
ATOM      5  C   UNL     1     -31.588 -22.899 -39.099  1.00  0.00     0.006 C 
BRANCH   5   6
ATOM      6  C   UNL     1     -32.164 -24.320 -39.125  1.00  0.00     0.053 C 
BRANCH   6   7
ATOM      7  C   UNL     1     -31.500 -25.207 -38.117  1.00  0.00     0.041 C 
ATOM      8  O   UNL     1     -31.649 -26.456 -38.175  1.00  0.00    -0.550 OA
ATOM      9  O   UNL     1     -30.693 -24.655 -37.130  1.00  0.00    -0.550 OA
ENDBRANCH   6   7
ENDBRANCH   5   6
ENDBRANCH   4   5
ENDBRANCH   3   4
ENDBRANCH   2   3
ENDBRANCH   1   2
BRANCH   1  10
ATOM     10  C   UNL     1     -32.727 -22.608 -35.249  1.00  0.00     0.000 C 
BRANCH  10  11
ATOM     11  C   UNL     1     -31.455 -22.427 -34.395  1.00  0.00    -0.000 C 
BRANCH  11  12
ATOM     12  C   UNL     1     -31.289 -21.039 -33.749  1.00  0.00    -0.000 C 
BRANCH  12  13
ATOM     13  C   UNL     1     -29.845 -20.763 -33.296  1.00  0.00    -0.000 C 
BRANCH  13  14
ATOM     14  C   UNL     1     -29.782 -19.898 -32.026  1.00  0.00    -0.000 C 
BRANCH  14  15
ATOM     15  C   UNL     1     -30.779 -20.358 -30.947  1.00  0.00    -0.000 C 
BRANCH  15  16
ATOM     16  C   UNL     1     -30.173 -21.400 -29.994  1.00  0.00    -0.003 C 
ATOM     17  C   UNL     1     -30.386 -22.836 -30.472  1.00  0.00     0.004 C 
ENDBRANCH  15  16
ENDBRANCH  14  15
ENDBRANCH  13  14
ENDBRANCH  12  13
ENDBRANCH  11  12
ENDBRANCH  10  11
ENDBRANCH   1  10
TORSDOF 13
ENDMDL
MODEL 5
REMARK VINA RESULT:    -3.165      2.863      7.249
REMARK INTER + INTRA:          -6.435
REMARK INTER:                  -5.598
REMARK INTRA:                  -0.837
REMARK UNBOUND:                -0.864
REMARK SMILES CCCCCCCCCCCCCCC(=O)[O-]
REMARK SMILES IDX 9 1 10 2 11 3 12 4 13 5 14 6 15 7 16 8 17 9 8 10 7 11 6 12
REMARK SMILES IDX 5 13 4 14 3 15 2 16 1 17
REMARK H PARENT
REMARK Flexibility Score: inf
ROOT
ATOM      1  C   UNL     1     -31.592 -22.665 -34.468  1.00  0.00     0.000 C 
ENDROOT
BRANCH   1   2
ATOM      2  C   UNL     1     -33.006 -22.592 -35.069  1.00  0.00     0.000 C 
BRANCH   2   3
ATOM      3  C   UNL     1     -33.359 -21.194 -35.607  1.00  0.00     0.000 C 
BRANCH   3   4
ATOM      4  C   UNL     1     -33.470 -21.088 -37.140  1.00  0.00     0.000 C 
BRANCH   4   5
ATOM      5  C   UNL     1     -33.544 -22.459 -37.832  1.00  0.00     0.006 C 
BRANCH   5   6
ATOM      6  C   UNL     1     -32.276 -22.771 -38.637  1.00  0.00     0.053 C 
BRANCH   6   7
ATOM      7  C   UNL     1     -31.590 -24.006 -38.137  1.00  0.00     0.041 C 
ATOM      8  O   UNL     1     -30.704 -23.923 -37.246  1.00  0.00    -0.550 OA
ATOM      9  O   UNL     1     -31.949 -25.251 -38.637  1.00  0.00    -0.550 OA
ENDBRANCH   6   7
ENDBRANCH   5   6
ENDBRANCH   4   5
ENDBRANCH   3   4
ENDBRANCH   2   3
ENDBRANCH   1   2
BRANCH   1  10
ATOM     10  C   UNL     1     -31.283 -21.489 -33.523  1.00  0.00     0.000 C 
BRANCH  10  11
ATOM     11  C   UNL     1     -29.787 -21.247 -33.233  1.00  0.00    -0.000 C 
BRANCH  11  12
ATOM     12  C   UNL     1     -29.458 -19.905 -32.555  1.00  0.00    -0.000 C 
BRANCH  12  13
ATOM     13  C   UNL     1     -28.779 -20.081 -31.185  1.00  0.00    -0.000 C 
BRANCH  13  14
ATOM     14  C   UNL     1     -29.754 -19.875 -30.014  1.00  0.00    -0.000 C 
BRANCH  14  15
ATOM     15  C   UNL     1     -30.771 -21.023 -29.882  1.00  0.00    -0.000 C 
BRANCH  15  16
ATOM     16  C   UNL     1     -30.092 -22.393 -29.722  1.00  0.00    -0.003 C 
ATOM     17  C   UNL     1     -30.547 -23.407 -30.770  1.00  0.00     0.004 C 
ENDBRANCH  15  16
ENDBRANCH  14  15
ENDBRANCH  13  14
ENDBRANCH  12  13
ENDBRANCH  11  12
ENDBRANCH  10  11
ENDBRANCH   1  10
TORSDOF 13
ENDMDL
MODEL 6
REMARK VINA RESULT:    -2.877      3.455      7.653
REMARK INTER + INTRA:          -5.928
REMARK INTER:                  -5.156
REMARK INTRA:                  -0.771
REMARK UNBOUND:                -0.864
REMARK SMILES CCCCCCCCCCCCCCC(=O)[O-]
REMARK SMILES IDX 9 1 10 2 11 3 12 4 13 5 14 6 15 7 16 8 17 9 8 10 7 11 6 12
REMARK SMILES IDX 5 13 4 14 3 15 2 16 1 17
REMARK H PARENT
REMARK Flexibility Score: inf
ROOT
ATOM      1  C   UNL     1     -31.072 -22.462 -33.777  1.00  0.00     0.000 C 
ENDROOT
BRANCH   1   2
ATOM      2  C   UNL     1     -32.275 -22.687 -34.708  1.00  0.00     0.000 C 
BRANCH   2   3
ATOM      3  C   UNL     1     -33.067 -21.397 -34.988  1.00  0.00     0.000 C 
BRANCH   3   4
ATOM      4  C   UNL     1     -33.568 -21.234 -36.436  1.00  0.00     0.000 C 
BRANCH   4   5
ATOM      5  C   UNL     1     -33.643 -22.567 -37.199  1.00  0.00     0.006 C 
BRANCH   5   6
ATOM      6  C   UNL     1     -33.234 -22.417 -38.670  1.00  0.00     0.053 C 
BRANCH   6   7
ATOM      7  C   UNL     1     -31.846 -22.925 -38.915  1.00  0.00     0.041 C 
ATOM      8  O   UNL     1     -30.899 -22.117 -39.105  1.00  0.00    -0.550 OA
ATOM      9  O   UNL     1     -31.595 -24.291 -38.909  1.00  0.00    -0.550 OA
ENDBRANCH   6   7
ENDBRANCH   5   6
ENDBRANCH   4   5
ENDBRANCH   3   4
ENDBRANCH   2   3
ENDBRANCH   1   2
BRANCH   1  10
ATOM     10  C   UNL     1     -31.133 -21.113 -33.036  1.00  0.00     0.000 C 
BRANCH  10  11
ATOM     11  C   UNL     1     -30.008 -20.116 -33.382  1.00  0.00    -0.000 C 
BRANCH  11  12
ATOM     12  C   UNL     1     -28.792 -20.144 -32.438  1.00  0.00    -0.000 C 
BRANCH  12  13
ATOM     13  C   UNL     1     -29.171 -19.881 -30.971  1.00  0.00    -0.000 C 
BRANCH  13  14
ATOM     14  C   UNL     1     -29.434 -21.178 -30.188  1.00  0.00    -0.000 C 
BRANCH  14  15
ATOM     15  C   UNL     1     -30.839 -21.214 -29.559  1.00  0.00    -0.000 C 
BRANCH  15  16
ATOM     16  C   UNL     1     -31.623 -19.914 -29.800  1.00  0.00    -0.003 C 
ATOM     17  C   UNL     1     -32.953 -19.875 -29.047  1.00  0.00     0.004 C 
ENDBRANCH  15  16
ENDBRANCH  14  15
ENDBRANCH  13  14
ENDBRANCH  12  13
ENDBRANCH  11  12
ENDBRANCH  10  11
ENDBRANCH   1  10
TORSDOF 13
ENDMDL
MODEL 7
REMARK VINA RESULT:    -1.984      1.472      2.245
REMARK INTER + INTRA:          -4.355
REMARK INTER:                  -3.653
REMARK INTRA:                  -0.702
REMARK UNBOUND:                -0.864
REMARK SMILES CCCCCCCCCCCCCCC(=O)[O-]
REMARK SMILES IDX 9 1 10 2 11 3 12 4 13 5 14 6 15 7 16 8 17 9 8 10 7 11 6 12
REMARK SMILES IDX 5 13 4 14 3 15 2 16 1 17
REMARK H PARENT
REMARK Flexibility Score: inf
ROOT
ATOM      1  C   UNL     1     -33.403 -21.095 -35.013  1.00  0.00     0.000 C 
ENDROOT
BRANCH   1   2
ATOM      2  C   UNL     1     -32.554 -19.875 -34.619  1.00  0.00     0.000 C 
BRANCH   2   3
ATOM      3  C   UNL     1     -31.976 -19.980 -33.196  1.00  0.00     0.000 C 
BRANCH   3   4
ATOM      4  C   UNL     1     -30.442 -19.879 -33.100  1.00  0.00     0.000 C 
BRANCH   4   5
ATOM      5  C   UNL     1     -29.772 -21.220 -32.754  1.00  0.00     0.006 C 
BRANCH   5   6
ATOM      6  C   UNL     1     -30.074 -21.665 -31.318  1.00  0.00     0.053 C 
BRANCH   6   7
ATOM      7  C   UNL     1     -30.023 -20.516 -30.357  1.00  0.00     0.041 C 
ATOM      8  O   UNL     1     -31.067 -20.140 -29.762  1.00  0.00    -0.550 OA
ATOM      9  O   UNL     1     -28.816 -19.878 -30.101  1.00  0.00    -0.550 OA
ENDBRANCH   6   7
ENDBRANCH   5   6
ENDBRANCH   4   5
ENDBRANCH   3   4
ENDBRANCH   2   3
ENDBRANCH   1   2
BRANCH   1  10
ATOM     10  C   UNL     1     -33.496 -21.292 -36.537  1.00  0.00     0.000 C 
BRANCH  10  11
ATOM     11  C   UNL     1     -33.918 -22.703 -36.999  1.00  0.00    -0.000 C 
BRANCH  11  12
ATOM     12  C   UNL     1     -32.993 -23.847 -36.545  1.00  0.00    -0.000 C 
BRANCH  12  13
ATOM     13  C   UNL     1     -31.539 -23.657 -37.012  1.00  0.00    -0.000 C 
BRANCH  13  14
ATOM     14  C   UNL     1     -31.015 -24.861 -37.811  1.00  0.00    -0.000 C 
BRANCH  14  15
ATOM     15  C   UNL     1     -32.116 -25.542 -38.644  1.00  0.00    -0.000 C 
BRANCH  15  16
ATOM     16  C   UNL     1     -32.099 -27.072 -38.500  1.00  0.00    -0.003 C 
ATOM     17  C   UNL     1     -33.492 -27.663 -38.281  1.00  0.00     0.004 C 
ENDBRANCH  15  16
ENDBRANCH  14  15
ENDBRANCH  13  14
ENDBRANCH  12  13
ENDBRANCH  11  12
ENDBRANCH  10  11
ENDBRANCH   1  10
TORSDOF 13
ENDMDL
