MODEL 1
REMARK VINA RESULT:    -3.881      0.000      0.000
REMARK INTER + INTRA:          -5.765
REMARK INTER:                  -5.242
REMARK INTRA:                  -0.522
REMARK UNBOUND:                -0.522
REMARK SMILES CCCCCCCC(=O)[O-]
REMARK SMILES IDX 5 1 6 2 7 3 8 4 9 5 10 6 4 7 3 8 2 9 1 10
REMARK H PARENT
REMARK Flexibility Score: inf
ROOT
ATOM      1  C   UNL     1      61.134  28.730  13.365  1.00  0.00     0.000 C 
ENDROOT
BRANCH   1   2
ATOM      2  C   UNL     1      60.093  28.904  12.244  1.00  0.00     0.006 C 
BRANCH   2   3
ATOM      3  C   UNL     1      60.654  29.678  11.044  1.00  0.00     0.053 C 
BRANCH   3   4
ATOM      4  C   UNL     1      61.562  28.828  10.210  1.00  0.00     0.041 C 
ATOM      5  O   UNL     1      61.081  27.986   9.406  1.00  0.00    -0.550 OA
ATOM      6  O   UNL     1      62.938  28.989  10.298  1.00  0.00    -0.550 OA
ENDBRANCH   3   4
ENDBRANCH   2   3
ENDBRANCH   1   2
BRANCH   1   7
ATOM      7  C   UNL     1      61.915  30.032  13.640  1.00  0.00     0.000 C 
BRANCH   7   8
ATOM      8  C   UNL     1      61.506  30.731  14.947  1.00  0.00    -0.000 C 
BRANCH   8   9
ATOM      9  C   UNL     1      60.592  31.942  14.716  1.00  0.00    -0.003 C 
ATOM     10  C   UNL     1      60.912  32.627  13.391  1.00  0.00     0.004 C 
ENDBRANCH   8   9
ENDBRANCH   7   8
ENDBRANCH   1   7
TORSDOF 6
ENDMDL
MODEL 2
REMARK VINA RESULT:    -3.866      0.813      1.123
REMARK INTER + INTRA:          -5.745
REMARK INTER:                  -5.096
REMARK INTRA:                  -0.649
REMARK UNBOUND:                -0.522
REMARK SMILES CCCCCCCC(=O)[O-]
REMARK SMILES IDX 5 1 6 2 7 3 8 4 9 5 10 6 4 7 3 8 2 9 1 10
REMARK H PARENT
REMARK Flexibility Score: inf
ROOT
ATOM      1  C   UNL     1      61.514  28.831  13.345  1.00  0.00     0.000 C 
ENDROOT
BRANCH   1   2
ATOM      2  C   UNL     1      60.212  28.687  12.537  1.00  0.00     0.006 C 
BRANCH   2   3
ATOM      3  C   UNL     1      60.216  29.550  11.268  1.00  0.00     0.053 C 
BRANCH   3   4
ATOM      4  C   UNL     1      61.322  29.161  10.336  1.00  0.00     0.041 C 
ATOM      5  O   UNL     1      61.240  28.099   9.663  1.00  0.00    -0.550 OA
ATOM      6  O   UNL     1      62.427  29.988  10.186  1.00  0.00    -0.550 OA
ENDBRANCH   3   4
ENDBRANCH   2   3
ENDBRANCH   1   2
BRANCH   1   7
ATOM      7  C   UNL     1      61.603  30.192  14.067  1.00  0.00     0.000 C 
BRANCH   7   8
ATOM      8  C   UNL     1      62.776  31.065  13.591  1.00  0.00    -0.000 C 
BRANCH   8   9
ATOM      9  C   UNL     1      62.318  32.332  12.857  1.00  0.00    -0.003 C 
ATOM     10  C   UNL     1      60.889  32.705  13.243  1.00  0.00     0.004 C 
ENDBRANCH   8   9
ENDBRANCH   7   8
ENDBRANCH   1   7
TORSDOF 6
ENDMDL
MODEL 3
REMARK VINA RESULT:    -3.775     13.323     14.239
REMARK INTER + INTRA:          -5.621
REMARK INTER:                  -5.064
REMARK INTRA:                  -0.558
REMARK UNBOUND:                -0.522
REMARK SMILES CCCCCCCC(=O)[O-]
REMARK SMILES IDX 5 1 6 2 7 3 8 4 9 5 10 6 4 7 3 8 2 9 1 10
REMARK H PARENT
REMARK Flexibility Score: inf
ROOT
ATOM      1  C   UNL     1      62.817  29.087  24.722  1.00  0.00     0.000 C 
ENDROOT
BRANCH   1   2
ATOM      2  C   UNL     1      61.809  27.935  24.559  1.00  0.00     0.006 C 
BRANCH   2   3
ATOM      3  C   UNL     1      60.771  27.906  25.689  1.00  0.00     0.053 C 
BRANCH   3   4
ATOM      4  C   UNL     1      61.416  27.760  27.032  1.00  0.00     0.041 C 
ATOM      5  O   UNL     1      62.092  26.732  27.303  1.00  0.00    -0.550 OA
ATOM      6  O   UNL     1      61.299  28.774  27.973  1.00  0.00    -0.550 OA
ENDBRANCH   3   4
ENDBRANCH   2   3
ENDBRANCH   1   2
BRANCH   1   7
ATOM      7  C   UNL     1      64.267  28.632  24.455  1.00  0.00     0.000 C 
BRANCH   7   8
ATOM      8  C   UNL     1      64.938  27.966  25.668  1.00  0.00    -0.000 C 
BRANCH   8   9
ATOM      9  C   UNL     1      65.073  26.446  25.516  1.00  0.00    -0.003 C 
ATOM     10  C   UNL     1      65.097  26.040  24.045  1.00  0.00     0.004 C 
ENDBRANCH   8   9
ENDBRANCH   7   8
ENDBRANCH   1   7
TORSDOF 6
ENDMDL
MODEL 4
REMARK VINA RESULT:    -3.742     13.301     14.969
REMARK INTER + INTRA:          -5.576
REMARK INTER:                  -5.111
REMARK INTRA:                  -0.465
REMARK UNBOUND:                -0.522
REMARK SMILES CCCCCCCC(=O)[O-]
REMARK SMILES IDX 5 1 6 2 7 3 8 4 9 5 10 6 4 7 3 8 2 9 1 10
REMARK H PARENT
REMARK Flexibility Score: inf
ROOT
ATOM      1  C   UNL     1      62.594  29.741  25.300  1.00  0.00     0.000 C 
ENDROOT
BRANCH   1   2
ATOM      2  C   UNL     1      63.407  29.510  26.585  1.00  0.00     0.006 C 
BRANCH   2   3
ATOM      3  C   UNL     1      62.596  29.817  27.851  1.00  0.00     0.053 C 
BRANCH   3   4
ATOM      4  C   UNL     1      61.881  28.603  28.359  1.00  0.00     0.041 C 
ATOM      5  O   UNL     1      60.851  28.726  29.074  1.00  0.00    -0.550 OA
ATOM      6  O   UNL     1      62.333  27.335  28.015  1.00  0.00    -0.550 OA
ENDBRANCH   3   4
ENDBRANCH   2   3
ENDBRANCH   1   2
BRANCH   1   7
ATOM      7  C   UNL     1      62.182  28.416  24.625  1.00  0.00     0.000 C 
BRANCH   7   8
ATOM      8  C   UNL     1      63.356  27.666  23.974  1.00  0.00    -0.000 C 
BRANCH   8   9
ATOM      9  C   UNL     1      63.654  26.321  24.649  1.00  0.00    -0.003 C 
ATOM     10  C   UNL     1      64.954  26.381  25.446  1.00  0.00     0.004 C 
ENDBRANCH   8   9
ENDBRANCH   7   8
ENDBRANCH   1   7
TORSDOF 6
ENDMDL
MODEL 5
REMARK VINA RESULT:    -3.740      1.700      2.321
REMARK INTER + INTRA:          -5.574
REMARK INTER:                  -4.958
REMARK INTRA:                  -0.616
REMARK UNBOUND:                -0.522
REMARK SMILES CCCCCCCC(=O)[O-]
REMARK SMILES IDX 5 1 6 2 7 3 8 4 9 5 10 6 4 7 3 8 2 9 1 10
REMARK H PARENT
REMARK Flexibility Score: inf
ROOT
ATOM      1  C   UNL     1      63.199  30.123  13.703  1.00  0.00     0.000 C 
ENDROOT
BRANCH   1   2
ATOM      2  C   UNL     1      62.284  28.994  13.196  1.00  0.00     0.006 C 
BRANCH   2   3
ATOM      3  C   UNL     1      61.974  29.123  11.699  1.00  0.00     0.053 C 
BRANCH   3   4
ATOM      4  C   UNL     1      60.500  29.107  11.435  1.00  0.00     0.041 C 
ATOM      5  O   UNL     1      59.691  28.856  12.366  1.00  0.00    -0.550 OA
ATOM      6  O   UNL     1      60.019  29.402  10.165  1.00  0.00    -0.550 OA
ENDBRANCH   3   4
ENDBRANCH   2   3
ENDBRANCH   1   2
BRANCH   1   7
ATOM      7  C   UNL     1      63.214  31.333  12.746  1.00  0.00     0.000 C 
BRANCH   7   8
ATOM      8  C   UNL     1      62.455  32.556  13.289  1.00  0.00    -0.000 C 
BRANCH   8   9
ATOM      9  C   UNL     1      60.981  32.582  12.863  1.00  0.00    -0.003 C 
ATOM     10  C   UNL     1      60.071  32.134  14.003  1.00  0.00     0.004 C 
ENDBRANCH   8   9
ENDBRANCH   7   8
ENDBRANCH   1   7
TORSDOF 6
ENDMDL
MODEL 6
REMARK VINA RESULT:    -3.713      3.138      4.821
REMARK INTER + INTRA:          -5.537
REMARK INTER:                  -4.933
REMARK INTRA:                  -0.604
REMARK UNBOUND:                -0.522
REMARK SMILES CCCCCCCC(=O)[O-]
REMARK SMILES IDX 5 1 6 2 7 3 8 4 9 5 10 6 4 7 3 8 2 9 1 10
REMARK H PARENT
REMARK Flexibility Score: inf
ROOT
ATOM      1  C   UNL     1      62.046  31.965  12.580  1.00  0.00     0.000 C 
ENDROOT
BRANCH   1   2
ATOM      2  C   UNL     1      60.977  32.824  13.278  1.00  0.00     0.006 C 
BRANCH   2   3
ATOM      3  C   UNL     1      60.246  32.057  14.388  1.00  0.00     0.053 C 
BRANCH   3   4
ATOM      4  C   UNL     1      61.125  31.830  15.578  1.00  0.00     0.041 C 
ATOM      5  O   UNL     1      61.511  30.667  15.870  1.00  0.00    -0.550 OA
ATOM      6  O   UNL     1      61.546  32.908  16.346  1.00  0.00    -0.550 OA
ENDBRANCH   3   4
ENDBRANCH   2   3
ENDBRANCH   1   2
BRANCH   1   7
ATOM      7  C   UNL     1      61.437  30.726  11.891  1.00  0.00     0.000 C 
BRANCH   7   8
ATOM      8  C   UNL     1      62.046  29.395  12.365  1.00  0.00    -0.000 C 
BRANCH   8   9
ATOM      9  C   UNL     1      61.047  28.524  13.139  1.00  0.00    -0.003 C 
ATOM     10  C   UNL     1      59.649  28.622  12.536  1.00  0.00     0.004 C 
ENDBRANCH   8   9
ENDBRANCH   7   8
ENDBRANCH   1   7
TORSDOF 6
ENDMDL
MODEL 7
REMARK VINA RESULT:    -3.705      2.872      4.595
REMARK INTER + INTRA:          -5.527
REMARK INTER:                  -5.064
REMARK INTRA:                  -0.463
REMARK UNBOUND:                -0.522
REMARK SMILES CCCCCCCC(=O)[O-]
REMARK SMILES IDX 5 1 6 2 7 3 8 4 9 5 10 6 4 7 3 8 2 9 1 10
REMARK H PARENT
REMARK Flexibility Score: inf
ROOT
ATOM      1  C   UNL     1      61.951  28.986  13.395  1.00  0.00     0.000 C 
ENDROOT
BRANCH   1   2
ATOM      2  C   UNL     1      61.858  30.136  14.413  1.00  0.00     0.006 C 
BRANCH   2   3
ATOM      3  C   UNL     1      61.933  31.515  13.743  1.00  0.00     0.053 C 
BRANCH   3   4
ATOM      4  C   UNL     1      60.715  32.338  14.029  1.00  0.00     0.041 C 
ATOM      5  O   UNL     1      59.569  31.820  13.962  1.00  0.00    -0.550 OA
ATOM      6  O   UNL     1      60.848  33.669  14.402  1.00  0.00    -0.550 OA
ENDBRANCH   3   4
ENDBRANCH   2   3
ENDBRANCH   1   2
BRANCH   1   7
ATOM      7  C   UNL     1      60.560  28.464  12.978  1.00  0.00     0.000 C 
BRANCH   7   8
ATOM      8  C   UNL     1      60.093  28.980  11.607  1.00  0.00    -0.000 C 
BRANCH   8   9
ATOM      9  C   UNL     1      61.253  29.205  10.628  1.00  0.00    -0.003 C 
ATOM     10  C   UNL     1      61.133  28.290   9.413  1.00  0.00     0.004 C 
ENDBRANCH   8   9
ENDBRANCH   7   8
ENDBRANCH   1   7
TORSDOF 6
ENDMDL
MODEL 8
REMARK VINA RESULT:    -3.678     13.256     14.396
REMARK INTER + INTRA:          -5.491
REMARK INTER:                  -5.078
REMARK INTRA:                  -0.412
REMARK UNBOUND:                -0.522
REMARK SMILES CCCCCCCC(=O)[O-]
REMARK SMILES IDX 5 1 6 2 7 3 8 4 9 5 10 6 4 7 3 8 2 9 1 10
REMARK H PARENT
REMARK Flexibility Score: inf
ROOT
ATOM      1  C   UNL     1      63.007  28.208  24.251  1.00  0.00     0.000 C 
ENDROOT
BRANCH   1   2
ATOM      2  C   UNL     1      62.273  29.365  24.953  1.00  0.00     0.006 C 
BRANCH   2   3
ATOM      3  C   UNL     1      63.173  30.104  25.952  1.00  0.00     0.053 C 
BRANCH   3   4
ATOM      4  C   UNL     1      62.723  29.893  27.365  1.00  0.00     0.041 C 
ATOM      5  O   UNL     1      61.817  29.058  27.625  1.00  0.00    -0.550 OA
ATOM      6  O   UNL     1      63.329  30.596  28.399  1.00  0.00    -0.550 OA
ENDBRANCH   3   4
ENDBRANCH   2   3
ENDBRANCH   1   2
BRANCH   1   7
ATOM      7  C   UNL     1      62.949  26.902  25.070  1.00  0.00     0.000 C 
BRANCH   7   8
ATOM      8  C   UNL     1      64.335  26.341  25.434  1.00  0.00    -0.000 C 
BRANCH   8   9
ATOM      9  C   UNL     1      65.450  26.866  24.519  1.00  0.00    -0.003 C 
ATOM     10  C   UNL     1      65.772  25.864  23.414  1.00  0.00     0.004 C 
ENDBRANCH   8   9
ENDBRANCH   7   8
ENDBRANCH   1   7
TORSDOF 6
ENDMDL
MODEL 9
REMARK VINA RESULT:    -3.655     12.781     13.934
REMARK INTER + INTRA:          -5.459
REMARK INTER:                  -5.133
REMARK INTRA:                  -0.326
REMARK UNBOUND:                -0.522
REMARK SMILES CCCCCCCC(=O)[O-]
REMARK SMILES IDX 5 1 6 2 7 3 8 4 9 5 10 6 4 7 3 8 2 9 1 10
REMARK H PARENT
REMARK Flexibility Score: inf
ROOT
ATOM      1  C   UNL     1      63.810  26.383  25.691  1.00  0.00     0.000 C 
ENDROOT
BRANCH   1   2
ATOM      2  C   UNL     1      63.281  27.809  25.923  1.00  0.00     0.006 C 
BRANCH   2   3
ATOM      3  C   UNL     1      61.893  28.023  25.305  1.00  0.00     0.053 C 
BRANCH   3   4
ATOM      4  C   UNL     1      60.832  27.270  26.047  1.00  0.00     0.041 C 
ATOM      5  O   UNL     1      60.895  27.154  27.299  1.00  0.00    -0.550 OA
ATOM      6  O   UNL     1      59.756  26.725  25.358  1.00  0.00    -0.550 OA
ENDBRANCH   3   4
ENDBRANCH   2   3
ENDBRANCH   1   2
BRANCH   1   7
ATOM      7  C   UNL     1      65.269  26.379  25.188  1.00  0.00     0.000 C 
BRANCH   7   8
ATOM      8  C   UNL     1      65.408  26.003  23.703  1.00  0.00    -0.000 C 
BRANCH   8   9
ATOM      9  C   UNL     1      66.280  26.989  22.916  1.00  0.00    -0.003 C 
ATOM     10  C   UNL     1      66.547  28.255  23.726  1.00  0.00     0.004 C 
ENDBRANCH   8   9
ENDBRANCH   7   8
ENDBRANCH   1   7
TORSDOF 6
ENDMDL
