MODEL 1
REMARK VINA RESULT:    -3.059      0.000      0.000
REMARK INTER + INTRA:          -3.866
REMARK INTER:                  -3.685
REMARK INTRA:                  -0.181
REMARK UNBOUND:                -0.181
REMARK SMILES OCC(O)CO
REMARK SMILES IDX 3 1 5 2 6 3 2 5 1 6 4 8
REMARK H PARENT 6 4 1 7 4 9
REMARK Flexibility Score: inf
ROOT
ATOM      1  C   UNL     1     102.553 115.625 126.306  1.00  0.00     0.165 C 
ENDROOT
BRANCH   1   2
ATOM      2  C   UNL     1     103.891 116.184 126.811  1.00  0.00     0.190 C 
BRANCH   2   3
ATOM      3  O   UNL     1     104.372 115.413 127.879  1.00  0.00    -0.394 OA
ATOM      4  H   UNL     1     103.888 115.718 128.691  1.00  0.00     0.210 HD
ENDBRANCH   2   3
ENDBRANCH   1   2
BRANCH   1   5
ATOM      5  C   UNL     1     102.716 114.190 125.781  1.00  0.00     0.190 C 
BRANCH   5   6
ATOM      6  O   UNL     1     103.048 113.309 126.822  1.00  0.00    -0.394 OA
ATOM      7  H   UNL     1     102.190 113.003 127.219  1.00  0.00     0.210 HD
ENDBRANCH   5   6
ENDBRANCH   1   5
BRANCH   1   8
ATOM      8  O   UNL     1     102.071 116.450 125.277  1.00  0.00    -0.388 OA
ATOM      9  H   UNL     1     101.814 117.313 125.698  1.00  0.00     0.211 HD
ENDBRANCH   1   8
TORSDOF 5
ENDMDL
MODEL 2
REMARK VINA RESULT:    -3.037      1.141      2.733
REMARK INTER + INTRA:          -3.840
REMARK INTER:                  -3.812
REMARK INTRA:                  -0.028
REMARK UNBOUND:                -0.181
REMARK SMILES OCC(O)CO
REMARK SMILES IDX 3 1 5 2 6 3 2 5 1 6 4 8
REMARK H PARENT 6 4 1 7 4 9
REMARK Flexibility Score: inf
ROOT
ATOM      1  C   UNL     1     102.717 114.797 126.039  1.00  0.00     0.165 C 
ENDROOT
BRANCH   1   2
ATOM      2  C   UNL     1     103.051 114.733 124.542  1.00  0.00     0.190 C 
BRANCH   2   3
ATOM      3  O   UNL     1     103.931 115.768 124.193  1.00  0.00    -0.394 OA
ATOM      4  H   UNL     1     104.553 115.884 124.959  1.00  0.00     0.210 HD
ENDBRANCH   2   3
ENDBRANCH   1   2
BRANCH   1   5
ATOM      5  C   UNL     1     103.541 115.884 126.746  1.00  0.00     0.190 C 
BRANCH   5   6
ATOM      6  O   UNL     1     104.280 115.344 127.809  1.00  0.00    -0.394 OA
ATOM      7  H   UNL     1     105.035 114.843 127.404  1.00  0.00     0.210 HD
ENDBRANCH   5   6
ENDBRANCH   1   5
BRANCH   1   8
ATOM      8  O   UNL     1     102.987 113.549 126.622  1.00  0.00    -0.388 OA
ATOM      9  H   UNL     1     103.114 112.905 125.876  1.00  0.00     0.211 HD
ENDBRANCH   1   8
TORSDOF 5
ENDMDL
MODEL 3
REMARK VINA RESULT:    -2.990      4.284      5.271
REMARK INTER + INTRA:          -3.783
REMARK INTER:                  -3.559
REMARK INTRA:                  -0.224
REMARK UNBOUND:                -0.181
REMARK SMILES OCC(O)CO
REMARK SMILES IDX 3 1 5 2 6 3 2 5 1 6 4 8
REMARK H PARENT 6 4 1 7 4 9
REMARK Flexibility Score: inf
ROOT
ATOM      1  C   UNL     1     100.632 118.349 124.694  1.00  0.00     0.165 C 
ENDROOT
BRANCH   1   2
ATOM      2  C   UNL     1     100.945 118.156 126.184  1.00  0.00     0.190 C 
BRANCH   2   3
ATOM      3  O   UNL     1      99.768 118.216 126.944  1.00  0.00    -0.394 OA
ATOM      4  H   UNL     1      99.919 118.898 127.650  1.00  0.00     0.210 HD
ENDBRANCH   2   3
ENDBRANCH   1   2
BRANCH   1   5
ATOM      5  C   UNL     1      99.876 119.664 124.452  1.00  0.00     0.190 C 
BRANCH   5   6
ATOM      6  O   UNL     1     100.265 120.646 125.376  1.00  0.00    -0.394 OA
ATOM      7  H   UNL     1     100.596 121.418 124.847  1.00  0.00     0.210 HD
ENDBRANCH   5   6
ENDBRANCH   1   5
BRANCH   1   8
ATOM      8  O   UNL     1      99.854 117.269 124.246  1.00  0.00    -0.388 OA
ATOM      9  H   UNL     1      99.407 117.565 123.410  1.00  0.00     0.211 HD
ENDBRANCH   1   8
TORSDOF 5
ENDMDL
MODEL 4
REMARK VINA RESULT:    -2.973      0.705      2.234
REMARK INTER + INTRA:          -3.762
REMARK INTER:                  -3.581
REMARK INTRA:                  -0.181
REMARK UNBOUND:                -0.181
REMARK SMILES OCC(O)CO
REMARK SMILES IDX 3 1 5 2 6 3 2 5 1 6 4 8
REMARK H PARENT 6 4 1 7 4 9
REMARK Flexibility Score: inf
ROOT
ATOM      1  C   UNL     1     103.123 115.111 125.531  1.00  0.00     0.165 C 
ENDROOT
BRANCH   1   2
ATOM      2  C   UNL     1     102.587 113.686 125.731  1.00  0.00     0.190 C 
BRANCH   2   3
ATOM      3  O   UNL     1     103.170 113.098 126.863  1.00  0.00    -0.394 OA
ATOM      4  H   UNL     1     104.000 113.609 127.054  1.00  0.00     0.210 HD
ENDBRANCH   2   3
ENDBRANCH   1   2
BRANCH   1   5
ATOM      5  C   UNL     1     103.178 115.874 126.864  1.00  0.00     0.190 C 
BRANCH   5   6
ATOM      6  O   UNL     1     104.258 115.440 127.648  1.00  0.00    -0.394 OA
ATOM      7  H   UNL     1     104.341 114.462 127.499  1.00  0.00     0.210 HD
ENDBRANCH   5   6
ENDBRANCH   1   5
BRANCH   1   8
ATOM      8  O   UNL     1     102.288 115.793 124.633  1.00  0.00    -0.388 OA
ATOM      9  H   UNL     1     101.570 115.158 124.370  1.00  0.00     0.211 HD
ENDBRANCH   1   8
TORSDOF 5
ENDMDL
MODEL 5
REMARK VINA RESULT:    -2.952      4.365      4.947
REMARK INTER + INTRA:          -3.737
REMARK INTER:                  -3.718
REMARK INTRA:                  -0.019
REMARK UNBOUND:                -0.181
REMARK SMILES OCC(O)CO
REMARK SMILES IDX 3 1 5 2 6 3 2 5 1 6 4 8
REMARK H PARENT 6 4 1 7 4 9
REMARK Flexibility Score: inf
ROOT
ATOM      1  C   UNL     1     100.513 118.655 125.058  1.00  0.00     0.165 C 
ENDROOT
BRANCH   1   2
ATOM      2  C   UNL     1     100.821 117.566 124.020  1.00  0.00     0.190 C 
BRANCH   2   3
ATOM      3  O   UNL     1      99.659 116.849 123.702  1.00  0.00    -0.394 OA
ATOM      4  H   UNL     1      99.210 117.346 122.968  1.00  0.00     0.210 HD
ENDBRANCH   2   3
ENDBRANCH   1   2
BRANCH   1   5
ATOM      5  C   UNL     1     100.780 118.151 126.485  1.00  0.00     0.190 C 
BRANCH   5   6
ATOM      6  O   UNL     1      99.614 118.202 127.263  1.00  0.00    -0.394 OA
ATOM      7  H   UNL     1      99.139 117.342 127.118  1.00  0.00     0.210 HD
ENDBRANCH   5   6
ENDBRANCH   1   5
BRANCH   1   8
ATOM      8  O   UNL     1      99.167 119.034 124.937  1.00  0.00    -0.388 OA
ATOM      9  H   UNL     1      98.758 118.933 125.837  1.00  0.00     0.211 HD
ENDBRANCH   1   8
TORSDOF 5
ENDMDL
MODEL 6
REMARK VINA RESULT:    -2.889      3.170      4.535
REMARK INTER + INTRA:          -3.661
REMARK INTER:                  -3.438
REMARK INTRA:                  -0.223
REMARK UNBOUND:                -0.181
REMARK SMILES OCC(O)CO
REMARK SMILES IDX 3 1 5 2 6 3 2 5 1 6 4 8
REMARK H PARENT 6 4 1 7 4 9
REMARK Flexibility Score: inf
ROOT
ATOM      1  C   UNL     1     100.894 118.487 126.369  1.00  0.00     0.165 C 
ENDROOT
BRANCH   1   2
ATOM      2  C   UNL     1     100.480 119.212 125.081  1.00  0.00     0.190 C 
BRANCH   2   3
ATOM      3  O   UNL     1      99.299 118.660 124.566  1.00  0.00    -0.394 OA
ATOM      4  H   UNL     1      98.546 119.137 125.003  1.00  0.00     0.210 HD
ENDBRANCH   2   3
ENDBRANCH   1   2
BRANCH   1   5
ATOM      5  C   UNL     1     101.683 117.206 126.054  1.00  0.00     0.190 C 
BRANCH   5   6
ATOM      6  O   UNL     1     101.612 116.896 124.687  1.00  0.00    -0.394 OA
ATOM      7  H   UNL     1     100.971 116.142 124.601  1.00  0.00     0.210 HD
ENDBRANCH   5   6
ENDBRANCH   1   5
BRANCH   1   8
ATOM      8  O   UNL     1      99.742 118.161 127.102  1.00  0.00    -0.388 OA
ATOM      9  H   UNL     1     100.048 117.842 127.992  1.00  0.00     0.211 HD
ENDBRANCH   1   8
TORSDOF 5
ENDMDL
MODEL 7
REMARK VINA RESULT:    -2.846     23.949     24.287
REMARK INTER + INTRA:          -3.609
REMARK INTER:                  -3.606
REMARK INTRA:                  -0.003
REMARK UNBOUND:                -0.181
REMARK SMILES OCC(O)CO
REMARK SMILES IDX 3 1 5 2 6 3 2 5 1 6 4 8
REMARK H PARENT 6 4 1 7 4 9
REMARK Flexibility Score: inf
ROOT
ATOM      1  C   UNL     1      86.261 111.205 109.718  1.00  0.00     0.165 C 
ENDROOT
BRANCH   1   2
ATOM      2  C   UNL     1      87.038 112.244 108.898  1.00  0.00     0.190 C 
BRANCH   2   3
ATOM      3  O   UNL     1      86.718 113.542 109.323  1.00  0.00    -0.394 OA
ATOM      4  H   UNL     1      87.281 113.728 110.120  1.00  0.00     0.210 HD
ENDBRANCH   2   3
ENDBRANCH   1   2
BRANCH   1   5
ATOM      5  C   UNL     1      86.519 109.782 109.196  1.00  0.00     0.190 C 
BRANCH   5   6
ATOM      6  O   UNL     1      86.273 108.828 110.195  1.00  0.00    -0.394 OA
ATOM      7  H   UNL     1      87.029 108.185 110.165  1.00  0.00     0.210 HD
ENDBRANCH   5   6
ENDBRANCH   1   5
BRANCH   1   8
ATOM      8  O   UNL     1      84.889 111.492 109.640  1.00  0.00    -0.388 OA
ATOM      9  H   UNL     1      84.773 112.425 109.962  1.00  0.00     0.211 HD
ENDBRANCH   1   8
TORSDOF 5
ENDMDL
MODEL 8
REMARK VINA RESULT:    -2.838     13.435     14.213
REMARK INTER + INTRA:          -3.599
REMARK INTER:                  -3.396
REMARK INTRA:                  -0.203
REMARK UNBOUND:                -0.181
REMARK SMILES OCC(O)CO
REMARK SMILES IDX 3 1 5 2 6 3 2 5 1 6 4 8
REMARK H PARENT 6 4 1 7 4 9
REMARK Flexibility Score: inf
ROOT
ATOM      1  C   UNL     1      98.073 110.352 114.419  1.00  0.00     0.165 C 
ENDROOT
BRANCH   1   2
ATOM      2  C   UNL     1      96.727 109.864 113.866  1.00  0.00     0.190 C 
BRANCH   2   3
ATOM      3  O   UNL     1      95.890 109.449 114.911  1.00  0.00    -0.394 OA
ATOM      4  H   UNL     1      96.463 109.358 115.716  1.00  0.00     0.210 HD
ENDBRANCH   2   3
ENDBRANCH   1   2
BRANCH   1   5
ATOM      5  C   UNL     1      99.114 109.222 114.420  1.00  0.00     0.190 C 
BRANCH   5   6
ATOM      6  O   UNL     1      98.675 108.135 115.191  1.00  0.00    -0.394 OA
ATOM      7  H   UNL     1      98.814 108.386 116.141  1.00  0.00     0.210 HD
ENDBRANCH   5   6
ENDBRANCH   1   5
BRANCH   1   8
ATOM      8  O   UNL     1      97.887 110.822 115.728  1.00  0.00    -0.388 OA
ATOM      9  H   UNL     1      97.792 111.809 115.669  1.00  0.00     0.211 HD
ENDBRANCH   1   8
TORSDOF 5
ENDMDL
MODEL 9
REMARK VINA RESULT:    -2.831      4.233      5.068
REMARK INTER + INTRA:          -3.590
REMARK INTER:                  -3.369
REMARK INTRA:                  -0.221
REMARK UNBOUND:                -0.181
REMARK SMILES OCC(O)CO
REMARK SMILES IDX 3 1 5 2 6 3 2 5 1 6 4 8
REMARK H PARENT 6 4 1 7 4 9
REMARK Flexibility Score: inf
ROOT
ATOM      1  C   UNL     1     100.341 118.333 124.909  1.00  0.00     0.165 C 
ENDROOT
BRANCH   1   2
ATOM      2  C   UNL     1     100.136 119.808 124.536  1.00  0.00     0.190 C 
BRANCH   2   3
ATOM      3  O   UNL     1     100.364 120.631 125.648  1.00  0.00    -0.394 OA
ATOM      4  H   UNL     1     101.344 120.784 125.694  1.00  0.00     0.210 HD
ENDBRANCH   2   3
ENDBRANCH   1   2
BRANCH   1   5
ATOM      5  C   UNL     1     100.779 118.188 126.375  1.00  0.00     0.190 C 
BRANCH   5   6
ATOM      6  O   UNL     1      99.670 118.189 127.234  1.00  0.00    -0.394 OA
ATOM      7  H   UNL     1      98.871 118.029 126.665  1.00  0.00     0.210 HD
ENDBRANCH   5   6
ENDBRANCH   1   5
BRANCH   1   8
ATOM      8  O   UNL     1     101.319 117.780 124.068  1.00  0.00    -0.388 OA
ATOM      9  H   UNL     1     101.693 118.527 123.531  1.00  0.00     0.211 HD
ENDBRANCH   1   8
TORSDOF 5
ENDMDL
