MODEL 1
REMARK VINA RESULT:    -3.656      0.000      0.000
REMARK INTER + INTRA:         -13.816
REMARK INTER:                  -9.640
REMARK INTRA:                  -4.176
REMARK UNBOUND:                -4.176
REMARK SMILES CCCCCCCCCCCCCCCCCCCCCCCCCCCCCC(=O)[O-]
REMARK SMILES IDX 16 1 17 2 18 3 19 4 20 5 21 6 22 7 23 8 24 9 25 10 26 11
REMARK SMILES IDX 27 12 28 13 29 14 30 15 31 16 32 17 15 18 14 19 13 20 12 21
REMARK SMILES IDX 11 22 10 23 9 24 8 25 7 26 6 27 5 28 4 29 3 30 2 31 1 32
REMARK H PARENT
REMARK Flexibility Score: inf
ROOT
ATOM      1  C   UNL     1      64.453  31.171  58.124  1.00  0.00     0.000 C 
ENDROOT
BRANCH   1   2
ATOM      2  C   UNL     1      64.621  29.645  58.163  1.00  0.00     0.000 C 
BRANCH   2   3
ATOM      3  C   UNL     1      66.066  29.218  58.479  1.00  0.00     0.000 C 
BRANCH   3   4
ATOM      4  C   UNL     1      66.155  27.779  59.011  1.00  0.00     0.000 C 
BRANCH   4   5
ATOM      5  C   UNL     1      66.249  27.720  60.543  1.00  0.00     0.000 C 
BRANCH   5   6
ATOM      6  C   UNL     1      66.749  29.056  61.114  1.00  0.00     0.000 C 
BRANCH   6   7
ATOM      7  C   UNL     1      67.960  28.885  62.045  1.00  0.00     0.000 C 
BRANCH   7   8
ATOM      8  C   UNL     1      69.216  29.607  61.524  1.00  0.00     0.000 C 
BRANCH   8   9
ATOM      9  C   UNL     1      69.935  28.815  60.422  1.00  0.00     0.000 C 
BRANCH   9  10
ATOM     10  C   UNL     1      71.318  29.399  60.084  1.00  0.00     0.000 C 
BRANCH  10  11
ATOM     11  C   UNL     1      72.000  30.046  61.299  1.00  0.00     0.000 C 
BRANCH  11  12
ATOM     12  C   UNL     1      72.419  31.503  61.033  1.00  0.00     0.000 C 
BRANCH  12  13
ATOM     13  C   UNL     1      71.625  32.150  59.882  1.00  0.00     0.006 C 
BRANCH  13  14
ATOM     14  C   UNL     1      71.264  33.624  60.129  1.00  0.00     0.053 C 
BRANCH  14  15
ATOM     15  C   UNL     1      70.861  34.331  58.872  1.00  0.00     0.041 C 
ATOM     16  O   UNL     1      70.038  35.283  58.916  1.00  0.00    -0.550 OA
ATOM     17  O   UNL     1      71.392  33.935  57.650  1.00  0.00    -0.550 OA
ENDBRANCH  14  15
ENDBRANCH  13  14
ENDBRANCH  12  13
ENDBRANCH  11  12
ENDBRANCH  10  11
ENDBRANCH   9  10
ENDBRANCH   8   9
ENDBRANCH   7   8
ENDBRANCH   6   7
ENDBRANCH   5   6
ENDBRANCH   4   5
ENDBRANCH   3   4
ENDBRANCH   2   3
ENDBRANCH   1   2
BRANCH   1  18
ATOM     18  C   UNL     1      64.822  31.839  59.460  1.00  0.00     0.000 C 
BRANCH  18  19
ATOM     19  C   UNL     1      64.413  33.322  59.516  1.00  0.00     0.000 C 
BRANCH  19  20
ATOM     20  C   UNL     1      63.909  33.802  60.893  1.00  0.00     0.000 C 
BRANCH  20  21
ATOM     21  C   UNL     1      62.489  34.404  60.894  1.00  0.00     0.000 C 
BRANCH  21  22
ATOM     22  C   UNL     1      61.446  33.614  60.078  1.00  0.00     0.000 C 
BRANCH  22  23
ATOM     23  C   UNL     1      60.765  32.460  60.839  1.00  0.00     0.000 C 
BRANCH  23  24
ATOM     24  C   UNL     1      61.403  31.073  60.625  1.00  0.00    -0.000 C 
BRANCH  24  25
ATOM     25  C   UNL     1      62.153  30.507  61.846  1.00  0.00    -0.000 C 
BRANCH  25  26
ATOM     26  C   UNL     1      63.008  29.278  61.502  1.00  0.00    -0.000 C 
BRANCH  26  27
ATOM     27  C   UNL     1      62.137  28.029  61.319  1.00  0.00    -0.000 C 
BRANCH  27  28
ATOM     28  C   UNL     1      62.756  27.005  60.351  1.00  0.00    -0.000 C 
BRANCH  28  29
ATOM     29  C   UNL     1      63.094  25.652  61.013  1.00  0.00    -0.000 C 
BRANCH  29  30
ATOM     30  C   UNL     1      61.840  24.944  61.559  1.00  0.00    -0.000 C 
BRANCH  30  31
ATOM     31  C   UNL     1      61.829  24.867  63.094  1.00  0.00    -0.003 C 
ATOM     32  C   UNL     1      60.562  25.468  63.705  1.00  0.00     0.004 C 
ENDBRANCH  30  31
ENDBRANCH  29  30
ENDBRANCH  28  29
ENDBRANCH  27  28
ENDBRANCH  26  27
ENDBRANCH  25  26
ENDBRANCH  24  25
ENDBRANCH  23  24
ENDBRANCH  22  23
ENDBRANCH  21  22
ENDBRANCH  20  21
ENDBRANCH  19  20
ENDBRANCH  18  19
ENDBRANCH   1  18
TORSDOF 28
ENDMDL
MODEL 2
REMARK VINA RESULT:    -3.562      5.718      9.238
REMARK INTER + INTRA:         -13.568
REMARK INTER:                  -8.566
REMARK INTRA:                  -5.002
REMARK UNBOUND:                -4.176
REMARK SMILES CCCCCCCCCCCCCCCCCCCCCCCCCCCCCC(=O)[O-]
REMARK SMILES IDX 16 1 17 2 18 3 19 4 20 5 21 6 22 7 23 8 24 9 25 10 26 11
REMARK SMILES IDX 27 12 28 13 29 14 30 15 31 16 32 17 15 18 14 19 13 20 12 21
REMARK SMILES IDX 11 22 10 23 9 24 8 25 7 26 6 27 5 28 4 29 3 30 2 31 1 32
REMARK H PARENT
REMARK Flexibility Score: inf
ROOT
ATOM      1  C   UNL     1      63.676  31.531  58.534  1.00  0.00     0.000 C 
ENDROOT
BRANCH   1   2
ATOM      2  C   UNL     1      64.782  31.604  59.598  1.00  0.00     0.000 C 
BRANCH   2   3
ATOM      3  C   UNL     1      64.221  31.732  61.025  1.00  0.00     0.000 C 
BRANCH   3   4
ATOM      4  C   UNL     1      63.628  30.415  61.549  1.00  0.00     0.000 C 
BRANCH   4   5
ATOM      5  C   UNL     1      62.126  30.522  61.850  1.00  0.00     0.000 C 
BRANCH   5   6
ATOM      6  C   UNL     1      61.333  29.464  61.067  1.00  0.00     0.000 C 
BRANCH   6   7
ATOM      7  C   UNL     1      62.205  28.276  60.629  1.00  0.00     0.000 C 
BRANCH   7   8
ATOM      8  C   UNL     1      62.057  27.057  61.557  1.00  0.00     0.000 C 
BRANCH   8   9
ATOM      9  C   UNL     1      61.417  25.853  60.849  1.00  0.00     0.000 C 
BRANCH   9  10
ATOM     10  C   UNL     1      60.194  26.250  60.004  1.00  0.00     0.000 C 
BRANCH  10  11
ATOM     11  C   UNL     1      58.863  25.886  60.681  1.00  0.00     0.000 C 
BRANCH  11  12
ATOM     12  C   UNL     1      58.535  26.809  61.868  1.00  0.00     0.000 C 
BRANCH  12  13
ATOM     13  C   UNL     1      57.996  28.182  61.423  1.00  0.00     0.006 C 
BRANCH  13  14
ATOM     14  C   UNL     1      56.653  28.111  60.678  1.00  0.00     0.053 C 
BRANCH  14  15
ATOM     15  C   UNL     1      55.517  28.638  61.498  1.00  0.00     0.041 C 
ATOM     16  O   UNL     1      54.582  29.280  60.949  1.00  0.00    -0.550 OA
ATOM     17  O   UNL     1      55.491  28.423  62.871  1.00  0.00    -0.550 OA
ENDBRANCH  14  15
ENDBRANCH  13  14
ENDBRANCH  12  13
ENDBRANCH  11  12
ENDBRANCH  10  11
ENDBRANCH   9  10
ENDBRANCH   8   9
ENDBRANCH   7   8
ENDBRANCH   6   7
ENDBRANCH   5   6
ENDBRANCH   4   5
ENDBRANCH   3   4
ENDBRANCH   2   3
ENDBRANCH   1   2
BRANCH   1  18
ATOM     18  C   UNL     1      63.664  32.760  57.610  1.00  0.00     0.000 C 
BRANCH  18  19
ATOM     19  C   UNL     1      64.841  33.716  57.876  1.00  0.00     0.000 C 
BRANCH  19  20
ATOM     20  C   UNL     1      64.441  35.190  58.094  1.00  0.00     0.000 C 
BRANCH  20  21
ATOM     21  C   UNL     1      65.586  36.116  58.550  1.00  0.00     0.000 C 
BRANCH  21  22
ATOM     22  C   UNL     1      65.251  37.022  59.752  1.00  0.00     0.000 C 
BRANCH  22  23
ATOM     23  C   UNL     1      65.410  36.355  61.132  1.00  0.00     0.000 C 
BRANCH  23  24
ATOM     24  C   UNL     1      64.092  35.890  61.785  1.00  0.00    -0.000 C 
BRANCH  24  25
ATOM     25  C   UNL     1      62.856  36.736  61.429  1.00  0.00    -0.000 C 
BRANCH  25  26
ATOM     26  C   UNL     1      61.756  35.919  60.735  1.00  0.00    -0.000 C 
BRANCH  26  27
ATOM     27  C   UNL     1      62.097  34.424  60.723  1.00  0.00    -0.000 C 
BRANCH  27  28
ATOM     28  C   UNL     1      60.995  33.564  60.079  1.00  0.00    -0.000 C 
BRANCH  28  29
ATOM     29  C   UNL     1      60.474  34.127  58.739  1.00  0.00    -0.000 C 
BRANCH  29  30
ATOM     30  C   UNL     1      59.666  33.083  57.947  1.00  0.00    -0.000 C 
BRANCH  30  31
ATOM     31  C   UNL     1      59.614  31.719  58.652  1.00  0.00    -0.003 C 
ATOM     32  C   UNL     1      60.167  30.586  57.787  1.00  0.00     0.004 C 
ENDBRANCH  30  31
ENDBRANCH  29  30
ENDBRANCH  28  29
ENDBRANCH  27  28
ENDBRANCH  26  27
ENDBRANCH  25  26
ENDBRANCH  24  25
ENDBRANCH  23  24
ENDBRANCH  22  23
ENDBRANCH  21  22
ENDBRANCH  20  21
ENDBRANCH  19  20
ENDBRANCH  18  19
ENDBRANCH   1  18
TORSDOF 28
ENDMDL
MODEL 3
REMARK VINA RESULT:    -3.513      2.227      4.280
REMARK INTER + INTRA:         -13.440
REMARK INTER:                  -8.408
REMARK INTRA:                  -5.032
REMARK UNBOUND:                -4.176
REMARK SMILES CCCCCCCCCCCCCCCCCCCCCCCCCCCCCC(=O)[O-]
REMARK SMILES IDX 16 1 17 2 18 3 19 4 20 5 21 6 22 7 23 8 24 9 25 10 26 11
REMARK SMILES IDX 27 12 28 13 29 14 30 15 31 16 32 17 15 18 14 19 13 20 12 21
REMARK SMILES IDX 11 22 10 23 9 24 8 25 7 26 6 27 5 28 4 29 3 30 2 31 1 32
REMARK H PARENT
REMARK Flexibility Score: inf
ROOT
ATOM      1  C   UNL     1      61.404  35.266  60.622  1.00  0.00     0.000 C 
ENDROOT
BRANCH   1   2
ATOM      2  C   UNL     1      62.675  35.988  61.095  1.00  0.00     0.000 C 
BRANCH   2   3
ATOM      3  C   UNL     1      63.847  35.020  61.337  1.00  0.00     0.000 C 
BRANCH   3   4
ATOM      4  C   UNL     1      63.914  33.898  60.288  1.00  0.00     0.000 C 
BRANCH   4   5
ATOM      5  C   UNL     1      64.416  34.394  58.924  1.00  0.00     0.000 C 
BRANCH   5   6
ATOM      6  C   UNL     1      65.262  33.316  58.227  1.00  0.00     0.000 C 
BRANCH   6   7
ATOM      7  C   UNL     1      65.039  31.916  58.818  1.00  0.00     0.000 C 
BRANCH   7   8
ATOM      8  C   UNL     1      65.896  30.837  58.131  1.00  0.00     0.000 C 
BRANCH   8   9
ATOM      9  C   UNL     1      67.085  30.393  58.995  1.00  0.00     0.000 C 
BRANCH   9  10
ATOM     10  C   UNL     1      68.354  30.136  58.162  1.00  0.00     0.000 C 
BRANCH  10  11
ATOM     11  C   UNL     1      68.925  31.421  57.541  1.00  0.00     0.000 C 
BRANCH  11  12
ATOM     12  C   UNL     1      70.443  31.337  57.307  1.00  0.00     0.000 C 
BRANCH  12  13
ATOM     13  C   UNL     1      71.251  32.125  58.357  1.00  0.00     0.006 C 
BRANCH  13  14
ATOM     14  C   UNL     1      71.689  31.281  59.565  1.00  0.00     0.053 C 
BRANCH  14  15
ATOM     15  C   UNL     1      72.015  32.122  60.760  1.00  0.00     0.041 C 
ATOM     16  O   UNL     1      71.645  33.324  60.811  1.00  0.00    -0.550 OA
ATOM     17  O   UNL     1      72.731  31.577  61.820  1.00  0.00    -0.550 OA
ENDBRANCH  14  15
ENDBRANCH  13  14
ENDBRANCH  12  13
ENDBRANCH  11  12
ENDBRANCH  10  11
ENDBRANCH   9  10
ENDBRANCH   8   9
ENDBRANCH   7   8
ENDBRANCH   6   7
ENDBRANCH   5   6
ENDBRANCH   4   5
ENDBRANCH   3   4
ENDBRANCH   2   3
ENDBRANCH   1   2
BRANCH   1  18
ATOM     18  C   UNL     1      60.739  35.967  59.425  1.00  0.00     0.000 C 
BRANCH  18  19
ATOM     19  C   UNL     1      60.830  35.144  58.127  1.00  0.00     0.000 C 
BRANCH  19  20
ATOM     20  C   UNL     1      60.306  33.698  58.240  1.00  0.00     0.000 C 
BRANCH  20  21
ATOM     21  C   UNL     1      61.333  32.602  57.888  1.00  0.00     0.000 C 
BRANCH  21  22
ATOM     22  C   UNL     1      61.290  31.354  58.793  1.00  0.00     0.000 C 
BRANCH  22  23
ATOM     23  C   UNL     1      60.391  31.485  60.038  1.00  0.00     0.000 C 
BRANCH  23  24
ATOM     24  C   UNL     1      61.144  31.738  61.360  1.00  0.00    -0.000 C 
BRANCH  24  25
ATOM     25  C   UNL     1      61.848  30.504  61.953  1.00  0.00    -0.000 C 
BRANCH  25  26
ATOM     26  C   UNL     1      63.361  30.498  61.691  1.00  0.00    -0.000 C 
BRANCH  26  27
ATOM     27  C   UNL     1      63.792  29.223  60.954  1.00  0.00    -0.000 C 
BRANCH  27  28
ATOM     28  C   UNL     1      62.730  28.111  61.012  1.00  0.00    -0.000 C 
BRANCH  28  29
ATOM     29  C   UNL     1      62.178  27.708  59.627  1.00  0.00    -0.000 C 
BRANCH  29  30
ATOM     30  C   UNL     1      60.640  27.754  59.581  1.00  0.00    -0.000 C 
BRANCH  30  31
ATOM     31  C   UNL     1      60.004  27.634  60.975  1.00  0.00    -0.003 C 
ATOM     32  C   UNL     1      58.632  28.304  61.058  1.00  0.00     0.004 C 
ENDBRANCH  30  31
ENDBRANCH  29  30
ENDBRANCH  28  29
ENDBRANCH  27  28
ENDBRANCH  26  27
ENDBRANCH  25  26
ENDBRANCH  24  25
ENDBRANCH  23  24
ENDBRANCH  22  23
ENDBRANCH  21  22
ENDBRANCH  20  21
ENDBRANCH  19  20
ENDBRANCH  18  19
ENDBRANCH   1  18
TORSDOF 28
ENDMDL
MODEL 4
REMARK VINA RESULT:    -3.476      1.940      5.414
REMARK INTER + INTRA:         -13.341
REMARK INTER:                  -8.477
REMARK INTRA:                  -4.864
REMARK UNBOUND:                -4.176
REMARK SMILES CCCCCCCCCCCCCCCCCCCCCCCCCCCCCC(=O)[O-]
REMARK SMILES IDX 16 1 17 2 18 3 19 4 20 5 21 6 22 7 23 8 24 9 25 10 26 11
REMARK SMILES IDX 27 12 28 13 29 14 30 15 31 16 32 17 15 18 14 19 13 20 12 21
REMARK SMILES IDX 11 22 10 23 9 24 8 25 7 26 6 27 5 28 4 29 3 30 2 31 1 32
REMARK H PARENT
REMARK Flexibility Score: inf
ROOT
ATOM      1  C   UNL     1      63.729  31.236  58.968  1.00  0.00     0.000 C 
ENDROOT
BRANCH   1   2
ATOM      2  C   UNL     1      64.316  31.794  60.273  1.00  0.00     0.000 C 
BRANCH   2   3
ATOM      3  C   UNL     1      63.675  31.167  61.523  1.00  0.00     0.000 C 
BRANCH   3   4
ATOM      4  C   UNL     1      62.465  30.281  61.188  1.00  0.00     0.000 C 
BRANCH   4   5
ATOM      5  C   UNL     1      62.712  28.798  61.503  1.00  0.00     0.000 C 
BRANCH   5   6
ATOM      6  C   UNL     1      62.690  27.953  60.220  1.00  0.00     0.000 C 
BRANCH   6   7
ATOM      7  C   UNL     1      64.034  27.259  59.946  1.00  0.00     0.000 C 
BRANCH   7   8
ATOM      8  C   UNL     1      65.195  27.876  60.746  1.00  0.00     0.000 C 
BRANCH   8   9
ATOM      9  C   UNL     1      66.243  28.543  59.842  1.00  0.00     0.000 C 
BRANCH   9  10
ATOM     10  C   UNL     1      67.141  29.529  60.610  1.00  0.00     0.000 C 
BRANCH  10  11
ATOM     11  C   UNL     1      68.241  28.822  61.418  1.00  0.00     0.000 C 
BRANCH  11  12
ATOM     12  C   UNL     1      69.655  29.237  60.975  1.00  0.00     0.000 C 
BRANCH  12  13
ATOM     13  C   UNL     1      70.173  30.481  61.724  1.00  0.00     0.006 C 
BRANCH  13  14
ATOM     14  C   UNL     1      71.655  30.791  61.462  1.00  0.00     0.053 C 
BRANCH  14  15
ATOM     15  C   UNL     1      71.842  31.851  60.422  1.00  0.00     0.041 C 
ATOM     16  O   UNL     1      71.735  33.068  60.729  1.00  0.00    -0.550 OA
ATOM     17  O   UNL     1      72.131  31.495  59.110  1.00  0.00    -0.550 OA
ENDBRANCH  14  15
ENDBRANCH  13  14
ENDBRANCH  12  13
ENDBRANCH  11  12
ENDBRANCH  10  11
ENDBRANCH   9  10
ENDBRANCH   8   9
ENDBRANCH   7   8
ENDBRANCH   6   7
ENDBRANCH   5   6
ENDBRANCH   4   5
ENDBRANCH   3   4
ENDBRANCH   2   3
ENDBRANCH   1   2
BRANCH   1  18
ATOM     18  C   UNL     1      64.667  31.438  57.765  1.00  0.00     0.000 C 
BRANCH  18  19
ATOM     19  C   UNL     1      65.933  32.236  58.125  1.00  0.00     0.000 C 
BRANCH  19  20
ATOM     20  C   UNL     1      66.000  33.651  57.515  1.00  0.00     0.000 C 
BRANCH  20  21
ATOM     21  C   UNL     1      64.979  34.657  58.085  1.00  0.00     0.000 C 
BRANCH  21  22
ATOM     22  C   UNL     1      65.541  36.064  58.372  1.00  0.00     0.000 C 
BRANCH  22  23
ATOM     23  C   UNL     1      64.998  36.731  59.651  1.00  0.00     0.000 C 
BRANCH  23  24
ATOM     24  C   UNL     1      65.069  35.860  60.921  1.00  0.00    -0.000 C 
BRANCH  24  25
ATOM     25  C   UNL     1      63.706  35.409  61.477  1.00  0.00    -0.000 C 
BRANCH  25  26
ATOM     26  C   UNL     1      62.630  36.500  61.374  1.00  0.00    -0.000 C 
BRANCH  26  27
ATOM     27  C   UNL     1      61.371  35.974  60.675  1.00  0.00    -0.000 C 
BRANCH  27  28
ATOM     28  C   UNL     1      61.675  34.873  59.644  1.00  0.00    -0.000 C 
BRANCH  28  29
ATOM     29  C   UNL     1      61.056  33.503  59.999  1.00  0.00    -0.000 C 
BRANCH  29  30
ATOM     30  C   UNL     1      60.180  32.950  58.861  1.00  0.00    -0.000 C 
BRANCH  30  31
ATOM     31  C   UNL     1      60.450  33.645  57.518  1.00  0.00    -0.003 C 
ATOM     32  C   UNL     1      61.427  32.866  56.636  1.00  0.00     0.004 C 
ENDBRANCH  30  31
ENDBRANCH  29  30
ENDBRANCH  28  29
ENDBRANCH  27  28
ENDBRANCH  26  27
ENDBRANCH  25  26
ENDBRANCH  24  25
ENDBRANCH  23  24
ENDBRANCH  22  23
ENDBRANCH  21  22
ENDBRANCH  20  21
ENDBRANCH  19  20
ENDBRANCH  18  19
ENDBRANCH   1  18
TORSDOF 28
ENDMDL
MODEL 5
REMARK VINA RESULT:    -3.435     10.459     12.781
REMARK INTER + INTRA:         -13.235
REMARK INTER:                  -7.898
REMARK INTRA:                  -5.337
REMARK UNBOUND:                -4.176
REMARK SMILES CCCCCCCCCCCCCCCCCCCCCCCCCCCCCC(=O)[O-]
REMARK SMILES IDX 16 1 17 2 18 3 19 4 20 5 21 6 22 7 23 8 24 9 25 10 26 11
REMARK SMILES IDX 27 12 28 13 29 14 30 15 31 16 32 17 15 18 14 19 13 20 12 21
REMARK SMILES IDX 11 22 10 23 9 24 8 25 7 26 6 27 5 28 4 29 3 30 2 31 1 32
REMARK H PARENT
REMARK Flexibility Score: inf
ROOT
ATOM      1  C   UNL     1      57.731  29.192  50.129  1.00  0.00     0.000 C 
ENDROOT
BRANCH   1   2
ATOM      2  C   UNL     1      58.823  29.322  49.057  1.00  0.00     0.000 C 
BRANCH   2   3
ATOM      3  C   UNL     1      59.765  28.106  49.024  1.00  0.00     0.000 C 
BRANCH   3   4
ATOM      4  C   UNL     1      59.057  26.797  49.406  1.00  0.00     0.000 C 
BRANCH   4   5
ATOM      5  C   UNL     1      60.038  25.697  49.836  1.00  0.00     0.000 C 
BRANCH   5   6
ATOM      6  C   UNL     1      59.492  24.914  51.040  1.00  0.00     0.000 C 
BRANCH   6   7
ATOM      7  C   UNL     1      60.508  24.812  52.189  1.00  0.00     0.000 C 
BRANCH   7   8
ATOM      8  C   UNL     1      60.326  25.921  53.242  1.00  0.00     0.000 C 
BRANCH   8   9
ATOM      9  C   UNL     1      61.531  26.870  53.311  1.00  0.00     0.000 C 
BRANCH   9  10
ATOM     10  C   UNL     1      61.369  28.095  52.395  1.00  0.00     0.000 C 
BRANCH  10  11
ATOM     11  C   UNL     1      62.507  28.225  51.371  1.00  0.00     0.000 C 
BRANCH  11  12
ATOM     12  C   UNL     1      62.529  29.602  50.685  1.00  0.00     0.000 C 
BRANCH  12  13
ATOM     13  C   UNL     1      63.277  29.585  49.338  1.00  0.00     0.006 C 
BRANCH  13  14
ATOM     14  C   UNL     1      63.333  28.198  48.677  1.00  0.00     0.053 C 
BRANCH  14  15
ATOM     15  C   UNL     1      64.730  27.786  48.332  1.00  0.00     0.041 C 
ATOM     16  O   UNL     1      65.136  26.626  48.607  1.00  0.00    -0.550 OA
ATOM     17  O   UNL     1      65.588  28.685  47.709  1.00  0.00    -0.550 OA
ENDBRANCH  14  15
ENDBRANCH  13  14
ENDBRANCH  12  13
ENDBRANCH  11  12
ENDBRANCH  10  11
ENDBRANCH   9  10
ENDBRANCH   8   9
ENDBRANCH   7   8
ENDBRANCH   6   7
ENDBRANCH   5   6
ENDBRANCH   4   5
ENDBRANCH   3   4
ENDBRANCH   2   3
ENDBRANCH   1   2
BRANCH   1  18
ATOM     18  C   UNL     1      58.082  29.945  51.424  1.00  0.00     0.000 C 
BRANCH  18  19
ATOM     19  C   UNL     1      57.680  29.170  52.691  1.00  0.00     0.000 C 
BRANCH  19  20
ATOM     20  C   UNL     1      57.361  27.678  52.464  1.00  0.00     0.000 C 
BRANCH  20  21
ATOM     21  C   UNL     1      56.044  27.188  53.100  1.00  0.00     0.000 C 
BRANCH  21  22
ATOM     22  C   UNL     1      55.977  27.312  54.636  1.00  0.00     0.000 C 
BRANCH  22  23
ATOM     23  C   UNL     1      54.653  27.878  55.184  1.00  0.00     0.000 C 
BRANCH  23  24
ATOM     24  C   UNL     1      53.674  28.398  54.112  1.00  0.00    -0.000 C 
BRANCH  24  25
ATOM     25  C   UNL     1      53.566  29.932  54.019  1.00  0.00    -0.000 C 
BRANCH  25  26
ATOM     26  C   UNL     1      52.877  30.403  52.730  1.00  0.00    -0.000 C 
BRANCH  26  27
ATOM     27  C   UNL     1      53.905  30.742  51.643  1.00  0.00    -0.000 C 
BRANCH  27  28
ATOM     28  C   UNL     1      53.650  29.992  50.324  1.00  0.00    -0.000 C 
BRANCH  28  29
ATOM     29  C   UNL     1      54.215  28.555  50.310  1.00  0.00    -0.000 C 
BRANCH  29  30
ATOM     30  C   UNL     1      53.220  27.546  49.708  1.00  0.00    -0.000 C 
BRANCH  30  31
ATOM     31  C   UNL     1      53.910  26.277  49.186  1.00  0.00    -0.003 C 
ATOM     32  C   UNL     1      55.363  26.161  49.652  1.00  0.00     0.004 C 
ENDBRANCH  30  31
ENDBRANCH  29  30
ENDBRANCH  28  29
ENDBRANCH  27  28
ENDBRANCH  26  27
ENDBRANCH  25  26
ENDBRANCH  24  25
ENDBRANCH  23  24
ENDBRANCH  22  23
ENDBRANCH  21  22
ENDBRANCH  20  21
ENDBRANCH  19  20
ENDBRANCH  18  19
ENDBRANCH   1  18
TORSDOF 28
ENDMDL
MODEL 6
REMARK VINA RESULT:    -3.423      4.826      7.975
REMARK INTER + INTRA:         -13.202
REMARK INTER:                  -7.478
REMARK INTRA:                  -5.724
REMARK UNBOUND:                -4.176
REMARK SMILES CCCCCCCCCCCCCCCCCCCCCCCCCCCCCC(=O)[O-]
REMARK SMILES IDX 16 1 17 2 18 3 19 4 20 5 21 6 22 7 23 8 24 9 25 10 26 11
REMARK SMILES IDX 27 12 28 13 29 14 30 15 31 16 32 17 15 18 14 19 13 20 12 21
REMARK SMILES IDX 11 22 10 23 9 24 8 25 7 26 6 27 5 28 4 29 3 30 2 31 1 32
REMARK H PARENT
REMARK Flexibility Score: inf
ROOT
ATOM      1  C   UNL     1      64.359  33.433  57.306  1.00  0.00     0.000 C 
ENDROOT
BRANCH   1   2
ATOM      2  C   UNL     1      64.139  31.973  57.728  1.00  0.00     0.000 C 
BRANCH   2   3
ATOM      3  C   UNL     1      62.970  31.312  56.977  1.00  0.00     0.000 C 
BRANCH   3   4
ATOM      4  C   UNL     1      63.356  29.963  56.350  1.00  0.00     0.000 C 
BRANCH   4   5
ATOM      5  C   UNL     1      63.503  28.846  57.394  1.00  0.00     0.000 C 
BRANCH   5   6
ATOM      6  C   UNL     1      62.152  28.166  57.663  1.00  0.00     0.000 C 
BRANCH   6   7
ATOM      7  C   UNL     1      61.998  27.715  59.124  1.00  0.00     0.000 C 
BRANCH   7   8
ATOM      8  C   UNL     1      63.041  26.659  59.534  1.00  0.00     0.000 C 
BRANCH   8   9
ATOM      9  C   UNL     1      63.019  26.365  61.041  1.00  0.00     0.000 C 
BRANCH   9  10
ATOM     10  C   UNL     1      61.910  27.140  61.775  1.00  0.00     0.000 C 
BRANCH  10  11
ATOM     11  C   UNL     1      61.205  26.292  62.846  1.00  0.00     0.000 C 
BRANCH  11  12
ATOM     12  C   UNL     1      59.737  25.996  62.490  1.00  0.00     0.000 C 
BRANCH  12  13
ATOM     13  C   UNL     1      59.283  26.705  61.199  1.00  0.00     0.006 C 
BRANCH  13  14
ATOM     14  C   UNL     1      58.522  28.018  61.447  1.00  0.00     0.053 C 
BRANCH  14  15
ATOM     15  C   UNL     1      57.038  27.838  61.382  1.00  0.00     0.041 C 
ATOM     16  O   UNL     1      56.351  28.515  60.571  1.00  0.00    -0.550 OA
ATOM     17  O   UNL     1      56.410  26.925  62.220  1.00  0.00    -0.550 OA
ENDBRANCH  14  15
ENDBRANCH  13  14
ENDBRANCH  12  13
ENDBRANCH  11  12
ENDBRANCH  10  11
ENDBRANCH   9  10
ENDBRANCH   8   9
ENDBRANCH   7   8
ENDBRANCH   6   7
ENDBRANCH   5   6
ENDBRANCH   4   5
ENDBRANCH   3   4
ENDBRANCH   2   3
ENDBRANCH   1   2
BRANCH   1  18
ATOM     18  C   UNL     1      64.385  34.396  58.505  1.00  0.00     0.000 C 
BRANCH  18  19
ATOM     19  C   UNL     1      64.476  33.663  59.856  1.00  0.00     0.000 C 
BRANCH  19  20
ATOM     20  C   UNL     1      63.647  34.296  60.992  1.00  0.00     0.000 C 
BRANCH  20  21
ATOM     21  C   UNL     1      62.510  35.229  60.529  1.00  0.00     0.000 C 
BRANCH  21  22
ATOM     22  C   UNL     1      61.106  34.591  60.521  1.00  0.00     0.000 C 
BRANCH  22  23
ATOM     23  C   UNL     1      60.843  33.615  59.358  1.00  0.00     0.000 C 
BRANCH  23  24
ATOM     24  C   UNL     1      60.739  32.131  59.763  1.00  0.00    -0.000 C 
BRANCH  24  25
ATOM     25  C   UNL     1      60.647  31.876  61.279  1.00  0.00    -0.000 C 
BRANCH  25  26
ATOM     26  C   UNL     1      61.637  30.807  61.765  1.00  0.00    -0.000 C 
BRANCH  26  27
ATOM     27  C   UNL     1      62.846  30.702  60.827  1.00  0.00    -0.000 C 
BRANCH  27  28
ATOM     28  C   UNL     1      64.063  30.035  61.492  1.00  0.00    -0.000 C 
BRANCH  28  29
ATOM     29  C   UNL     1      65.165  29.620  60.493  1.00  0.00    -0.000 C 
BRANCH  29  30
ATOM     30  C   UNL     1      66.171  28.635  61.116  1.00  0.00    -0.000 C 
BRANCH  30  31
ATOM     31  C   UNL     1      66.578  27.516  60.146  1.00  0.00    -0.003 C 
ATOM     32  C   UNL     1      68.013  27.668  59.638  1.00  0.00     0.004 C 
ENDBRANCH  30  31
ENDBRANCH  29  30
ENDBRANCH  28  29
ENDBRANCH  27  28
ENDBRANCH  26  27
ENDBRANCH  25  26
ENDBRANCH  24  25
ENDBRANCH  23  24
ENDBRANCH  22  23
ENDBRANCH  21  22
ENDBRANCH  20  21
ENDBRANCH  19  20
ENDBRANCH  18  19
ENDBRANCH   1  18
TORSDOF 28
ENDMDL
MODEL 7
REMARK VINA RESULT:    -3.422      9.925     12.444
REMARK INTER + INTRA:         -13.200
REMARK INTER:                  -7.687
REMARK INTRA:                  -5.513
REMARK UNBOUND:                -4.176
REMARK SMILES CCCCCCCCCCCCCCCCCCCCCCCCCCCCCC(=O)[O-]
REMARK SMILES IDX 16 1 17 2 18 3 19 4 20 5 21 6 22 7 23 8 24 9 25 10 26 11
REMARK SMILES IDX 27 12 28 13 29 14 30 15 31 16 32 17 15 18 14 19 13 20 12 21
REMARK SMILES IDX 11 22 10 23 9 24 8 25 7 26 6 27 5 28 4 29 3 30 2 31 1 32
REMARK H PARENT
REMARK Flexibility Score: inf
ROOT
ATOM      1  C   UNL     1      59.830  26.210  54.537  1.00  0.00     0.000 C 
ENDROOT
BRANCH   1   2
ATOM      2  C   UNL     1      59.517  27.534  53.824  1.00  0.00     0.000 C 
BRANCH   2   3
ATOM      3  C   UNL     1      60.762  28.161  53.172  1.00  0.00     0.000 C 
BRANCH   3   4
ATOM      4  C   UNL     1      62.029  27.988  54.025  1.00  0.00     0.000 C 
BRANCH   4   5
ATOM      5  C   UNL     1      63.274  27.681  53.180  1.00  0.00     0.000 C 
BRANCH   5   6
ATOM      6  C   UNL     1      63.307  26.200  52.771  1.00  0.00     0.000 C 
BRANCH   6   7
ATOM      7  C   UNL     1      63.279  26.008  51.246  1.00  0.00     0.000 C 
BRANCH   7   8
ATOM      8  C   UNL     1      64.276  26.924  50.513  1.00  0.00     0.000 C 
BRANCH   8   9
ATOM      9  C   UNL     1      63.895  27.151  49.043  1.00  0.00     0.000 C 
BRANCH   9  10
ATOM     10  C   UNL     1      63.439  28.595  48.769  1.00  0.00     0.000 C 
BRANCH  10  11
ATOM     11  C   UNL     1      63.716  29.537  49.952  1.00  0.00     0.000 C 
BRANCH  11  12
ATOM     12  C   UNL     1      62.424  30.080  50.587  1.00  0.00     0.000 C 
BRANCH  12  13
ATOM     13  C   UNL     1      61.752  31.170  49.730  1.00  0.00     0.006 C 
BRANCH  13  14
ATOM     14  C   UNL     1      62.222  32.596  50.060  1.00  0.00     0.053 C 
BRANCH  14  15
ATOM     15  C   UNL     1      62.933  33.243  48.912  1.00  0.00     0.041 C 
ATOM     16  O   UNL     1      62.349  34.113  48.212  1.00  0.00    -0.550 OA
ATOM     17  O   UNL     1      64.241  32.882  48.611  1.00  0.00    -0.550 OA
ENDBRANCH  14  15
ENDBRANCH  13  14
ENDBRANCH  12  13
ENDBRANCH  11  12
ENDBRANCH  10  11
ENDBRANCH   9  10
ENDBRANCH   8   9
ENDBRANCH   7   8
ENDBRANCH   6   7
ENDBRANCH   5   6
ENDBRANCH   4   5
ENDBRANCH   3   4
ENDBRANCH   2   3
ENDBRANCH   1   2
BRANCH   1  18
ATOM     18  C   UNL     1      59.879  25.016  53.569  1.00  0.00     0.000 C 
BRANCH  18  19
ATOM     19  C   UNL     1      59.078  25.261  52.279  1.00  0.00     0.000 C 
BRANCH  19  20
ATOM     20  C   UNL     1      59.824  24.909  50.976  1.00  0.00     0.000 C 
BRANCH  20  21
ATOM     21  C   UNL     1      59.482  25.802  49.766  1.00  0.00     0.000 C 
BRANCH  21  22
ATOM     22  C   UNL     1      60.233  27.148  49.716  1.00  0.00     0.000 C 
BRANCH  22  23
ATOM     23  C   UNL     1      59.393  28.342  49.222  1.00  0.00     0.000 C 
BRANCH  23  24
ATOM     24  C   UNL     1      58.492  28.990  50.292  1.00  0.00    -0.000 C 
BRANCH  24  25
ATOM     25  C   UNL     1      56.988  28.699  50.138  1.00  0.00    -0.000 C 
BRANCH  25  26
ATOM     26  C   UNL     1      56.515  27.529  51.013  1.00  0.00    -0.000 C 
BRANCH  26  27
ATOM     27  C   UNL     1      55.969  26.380  50.156  1.00  0.00    -0.000 C 
BRANCH  27  28
ATOM     28  C   UNL     1      54.448  26.197  50.301  1.00  0.00    -0.000 C 
BRANCH  28  29
ATOM     29  C   UNL     1      53.621  27.183  49.446  1.00  0.00    -0.000 C 
BRANCH  29  30
ATOM     30  C   UNL     1      52.896  28.232  50.309  1.00  0.00    -0.000 C 
BRANCH  30  31
ATOM     31  C   UNL     1      53.513  29.632  50.176  1.00  0.00    -0.003 C 
ATOM     32  C   UNL     1      53.181  30.539  51.362  1.00  0.00     0.004 C 
ENDBRANCH  30  31
ENDBRANCH  29  30
ENDBRANCH  28  29
ENDBRANCH  27  28
ENDBRANCH  26  27
ENDBRANCH  25  26
ENDBRANCH  24  25
ENDBRANCH  23  24
ENDBRANCH  22  23
ENDBRANCH  21  22
ENDBRANCH  20  21
ENDBRANCH  19  20
ENDBRANCH  18  19
ENDBRANCH   1  18
TORSDOF 28
ENDMDL
MODEL 8
REMARK VINA RESULT:    -3.398     10.184     12.660
REMARK INTER + INTRA:         -13.136
REMARK INTER:                  -8.377
REMARK INTRA:                  -4.759
REMARK UNBOUND:                -4.176
REMARK SMILES CCCCCCCCCCCCCCCCCCCCCCCCCCCCCC(=O)[O-]
REMARK SMILES IDX 16 1 17 2 18 3 19 4 20 5 21 6 22 7 23 8 24 9 25 10 26 11
REMARK SMILES IDX 27 12 28 13 29 14 30 15 31 16 32 17 15 18 14 19 13 20 12 21
REMARK SMILES IDX 11 22 10 23 9 24 8 25 7 26 6 27 5 28 4 29 3 30 2 31 1 32
REMARK H PARENT
REMARK Flexibility Score: inf
ROOT
ATOM      1  C   UNL     1      57.506  25.647  51.400  1.00  0.00     0.000 C 
ENDROOT
BRANCH   1   2
ATOM      2  C   UNL     1      58.333  25.854  50.122  1.00  0.00     0.000 C 
BRANCH   2   3
ATOM      3  C   UNL     1      59.683  25.117  50.167  1.00  0.00     0.000 C 
BRANCH   3   4
ATOM      4  C   UNL     1      60.867  26.027  49.803  1.00  0.00     0.000 C 
BRANCH   4   5
ATOM      5  C   UNL     1      62.043  25.886  50.780  1.00  0.00     0.000 C 
BRANCH   5   6
ATOM      6  C   UNL     1      63.322  26.501  50.190  1.00  0.00     0.000 C 
BRANCH   6   7
ATOM      7  C   UNL     1      63.029  27.522  49.080  1.00  0.00     0.000 C 
BRANCH   7   8
ATOM      8  C   UNL     1      64.295  28.253  48.596  1.00  0.00     0.000 C 
BRANCH   8   9
ATOM      9  C   UNL     1      64.053  29.750  48.354  1.00  0.00     0.000 C 
BRANCH   9  10
ATOM     10  C   UNL     1      64.843  30.640  49.329  1.00  0.00     0.000 C 
BRANCH  10  11
ATOM     11  C   UNL     1      65.018  32.076  48.811  1.00  0.00     0.000 C 
BRANCH  11  12
ATOM     12  C   UNL     1      63.681  32.830  48.703  1.00  0.00     0.000 C 
BRANCH  12  13
ATOM     13  C   UNL     1      63.693  34.174  49.457  1.00  0.00     0.006 C 
BRANCH  13  14
ATOM     14  C   UNL     1      62.631  34.274  50.564  1.00  0.00     0.053 C 
BRANCH  14  15
ATOM     15  C   UNL     1      62.985  35.291  51.604  1.00  0.00     0.041 C 
ATOM     16  O   UNL     1      63.805  35.008  52.516  1.00  0.00    -0.550 OA
ATOM     17  O   UNL     1      62.406  36.555  51.567  1.00  0.00    -0.550 OA
ENDBRANCH  14  15
ENDBRANCH  13  14
ENDBRANCH  12  13
ENDBRANCH  11  12
ENDBRANCH  10  11
ENDBRANCH   9  10
ENDBRANCH   8   9
ENDBRANCH   7   8
ENDBRANCH   6   7
ENDBRANCH   5   6
ENDBRANCH   4   5
ENDBRANCH   3   4
ENDBRANCH   2   3
ENDBRANCH   1   2
BRANCH   1  18
ATOM     18  C   UNL     1      55.999  25.850  51.167  1.00  0.00     0.000 C 
BRANCH  18  19
ATOM     19  C   UNL     1      55.678  26.349  49.746  1.00  0.00     0.000 C 
BRANCH  19  20
ATOM     20  C   UNL     1      54.206  26.182  49.319  1.00  0.00     0.000 C 
BRANCH  20  21
ATOM     21  C   UNL     1      53.283  27.363  49.683  1.00  0.00     0.000 C 
BRANCH  21  22
ATOM     22  C   UNL     1      54.009  28.690  49.981  1.00  0.00     0.000 C 
BRANCH  22  23
ATOM     23  C   UNL     1      53.915  29.167  51.443  1.00  0.00     0.000 C 
BRANCH  23  24
ATOM     24  C   UNL     1      55.125  29.984  51.941  1.00  0.00    -0.000 C 
BRANCH  24  25
ATOM     25  C   UNL     1      56.378  29.153  52.273  1.00  0.00    -0.000 C 
BRANCH  25  26
ATOM     26  C   UNL     1      57.636  29.659  51.552  1.00  0.00    -0.000 C 
BRANCH  26  27
ATOM     27  C   UNL     1      57.559  29.390  50.044  1.00  0.00    -0.000 C 
BRANCH  27  28
ATOM     28  C   UNL     1      58.938  29.420  49.360  1.00  0.00    -0.000 C 
BRANCH  28  29
ATOM     29  C   UNL     1      60.122  29.362  50.350  1.00  0.00    -0.000 C 
BRANCH  29  30
ATOM     30  C   UNL     1      61.065  30.568  50.197  1.00  0.00    -0.000 C 
BRANCH  30  31
ATOM     31  C   UNL     1      61.874  30.850  51.473  1.00  0.00    -0.003 C 
ATOM     32  C   UNL     1      62.388  29.574  52.140  1.00  0.00     0.004 C 
ENDBRANCH  30  31
ENDBRANCH  29  30
ENDBRANCH  28  29
ENDBRANCH  27  28
ENDBRANCH  26  27
ENDBRANCH  25  26
ENDBRANCH  24  25
ENDBRANCH  23  24
ENDBRANCH  22  23
ENDBRANCH  21  22
ENDBRANCH  20  21
ENDBRANCH  19  20
ENDBRANCH  18  19
ENDBRANCH   1  18
TORSDOF 28
ENDMDL
MODEL 9
REMARK VINA RESULT:    -3.395      5.805      8.694
REMARK INTER + INTRA:         -13.128
REMARK INTER:                  -6.648
REMARK INTRA:                  -6.480
REMARK UNBOUND:                -4.176
REMARK SMILES CCCCCCCCCCCCCCCCCCCCCCCCCCCCCC(=O)[O-]
REMARK SMILES IDX 16 1 17 2 18 3 19 4 20 5 21 6 22 7 23 8 24 9 25 10 26 11
REMARK SMILES IDX 27 12 28 13 29 14 30 15 31 16 32 17 15 18 14 19 13 20 12 21
REMARK SMILES IDX 11 22 10 23 9 24 8 25 7 26 6 27 5 28 4 29 3 30 2 31 1 32
REMARK H PARENT
REMARK Flexibility Score: inf
ROOT
ATOM      1  C   UNL     1      62.401  30.414  57.948  1.00  0.00     0.000 C 
ENDROOT
BRANCH   1   2
ATOM      2  C   UNL     1      62.380  31.824  57.340  1.00  0.00     0.000 C 
BRANCH   2   3
ATOM      3  C   UNL     1      60.953  32.376  57.179  1.00  0.00     0.000 C 
BRANCH   3   4
ATOM      4  C   UNL     1      60.431  33.051  58.457  1.00  0.00     0.000 C 
BRANCH   4   5
ATOM      5  C   UNL     1      61.497  33.917  59.145  1.00  0.00     0.000 C 
BRANCH   5   6
ATOM      6  C   UNL     1      61.718  33.463  60.597  1.00  0.00     0.000 C 
BRANCH   6   7
ATOM      7  C   UNL     1      60.813  32.285  60.992  1.00  0.00     0.000 C 
BRANCH   7   8
ATOM      8  C   UNL     1      61.578  31.170  61.728  1.00  0.00     0.000 C 
BRANCH   8   9
ATOM      9  C   UNL     1      63.071  31.144  61.367  1.00  0.00     0.000 C 
BRANCH   9  10
ATOM     10  C   UNL     1      63.647  29.717  61.349  1.00  0.00     0.000 C 
BRANCH  10  11
ATOM     11  C   UNL     1      62.558  28.637  61.463  1.00  0.00     0.000 C 
BRANCH  11  12
ATOM     12  C   UNL     1      62.901  27.368  60.664  1.00  0.00     0.000 C 
BRANCH  12  13
ATOM     13  C   UNL     1      62.306  26.092  61.290  1.00  0.00     0.006 C 
BRANCH  13  14
ATOM     14  C   UNL     1      61.506  26.347  62.578  1.00  0.00     0.053 C 
BRANCH  14  15
ATOM     15  C   UNL     1      60.776  25.127  63.048  1.00  0.00     0.041 C 
ATOM     16  O   UNL     1      60.381  25.043  64.241  1.00  0.00    -0.550 OA
ATOM     17  O   UNL     1      60.534  24.079  62.168  1.00  0.00    -0.550 OA
ENDBRANCH  14  15
ENDBRANCH  13  14
ENDBRANCH  12  13
ENDBRANCH  11  12
ENDBRANCH  10  11
ENDBRANCH   9  10
ENDBRANCH   8   9
ENDBRANCH   7   8
ENDBRANCH   6   7
ENDBRANCH   5   6
ENDBRANCH   4   5
ENDBRANCH   3   4
ENDBRANCH   2   3
ENDBRANCH   1   2
BRANCH   1  18
ATOM     18  C   UNL     1      61.600  29.400  57.114  1.00  0.00     0.000 C 
BRANCH  18  19
ATOM     19  C   UNL     1      60.593  28.598  57.958  1.00  0.00     0.000 C 
BRANCH  19  20
ATOM     20  C   UNL     1      59.830  29.424  59.014  1.00  0.00     0.000 C 
BRANCH  20  21
ATOM     21  C   UNL     1      59.195  28.601  60.153  1.00  0.00     0.000 C 
BRANCH  21  22
ATOM     22  C   UNL     1      58.974  27.109  59.833  1.00  0.00     0.000 C 
BRANCH  22  23
ATOM     23  C   UNL     1      58.069  26.358  60.830  1.00  0.00     0.000 C 
BRANCH  23  24
ATOM     24  C   UNL     1      57.657  27.171  62.074  1.00  0.00    -0.000 C 
BRANCH  24  25
ATOM     25  C   UNL     1      56.296  27.882  61.965  1.00  0.00    -0.000 C 
BRANCH  25  26
ATOM     26  C   UNL     1      55.361  27.225  60.940  1.00  0.00    -0.000 C 
BRANCH  26  27
ATOM     27  C   UNL     1      55.006  28.197  59.808  1.00  0.00    -0.000 C 
BRANCH  27  28
ATOM     28  C   UNL     1      55.667  27.824  58.469  1.00  0.00    -0.000 C 
BRANCH  28  29
ATOM     29  C   UNL     1      56.011  29.043  57.587  1.00  0.00    -0.000 C 
BRANCH  29  30
ATOM     30  C   UNL     1      55.942  30.365  58.372  1.00  0.00    -0.000 C 
BRANCH  30  31
ATOM     31  C   UNL     1      57.047  31.352  57.964  1.00  0.00    -0.003 C 
ATOM     32  C   UNL     1      57.527  31.139  56.527  1.00  0.00     0.004 C 
ENDBRANCH  30  31
ENDBRANCH  29  30
ENDBRANCH  28  29
ENDBRANCH  27  28
ENDBRANCH  26  27
ENDBRANCH  25  26
ENDBRANCH  24  25
ENDBRANCH  23  24
ENDBRANCH  22  23
ENDBRANCH  21  22
ENDBRANCH  20  21
ENDBRANCH  19  20
ENDBRANCH  18  19
ENDBRANCH   1  18
TORSDOF 28
ENDMDL
