MODEL 1
REMARK VINA RESULT:    -3.667      0.000      0.000
REMARK INTER + INTRA:          -5.902
REMARK INTER:                  -5.596
REMARK INTRA:                  -0.306
REMARK UNBOUND:                -0.306
REMARK SMILES O=C([O-])CCCCCCCCC(=O)[O-]
REMARK SMILES IDX 7 1 6 2 5 3 4 4 2 5 1 6 3 7 8 8 9 9 10 10 11 11 12 12 13 13
REMARK SMILES IDX 14 14
REMARK H PARENT
REMARK Flexibility Score: inf
ROOT
ATOM      1  C   UNL     1      57.517  28.101  50.183  1.00  0.00     0.000 C 
ENDROOT
BRANCH   1   2
ATOM      2  C   UNL     1      56.093  28.610  50.475  1.00  0.00     0.000 C 
BRANCH   2   3
ATOM      3  C   UNL     1      54.957  27.792  49.829  1.00  0.00     0.006 C 
BRANCH   3   4
ATOM      4  C   UNL     1      55.355  26.368  49.408  1.00  0.00     0.053 C 
BRANCH   4   5
ATOM      5  C   UNL     1      54.165  25.537  49.041  1.00  0.00     0.041 C 
ATOM      6  O   UNL     1      53.273  26.006  48.285  1.00  0.00    -0.550 OA
ATOM      7  O   UNL     1      54.021  24.258  49.563  1.00  0.00    -0.550 OA
ENDBRANCH   4   5
ENDBRANCH   3   4
ENDBRANCH   2   3
ENDBRANCH   1   2
BRANCH   1   8
ATOM      8  C   UNL     1      58.547  29.237  50.064  1.00  0.00     0.000 C 
BRANCH   8   9
ATOM      9  C   UNL     1      59.640  28.936  49.026  1.00  0.00     0.000 C 
BRANCH   9  10
ATOM     10  C   UNL     1      60.830  28.167  49.622  1.00  0.00     0.006 C 
BRANCH  10  11
ATOM     11  C   UNL     1      60.702  26.666  49.354  1.00  0.00     0.053 C 
BRANCH  11  12
ATOM     12  C   UNL     1      61.849  25.924  49.964  1.00  0.00     0.041 C 
ATOM     13  O   UNL     1      61.914  24.671  49.870  1.00  0.00    -0.550 OA
ATOM     14  O   UNL     1      62.821  26.613  50.677  1.00  0.00    -0.550 OA
ENDBRANCH  11  12
ENDBRANCH  10  11
ENDBRANCH   9  10
ENDBRANCH   8   9
ENDBRANCH   1   8
TORSDOF 9
ENDMDL
MODEL 2
REMARK VINA RESULT:    -3.654      0.841      6.353
REMARK INTER + INTRA:          -5.882
REMARK INTER:                  -5.462
REMARK INTRA:                  -0.421
REMARK UNBOUND:                -0.306
REMARK SMILES O=C([O-])CCCCCCCCC(=O)[O-]
REMARK SMILES IDX 7 1 6 2 5 3 4 4 2 5 1 6 3 7 8 8 9 9 10 10 11 11 12 12 13 13
REMARK SMILES IDX 14 14
REMARK H PARENT
REMARK Flexibility Score: inf
ROOT
ATOM      1  C   UNL     1      58.644  29.108  49.703  1.00  0.00     0.000 C 
ENDROOT
BRANCH   1   2
ATOM      2  C   UNL     1      59.955  28.559  49.113  1.00  0.00     0.000 C 
BRANCH   2   3
ATOM      3  C   UNL     1      60.139  27.032  49.225  1.00  0.00     0.006 C 
BRANCH   3   4
ATOM      4  C   UNL     1      61.557  26.586  49.616  1.00  0.00     0.053 C 
BRANCH   4   5
ATOM      5  C   UNL     1      61.553  25.279  50.348  1.00  0.00     0.041 C 
ATOM      6  O   UNL     1      62.036  24.250  49.807  1.00  0.00    -0.550 OA
ATOM      7  O   UNL     1      60.984  25.190  51.612  1.00  0.00    -0.550 OA
ENDBRANCH   4   5
ENDBRANCH   3   4
ENDBRANCH   2   3
ENDBRANCH   1   2
BRANCH   1   8
ATOM      8  C   UNL     1      57.685  27.999  50.168  1.00  0.00     0.000 C 
BRANCH   8   9
ATOM      9  C   UNL     1      56.314  28.546  50.595  1.00  0.00     0.000 C 
BRANCH   9  10
ATOM     10  C   UNL     1      55.146  27.832  49.895  1.00  0.00     0.006 C 
BRANCH  10  11
ATOM     11  C   UNL     1      55.552  26.426  49.448  1.00  0.00     0.053 C 
BRANCH  11  12
ATOM     12  C   UNL     1      54.341  25.576  49.224  1.00  0.00     0.041 C 
ATOM     13  O   UNL     1      53.556  25.831  48.274  1.00  0.00    -0.550 OA
ATOM     14  O   UNL     1      54.054  24.533  50.094  1.00  0.00    -0.550 OA
ENDBRANCH  11  12
ENDBRANCH  10  11
ENDBRANCH   9  10
ENDBRANCH   8   9
ENDBRANCH   1   8
TORSDOF 9
ENDMDL
MODEL 3
REMARK VINA RESULT:    -3.615      1.500      1.798
REMARK INTER + INTRA:          -5.824
REMARK INTER:                  -4.941
REMARK INTRA:                  -0.883
REMARK UNBOUND:                -0.306
REMARK SMILES O=C([O-])CCCCCCCCC(=O)[O-]
REMARK SMILES IDX 7 1 6 2 5 3 4 4 2 5 1 6 3 7 8 8 9 9 10 10 11 11 12 12 13 13
REMARK SMILES IDX 14 14
REMARK H PARENT
REMARK Flexibility Score: inf
ROOT
ATOM      1  C   UNL     1      58.664  29.057  51.088  1.00  0.00     0.000 C 
ENDROOT
BRANCH   1   2
ATOM      2  C   UNL     1      57.277  28.481  51.427  1.00  0.00     0.000 C 
BRANCH   2   3
ATOM      3  C   UNL     1      56.372  28.188  50.213  1.00  0.00     0.006 C 
BRANCH   3   4
ATOM      4  C   UNL     1      56.241  26.698  49.859  1.00  0.00     0.053 C 
BRANCH   4   5
ATOM      5  C   UNL     1      54.867  26.355  49.372  1.00  0.00     0.041 C 
ATOM      6  O   UNL     1      54.014  27.264  49.192  1.00  0.00    -0.550 OA
ATOM      7  O   UNL     1      54.518  25.029  49.151  1.00  0.00    -0.550 OA
ENDBRANCH   4   5
ENDBRANCH   3   4
ENDBRANCH   2   3
ENDBRANCH   1   2
BRANCH   1   8
ATOM      8  C   UNL     1      58.871  29.274  49.579  1.00  0.00     0.000 C 
BRANCH   8   9
ATOM      9  C   UNL     1      60.198  28.687  49.075  1.00  0.00     0.000 C 
BRANCH   9  10
ATOM     10  C   UNL     1      60.615  27.420  49.838  1.00  0.00     0.006 C 
BRANCH  10  11
ATOM     11  C   UNL     1      59.870  26.192  49.309  1.00  0.00     0.053 C 
BRANCH  11  12
ATOM     12  C   UNL     1      59.772  25.140  50.368  1.00  0.00     0.041 C 
ATOM     13  O   UNL     1      59.142  25.371  51.433  1.00  0.00    -0.550 OA
ATOM     14  O   UNL     1      60.419  23.923  50.200  1.00  0.00    -0.550 OA
ENDBRANCH  11  12
ENDBRANCH  10  11
ENDBRANCH   9  10
ENDBRANCH   8   9
ENDBRANCH   1   8
TORSDOF 9
ENDMDL
MODEL 4
REMARK VINA RESULT:    -3.615     11.970     14.167
REMARK INTER + INTRA:          -5.823
REMARK INTER:                  -5.225
REMARK INTRA:                  -0.598
REMARK UNBOUND:                -0.306
REMARK SMILES O=C([O-])CCCCCCCCC(=O)[O-]
REMARK SMILES IDX 7 1 6 2 5 3 4 4 2 5 1 6 3 7 8 8 9 9 10 10 11 11 12 12 13 13
REMARK SMILES IDX 14 14
REMARK H PARENT
REMARK Flexibility Score: inf
ROOT
ATOM      1  C   UNL     1      61.325  32.412  58.833  1.00  0.00     0.000 C 
ENDROOT
BRANCH   1   2
ATOM      2  C   UNL     1      61.474  33.534  59.876  1.00  0.00     0.000 C 
BRANCH   2   3
ATOM      3  C   UNL     1      62.893  34.125  60.008  1.00  0.00     0.006 C 
BRANCH   3   4
ATOM      4  C   UNL     1      62.933  35.595  60.455  1.00  0.00     0.053 C 
BRANCH   4   5
ATOM      5  C   UNL     1      64.199  35.926  61.182  1.00  0.00     0.041 C 
ATOM      6  O   UNL     1      64.569  37.125  61.296  1.00  0.00    -0.550 OA
ATOM      7  O   UNL     1      64.990  34.910  61.703  1.00  0.00    -0.550 OA
ENDBRANCH   4   5
ENDBRANCH   3   4
ENDBRANCH   2   3
ENDBRANCH   1   2
BRANCH   1   8
ATOM      8  C   UNL     1      60.992  31.049  59.462  1.00  0.00     0.000 C 
BRANCH   8   9
ATOM      9  C   UNL     1      61.250  31.020  60.977  1.00  0.00     0.000 C 
BRANCH   9  10
ATOM     10  C   UNL     1      62.297  29.969  61.381  1.00  0.00     0.006 C 
BRANCH  10  11
ATOM     11  C   UNL     1      63.709  30.435  61.019  1.00  0.00     0.053 C 
BRANCH  11  12
ATOM     12  C   UNL     1      64.565  29.269  60.638  1.00  0.00     0.041 C 
ATOM     13  O   UNL     1      65.751  29.451  60.259  1.00  0.00    -0.550 OA
ATOM     14  O   UNL     1      64.036  27.985  60.654  1.00  0.00    -0.550 OA
ENDBRANCH  11  12
ENDBRANCH  10  11
ENDBRANCH   9  10
ENDBRANCH   8   9
ENDBRANCH   1   8
TORSDOF 9
ENDMDL
MODEL 5
REMARK VINA RESULT:    -3.594     12.276     14.274
REMARK INTER + INTRA:          -5.792
REMARK INTER:                  -5.207
REMARK INTRA:                  -0.585
REMARK UNBOUND:                -0.306
REMARK SMILES O=C([O-])CCCCCCCCC(=O)[O-]
REMARK SMILES IDX 7 1 6 2 5 3 4 4 2 5 1 6 3 7 8 8 9 9 10 10 11 11 12 12 13 13
REMARK SMILES IDX 14 14
REMARK H PARENT
REMARK Flexibility Score: inf
ROOT
ATOM      1  C   UNL     1      61.701  33.326  60.290  1.00  0.00     0.000 C 
ENDROOT
BRANCH   1   2
ATOM      2  C   UNL     1      61.838  34.768  59.768  1.00  0.00     0.000 C 
BRANCH   2   3
ATOM      3  C   UNL     1      62.890  35.633  60.493  1.00  0.00     0.006 C 
BRANCH   3   4
ATOM      4  C   UNL     1      64.117  34.857  60.997  1.00  0.00     0.053 C 
BRANCH   4   5
ATOM      5  C   UNL     1      65.358  35.214  60.239  1.00  0.00     0.041 C 
ATOM      6  O   UNL     1      66.290  35.840  60.809  1.00  0.00    -0.550 OA
ATOM      7  O   UNL     1      65.470  34.887  58.893  1.00  0.00    -0.550 OA
ENDBRANCH   4   5
ENDBRANCH   3   4
ENDBRANCH   2   3
ENDBRANCH   1   2
BRANCH   1   8
ATOM      8  C   UNL     1      61.164  32.352  59.228  1.00  0.00     0.000 C 
BRANCH   8   9
ATOM      9  C   UNL     1      60.966  30.930  59.778  1.00  0.00     0.000 C 
BRANCH   9  10
ATOM     10  C   UNL     1      61.542  30.756  61.192  1.00  0.00     0.006 C 
BRANCH  10  11
ATOM     11  C   UNL     1      62.375  29.475  61.290  1.00  0.00     0.053 C 
BRANCH  11  12
ATOM     12  C   UNL     1      63.813  29.762  60.993  1.00  0.00     0.041 C 
ATOM     13  O   UNL     1      64.624  28.815  60.819  1.00  0.00    -0.550 OA
ATOM     14  O   UNL     1      64.267  31.074  60.957  1.00  0.00    -0.550 OA
ENDBRANCH  11  12
ENDBRANCH  10  11
ENDBRANCH   9  10
ENDBRANCH   8   9
ENDBRANCH   1   8
TORSDOF 9
ENDMDL
MODEL 6
REMARK VINA RESULT:    -3.562     12.258     14.000
REMARK INTER + INTRA:          -5.742
REMARK INTER:                  -5.252
REMARK INTRA:                  -0.490
REMARK UNBOUND:                -0.306
REMARK SMILES O=C([O-])CCCCCCCCC(=O)[O-]
REMARK SMILES IDX 7 1 6 2 5 3 4 4 2 5 1 6 3 7 8 8 9 9 10 10 11 11 12 12 13 13
REMARK SMILES IDX 14 14
REMARK H PARENT
REMARK Flexibility Score: inf
ROOT
ATOM      1  C   UNL     1      62.510  33.315  60.143  1.00  0.00     0.000 C 
ENDROOT
BRANCH   1   2
ATOM      2  C   UNL     1      61.277  32.625  59.533  1.00  0.00     0.000 C 
BRANCH   2   3
ATOM      3  C   UNL     1      61.114  31.133  59.888  1.00  0.00     0.006 C 
BRANCH   3   4
ATOM      4  C   UNL     1      61.515  30.773  61.328  1.00  0.00     0.053 C 
BRANCH   4   5
ATOM      5  C   UNL     1      62.589  29.730  61.367  1.00  0.00     0.041 C 
ATOM      6  O   UNL     1      63.801  30.066  61.318  1.00  0.00    -0.550 OA
ATOM      7  O   UNL     1      62.250  28.384  61.422  1.00  0.00    -0.550 OA
ENDBRANCH   4   5
ENDBRANCH   3   4
ENDBRANCH   2   3
ENDBRANCH   1   2
BRANCH   1   8
ATOM      8  C   UNL     1      62.457  34.848  60.030  1.00  0.00     0.000 C 
BRANCH   8   9
ATOM      9  C   UNL     1      63.409  35.545  61.015  1.00  0.00     0.000 C 
BRANCH   9  10
ATOM     10  C   UNL     1      64.744  34.801  61.177  1.00  0.00     0.006 C 
BRANCH  10  11
ATOM     11  C   UNL     1      65.912  35.657  60.678  1.00  0.00     0.053 C 
BRANCH  11  12
ATOM     12  C   UNL     1      65.805  35.882  59.203  1.00  0.00     0.041 C 
ATOM     13  O   UNL     1      66.104  34.961  58.399  1.00  0.00    -0.550 OA
ATOM     14  O   UNL     1      65.422  37.125  58.716  1.00  0.00    -0.550 OA
ENDBRANCH  11  12
ENDBRANCH  10  11
ENDBRANCH   9  10
ENDBRANCH   8   9
ENDBRANCH   1   8
TORSDOF 9
ENDMDL
MODEL 7
REMARK VINA RESULT:    -3.558      1.012      1.353
REMARK INTER + INTRA:          -5.736
REMARK INTER:                  -5.344
REMARK INTRA:                  -0.392
REMARK UNBOUND:                -0.306
REMARK SMILES O=C([O-])CCCCCCCCC(=O)[O-]
REMARK SMILES IDX 7 1 6 2 5 3 4 4 2 5 1 6 3 7 8 8 9 9 10 10 11 11 12 12 13 13
REMARK SMILES IDX 14 14
REMARK H PARENT
REMARK Flexibility Score: inf
ROOT
ATOM      1  C   UNL     1      57.673  28.226  50.135  1.00  0.00     0.000 C 
ENDROOT
BRANCH   1   2
ATOM      2  C   UNL     1      56.372  28.927  50.565  1.00  0.00     0.000 C 
BRANCH   2   3
ATOM      3  C   UNL     1      55.162  27.994  50.779  1.00  0.00     0.006 C 
BRANCH   3   4
ATOM      4  C   UNL     1      54.233  27.863  49.562  1.00  0.00     0.053 C 
BRANCH   4   5
ATOM      5  C   UNL     1      54.193  26.463  49.034  1.00  0.00     0.041 C 
ATOM      6  O   UNL     1      53.098  25.952  48.678  1.00  0.00    -0.550 OA
ATOM      7  O   UNL     1      55.358  25.709  48.970  1.00  0.00    -0.550 OA
ENDBRANCH   4   5
ENDBRANCH   3   4
ENDBRANCH   2   3
ENDBRANCH   1   2
BRANCH   1   8
ATOM      8  C   UNL     1      58.798  29.214  49.783  1.00  0.00     0.000 C 
BRANCH   8   9
ATOM      9  C   UNL     1      59.937  28.553  48.991  1.00  0.00     0.000 C 
BRANCH   9  10
ATOM     10  C   UNL     1      60.087  27.056  49.303  1.00  0.00     0.006 C 
BRANCH  10  11
ATOM     11  C   UNL     1      61.126  26.827  50.403  1.00  0.00     0.053 C 
BRANCH  11  12
ATOM     12  C   UNL     1      62.435  26.409  49.811  1.00  0.00     0.041 C 
ATOM     13  O   UNL     1      63.129  27.237  49.165  1.00  0.00    -0.550 OA
ATOM     14  O   UNL     1      62.863  25.094  49.930  1.00  0.00    -0.550 OA
ENDBRANCH  11  12
ENDBRANCH  10  11
ENDBRANCH   9  10
ENDBRANCH   8   9
ENDBRANCH   1   8
TORSDOF 9
ENDMDL
MODEL 8
REMARK VINA RESULT:    -3.495     12.276     14.072
REMARK INTER + INTRA:          -5.640
REMARK INTER:                  -4.885
REMARK INTRA:                  -0.755
REMARK UNBOUND:                -0.306
REMARK SMILES O=C([O-])CCCCCCCCC(=O)[O-]
REMARK SMILES IDX 7 1 6 2 5 3 4 4 2 5 1 6 3 7 8 8 9 9 10 10 11 11 12 12 13 13
REMARK SMILES IDX 14 14
REMARK H PARENT
REMARK Flexibility Score: inf
ROOT
ATOM      1  C   UNL     1      61.080  31.171  61.025  1.00  0.00     0.000 C 
ENDROOT
BRANCH   1   2
ATOM      2  C   UNL     1      62.014  30.048  61.511  1.00  0.00     0.000 C 
BRANCH   2   3
ATOM      3  C   UNL     1      63.115  29.631  60.514  1.00  0.00     0.006 C 
BRANCH   3   4
ATOM      4  C   UNL     1      64.457  30.354  60.704  1.00  0.00     0.053 C 
BRANCH   4   5
ATOM      5  C   UNL     1      65.611  29.535  60.215  1.00  0.00     0.041 C 
ATOM      6  O   UNL     1      66.372  29.987  59.319  1.00  0.00    -0.550 OA
ATOM      7  O   UNL     1      65.825  28.260  60.722  1.00  0.00    -0.550 OA
ENDBRANCH   4   5
ENDBRANCH   3   4
ENDBRANCH   2   3
ENDBRANCH   1   2
BRANCH   1   8
ATOM      8  C   UNL     1      61.064  31.318  59.494  1.00  0.00     0.000 C 
BRANCH   8   9
ATOM      9  C   UNL     1      61.686  32.642  59.023  1.00  0.00     0.000 C 
BRANCH   9  10
ATOM     10  C   UNL     1      61.875  33.650  60.167  1.00  0.00     0.006 C 
BRANCH  10  11
ATOM     11  C   UNL     1      63.360  33.944  60.397  1.00  0.00     0.053 C 
BRANCH  11  12
ATOM     12  C   UNL     1      63.561  35.386  60.743  1.00  0.00     0.041 C 
ATOM     13  O   UNL     1      64.716  35.823  60.988  1.00  0.00    -0.550 OA
ATOM     14  O   UNL     1      62.467  36.236  60.843  1.00  0.00    -0.550 OA
ENDBRANCH  11  12
ENDBRANCH  10  11
ENDBRANCH   9  10
ENDBRANCH   8   9
ENDBRANCH   1   8
TORSDOF 9
ENDMDL
MODEL 9
REMARK VINA RESULT:    -3.426      1.542      2.244
REMARK INTER + INTRA:          -5.534
REMARK INTER:                  -4.856
REMARK INTRA:                  -0.679
REMARK UNBOUND:                -0.306
REMARK SMILES O=C([O-])CCCCCCCCC(=O)[O-]
REMARK SMILES IDX 7 1 6 2 5 3 4 4 2 5 1 6 3 7 8 8 9 9 10 10 11 11 12 12 13 13
REMARK SMILES IDX 14 14
REMARK H PARENT
REMARK Flexibility Score: inf
ROOT
ATOM      1  C   UNL     1      57.325  27.595  51.445  1.00  0.00     0.000 C 
ENDROOT
BRANCH   1   2
ATOM      2  C   UNL     1      57.018  26.425  50.492  1.00  0.00     0.000 C 
BRANCH   2   3
ATOM      3  C   UNL     1      55.694  26.543  49.711  1.00  0.00     0.006 C 
BRANCH   3   4
ATOM      4  C   UNL     1      55.018  27.920  49.805  1.00  0.00     0.053 C 
BRANCH   4   5
ATOM      5  C   UNL     1      53.557  27.852  49.485  1.00  0.00     0.041 C 
ATOM      6  O   UNL     1      52.876  28.908  49.405  1.00  0.00    -0.550 OA
ATOM      7  O   UNL     1      52.939  26.620  49.310  1.00  0.00    -0.550 OA
ENDBRANCH   4   5
ENDBRANCH   3   4
ENDBRANCH   2   3
ENDBRANCH   1   2
BRANCH   1   8
ATOM      8  C   UNL     1      58.730  28.186  51.236  1.00  0.00     0.000 C 
BRANCH   8   9
ATOM      9  C   UNL     1      58.752  29.289  50.166  1.00  0.00     0.000 C 
BRANCH   9  10
ATOM     10  C   UNL     1      59.631  28.928  48.959  1.00  0.00     0.006 C 
BRANCH  10  11
ATOM     11  C   UNL     1      60.447  27.663  49.235  1.00  0.00     0.053 C 
BRANCH  11  12
ATOM     12  C   UNL     1      61.895  27.999  49.407  1.00  0.00     0.041 C 
ATOM     13  O   UNL     1      62.244  29.179  49.670  1.00  0.00    -0.550 OA
ATOM     14  O   UNL     1      62.862  27.018  49.230  1.00  0.00    -0.550 OA
ENDBRANCH  11  12
ENDBRANCH  10  11
ENDBRANCH   9  10
ENDBRANCH   8   9
ENDBRANCH   1   8
TORSDOF 9
ENDMDL
