MODEL 1
REMARK VINA RESULT:    -4.177      0.000      0.000
REMARK INTER + INTRA:          -5.341
REMARK INTER:                  -5.153
REMARK INTRA:                  -0.188
REMARK UNBOUND:                -0.188
REMARK SMILES [NH3+][C@H](Cc1ccc(O)cc1)C(=O)[O-]
REMARK SMILES IDX 3 1 2 2 1 3 11 7 12 8 13 9 4 10 5 11 10 12 6 13 9 14 7 15
REMARK SMILES IDX 8 16
REMARK H PARENT 1 4 1 5 1 6 8 17
REMARK Flexibility Score: inf
ROOT
ATOM      1  C   UNL     1       3.088   4.229  -3.381  1.00  0.00     0.107 C 
ENDROOT
BRANCH   1   2
ATOM      2  C   UNL     1       1.840   4.859  -4.033  1.00  0.00     0.232 C 
BRANCH   2   3
ATOM      3  N   UNL     1       1.512   4.208  -5.309  1.00  0.00    -0.350 N 
ATOM      4  H   UNL     1       0.706   3.550  -5.194  1.00  0.00     0.345 HD
ATOM      5  H   UNL     1       2.340   3.676  -5.663  1.00  0.00     0.345 HD
ATOM      6  H   UNL     1       1.266   4.930  -6.024  1.00  0.00     0.345 HD
ENDBRANCH   2   3
BRANCH   2   7
ATOM      7  C   UNL     1       0.672   4.762  -3.089  1.00  0.00     0.099 C 
ATOM      8  O   UNL     1       0.781   4.122  -2.010  1.00  0.00    -0.544 OA
ATOM      9  O   UNL     1      -0.541   5.360  -3.412  1.00  0.00    -0.544 OA
ENDBRANCH   2   7
ENDBRANCH   1   2
BRANCH   1  10
ATOM     10  C   UNL     1       4.361   4.680  -4.051  1.00  0.00    -0.041 A 
ATOM     11  C   UNL     1       5.371   3.753  -4.359  1.00  0.00     0.008 A 
ATOM     12  C   UNL     1       4.534   6.028  -4.406  1.00  0.00     0.008 A 
ATOM     13  C   UNL     1       6.539   4.171  -5.002  1.00  0.00     0.046 A 
ATOM     14  C   UNL     1       5.704   6.444  -5.048  1.00  0.00     0.046 A 
ATOM     15  C   UNL     1       6.711   5.516  -5.347  1.00  0.00     0.115 A 
BRANCH  15  16
ATOM     16  O   UNL     1       7.880   5.919  -5.986  1.00  0.00    -0.508 OA
ATOM     17  H   UNL     1       7.881   6.207  -6.957  1.00  0.00     0.293 HD
ENDBRANCH  15  16
ENDBRANCH   1  10
TORSDOF 5
ENDMDL
MODEL 2
REMARK VINA RESULT:    -4.154      8.179      8.981
REMARK INTER + INTRA:          -5.313
REMARK INTER:                  -5.049
REMARK INTRA:                  -0.264
REMARK UNBOUND:                -0.188
REMARK SMILES [NH3+][C@H](Cc1ccc(O)cc1)C(=O)[O-]
REMARK SMILES IDX 3 1 2 2 1 3 11 7 12 8 13 9 4 10 5 11 10 12 6 13 9 14 7 15
REMARK SMILES IDX 8 16
REMARK H PARENT 1 4 1 5 1 6 8 17
REMARK Flexibility Score: inf
ROOT
ATOM      1  C   UNL     1       5.341  -2.667   2.184  1.00  0.00     0.107 C 
ENDROOT
BRANCH   1   2
ATOM      2  C   UNL     1       4.294  -2.009   3.107  1.00  0.00     0.232 C 
BRANCH   2   3
ATOM      3  N   UNL     1       3.551  -3.013   3.881  1.00  0.00    -0.350 N 
ATOM      4  H   UNL     1       2.990  -2.557   4.638  1.00  0.00     0.345 HD
ATOM      5  H   UNL     1       4.215  -3.697   4.310  1.00  0.00     0.345 HD
ATOM      6  H   UNL     1       2.908  -3.544   3.250  1.00  0.00     0.345 HD
ENDBRANCH   2   3
BRANCH   2   7
ATOM      7  C   UNL     1       4.976  -1.041   4.036  1.00  0.00     0.099 C 
ATOM      8  O   UNL     1       5.881  -1.441   4.815  1.00  0.00    -0.544 OA
ATOM      9  O   UNL     1       4.597   0.297   4.056  1.00  0.00    -0.544 OA
ENDBRANCH   2   7
ENDBRANCH   1   2
BRANCH   1  10
ATOM     10  C   UNL     1       5.843  -1.711   1.132  1.00  0.00    -0.041 A 
ATOM     11  C   UNL     1       7.222  -1.557   0.909  1.00  0.00     0.008 A 
ATOM     12  C   UNL     1       4.934  -0.989   0.341  1.00  0.00     0.008 A 
ATOM     13  C   UNL     1       7.683  -0.687  -0.083  1.00  0.00     0.046 A 
ATOM     14  C   UNL     1       5.398  -0.119  -0.650  1.00  0.00     0.046 A 
ATOM     15  C   UNL     1       6.775   0.035  -0.864  1.00  0.00     0.115 A 
BRANCH  15  16
ATOM     16  O   UNL     1       7.248   0.898  -1.849  1.00  0.00    -0.508 OA
ATOM     17  H   UNL     1       7.508   0.562  -2.768  1.00  0.00     0.293 HD
ENDBRANCH  15  16
ENDBRANCH   1  10
TORSDOF 5
ENDMDL
MODEL 3
REMARK VINA RESULT:    -3.997      2.946      5.946
REMARK INTER + INTRA:          -5.120
REMARK INTER:                  -4.910
REMARK INTRA:                  -0.209
REMARK UNBOUND:                -0.188
REMARK SMILES [NH3+][C@H](Cc1ccc(O)cc1)C(=O)[O-]
REMARK SMILES IDX 3 1 2 2 1 3 11 7 12 8 13 9 4 10 5 11 10 12 6 13 9 14 7 15
REMARK SMILES IDX 8 16
REMARK H PARENT 1 4 1 5 1 6 8 17
REMARK Flexibility Score: inf
ROOT
ATOM      1  C   UNL     1       7.559   5.958  -6.057  1.00  0.00     0.107 C 
ENDROOT
BRANCH   1   2
ATOM      2  C   UNL     1       7.181   6.191  -7.535  1.00  0.00     0.232 C 
BRANCH   2   3
ATOM      3  N   UNL     1       8.151   7.067  -8.206  1.00  0.00    -0.350 N 
ATOM      4  H   UNL     1       8.808   6.507  -8.799  1.00  0.00     0.345 HD
ATOM      5  H   UNL     1       8.701   7.603  -7.497  1.00  0.00     0.345 HD
ATOM      6  H   UNL     1       7.649   7.758  -8.810  1.00  0.00     0.345 HD
ENDBRANCH   2   3
BRANCH   2   7
ATOM      7  C   UNL     1       7.096   4.871  -8.250  1.00  0.00     0.099 C 
ATOM      8  O   UNL     1       6.020   4.517  -8.801  1.00  0.00    -0.544 OA
ATOM      9  O   UNL     1       8.197   4.022  -8.288  1.00  0.00    -0.544 OA
ENDBRANCH   2   7
ENDBRANCH   1   2
BRANCH   1  10
ATOM     10  C   UNL     1       6.395   5.432  -5.256  1.00  0.00    -0.041 A 
ATOM     11  C   UNL     1       5.335   6.282  -4.896  1.00  0.00     0.008 A 
ATOM     12  C   UNL     1       6.343   4.077  -4.890  1.00  0.00     0.008 A 
ATOM     13  C   UNL     1       4.247   5.786  -4.173  1.00  0.00     0.046 A 
ATOM     14  C   UNL     1       5.254   3.583  -4.166  1.00  0.00     0.046 A 
ATOM     15  C   UNL     1       4.203   4.437  -3.805  1.00  0.00     0.115 A 
BRANCH  15  16
ATOM     16  O   UNL     1       3.113   3.955  -3.085  1.00  0.00    -0.508 OA
ATOM     17  H   UNL     1       2.920   4.269  -2.141  1.00  0.00     0.293 HD
ENDBRANCH  15  16
ENDBRANCH   1  10
TORSDOF 5
ENDMDL
MODEL 4
REMARK VINA RESULT:    -3.981      3.884      5.772
REMARK INTER + INTRA:          -5.100
REMARK INTER:                  -4.880
REMARK INTRA:                  -0.220
REMARK UNBOUND:                -0.188
REMARK SMILES [NH3+][C@H](Cc1ccc(O)cc1)C(=O)[O-]
REMARK SMILES IDX 3 1 2 2 1 3 11 7 12 8 13 9 4 10 5 11 10 12 6 13 9 14 7 15
REMARK SMILES IDX 8 16
REMARK H PARENT 1 4 1 5 1 6 8 17
REMARK Flexibility Score: inf
ROOT
ATOM      1  C   UNL     1       1.002   2.920  -1.401  1.00  0.00     0.107 C 
ENDROOT
BRANCH   1   2
ATOM      2  C   UNL     1       1.889   3.169  -2.639  1.00  0.00     0.232 C 
BRANCH   2   3
ATOM      3  N   UNL     1       1.684   2.137  -3.664  1.00  0.00    -0.350 N 
ATOM      4  H   UNL     1       0.724   1.725  -3.590  1.00  0.00     0.345 HD
ATOM      5  H   UNL     1       2.393   1.376  -3.554  1.00  0.00     0.345 HD
ATOM      6  H   UNL     1       1.806   2.552  -4.616  1.00  0.00     0.345 HD
ENDBRANCH   2   3
BRANCH   2   7
ATOM      7  C   UNL     1       1.592   4.529  -3.208  1.00  0.00     0.099 C 
ATOM      8  O   UNL     1       2.460   5.134  -3.892  1.00  0.00    -0.544 OA
ATOM      9  O   UNL     1       0.365   5.138  -2.966  1.00  0.00    -0.544 OA
ENDBRANCH   2   7
ENDBRANCH   1   2
BRANCH   1  10
ATOM     10  C   UNL     1       1.772   3.083  -0.115  1.00  0.00    -0.041 A 
ATOM     11  C   UNL     1       3.145   2.787  -0.064  1.00  0.00     0.008 A 
ATOM     12  C   UNL     1       1.130   3.567   1.037  1.00  0.00     0.008 A 
ATOM     13  C   UNL     1       3.860   2.962   1.123  1.00  0.00     0.046 A 
ATOM     14  C   UNL     1       1.848   3.740   2.224  1.00  0.00     0.046 A 
ATOM     15  C   UNL     1       3.215   3.437   2.270  1.00  0.00     0.115 A 
BRANCH  15  16
ATOM     16  O   UNL     1       3.940   3.607   3.447  1.00  0.00    -0.508 OA
ATOM     17  H   UNL     1       4.224   2.817   4.014  1.00  0.00     0.293 HD
ENDBRANCH  15  16
ENDBRANCH   1  10
TORSDOF 5
ENDMDL
MODEL 5
REMARK VINA RESULT:    -3.899      4.838      7.149
REMARK INTER + INTRA:          -4.999
REMARK INTER:                  -4.797
REMARK INTRA:                  -0.202
REMARK UNBOUND:                -0.188
REMARK SMILES [NH3+][C@H](Cc1ccc(O)cc1)C(=O)[O-]
REMARK SMILES IDX 3 1 2 2 1 3 11 7 12 8 13 9 4 10 5 11 10 12 6 13 9 14 7 15
REMARK SMILES IDX 8 16
REMARK H PARENT 1 4 1 5 1 6 8 17
REMARK Flexibility Score: inf
ROOT
ATOM      1  C   UNL     1       4.199   2.261  -1.629  1.00  0.00     0.107 C 
ENDROOT
BRANCH   1   2
ATOM      2  C   UNL     1       4.766   0.837  -1.460  1.00  0.00     0.232 C 
BRANCH   2   3
ATOM      3  N   UNL     1       4.455  -0.009  -2.621  1.00  0.00    -0.350 N 
ATOM      4  H   UNL     1       3.966  -0.884  -2.321  1.00  0.00     0.345 HD
ATOM      5  H   UNL     1       5.335  -0.263  -3.126  1.00  0.00     0.345 HD
ATOM      6  H   UNL     1       3.843   0.514  -3.288  1.00  0.00     0.345 HD
ENDBRANCH   2   3
BRANCH   2   7
ATOM      7  C   UNL     1       6.255   0.906  -1.256  1.00  0.00     0.099 C 
ATOM      8  O   UNL     1       7.025   1.039  -2.244  1.00  0.00    -0.544 OA
ATOM      9  O   UNL     1       6.793   0.802   0.022  1.00  0.00    -0.544 OA
ENDBRANCH   2   7
ENDBRANCH   1   2
BRANCH   1  10
ATOM     10  C   UNL     1       3.367   2.680  -0.444  1.00  0.00    -0.041 A 
ATOM     11  C   UNL     1       3.983   3.063   0.759  1.00  0.00     0.008 A 
ATOM     12  C   UNL     1       1.966   2.723  -0.543  1.00  0.00     0.008 A 
ATOM     13  C   UNL     1       3.210   3.473   1.848  1.00  0.00     0.046 A 
ATOM     14  C   UNL     1       1.195   3.133   0.548  1.00  0.00     0.046 A 
ATOM     15  C   UNL     1       1.815   3.508   1.748  1.00  0.00     0.115 A 
BRANCH  15  16
ATOM     16  O   UNL     1       1.056   3.918   2.841  1.00  0.00    -0.508 OA
ATOM     17  H   UNL     1       0.819   4.892   2.987  1.00  0.00     0.293 HD
ENDBRANCH  15  16
ENDBRANCH   1  10
TORSDOF 5
ENDMDL
MODEL 6
REMARK VINA RESULT:    -3.899      3.214      3.901
REMARK INTER + INTRA:          -4.999
REMARK INTER:                  -4.763
REMARK INTRA:                  -0.235
REMARK UNBOUND:                -0.188
REMARK SMILES [NH3+][C@H](Cc1ccc(O)cc1)C(=O)[O-]
REMARK SMILES IDX 3 1 2 2 1 3 11 7 12 8 13 9 4 10 5 11 10 12 6 13 9 14 7 15
REMARK SMILES IDX 8 16
REMARK H PARENT 1 4 1 5 1 6 8 17
REMARK Flexibility Score: inf
ROOT
ATOM      1  C   UNL     1       4.162   1.990  -3.150  1.00  0.00     0.107 C 
ENDROOT
BRANCH   1   2
ATOM      2  C   UNL     1       3.886   2.081  -1.634  1.00  0.00     0.232 C 
BRANCH   2   3
ATOM      3  N   UNL     1       2.643   1.387  -1.271  1.00  0.00    -0.350 N 
ATOM      4  H   UNL     1       2.467   1.457  -0.241  1.00  0.00     0.345 HD
ATOM      5  H   UNL     1       2.703   0.378  -1.541  1.00  0.00     0.345 HD
ATOM      6  H   UNL     1       1.836   1.808  -1.786  1.00  0.00     0.345 HD
ENDBRANCH   2   3
BRANCH   2   7
ATOM      7  C   UNL     1       5.045   1.497  -0.874  1.00  0.00     0.099 C 
ATOM      8  O   UNL     1       5.196   1.758   0.349  1.00  0.00    -0.544 OA
ATOM      9  O   UNL     1       5.970   0.684  -1.520  1.00  0.00    -0.544 OA
ENDBRANCH   2   7
ENDBRANCH   1   2
BRANCH   1  10
ATOM     10  C   UNL     1       4.700   3.286  -3.702  1.00  0.00    -0.041 A 
ATOM     11  C   UNL     1       5.882   3.300  -4.461  1.00  0.00     0.008 A 
ATOM     12  C   UNL     1       4.003   4.487  -3.491  1.00  0.00     0.008 A 
ATOM     13  C   UNL     1       6.365   4.500  -4.991  1.00  0.00     0.046 A 
ATOM     14  C   UNL     1       4.489   5.686  -4.021  1.00  0.00     0.046 A 
ATOM     15  C   UNL     1       5.672   5.696  -4.772  1.00  0.00     0.115 A 
BRANCH  15  16
ATOM     16  O   UNL     1       6.164   6.884  -5.306  1.00  0.00    -0.508 OA
ATOM     17  H   UNL     1       6.975   7.347  -4.912  1.00  0.00     0.293 HD
ENDBRANCH  15  16
ENDBRANCH   1  10
TORSDOF 5
ENDMDL
MODEL 7
REMARK VINA RESULT:    -3.883      3.185      4.038
REMARK INTER + INTRA:          -4.978
REMARK INTER:                  -4.761
REMARK INTRA:                  -0.217
REMARK UNBOUND:                -0.188
REMARK SMILES [NH3+][C@H](Cc1ccc(O)cc1)C(=O)[O-]
REMARK SMILES IDX 3 1 2 2 1 3 11 7 12 8 13 9 4 10 5 11 10 12 6 13 9 14 7 15
REMARK SMILES IDX 8 16
REMARK H PARENT 1 4 1 5 1 6 8 17
REMARK Flexibility Score: inf
ROOT
ATOM      1  C   UNL     1       4.185   1.964  -3.124  1.00  0.00     0.107 C 
ENDROOT
BRANCH   1   2
ATOM      2  C   UNL     1       3.845   2.109  -1.626  1.00  0.00     0.232 C 
BRANCH   2   3
ATOM      3  N   UNL     1       2.548   1.498  -1.307  1.00  0.00    -0.350 N 
ATOM      4  H   UNL     1       2.331   1.599  -0.288  1.00  0.00     0.345 HD
ATOM      5  H   UNL     1       2.560   0.482  -1.556  1.00  0.00     0.345 HD
ATOM      6  H   UNL     1       1.791   1.955  -1.866  1.00  0.00     0.345 HD
ENDBRANCH   2   3
BRANCH   2   7
ATOM      7  C   UNL     1       4.931   1.480  -0.797  1.00  0.00     0.099 C 
ATOM      8  O   UNL     1       5.155   1.890   0.372  1.00  0.00    -0.544 OA
ATOM      9  O   UNL     1       5.711   0.456  -1.325  1.00  0.00    -0.544 OA
ENDBRANCH   2   7
ENDBRANCH   1   2
BRANCH   1  10
ATOM     10  C   UNL     1       4.696   3.255  -3.712  1.00  0.00    -0.041 A 
ATOM     11  C   UNL     1       4.008   4.461  -3.490  1.00  0.00     0.008 A 
ATOM     12  C   UNL     1       5.885   3.270  -4.460  1.00  0.00     0.008 A 
ATOM     13  C   UNL     1       4.498   5.659  -4.018  1.00  0.00     0.046 A 
ATOM     14  C   UNL     1       6.372   4.470  -4.987  1.00  0.00     0.046 A 
ATOM     15  C   UNL     1       5.678   5.668  -4.768  1.00  0.00     0.115 A 
BRANCH  15  16
ATOM     16  O   UNL     1       6.155   6.869  -5.287  1.00  0.00    -0.508 OA
ATOM     17  H   UNL     1       5.942   7.159  -6.234  1.00  0.00     0.293 HD
ENDBRANCH  15  16
ENDBRANCH   1  10
TORSDOF 5
ENDMDL
MODEL 8
REMARK VINA RESULT:    -3.871      5.806      7.034
REMARK INTER + INTRA:          -4.965
REMARK INTER:                  -4.769
REMARK INTRA:                  -0.195
REMARK UNBOUND:                -0.188
REMARK SMILES [NH3+][C@H](Cc1ccc(O)cc1)C(=O)[O-]
REMARK SMILES IDX 3 1 2 2 1 3 11 7 12 8 13 9 4 10 5 11 10 12 6 13 9 14 7 15
REMARK SMILES IDX 8 16
REMARK H PARENT 1 4 1 5 1 6 8 17
REMARK Flexibility Score: inf
ROOT
ATOM      1  C   UNL     1       0.984   3.725   2.644  1.00  0.00     0.107 C 
ENDROOT
BRANCH   1   2
ATOM      2  C   UNL     1       0.497   2.468   3.396  1.00  0.00     0.232 C 
BRANCH   2   3
ATOM      3  N   UNL     1       1.104   2.371   4.731  1.00  0.00    -0.350 N 
ATOM      4  H   UNL     1       2.093   2.035   4.665  1.00  0.00     0.345 HD
ATOM      5  H   UNL     1       0.555   1.709   5.327  1.00  0.00     0.345 HD
ATOM      6  H   UNL     1       1.090   3.307   5.197  1.00  0.00     0.345 HD
ENDBRANCH   2   3
BRANCH   2   7
ATOM      7  C   UNL     1      -1.002   2.497   3.511  1.00  0.00     0.099 C 
ATOM      8  O   UNL     1      -1.550   2.974   4.539  1.00  0.00    -0.544 OA
ATOM      9  O   UNL     1      -1.793   1.977   2.491  1.00  0.00    -0.544 OA
ENDBRANCH   2   7
ENDBRANCH   1   2
BRANCH   1  10
ATOM     10  C   UNL     1       1.889   3.374   1.490  1.00  0.00    -0.041 A 
ATOM     11  C   UNL     1       3.283   3.340   1.662  1.00  0.00     0.008 A 
ATOM     12  C   UNL     1       1.342   3.044   0.239  1.00  0.00     0.008 A 
ATOM     13  C   UNL     1       4.117   2.992   0.596  1.00  0.00     0.046 A 
ATOM     14  C   UNL     1       2.179   2.696  -0.826  1.00  0.00     0.046 A 
ATOM     15  C   UNL     1       3.569   2.671  -0.651  1.00  0.00     0.115 A 
BRANCH  15  16
ATOM     16  O   UNL     1       4.411   2.325  -1.704  1.00  0.00    -0.508 OA
ATOM     17  H   UNL     1       5.339   2.720  -1.793  1.00  0.00     0.293 HD
ENDBRANCH  15  16
ENDBRANCH   1  10
TORSDOF 5
ENDMDL
MODEL 9
REMARK VINA RESULT:    -3.871      1.704      1.975
REMARK INTER + INTRA:          -4.963
REMARK INTER:                  -4.744
REMARK INTRA:                  -0.219
REMARK UNBOUND:                -0.188
REMARK SMILES [NH3+][C@H](Cc1ccc(O)cc1)C(=O)[O-]
REMARK SMILES IDX 3 1 2 2 1 3 11 7 12 8 13 9 4 10 5 11 10 12 6 13 9 14 7 15
REMARK SMILES IDX 8 16
REMARK H PARENT 1 4 1 5 1 6 8 17
REMARK Flexibility Score: inf
ROOT
ATOM      1  C   UNL     1       4.365   5.374  -3.749  1.00  0.00     0.107 C 
ENDROOT
BRANCH   1   2
ATOM      2  C   UNL     1       3.301   4.256  -3.749  1.00  0.00     0.232 C 
BRANCH   2   3
ATOM      3  N   UNL     1       3.365   3.452  -2.520  1.00  0.00    -0.350 N 
ATOM      4  H   UNL     1       3.156   2.447  -2.724  1.00  0.00     0.345 HD
ATOM      5  H   UNL     1       2.676   3.811  -1.820  1.00  0.00     0.345 HD
ATOM      6  H   UNL     1       4.318   3.525  -2.097  1.00  0.00     0.345 HD
ENDBRANCH   2   3
BRANCH   2   7
ATOM      7  C   UNL     1       1.932   4.861  -3.899  1.00  0.00     0.099 C 
ATOM      8  O   UNL     1       1.104   4.800  -2.952  1.00  0.00    -0.544 OA
ATOM      9  O   UNL     1       1.563   5.472  -5.093  1.00  0.00    -0.544 OA
ENDBRANCH   2   7
ENDBRANCH   1   2
BRANCH   1  10
ATOM     10  C   UNL     1       5.365   5.197  -4.863  1.00  0.00    -0.041 A 
ATOM     11  C   UNL     1       5.435   3.987  -5.573  1.00  0.00     0.008 A 
ATOM     12  C   UNL     1       6.215   6.256  -5.224  1.00  0.00     0.008 A 
ATOM     13  C   UNL     1       6.347   3.835  -6.620  1.00  0.00     0.046 A 
ATOM     14  C   UNL     1       7.128   6.101  -6.272  1.00  0.00     0.046 A 
ATOM     15  C   UNL     1       7.197   4.889  -6.972  1.00  0.00     0.115 A 
BRANCH  15  16
ATOM     16  O   UNL     1       8.102   4.725  -8.018  1.00  0.00    -0.508 OA
ATOM     17  H   UNL     1       7.883   5.025  -8.960  1.00  0.00     0.293 HD
ENDBRANCH  15  16
ENDBRANCH   1  10
TORSDOF 5
ENDMDL
