MODEL 1
REMARK VINA RESULT:    -2.899      0.000      0.000
REMARK INTER + INTRA:          -3.431
REMARK INTER:                  -3.407
REMARK INTRA:                  -0.024
REMARK UNBOUND:                -0.024
REMARK SMILES CCCCC(=O)[O-]
REMARK SMILES IDX 4 1 5 2 6 3 7 4 3 5 2 6 1 7
REMARK H PARENT
REMARK Flexibility Score: inf
ROOT
ATOM      1  C   UNL     1     156.239 173.454 162.546  1.00  0.00     0.053 C 
ENDROOT
BRANCH   1   2
ATOM      2  C   UNL     1     157.704 173.593 162.272  1.00  0.00     0.041 C 
ATOM      3  O   UNL     1     158.534 172.874 162.886  1.00  0.00    -0.550 OA
ATOM      4  O   UNL     1     158.154 174.554 161.374  1.00  0.00    -0.550 OA
ENDBRANCH   1   2
BRANCH   1   5
ATOM      5  C   UNL     1     156.002 172.515 163.733  1.00  0.00     0.006 C 
BRANCH   5   6
ATOM      6  C   UNL     1     154.542 172.052 163.782  1.00  0.00    -0.003 C 
ATOM      7  C   UNL     1     154.444 170.530 163.715  1.00  0.00     0.004 C 
ENDBRANCH   5   6
ENDBRANCH   1   5
TORSDOF 3
ENDMDL
MODEL 2
REMARK VINA RESULT:    -2.894      2.728      3.955
REMARK INTER + INTRA:          -3.425
REMARK INTER:                  -3.313
REMARK INTRA:                  -0.112
REMARK UNBOUND:                -0.024
REMARK SMILES CCCCC(=O)[O-]
REMARK SMILES IDX 4 1 5 2 6 3 7 4 3 5 2 6 1 7
REMARK H PARENT
REMARK Flexibility Score: inf
ROOT
ATOM      1  C   UNL     1     156.514 173.458 164.828  1.00  0.00     0.053 C 
ENDROOT
BRANCH   1   2
ATOM      2  C   UNL     1     155.696 174.711 164.857  1.00  0.00     0.041 C 
ATOM      3  O   UNL     1     156.189 175.798 164.457  1.00  0.00    -0.550 OA
ATOM      4  O   UNL     1     154.406 174.688 165.372  1.00  0.00    -0.550 OA
ENDBRANCH   1   2
BRANCH   1   5
ATOM      5  C   UNL     1     156.630 172.925 163.397  1.00  0.00     0.006 C 
BRANCH   5   6
ATOM      6  C   UNL     1     158.055 173.101 162.861  1.00  0.00    -0.003 C 
ATOM      7  C   UNL     1     158.121 174.227 161.832  1.00  0.00     0.004 C 
ENDBRANCH   5   6
ENDBRANCH   1   5
TORSDOF 3
ENDMDL
MODEL 3
REMARK VINA RESULT:    -2.853     15.729     16.610
REMARK INTER + INTRA:          -3.377
REMARK INTER:                  -3.267
REMARK INTRA:                  -0.110
REMARK UNBOUND:                -0.024
REMARK SMILES CCCCC(=O)[O-]
REMARK SMILES IDX 4 1 5 2 6 3 7 4 3 5 2 6 1 7
REMARK H PARENT
REMARK Flexibility Score: inf
ROOT
ATOM      1  C   UNL     1     170.962 170.925 153.887  1.00  0.00     0.053 C 
ENDROOT
BRANCH   1   2
ATOM      2  C   UNL     1     169.991 170.279 154.825  1.00  0.00     0.041 C 
ATOM      3  O   UNL     1     168.780 170.622 154.819  1.00  0.00    -0.550 OA
ATOM      4  O   UNL     1     170.435 169.333 155.741  1.00  0.00    -0.550 OA
ENDBRANCH   1   2
BRANCH   1   5
ATOM      5  C   UNL     1     171.218 172.378 154.297  1.00  0.00     0.006 C 
BRANCH   5   6
ATOM      6  C   UNL     1     170.707 173.348 153.225  1.00  0.00    -0.003 C 
ATOM      7  C   UNL     1     169.344 173.922 153.606  1.00  0.00     0.004 C 
ENDBRANCH   5   6
ENDBRANCH   1   5
TORSDOF 3
ENDMDL
MODEL 4
REMARK VINA RESULT:    -2.820      2.835      4.098
REMARK INTER + INTRA:          -3.338
REMARK INTER:                  -3.302
REMARK INTRA:                  -0.036
REMARK UNBOUND:                -0.024
REMARK SMILES CCCCC(=O)[O-]
REMARK SMILES IDX 4 1 5 2 6 3 7 4 3 5 2 6 1 7
REMARK H PARENT
REMARK Flexibility Score: inf
ROOT
ATOM      1  C   UNL     1     156.072 172.405 163.619  1.00  0.00     0.053 C 
ENDROOT
BRANCH   1   2
ATOM      2  C   UNL     1     154.713 171.819 163.841  1.00  0.00     0.041 C 
ATOM      3  O   UNL     1     153.765 172.547 164.235  1.00  0.00    -0.550 OA
ATOM      4  O   UNL     1     154.506 170.456 163.660  1.00  0.00    -0.550 OA
ENDBRANCH   1   2
BRANCH   1   5
ATOM      5  C   UNL     1     156.017 173.494 162.543  1.00  0.00     0.006 C 
BRANCH   5   6
ATOM      6  C   UNL     1     157.424 173.842 162.044  1.00  0.00    -0.003 C 
ATOM      7  C   UNL     1     158.493 173.116 162.857  1.00  0.00     0.004 C 
ENDBRANCH   5   6
ENDBRANCH   1   5
TORSDOF 3
ENDMDL
MODEL 5
REMARK VINA RESULT:    -2.819      2.773      3.677
REMARK INTER + INTRA:          -3.337
REMARK INTER:                  -3.252
REMARK INTRA:                  -0.085
REMARK UNBOUND:                -0.024
REMARK SMILES CCCCC(=O)[O-]
REMARK SMILES IDX 4 1 5 2 6 3 7 4 3 5 2 6 1 7
REMARK H PARENT
REMARK Flexibility Score: inf
ROOT
ATOM      1  C   UNL     1     154.614 173.089 163.256  1.00  0.00     0.053 C 
ENDROOT
BRANCH   1   2
ATOM      2  C   UNL     1     154.332 174.535 163.517  1.00  0.00     0.041 C 
ATOM      3  O   UNL     1     154.366 174.985 164.692  1.00  0.00    -0.550 OA
ATOM      4  O   UNL     1     153.981 175.375 162.467  1.00  0.00    -0.550 OA
ENDBRANCH   1   2
BRANCH   1   5
ATOM      5  C   UNL     1     156.073 172.758 163.586  1.00  0.00     0.006 C 
BRANCH   5   6
ATOM      6  C   UNL     1     157.028 173.478 162.627  1.00  0.00    -0.003 C 
ATOM      7  C   UNL     1     158.480 173.105 162.914  1.00  0.00     0.004 C 
ENDBRANCH   5   6
ENDBRANCH   1   5
TORSDOF 3
ENDMDL
MODEL 6
REMARK VINA RESULT:    -2.808      2.741      2.895
REMARK INTER + INTRA:          -3.324
REMARK INTER:                  -3.211
REMARK INTRA:                  -0.113
REMARK UNBOUND:                -0.024
REMARK SMILES CCCCC(=O)[O-]
REMARK SMILES IDX 4 1 5 2 6 3 7 4 3 5 2 6 1 7
REMARK H PARENT
REMARK Flexibility Score: inf
ROOT
ATOM      1  C   UNL     1     155.298 173.813 163.110  1.00  0.00     0.053 C 
ENDROOT
BRANCH   1   2
ATOM      2  C   UNL     1     155.160 174.838 164.192  1.00  0.00     0.041 C 
ATOM      3  O   UNL     1     154.131 174.860 164.916  1.00  0.00    -0.550 OA
ATOM      4  O   UNL     1     156.148 175.800 164.368  1.00  0.00    -0.550 OA
ENDBRANCH   1   2
BRANCH   1   5
ATOM      5  C   UNL     1     155.893 172.518 163.669  1.00  0.00     0.006 C 
BRANCH   5   6
ATOM      6  C   UNL     1     154.808 171.452 163.858  1.00  0.00    -0.003 C 
ATOM      7  C   UNL     1     154.463 171.272 165.334  1.00  0.00     0.004 C 
ENDBRANCH   5   6
ENDBRANCH   1   5
TORSDOF 3
ENDMDL
MODEL 7
REMARK VINA RESULT:    -2.795     16.401     17.630
REMARK INTER + INTRA:          -3.309
REMARK INTER:                  -3.186
REMARK INTRA:                  -0.123
REMARK UNBOUND:                -0.024
REMARK SMILES CCCCC(=O)[O-]
REMARK SMILES IDX 4 1 5 2 6 3 7 4 3 5 2 6 1 7
REMARK H PARENT
REMARK Flexibility Score: inf
ROOT
ATOM      1  C   UNL     1     171.609 172.019 153.399  1.00  0.00     0.053 C 
ENDROOT
BRANCH   1   2
ATOM      2  C   UNL     1     171.566 172.249 151.920  1.00  0.00     0.041 C 
ATOM      3  O   UNL     1     170.681 171.692 151.219  1.00  0.00    -0.550 OA
ATOM      4  O   UNL     1     172.534 173.038 151.311  1.00  0.00    -0.550 OA
ENDBRANCH   1   2
BRANCH   1   5
ATOM      5  C   UNL     1     170.274 172.405 154.041  1.00  0.00     0.006 C 
BRANCH   5   6
ATOM      6  C   UNL     1     169.966 173.890 153.815  1.00  0.00    -0.003 C 
ATOM      7  C   UNL     1     168.532 174.087 153.330  1.00  0.00     0.004 C 
ENDBRANCH   5   6
ENDBRANCH   1   5
TORSDOF 3
ENDMDL
MODEL 8
REMARK VINA RESULT:    -2.775      1.056      1.666
REMARK INTER + INTRA:          -3.285
REMARK INTER:                  -3.176
REMARK INTRA:                  -0.110
REMARK UNBOUND:                -0.024
REMARK SMILES CCCCC(=O)[O-]
REMARK SMILES IDX 4 1 5 2 6 3 7 4 3 5 2 6 1 7
REMARK H PARENT
REMARK Flexibility Score: inf
ROOT
ATOM      1  C   UNL     1     156.228 173.508 162.616  1.00  0.00     0.053 C 
ENDROOT
BRANCH   1   2
ATOM      2  C   UNL     1     157.689 173.584 162.303  1.00  0.00     0.041 C 
ATOM      3  O   UNL     1     158.506 172.838 162.904  1.00  0.00    -0.550 OA
ATOM      4  O   UNL     1     158.155 174.516 161.383  1.00  0.00    -0.550 OA
ENDBRANCH   1   2
BRANCH   1   5
ATOM      5  C   UNL     1     155.948 172.364 163.596  1.00  0.00     0.006 C 
BRANCH   5   6
ATOM      6  C   UNL     1     155.362 172.898 164.908  1.00  0.00    -0.003 C 
ATOM      7  C   UNL     1     156.465 173.369 165.852  1.00  0.00     0.004 C 
ENDBRANCH   5   6
ENDBRANCH   1   5
TORSDOF 3
ENDMDL
MODEL 9
REMARK VINA RESULT:    -2.690      2.384      3.180
REMARK INTER + INTRA:          -3.185
REMARK INTER:                  -3.106
REMARK INTRA:                  -0.079
REMARK UNBOUND:                -0.024
REMARK SMILES CCCCC(=O)[O-]
REMARK SMILES IDX 4 1 5 2 6 3 7 4 3 5 2 6 1 7
REMARK H PARENT
REMARK Flexibility Score: inf
ROOT
ATOM      1  C   UNL     1     157.766 173.046 163.241  1.00  0.00     0.053 C 
ENDROOT
BRANCH   1   2
ATOM      2  C   UNL     1     157.336 173.829 162.040  1.00  0.00     0.041 C 
ATOM      3  O   UNL     1     158.175 174.509 161.393  1.00  0.00    -0.550 OA
ATOM      4  O   UNL     1     155.997 173.848 161.666  1.00  0.00    -0.550 OA
ENDBRANCH   1   2
BRANCH   1   5
ATOM      5  C   UNL     1     158.956 173.724 163.926  1.00  0.00     0.006 C 
BRANCH   5   6
ATOM      6  C   UNL     1     158.503 174.510 165.161  1.00  0.00    -0.003 C 
ATOM      7  C   UNL     1     157.246 173.897 165.773  1.00  0.00     0.004 C 
ENDBRANCH   5   6
ENDBRANCH   1   5
TORSDOF 3
ENDMDL
