MODEL 1
REMARK VINA RESULT:    -5.206      0.000      0.000
REMARK INTER + INTRA:          -5.608
REMARK INTER:                  -5.510
REMARK INTRA:                  -0.098
REMARK UNBOUND:                -0.098
REMARK SMILES C=C(C)[C@H]1CC=C(C)C(=O)C1
REMARK SMILES IDX 8 1 7 2 6 3 5 4 4 5 11 6 9 7 10 8 2 9 1 10 3 11
REMARK H PARENT
REMARK Flexibility Score: inf
ROOT
ATOM      1  C   UNL     1      17.642  27.776 -14.895  1.00  0.00     0.048 C 
ATOM      2  C   UNL     1      18.537  27.749 -13.686  1.00  0.00    -0.012 C 
ATOM      3  C   UNL     1      19.663  28.483 -13.672  1.00  0.00    -0.019 C 
ATOM      4  C   UNL     1      20.603  28.479 -12.496  1.00  0.00     0.036 C 
ATOM      5  C   UNL     1      19.836  28.285 -11.174  1.00  0.00     0.025 C 
ATOM      6  C   UNL     1      18.977  27.009 -11.237  1.00  0.00     0.089 C 
ATOM      7  C   UNL     1      18.113  27.015 -12.468  1.00  0.00     0.158 C 
ATOM      8  O   UNL     1      17.039  26.355 -12.468  1.00  0.00    -0.295 OA
ENDROOT
BRANCH   5   9
ATOM      9  C   UNL     1      20.781  28.261  -9.980  1.00  0.00    -0.077 C 
ATOM     10  C   UNL     1      22.046  28.692 -10.112  1.00  0.00     0.008 C 
ATOM     11  C   UNL     1      20.329  27.760  -8.630  1.00  0.00     0.039 C 
ENDBRANCH   5   9
TORSDOF 1
ENDMDL
MODEL 2
REMARK VINA RESULT:    -5.073     13.829     15.933
REMARK INTER + INTRA:          -5.468
REMARK INTER:                  -5.371
REMARK INTRA:                  -0.097
REMARK UNBOUND:                -0.098
REMARK SMILES C=C(C)[C@H]1CC=C(C)C(=O)C1
REMARK SMILES IDX 8 1 7 2 6 3 5 4 4 5 11 6 9 7 10 8 2 9 1 10 3 11
REMARK H PARENT
REMARK Flexibility Score: inf
ROOT
ATOM      1  C   UNL     1      36.381  31.572 -14.640  1.00  0.00     0.048 C 
ATOM      2  C   UNL     1      35.531  31.359 -13.417  1.00  0.00    -0.012 C 
ATOM      3  C   UNL     1      34.418  30.610 -13.498  1.00  0.00    -0.019 C 
ATOM      4  C   UNL     1      33.522  30.380 -12.309  1.00  0.00     0.036 C 
ATOM      5  C   UNL     1      34.336  30.348 -11.001  1.00  0.00     0.025 C 
ATOM      6  C   UNL     1      35.172  31.633 -10.860  1.00  0.00     0.089 C 
ATOM      7  C   UNL     1      35.989  31.869 -12.101  1.00  0.00     0.158 C 
ATOM      8  O   UNL     1      37.053  32.542 -12.017  1.00  0.00    -0.295 OA
ENDROOT
BRANCH   5   9
ATOM      9  C   UNL     1      33.436  30.135  -9.791  1.00  0.00    -0.077 C 
ATOM     10  C   UNL     1      33.892  30.403  -8.557  1.00  0.00     0.008 C 
ATOM     11  C   UNL     1      32.024  29.623  -9.941  1.00  0.00     0.039 C 
ENDBRANCH   5   9
TORSDOF 1
ENDMDL
MODEL 3
REMARK VINA RESULT:    -4.929     13.540     15.790
REMARK INTER + INTRA:          -5.315
REMARK INTER:                  -5.219
REMARK INTRA:                  -0.096
REMARK UNBOUND:                -0.098
REMARK SMILES C=C(C)[C@H]1CC=C(C)C(=O)C1
REMARK SMILES IDX 8 1 7 2 6 3 5 4 4 5 11 6 9 7 10 8 2 9 1 10 3 11
REMARK H PARENT
REMARK Flexibility Score: inf
ROOT
ATOM      1  C   UNL     1      32.068  29.763  -9.494  1.00  0.00     0.048 C 
ATOM      2  C   UNL     1      33.122  30.086 -10.518  1.00  0.00    -0.012 C 
ATOM      3  C   UNL     1      33.064  29.521 -11.736  1.00  0.00    -0.019 C 
ATOM      4  C   UNL     1      34.103  29.796 -12.792  1.00  0.00     0.036 C 
ATOM      5  C   UNL     1      34.649  31.231 -12.672  1.00  0.00     0.025 C 
ATOM      6  C   UNL     1      35.184  31.483 -11.251  1.00  0.00     0.089 C 
ATOM      7  C   UNL     1      34.146  31.119 -10.225  1.00  0.00     0.158 C 
ATOM      8  O   UNL     1      34.179  31.676  -9.094  1.00  0.00    -0.295 OA
ENDROOT
BRANCH   5   9
ATOM      9  C   UNL     1      35.714  31.512 -13.725  1.00  0.00    -0.077 C 
ATOM     10  C   UNL     1      35.584  31.013 -14.964  1.00  0.00     0.008 C 
ATOM     11  C   UNL     1      36.929  32.350 -13.410  1.00  0.00     0.039 C 
ENDBRANCH   5   9
TORSDOF 1
ENDMDL
MODEL 4
REMARK VINA RESULT:    -4.892     13.318     15.244
REMARK INTER + INTRA:          -5.276
REMARK INTER:                  -5.180
REMARK INTRA:                  -0.096
REMARK UNBOUND:                -0.098
REMARK SMILES C=C(C)[C@H]1CC=C(C)C(=O)C1
REMARK SMILES IDX 8 1 7 2 6 3 5 4 4 5 11 6 9 7 10 8 2 9 1 10 3 11
REMARK H PARENT
REMARK Flexibility Score: inf
ROOT
ATOM      1  C   UNL     1      21.229  23.455 -22.862  1.00  0.00     0.048 C 
ATOM      2  C   UNL     1      22.379  23.412 -23.832  1.00  0.00    -0.012 C 
ATOM      3  C   UNL     1      23.584  22.982 -23.421  1.00  0.00    -0.019 C 
ATOM      4  C   UNL     1      24.773  22.936 -24.345  1.00  0.00     0.036 C 
ATOM      5  C   UNL     1      24.338  22.633 -25.791  1.00  0.00     0.025 C 
ATOM      6  C   UNL     1      23.278  23.648 -26.256  1.00  0.00     0.089 C 
ATOM      7  C   UNL     1      22.149  23.723 -25.265  1.00  0.00     0.158 C 
ATOM      8  O   UNL     1      21.010  24.092 -25.659  1.00  0.00    -0.295 OA
ENDROOT
BRANCH   5   9
ATOM      9  C   UNL     1      25.532  22.603 -26.737  1.00  0.00    -0.077 C 
ATOM     10  C   UNL     1      26.269  23.708 -26.926  1.00  0.00     0.008 C 
ATOM     11  C   UNL     1      25.917  21.345 -27.477  1.00  0.00     0.039 C 
ENDBRANCH   5   9
TORSDOF 1
ENDMDL
MODEL 5
REMARK VINA RESULT:    -4.798      9.713     10.958
REMARK INTER + INTRA:          -5.176
REMARK INTER:                  -5.078
REMARK INTRA:                  -0.098
REMARK UNBOUND:                -0.098
REMARK SMILES C=C(C)[C@H]1CC=C(C)C(=O)C1
REMARK SMILES IDX 8 1 7 2 6 3 5 4 4 5 11 6 9 7 10 8 2 9 1 10 3 11
REMARK H PARENT
REMARK Flexibility Score: inf
ROOT
ATOM      1  C   UNL     1      18.517  33.158 -22.458  1.00  0.00     0.048 C 
ATOM      2  C   UNL     1      18.973  31.727 -22.543  1.00  0.00    -0.012 C 
ATOM      3  C   UNL     1      20.240  31.449 -22.897  1.00  0.00    -0.019 C 
ATOM      4  C   UNL     1      20.744  30.034 -23.015  1.00  0.00     0.036 C 
ATOM      5  C   UNL     1      20.046  29.112 -21.998  1.00  0.00     0.025 C 
ATOM      6  C   UNL     1      18.517  29.201 -22.156  1.00  0.00     0.089 C 
ATOM      7  C   UNL     1      18.065  30.635 -22.115  1.00  0.00     0.158 C 
ATOM      8  O   UNL     1      16.887  30.897 -21.747  1.00  0.00    -0.295 OA
ENDROOT
BRANCH   5   9
ATOM      9  C   UNL     1      20.535  27.675 -22.122  1.00  0.00    -0.077 C 
ATOM     10  C   UNL     1      21.301  27.311 -23.162  1.00  0.00     0.008 C 
ATOM     11  C   UNL     1      20.179  26.631 -21.091  1.00  0.00     0.039 C 
ENDBRANCH   5   9
TORSDOF 1
ENDMDL
MODEL 6
REMARK VINA RESULT:    -4.733     12.685     14.498
REMARK INTER + INTRA:          -5.108
REMARK INTER:                  -5.011
REMARK INTRA:                  -0.097
REMARK UNBOUND:                -0.098
REMARK SMILES C=C(C)[C@H]1CC=C(C)C(=O)C1
REMARK SMILES IDX 8 1 7 2 6 3 5 4 4 5 11 6 9 7 10 8 2 9 1 10 3 11
REMARK H PARENT
REMARK Flexibility Score: inf
ROOT
ATOM      1  C   UNL     1      25.858  22.649 -27.069  1.00  0.00     0.048 C 
ATOM      2  C   UNL     1      24.801  22.863 -26.020  1.00  0.00    -0.012 C 
ATOM      3  C   UNL     1      25.149  22.916 -24.722  1.00  0.00    -0.019 C 
ATOM      4  C   UNL     1      24.129  23.109 -23.630  1.00  0.00     0.036 C 
ATOM      5  C   UNL     1      22.959  23.986 -24.114  1.00  0.00     0.025 C 
ATOM      6  C   UNL     1      22.338  23.392 -25.392  1.00  0.00     0.089 C 
ATOM      7  C   UNL     1      23.401  23.138 -26.426  1.00  0.00     0.158 C 
ATOM      8  O   UNL     1      23.080  23.124 -27.645  1.00  0.00    -0.295 OA
ENDROOT
BRANCH   5   9
ATOM      9  C   UNL     1      21.913  24.171 -23.022  1.00  0.00    -0.077 C 
ATOM     10  C   UNL     1      20.919  23.280 -22.883  1.00  0.00     0.008 C 
ATOM     11  C   UNL     1      21.964  25.346 -22.076  1.00  0.00     0.039 C 
ENDBRANCH   5   9
TORSDOF 1
ENDMDL
MODEL 7
REMARK VINA RESULT:    -4.710     12.315     13.478
REMARK INTER + INTRA:          -5.083
REMARK INTER:                  -4.986
REMARK INTRA:                  -0.097
REMARK UNBOUND:                -0.098
REMARK SMILES C=C(C)[C@H]1CC=C(C)C(=O)C1
REMARK SMILES IDX 8 1 7 2 6 3 5 4 4 5 11 6 9 7 10 8 2 9 1 10 3 11
REMARK H PARENT
REMARK Flexibility Score: inf
ROOT
ATOM      1  C   UNL     1      28.626  31.489 -18.658  1.00  0.00     0.048 C 
ATOM      2  C   UNL     1      29.796  31.639 -17.724  1.00  0.00    -0.012 C 
ATOM      3  C   UNL     1      29.608  32.147 -16.493  1.00  0.00    -0.019 C 
ATOM      4  C   UNL     1      30.747  32.335 -15.525  1.00  0.00     0.036 C 
ATOM      5  C   UNL     1      31.821  31.247 -15.715  1.00  0.00     0.025 C 
ATOM      6  C   UNL     1      32.299  31.218 -17.178  1.00  0.00     0.089 C 
ATOM      7  C   UNL     1      31.127  31.112 -18.115  1.00  0.00     0.158 C 
ATOM      8  O   UNL     1      31.297  30.602 -19.256  1.00  0.00    -0.295 OA
ENDROOT
BRANCH   5   9
ATOM      9  C   UNL     1      32.986  31.440 -14.753  1.00  0.00    -0.077 C 
ATOM     10  C   UNL     1      34.029  32.208 -15.104  1.00  0.00     0.008 C 
ATOM     11  C   UNL     1      33.000  30.784 -13.394  1.00  0.00     0.039 C 
ENDBRANCH   5   9
TORSDOF 1
ENDMDL
MODEL 8
REMARK VINA RESULT:    -4.673      4.992      6.445
REMARK INTER + INTRA:          -5.044
REMARK INTER:                  -4.947
REMARK INTRA:                  -0.097
REMARK UNBOUND:                -0.098
REMARK SMILES C=C(C)[C@H]1CC=C(C)C(=O)C1
REMARK SMILES IDX 8 1 7 2 6 3 5 4 4 5 11 6 9 7 10 8 2 9 1 10 3 11
REMARK H PARENT
REMARK Flexibility Score: inf
ROOT
ATOM      1  C   UNL     1      25.088  28.852 -18.489  1.00  0.00     0.048 C 
ATOM      2  C   UNL     1      23.859  28.495 -17.698  1.00  0.00    -0.012 C 
ATOM      3  C   UNL     1      23.969  27.720 -16.605  1.00  0.00    -0.019 C 
ATOM      4  C   UNL     1      22.769  27.318 -15.788  1.00  0.00     0.036 C 
ATOM      5  C   UNL     1      21.695  28.423 -15.801  1.00  0.00     0.025 C 
ATOM      6  C   UNL     1      21.319  28.785 -17.249  1.00  0.00     0.089 C 
ATOM      7  C   UNL     1      22.551  29.100 -18.052  1.00  0.00     0.158 C 
ATOM      8  O   UNL     1      22.453  29.856 -19.057  1.00  0.00    -0.295 OA
ENDROOT
BRANCH   5   9
ATOM      9  C   UNL     1      20.470  28.017 -14.993  1.00  0.00    -0.077 C 
ATOM     10  C   UNL     1      19.477  27.328 -15.575  1.00  0.00     0.008 C 
ATOM     11  C   UNL     1      20.339  28.373 -13.532  1.00  0.00     0.039 C 
ENDBRANCH   5   9
TORSDOF 1
ENDMDL
MODEL 9
REMARK VINA RESULT:    -4.673     11.785     13.864
REMARK INTER + INTRA:          -5.044
REMARK INTER:                  -4.950
REMARK INTRA:                  -0.094
REMARK UNBOUND:                -0.098
REMARK SMILES C=C(C)[C@H]1CC=C(C)C(=O)C1
REMARK SMILES IDX 8 1 7 2 6 3 5 4 4 5 11 6 9 7 10 8 2 9 1 10 3 11
REMARK H PARENT
REMARK Flexibility Score: inf
ROOT
ATOM      1  C   UNL     1      25.196  22.147 -26.051  1.00  0.00     0.048 C 
ATOM      2  C   UNL     1      24.103  22.941 -25.390  1.00  0.00    -0.012 C 
ATOM      3  C   UNL     1      22.991  23.250 -26.079  1.00  0.00    -0.019 C 
ATOM      4  C   UNL     1      21.875  24.058 -25.471  1.00  0.00     0.036 C 
ATOM      5  C   UNL     1      21.752  23.784 -23.960  1.00  0.00     0.025 C 
ATOM      6  C   UNL     1      23.099  24.034 -23.260  1.00  0.00     0.089 C 
ATOM      7  C   UNL     1      24.200  23.274 -23.947  1.00  0.00     0.158 C 
ATOM      8  O   UNL     1      25.228  22.953 -23.290  1.00  0.00    -0.295 OA
ENDROOT
BRANCH   5   9
ATOM      9  C   UNL     1      20.637  24.612 -23.333  1.00  0.00    -0.077 C 
ATOM     10  C   UNL     1      19.409  24.609 -23.875  1.00  0.00     0.008 C 
ATOM     11  C   UNL     1      20.877  25.446 -22.099  1.00  0.00     0.039 C 
ENDBRANCH   5   9
TORSDOF 1
ENDMDL
