MODEL 1
REMARK VINA RESULT:    -6.417      0.000      0.000
REMARK INTER + INTRA:          -8.209
REMARK INTER:                  -7.918
REMARK INTRA:                  -0.291
REMARK UNBOUND:                -0.291
REMARK SMILES O=c1c(O)c(-c2cc(O)c(O)c(O)c2)oc2cc(O)cc(O)c12
REMARK SMILES IDX 5 1 3 2 2 3 1 4 23 5 21 6 20 7 18 8 17 9 16 10 15 11 6 12
REMARK SMILES IDX 7 13 8 14 14 15 10 16 12 17 9 18 11 20 13 22 4 24 22 26
REMARK SMILES IDX 19 28
REMARK H PARENT 9 19 11 21 13 23 4 25 22 27 19 29
REMARK Flexibility Score: inf
ROOT
ATOM      1  C   UNL     1     -15.491 -15.714 101.344  1.00  0.00     0.180 A 
ATOM      2  C   UNL     1     -15.654 -16.921 100.645  1.00  0.00     0.208 A 
ATOM      3  C   UNL     1     -16.760 -17.070  99.793  1.00  0.00     0.238 A 
ATOM      4  O   UNL     1     -16.930 -18.174  99.210  1.00  0.00    -0.285 OA
ATOM      5  C   UNL     1     -17.678 -16.005  99.638  1.00  0.00     0.111 A 
ATOM      6  C   UNL     1     -18.812 -16.031  98.770  1.00  0.00     0.134 A 
ATOM      7  C   UNL     1     -19.726 -14.970  98.795  1.00  0.00     0.093 A 
ATOM      8  C   UNL     1     -19.511 -13.854  99.608  1.00  0.00     0.123 A 
ATOM      9  C   UNL     1     -18.377 -13.793 100.415  1.00  0.00     0.094 A 
ATOM     10  C   UNL     1     -17.467 -14.852 100.438  1.00  0.00     0.146 A 
ATOM     11  O   UNL     1     -16.405 -14.757 101.229  1.00  0.00    -0.452 OA
ENDROOT
BRANCH   1  12
ATOM     12  C   UNL     1     -14.337 -15.473 102.242  1.00  0.00     0.029 A 
ATOM     13  C   UNL     1     -14.545 -15.388 103.626  1.00  0.00     0.062 A 
ATOM     14  C   UNL     1     -13.482 -15.140 104.501  1.00  0.00     0.162 A 
ATOM     15  C   UNL     1     -13.046 -15.269 101.733  1.00  0.00     0.062 A 
ATOM     16  C   UNL     1     -12.177 -14.959 103.983  1.00  0.00     0.200 A 
ATOM     17  C   UNL     1     -11.972 -15.020 102.592  1.00  0.00     0.162 A 
BRANCH  14  18
ATOM     18  O   UNL     1     -13.767 -15.082 105.868  1.00  0.00    -0.504 OA
ATOM     19  H   UNL     1     -14.205 -14.295 106.323  1.00  0.00     0.293 HD
ENDBRANCH  14  18
BRANCH  16  20
ATOM     20  O   UNL     1     -11.075 -14.716 104.807  1.00  0.00    -0.502 OA
ATOM     21  H   UNL     1     -10.830 -15.280 105.608  1.00  0.00     0.293 HD
ENDBRANCH  16  20
BRANCH  17  22
ATOM     22  O   UNL     1     -10.704 -14.831 102.042  1.00  0.00    -0.504 OA
ATOM     23  H   UNL     1     -10.255 -15.530 101.463  1.00  0.00     0.293 HD
ENDBRANCH  17  22
ENDBRANCH   1  12
BRANCH   2  24
ATOM     24  O   UNL     1     -14.747 -17.969 100.829  1.00  0.00    -0.502 OA
ATOM     25  H   UNL     1     -15.041 -18.906 101.074  1.00  0.00     0.293 HD
ENDBRANCH   2  24
BRANCH   6  26
ATOM     26  O   UNL     1     -19.069 -17.054  97.853  1.00  0.00    -0.507 OA
ATOM     27  H   UNL     1     -19.914 -17.139  97.309  1.00  0.00     0.293 HD
ENDBRANCH   6  26
BRANCH   8  28
ATOM     28  O   UNL     1     -20.417 -12.795  99.615  1.00  0.00    -0.508 OA
ATOM     29  H   UNL     1     -20.208 -11.922 100.085  1.00  0.00     0.293 HD
ENDBRANCH   8  28
TORSDOF 7
ENDMDL
MODEL 2
REMARK VINA RESULT:    -6.377      2.093      3.986
REMARK INTER + INTRA:          -8.160
REMARK INTER:                  -7.975
REMARK INTRA:                  -0.185
REMARK UNBOUND:                -0.291
REMARK SMILES O=c1c(O)c(-c2cc(O)c(O)c(O)c2)oc2cc(O)cc(O)c12
REMARK SMILES IDX 5 1 3 2 2 3 1 4 23 5 21 6 20 7 18 8 17 9 16 10 15 11 6 12
REMARK SMILES IDX 7 13 8 14 14 15 10 16 12 17 9 18 11 20 13 22 4 24 22 26
REMARK SMILES IDX 19 28
REMARK H PARENT 9 19 11 21 13 23 4 25 22 27 19 29
REMARK Flexibility Score: inf
ROOT
ATOM      1  C   UNL     1     -13.322 -14.703 102.439  1.00  0.00     0.180 A 
ATOM      2  C   UNL     1     -14.319 -14.260 103.324  1.00  0.00     0.208 A 
ATOM      3  C   UNL     1     -15.641 -14.153 102.863  1.00  0.00     0.238 A 
ATOM      4  O   UNL     1     -16.520 -13.705 103.645  1.00  0.00    -0.285 OA
ATOM      5  C   UNL     1     -15.951 -14.504 101.527  1.00  0.00     0.111 A 
ATOM      6  C   UNL     1     -17.263 -14.472 100.965  1.00  0.00     0.134 A 
ATOM      7  C   UNL     1     -17.434 -14.716  99.596  1.00  0.00     0.093 A 
ATOM      8  C   UNL     1     -16.348 -15.054  98.784  1.00  0.00     0.123 A 
ATOM      9  C   UNL     1     -15.073 -15.145  99.336  1.00  0.00     0.094 A 
ATOM     10  C   UNL     1     -14.866 -14.873 100.691  1.00  0.00     0.146 A 
ATOM     11  O   UNL     1     -13.633 -14.962 101.174  1.00  0.00    -0.452 OA
ENDROOT
BRANCH   1  12
ATOM     12  C   UNL     1     -11.911 -14.865 102.858  1.00  0.00     0.029 A 
ATOM     13  C   UNL     1     -10.905 -14.152 102.191  1.00  0.00     0.062 A 
ATOM     14  C   UNL     1      -9.560 -14.298 102.547  1.00  0.00     0.162 A 
ATOM     15  C   UNL     1     -11.550 -15.764 103.873  1.00  0.00     0.062 A 
ATOM     16  C   UNL     1      -9.205 -15.189 103.589  1.00  0.00     0.200 A 
ATOM     17  C   UNL     1     -10.212 -15.923 104.243  1.00  0.00     0.162 A 
BRANCH  14  18
ATOM     18  O   UNL     1      -8.617 -13.544 101.844  1.00  0.00    -0.504 OA
ATOM     19  H   UNL     1      -8.589 -13.466 100.838  1.00  0.00     0.293 HD
ENDBRANCH  14  18
BRANCH  16  20
ATOM     20  O   UNL     1      -7.880 -15.370 103.994  1.00  0.00    -0.502 OA
ATOM     21  H   UNL     1      -7.599 -15.576 104.942  1.00  0.00     0.293 HD
ENDBRANCH  16  20
BRANCH  17  22
ATOM     22  O   UNL     1      -9.900 -16.821 105.263  1.00  0.00    -0.504 OA
ATOM     23  H   UNL     1      -9.306 -16.570 106.044  1.00  0.00     0.293 HD
ENDBRANCH  17  22
ENDBRANCH   1  12
BRANCH   2  24
ATOM     24  O   UNL     1     -13.987 -13.898 104.633  1.00  0.00    -0.502 OA
ATOM     25  H   UNL     1     -14.476 -14.267 105.440  1.00  0.00     0.293 HD
ENDBRANCH   2  24
BRANCH   6  26
ATOM     26  O   UNL     1     -18.425 -14.237 101.706  1.00  0.00    -0.507 OA
ATOM     27  H   UNL     1     -19.271 -14.781 101.636  1.00  0.00     0.293 HD
ENDBRANCH   6  26
BRANCH   8  28
ATOM     28  O   UNL     1     -16.529 -15.310  97.426  1.00  0.00    -0.508 OA
ATOM     29  H   UNL     1     -15.792 -15.714  96.861  1.00  0.00     0.293 HD
ENDBRANCH   8  28
TORSDOF 7
ENDMDL
MODEL 3
REMARK VINA RESULT:    -6.293      1.744      7.042
REMARK INTER + INTRA:          -8.055
REMARK INTER:                  -7.848
REMARK INTRA:                  -0.207
REMARK UNBOUND:                -0.291
REMARK SMILES O=c1c(O)c(-c2cc(O)c(O)c(O)c2)oc2cc(O)cc(O)c12
REMARK SMILES IDX 5 1 3 2 2 3 1 4 23 5 21 6 20 7 18 8 17 9 16 10 15 11 6 12
REMARK SMILES IDX 7 13 8 14 14 15 10 16 12 17 9 18 11 20 13 22 4 24 22 26
REMARK SMILES IDX 19 28
REMARK H PARENT 9 19 11 21 13 23 4 25 22 27 19 29
REMARK Flexibility Score: inf
ROOT
ATOM      1  C   UNL     1     -15.509 -14.995  99.919  1.00  0.00     0.180 A 
ATOM      2  C   UNL     1     -14.498 -14.687  98.993  1.00  0.00     0.208 A 
ATOM      3  C   UNL     1     -13.196 -14.449  99.461  1.00  0.00     0.238 A 
ATOM      4  O   UNL     1     -12.306 -14.121  98.633  1.00  0.00    -0.285 OA
ATOM      5  C   UNL     1     -12.919 -14.537 100.846  1.00  0.00     0.111 A 
ATOM      6  C   UNL     1     -11.627 -14.354 101.427  1.00  0.00     0.134 A 
ATOM      7  C   UNL     1     -11.493 -14.335 102.822  1.00  0.00     0.093 A 
ATOM      8  C   UNL     1     -12.594 -14.557 103.654  1.00  0.00     0.123 A 
ATOM      9  C   UNL     1     -13.847 -14.795 103.094  1.00  0.00     0.094 A 
ATOM     10  C   UNL     1     -14.018 -14.785 101.708  1.00  0.00     0.146 A 
ATOM     11  O   UNL     1     -15.232 -15.005 101.217  1.00  0.00    -0.452 OA
ENDROOT
BRANCH   1  12
ATOM     12  C   UNL     1     -16.900 -15.283  99.499  1.00  0.00     0.029 A 
ATOM     13  C   UNL     1     -17.945 -14.471  99.964  1.00  0.00     0.062 A 
ATOM     14  C   UNL     1     -19.272 -14.727  99.605  1.00  0.00     0.162 A 
ATOM     15  C   UNL     1     -17.205 -16.389  98.692  1.00  0.00     0.062 A 
ATOM     16  C   UNL     1     -19.570 -15.831  98.770  1.00  0.00     0.200 A 
ATOM     17  C   UNL     1     -18.525 -16.661  98.323  1.00  0.00     0.162 A 
BRANCH  14  18
ATOM     18  O   UNL     1     -20.255 -13.866 100.098  1.00  0.00    -0.504 OA
ATOM     19  H   UNL     1     -20.063 -12.974 100.530  1.00  0.00     0.293 HD
ENDBRANCH  14  18
BRANCH  16  20
ATOM     20  O   UNL     1     -20.875 -16.133  98.372  1.00  0.00    -0.502 OA
ATOM     21  H   UNL     1     -21.655 -15.495  98.449  1.00  0.00     0.293 HD
ENDBRANCH  16  20
BRANCH  17  22
ATOM     22  O   UNL     1     -18.781 -17.767  97.512  1.00  0.00    -0.504 OA
ATOM     23  H   UNL     1     -18.943 -18.691  97.891  1.00  0.00     0.293 HD
ENDBRANCH  17  22
ENDBRANCH   1  12
BRANCH   2  24
ATOM     24  O   UNL     1     -14.798 -14.584  97.632  1.00  0.00    -0.502 OA
ATOM     25  H   UNL     1     -14.955 -15.396  97.047  1.00  0.00     0.293 HD
ENDBRANCH   2  24
BRANCH   6  26
ATOM     26  O   UNL     1     -10.450 -14.217 100.686  1.00  0.00    -0.507 OA
ATOM     27  H   UNL     1     -10.217 -13.414 100.121  1.00  0.00     0.293 HD
ENDBRANCH   6  26
BRANCH   8  28
ATOM     28  O   UNL     1     -12.450 -14.553 105.039  1.00  0.00    -0.508 OA
ATOM     29  H   UNL     1     -12.748 -13.763 105.601  1.00  0.00     0.293 HD
ENDBRANCH   8  28
TORSDOF 7
ENDMDL
MODEL 4
REMARK VINA RESULT:    -6.252      2.635      3.561
REMARK INTER + INTRA:          -8.005
REMARK INTER:                  -7.891
REMARK INTRA:                  -0.114
REMARK UNBOUND:                -0.291
REMARK SMILES O=c1c(O)c(-c2cc(O)c(O)c(O)c2)oc2cc(O)cc(O)c12
REMARK SMILES IDX 5 1 3 2 2 3 1 4 23 5 21 6 20 7 18 8 17 9 16 10 15 11 6 12
REMARK SMILES IDX 7 13 8 14 14 15 10 16 12 17 9 18 11 20 13 22 4 24 22 26
REMARK SMILES IDX 19 28
REMARK H PARENT 9 19 11 21 13 23 4 25 22 27 19 29
REMARK Flexibility Score: inf
ROOT
ATOM      1  C   UNL     1     -13.085 -14.536 102.099  1.00  0.00     0.180 A 
ATOM      2  C   UNL     1     -13.440 -14.645 100.744  1.00  0.00     0.208 A 
ATOM      3  C   UNL     1     -14.781 -14.457 100.374  1.00  0.00     0.238 A 
ATOM      4  O   UNL     1     -15.103 -14.609  99.166  1.00  0.00    -0.285 OA
ATOM      5  C   UNL     1     -15.747 -14.146 101.361  1.00  0.00     0.111 A 
ATOM      6  C   UNL     1     -17.127 -13.895 101.094  1.00  0.00     0.134 A 
ATOM      7  C   UNL     1     -18.017 -13.725 102.162  1.00  0.00     0.093 A 
ATOM      8  C   UNL     1     -17.565 -13.732 103.485  1.00  0.00     0.123 A 
ATOM      9  C   UNL     1     -16.211 -13.917 103.752  1.00  0.00     0.094 A 
ATOM     10  C   UNL     1     -15.305 -14.124 102.709  1.00  0.00     0.146 A 
ATOM     11  O   UNL     1     -14.024 -14.308 103.009  1.00  0.00    -0.452 OA
ENDROOT
BRANCH   1  12
ATOM     12  C   UNL     1     -11.687 -14.696 102.562  1.00  0.00     0.029 A 
ATOM     13  C   UNL     1     -11.403 -15.594 103.601  1.00  0.00     0.062 A 
ATOM     14  C   UNL     1     -10.098 -15.755 104.078  1.00  0.00     0.162 A 
ATOM     15  C   UNL     1     -10.646 -13.925 102.024  1.00  0.00     0.062 A 
ATOM     16  C   UNL     1      -9.048 -14.991 103.514  1.00  0.00     0.200 A 
ATOM     17  C   UNL     1      -9.336 -14.072 102.488  1.00  0.00     0.162 A 
BRANCH  14  18
ATOM     18  O   UNL     1      -9.892 -16.677 105.107  1.00  0.00    -0.504 OA
ATOM     19  H   UNL     1      -9.992 -17.676 105.002  1.00  0.00     0.293 HD
ENDBRANCH  14  18
BRANCH  16  20
ATOM     20  O   UNL     1      -7.723 -15.114 103.943  1.00  0.00    -0.502 OA
ATOM     21  H   UNL     1      -7.404 -15.799 104.613  1.00  0.00     0.293 HD
ENDBRANCH  16  20
BRANCH  17  22
ATOM     22  O   UNL     1      -8.331 -13.291 101.918  1.00  0.00    -0.504 OA
ATOM     23  H   UNL     1      -7.430 -13.160 102.360  1.00  0.00     0.293 HD
ENDBRANCH  17  22
ENDBRANCH   1  12
BRANCH   2  24
ATOM     24  O   UNL     1     -12.474 -14.974  99.788  1.00  0.00    -0.502 OA
ATOM     25  H   UNL     1     -12.698 -15.487  98.943  1.00  0.00     0.293 HD
ENDBRANCH   2  24
BRANCH   6  26
ATOM     26  O   UNL     1     -17.664 -13.775  99.810  1.00  0.00    -0.507 OA
ATOM     27  H   UNL     1     -17.661 -12.928  99.262  1.00  0.00     0.293 HD
ENDBRANCH   6  26
BRANCH   8  28
ATOM     28  O   UNL     1     -18.454 -13.546 104.541  1.00  0.00    -0.508 OA
ATOM     29  H   UNL     1     -18.131 -13.294 105.468  1.00  0.00     0.293 HD
ENDBRANCH   8  28
TORSDOF 7
ENDMDL
MODEL 5
REMARK VINA RESULT:    -6.178      2.306      7.388
REMARK INTER + INTRA:          -7.913
REMARK INTER:                  -7.832
REMARK INTRA:                  -0.081
REMARK UNBOUND:                -0.291
REMARK SMILES O=c1c(O)c(-c2cc(O)c(O)c(O)c2)oc2cc(O)cc(O)c12
REMARK SMILES IDX 5 1 3 2 2 3 1 4 23 5 21 6 20 7 18 8 17 9 16 10 15 11 6 12
REMARK SMILES IDX 7 13 8 14 14 15 10 16 12 17 9 18 11 20 13 22 4 24 22 26
REMARK SMILES IDX 19 28
REMARK H PARENT 9 19 11 21 13 23 4 25 22 27 19 29
REMARK Flexibility Score: inf
ROOT
ATOM      1  C   UNL     1     -13.765 -14.212 101.754  1.00  0.00     0.180 A 
ATOM      2  C   UNL     1     -12.919 -13.518 100.872  1.00  0.00     0.208 A 
ATOM      3  C   UNL     1     -11.530 -13.589 101.064  1.00  0.00     0.238 A 
ATOM      4  O   UNL     1     -10.780 -12.922 100.303  1.00  0.00    -0.285 OA
ATOM      5  C   UNL     1     -11.004 -14.365 102.124  1.00  0.00     0.111 A 
ATOM      6  C   UNL     1      -9.612 -14.541 102.386  1.00  0.00     0.134 A 
ATOM      7  C   UNL     1      -9.207 -15.224 103.540  1.00  0.00     0.093 A 
ATOM      8  C   UNL     1     -10.145 -15.794 104.406  1.00  0.00     0.123 A 
ATOM      9  C   UNL     1     -11.505 -15.679 104.125  1.00  0.00     0.094 A 
ATOM     10  C   UNL     1     -11.939 -14.973 103.001  1.00  0.00     0.146 A 
ATOM     11  O   UNL     1     -13.245 -14.878 102.778  1.00  0.00    -0.452 OA
ENDROOT
BRANCH   1  12
ATOM     12  C   UNL     1     -15.238 -14.205 101.602  1.00  0.00     0.029 A 
ATOM     13  C   UNL     1     -16.047 -13.917 102.710  1.00  0.00     0.062 A 
ATOM     14  C   UNL     1     -17.442 -13.922 102.607  1.00  0.00     0.162 A 
ATOM     15  C   UNL     1     -15.847 -14.540 100.383  1.00  0.00     0.062 A 
ATOM     16  C   UNL     1     -18.050 -14.238 101.369  1.00  0.00     0.200 A 
ATOM     17  C   UNL     1     -17.240 -14.551 100.261  1.00  0.00     0.162 A 
BRANCH  14  18
ATOM     18  O   UNL     1     -18.178 -13.613 103.753  1.00  0.00    -0.504 OA
ATOM     19  H   UNL     1     -19.102 -13.207 103.742  1.00  0.00     0.293 HD
ENDBRANCH  14  18
BRANCH  16  20
ATOM     20  O   UNL     1     -19.438 -14.252 101.202  1.00  0.00    -0.502 OA
ATOM     21  H   UNL     1     -20.009 -13.423 101.126  1.00  0.00     0.293 HD
ENDBRANCH  16  20
BRANCH  17  22
ATOM     22  O   UNL     1     -17.803 -14.882  99.028  1.00  0.00    -0.504 OA
ATOM     23  H   UNL     1     -17.302 -15.418  98.330  1.00  0.00     0.293 HD
ENDBRANCH  17  22
ENDBRANCH   1  12
BRANCH   2  24
ATOM     24  O   UNL     1     -13.461 -12.740  99.845  1.00  0.00    -0.502 OA
ATOM     25  H   UNL     1     -13.015 -12.648  98.940  1.00  0.00     0.293 HD
ENDBRANCH   2  24
BRANCH   6  26
ATOM     26  O   UNL     1      -8.595 -14.092 101.539  1.00  0.00    -0.507 OA
ATOM     27  H   UNL     1      -8.624 -13.233 101.011  1.00  0.00     0.293 HD
ENDBRANCH   6  26
BRANCH   8  28
ATOM     28  O   UNL     1      -9.734 -16.487 105.543  1.00  0.00    -0.508 OA
ATOM     29  H   UNL     1      -9.027 -16.112 106.164  1.00  0.00     0.293 HD
ENDBRANCH   8  28
TORSDOF 7
ENDMDL
MODEL 6
REMARK VINA RESULT:    -6.139      2.585      3.802
REMARK INTER + INTRA:          -7.865
REMARK INTER:                  -7.898
REMARK INTRA:                   0.033
REMARK UNBOUND:                -0.291
REMARK SMILES O=c1c(O)c(-c2cc(O)c(O)c(O)c2)oc2cc(O)cc(O)c12
REMARK SMILES IDX 5 1 3 2 2 3 1 4 23 5 21 6 20 7 18 8 17 9 16 10 15 11 6 12
REMARK SMILES IDX 7 13 8 14 14 15 10 16 12 17 9 18 11 20 13 22 4 24 22 26
REMARK SMILES IDX 19 28
REMARK H PARENT 9 19 11 21 13 23 4 25 22 27 19 29
REMARK Flexibility Score: inf
ROOT
ATOM      1  C   UNL     1     -13.191 -14.575 102.191  1.00  0.00     0.180 A 
ATOM      2  C   UNL     1     -13.497 -14.653 100.823  1.00  0.00     0.208 A 
ATOM      3  C   UNL     1     -14.827 -14.467 100.410  1.00  0.00     0.238 A 
ATOM      4  O   UNL     1     -15.104 -14.591  99.188  1.00  0.00    -0.285 OA
ATOM      5  C   UNL     1     -15.829 -14.190 101.370  1.00  0.00     0.111 A 
ATOM      6  C   UNL     1     -17.201 -13.944 101.061  1.00  0.00     0.134 A 
ATOM      7  C   UNL     1     -18.131 -13.809 102.100  1.00  0.00     0.093 A 
ATOM      8  C   UNL     1     -17.725 -13.847 103.437  1.00  0.00     0.123 A 
ATOM      9  C   UNL     1     -16.380 -14.027 103.748  1.00  0.00     0.094 A 
ATOM     10  C   UNL     1     -15.435 -14.199 102.733  1.00  0.00     0.146 A 
ATOM     11  O   UNL     1     -14.165 -14.379 103.074  1.00  0.00    -0.452 OA
ENDROOT
BRANCH   1  12
ATOM     12  C   UNL     1     -11.810 -14.735 102.700  1.00  0.00     0.029 A 
ATOM     13  C   UNL     1     -10.758 -14.052 102.073  1.00  0.00     0.062 A 
ATOM     14  C   UNL     1      -9.439 -14.197 102.515  1.00  0.00     0.162 A 
ATOM     15  C   UNL     1     -11.520 -15.605 103.763  1.00  0.00     0.062 A 
ATOM     16  C   UNL     1      -9.156 -15.058 103.603  1.00  0.00     0.200 A 
ATOM     17  C   UNL     1     -10.208 -15.763 104.217  1.00  0.00     0.162 A 
BRANCH  14  18
ATOM     18  O   UNL     1      -8.448 -13.474 101.846  1.00  0.00    -0.504 OA
ATOM     19  H   UNL     1      -8.429 -13.327 100.848  1.00  0.00     0.293 HD
ENDBRANCH  14  18
BRANCH  16  20
ATOM     20  O   UNL     1      -7.859 -15.237 104.093  1.00  0.00    -0.502 OA
ATOM     21  H   UNL     1      -7.230 -14.482 104.324  1.00  0.00     0.293 HD
ENDBRANCH  16  20
BRANCH  17  22
ATOM     22  O   UNL     1      -9.966 -16.631 105.282  1.00  0.00    -0.504 OA
ATOM     23  H   UNL     1     -10.088 -16.352 106.247  1.00  0.00     0.293 HD
ENDBRANCH  17  22
ENDBRANCH   1  12
BRANCH   2  24
ATOM     24  O   UNL     1     -12.495 -14.949  99.894  1.00  0.00    -0.502 OA
ATOM     25  H   UNL     1     -12.434 -14.487  98.994  1.00  0.00     0.293 HD
ENDBRANCH   2  24
BRANCH   6  26
ATOM     26  O   UNL     1     -17.694 -13.796  99.761  1.00  0.00    -0.507 OA
ATOM     27  H   UNL     1     -18.596 -14.123  99.448  1.00  0.00     0.293 HD
ENDBRANCH   6  26
BRANCH   8  28
ATOM     28  O   UNL     1     -18.653 -13.696 104.465  1.00  0.00    -0.508 OA
ATOM     29  H   UNL     1     -18.602 -14.252 105.311  1.00  0.00     0.293 HD
ENDBRANCH   8  28
TORSDOF 7
ENDMDL
MODEL 7
REMARK VINA RESULT:    -6.000      1.097      2.820
REMARK INTER + INTRA:          -7.694
REMARK INTER:                  -7.434
REMARK INTRA:                  -0.260
REMARK UNBOUND:                -0.291
REMARK SMILES O=c1c(O)c(-c2cc(O)c(O)c(O)c2)oc2cc(O)cc(O)c12
REMARK SMILES IDX 5 1 3 2 2 3 1 4 23 5 21 6 20 7 18 8 17 9 16 10 15 11 6 12
REMARK SMILES IDX 7 13 8 14 14 15 10 16 12 17 9 18 11 20 13 22 4 24 22 26
REMARK SMILES IDX 19 28
REMARK H PARENT 9 19 11 21 13 23 4 25 22 27 19 29
REMARK Flexibility Score: inf
ROOT
ATOM      1  C   UNL     1     -15.764 -14.655 101.584  1.00  0.00     0.180 A 
ATOM      2  C   UNL     1     -16.522 -13.473 101.543  1.00  0.00     0.208 A 
ATOM      3  C   UNL     1     -17.685 -13.437 100.757  1.00  0.00     0.238 A 
ATOM      4  O   UNL     1     -18.332 -12.359 100.683  1.00  0.00    -0.285 OA
ATOM      5  C   UNL     1     -18.083 -14.588 100.035  1.00  0.00     0.111 A 
ATOM      6  C   UNL     1     -19.265 -14.676  99.239  1.00  0.00     0.134 A 
ATOM      7  C   UNL     1     -19.492 -15.821  98.464  1.00  0.00     0.093 A 
ATOM      8  C   UNL     1     -18.612 -16.906  98.508  1.00  0.00     0.123 A 
ATOM      9  C   UNL     1     -17.487 -16.852  99.327  1.00  0.00     0.094 A 
ATOM     10  C   UNL     1     -17.216 -15.709 100.084  1.00  0.00     0.146 A 
ATOM     11  O   UNL     1     -16.127 -15.696 100.843  1.00  0.00    -0.452 OA
ENDROOT
BRANCH   1  12
ATOM     12  C   UNL     1     -14.539 -14.777 102.408  1.00  0.00     0.029 A 
ATOM     13  C   UNL     1     -14.647 -14.812 103.805  1.00  0.00     0.062 A 
ATOM     14  C   UNL     1     -13.510 -14.906 104.615  1.00  0.00     0.162 A 
ATOM     15  C   UNL     1     -13.264 -14.799 101.822  1.00  0.00     0.062 A 
ATOM     16  C   UNL     1     -12.228 -14.952 104.017  1.00  0.00     0.200 A 
ATOM     17  C   UNL     1     -12.117 -14.892 102.615  1.00  0.00     0.162 A 
BRANCH  14  18
ATOM     18  O   UNL     1     -13.700 -14.948 105.998  1.00  0.00    -0.504 OA
ATOM     19  H   UNL     1     -13.376 -15.697 106.593  1.00  0.00     0.293 HD
ENDBRANCH  14  18
BRANCH  16  20
ATOM     20  O   UNL     1     -11.056 -15.053 104.772  1.00  0.00    -0.502 OA
ATOM     21  H   UNL     1     -10.768 -14.378 105.466  1.00  0.00     0.293 HD
ENDBRANCH  16  20
BRANCH  17  22
ATOM     22  O   UNL     1     -10.870 -14.920 101.990  1.00  0.00    -0.504 OA
ATOM     23  H   UNL     1     -10.100 -14.337 102.292  1.00  0.00     0.293 HD
ENDBRANCH  17  22
ENDBRANCH   1  12
BRANCH   2  24
ATOM     24  O   UNL     1     -16.100 -12.342 102.247  1.00  0.00    -0.502 OA
ATOM     25  H   UNL     1     -15.125 -12.164 102.457  1.00  0.00     0.293 HD
ENDBRANCH   2  24
BRANCH   6  26
ATOM     26  O   UNL     1     -20.254 -13.689  99.197  1.00  0.00    -0.507 OA
ATOM     27  H   UNL     1     -20.455 -13.111  98.395  1.00  0.00     0.293 HD
ENDBRANCH   6  26
BRANCH   8  28
ATOM     28  O   UNL     1     -18.852 -18.047  97.746  1.00  0.00    -0.508 OA
ATOM     29  H   UNL     1     -18.747 -18.044  96.738  1.00  0.00     0.293 HD
ENDBRANCH   8  28
TORSDOF 7
ENDMDL
MODEL 8
REMARK VINA RESULT:    -5.911      1.547      7.264
REMARK INTER + INTRA:          -7.584
REMARK INTER:                  -7.226
REMARK INTRA:                  -0.358
REMARK UNBOUND:                -0.291
REMARK SMILES O=c1c(O)c(-c2cc(O)c(O)c(O)c2)oc2cc(O)cc(O)c12
REMARK SMILES IDX 5 1 3 2 2 3 1 4 23 5 21 6 20 7 18 8 17 9 16 10 15 11 6 12
REMARK SMILES IDX 7 13 8 14 14 15 10 16 12 17 9 18 11 20 13 22 4 24 22 26
REMARK SMILES IDX 19 28
REMARK H PARENT 9 19 11 21 13 23 4 25 22 27 19 29
REMARK Flexibility Score: inf
ROOT
ATOM      1  C   UNL     1     -14.807 -15.086 101.678  1.00  0.00     0.180 A 
ATOM      2  C   UNL     1     -14.795 -15.558 103.001  1.00  0.00     0.208 A 
ATOM      3  C   UNL     1     -13.585 -15.559 103.713  1.00  0.00     0.238 A 
ATOM      4  O   UNL     1     -13.569 -16.032 104.880  1.00  0.00    -0.285 OA
ATOM      5  C   UNL     1     -12.406 -15.073 103.097  1.00  0.00     0.111 A 
ATOM      6  C   UNL     1     -11.133 -14.991 103.738  1.00  0.00     0.134 A 
ATOM      7  C   UNL     1     -10.007 -14.616 102.993  1.00  0.00     0.093 A 
ATOM      8  C   UNL     1     -10.122 -14.259 101.646  1.00  0.00     0.123 A 
ATOM      9  C   UNL     1     -11.370 -14.280 101.029  1.00  0.00     0.094 A 
ATOM     10  C   UNL     1     -12.504 -14.683 101.737  1.00  0.00     0.146 A 
ATOM     11  O   UNL     1     -13.673 -14.699 101.106  1.00  0.00    -0.452 OA
ENDROOT
BRANCH   1  12
ATOM     12  C   UNL     1     -16.049 -15.031 100.873  1.00  0.00     0.029 A 
ATOM     13  C   UNL     1     -16.430 -16.146 100.113  1.00  0.00     0.062 A 
ATOM     14  C   UNL     1     -17.585 -16.121  99.324  1.00  0.00     0.162 A 
ATOM     15  C   UNL     1     -16.824 -13.864 100.806  1.00  0.00     0.062 A 
ATOM     16  C   UNL     1     -18.377 -14.948  99.280  1.00  0.00     0.200 A 
ATOM     17  C   UNL     1     -17.981 -13.820 100.023  1.00  0.00     0.162 A 
BRANCH  14  18
ATOM     18  O   UNL     1     -17.905 -17.276  98.606  1.00  0.00    -0.504 OA
ATOM     19  H   UNL     1     -18.695 -17.870  98.809  1.00  0.00     0.293 HD
ENDBRANCH  14  18
BRANCH  16  20
ATOM     20  O   UNL     1     -19.545 -14.866  98.517  1.00  0.00    -0.502 OA
ATOM     21  H   UNL     1     -20.422 -14.502  98.859  1.00  0.00     0.293 HD
ENDBRANCH  16  20
BRANCH  17  22
ATOM     22  O   UNL     1     -18.727 -12.641  99.993  1.00  0.00    -0.504 OA
ATOM     23  H   UNL     1     -19.031 -12.171 100.836  1.00  0.00     0.293 HD
ENDBRANCH  17  22
ENDBRANCH   1  12
BRANCH   2  24
ATOM     24  O   UNL     1     -15.966 -16.053 103.582  1.00  0.00    -0.502 OA
ATOM     25  H   UNL     1     -16.380 -16.934 103.305  1.00  0.00     0.293 HD
ENDBRANCH   2  24
BRANCH   6  26
ATOM     26  O   UNL     1     -10.926 -15.236 105.099  1.00  0.00    -0.507 OA
ATOM     27  H   UNL     1     -11.461 -15.886 105.653  1.00  0.00     0.293 HD
ENDBRANCH   6  26
BRANCH   8  28
ATOM     28  O   UNL     1      -9.000 -13.872 100.916  1.00  0.00    -0.508 OA
ATOM     29  H   UNL     1      -8.824 -14.232  99.985  1.00  0.00     0.293 HD
ENDBRANCH   8  28
TORSDOF 7
ENDMDL
MODEL 9
REMARK VINA RESULT:    -5.885      1.550      7.201
REMARK INTER + INTRA:          -7.552
REMARK INTER:                  -7.199
REMARK INTRA:                  -0.353
REMARK UNBOUND:                -0.291
REMARK SMILES O=c1c(O)c(-c2cc(O)c(O)c(O)c2)oc2cc(O)cc(O)c12
REMARK SMILES IDX 5 1 3 2 2 3 1 4 23 5 21 6 20 7 18 8 17 9 16 10 15 11 6 12
REMARK SMILES IDX 7 13 8 14 14 15 10 16 12 17 9 18 11 20 13 22 4 24 22 26
REMARK SMILES IDX 19 28
REMARK H PARENT 9 19 11 21 13 23 4 25 22 27 19 29
REMARK Flexibility Score: inf
ROOT
ATOM      1  C   UNL     1     -14.767 -15.139 101.605  1.00  0.00     0.180 A 
ATOM      2  C   UNL     1     -14.753 -15.613 102.927  1.00  0.00     0.208 A 
ATOM      3  C   UNL     1     -13.545 -15.596 103.644  1.00  0.00     0.238 A 
ATOM      4  O   UNL     1     -13.527 -16.071 104.810  1.00  0.00    -0.285 OA
ATOM      5  C   UNL     1     -12.372 -15.090 103.035  1.00  0.00     0.111 A 
ATOM      6  C   UNL     1     -11.104 -14.987 103.681  1.00  0.00     0.134 A 
ATOM      7  C   UNL     1      -9.981 -14.592 102.941  1.00  0.00     0.093 A 
ATOM      8  C   UNL     1     -10.096 -14.234 101.595  1.00  0.00     0.123 A 
ATOM      9  C   UNL     1     -11.341 -14.275 100.972  1.00  0.00     0.094 A 
ATOM     10  C   UNL     1     -12.472 -14.698 101.675  1.00  0.00     0.146 A 
ATOM     11  O   UNL     1     -13.637 -14.732 101.039  1.00  0.00    -0.452 OA
ENDROOT
BRANCH   1  12
ATOM     12  C   UNL     1     -16.006 -15.103 100.794  1.00  0.00     0.029 A 
ATOM     13  C   UNL     1     -16.803 -13.949 100.800  1.00  0.00     0.062 A 
ATOM     14  C   UNL     1     -17.990 -13.888 100.063  1.00  0.00     0.162 A 
ATOM     15  C   UNL     1     -16.433 -16.222 100.064  1.00  0.00     0.062 A 
ATOM     16  C   UNL     1     -18.404 -15.013  99.309  1.00  0.00     0.200 A 
ATOM     17  C   UNL     1     -17.617 -16.180  99.322  1.00  0.00     0.162 A 
BRANCH  14  18
ATOM     18  O   UNL     1     -18.723 -12.700 100.109  1.00  0.00    -0.504 OA
ATOM     19  H   UNL     1     -18.730 -12.009  99.374  1.00  0.00     0.293 HD
ENDBRANCH  14  18
BRANCH  16  20
ATOM     20  O   UNL     1     -19.575 -15.010  98.547  1.00  0.00    -0.502 OA
ATOM     21  H   UNL     1     -19.627 -15.307  97.583  1.00  0.00     0.293 HD
ENDBRANCH  16  20
BRANCH  17  22
ATOM     22  O   UNL     1     -17.999 -17.314  98.604  1.00  0.00    -0.504 OA
ATOM     23  H   UNL     1     -18.570 -17.260  97.770  1.00  0.00     0.293 HD
ENDBRANCH  17  22
ENDBRANCH   1  12
BRANCH   2  24
ATOM     24  O   UNL     1     -15.918 -16.129 103.502  1.00  0.00    -0.502 OA
ATOM     25  H   UNL     1     -15.918 -16.961 104.079  1.00  0.00     0.293 HD
ENDBRANCH   2  24
BRANCH   6  26
ATOM     26  O   UNL     1     -10.898 -15.231 105.042  1.00  0.00    -0.507 OA
ATOM     27  H   UNL     1     -11.143 -14.593 105.784  1.00  0.00     0.293 HD
ENDBRANCH   6  26
BRANCH   8  28
ATOM     28  O   UNL     1      -8.978 -13.827 100.871  1.00  0.00    -0.508 OA
ATOM     29  H   UNL     1      -9.051 -13.538  99.902  1.00  0.00     0.293 HD
ENDBRANCH   8  28
TORSDOF 7
ENDMDL
