MODEL 1
REMARK VINA RESULT:    -3.660      0.000      0.000
REMARK INTER + INTRA:          -5.166
REMARK INTER:                  -4.944
REMARK INTRA:                  -0.222
REMARK UNBOUND:                -0.222
REMARK SMILES CCCCCCCC(=O)[O-]
REMARK SMILES IDX 5 1 6 2 7 3 8 4 9 5 10 6 4 7 3 8 2 9 1 10
REMARK H PARENT
REMARK Flexibility Score: inf
ROOT
ATOM      1  C   UNL     1    -115.201  11.465  24.828  1.00  0.00     0.000 C 
ENDROOT
BRANCH   1   2
ATOM      2  C   UNL     1    -113.876  11.529  25.606  1.00  0.00     0.006 C 
BRANCH   2   3
ATOM      3  C   UNL     1    -112.678  11.800  24.687  1.00  0.00     0.053 C 
BRANCH   3   4
ATOM      4  C   UNL     1    -111.952  10.538  24.333  1.00  0.00     0.041 C 
ATOM      5  O   UNL     1    -111.873   9.597  25.166  1.00  0.00    -0.550 OA
ATOM      6  O   UNL     1    -111.388  10.391  23.073  1.00  0.00    -0.550 OA
ENDBRANCH   3   4
ENDBRANCH   2   3
ENDBRANCH   1   2
BRANCH   1   7
ATOM      7  C   UNL     1    -115.567  12.803  24.160  1.00  0.00     0.000 C 
BRANCH   7   8
ATOM      8  C   UNL     1    -116.700  12.727  23.117  1.00  0.00    -0.000 C 
BRANCH   8   9
ATOM      9  C   UNL     1    -117.826  13.759  23.304  1.00  0.00    -0.003 C 
ATOM     10  C   UNL     1    -117.445  14.890  24.259  1.00  0.00     0.004 C 
ENDBRANCH   8   9
ENDBRANCH   7   8
ENDBRANCH   1   7
TORSDOF 6
ENDMDL
MODEL 2
REMARK VINA RESULT:    -3.623      1.237      1.891
REMARK INTER + INTRA:          -5.115
REMARK INTER:                  -4.780
REMARK INTRA:                  -0.335
REMARK UNBOUND:                -0.222
REMARK SMILES CCCCCCCC(=O)[O-]
REMARK SMILES IDX 5 1 6 2 7 3 8 4 9 5 10 6 4 7 3 8 2 9 1 10
REMARK H PARENT
REMARK Flexibility Score: inf
ROOT
ATOM      1  C   UNL     1    -115.741  11.566  23.090  1.00  0.00     0.000 C 
ENDROOT
BRANCH   1   2
ATOM      2  C   UNL     1    -115.172  12.308  24.312  1.00  0.00     0.006 C 
BRANCH   2   3
ATOM      3  C   UNL     1    -114.478  11.356  25.295  1.00  0.00     0.053 C 
BRANCH   3   4
ATOM      4  C   UNL     1    -112.987  11.424  25.176  1.00  0.00     0.041 C 
ATOM      5  O   UNL     1    -112.417  12.528  24.966  1.00  0.00    -0.550 OA
ATOM      6  O   UNL     1    -112.224  10.274  25.325  1.00  0.00    -0.550 OA
ENDBRANCH   3   4
ENDBRANCH   2   3
ENDBRANCH   1   2
BRANCH   1   7
ATOM      7  C   UNL     1    -116.878  12.338  22.398  1.00  0.00     0.000 C 
BRANCH   7   8
ATOM      8  C   UNL     1    -117.936  12.938  23.347  1.00  0.00    -0.000 C 
BRANCH   8   9
ATOM      9  C   UNL     1    -118.094  14.466  23.262  1.00  0.00    -0.003 C 
ATOM     10  C   UNL     1    -117.489  15.194  24.462  1.00  0.00     0.004 C 
ENDBRANCH   8   9
ENDBRANCH   7   8
ENDBRANCH   1   7
TORSDOF 6
ENDMDL
MODEL 3
REMARK VINA RESULT:    -3.543      3.608      5.683
REMARK INTER + INTRA:          -5.008
REMARK INTER:                  -4.825
REMARK INTRA:                  -0.183
REMARK UNBOUND:                -0.222
REMARK SMILES CCCCCCCC(=O)[O-]
REMARK SMILES IDX 5 1 6 2 7 3 8 4 9 5 10 6 4 7 3 8 2 9 1 10
REMARK H PARENT
REMARK Flexibility Score: inf
ROOT
ATOM      1  C   UNL     1    -115.618  12.565  24.128  1.00  0.00     0.000 C 
ENDROOT
BRANCH   1   2
ATOM      2  C   UNL     1    -116.588  12.243  22.978  1.00  0.00     0.006 C 
BRANCH   2   3
ATOM      3  C   UNL     1    -117.508  13.426  22.648  1.00  0.00     0.053 C 
BRANCH   3   4
ATOM      4  C   UNL     1    -118.019  14.094  23.888  1.00  0.00     0.041 C 
ATOM      5  O   UNL     1    -118.939  13.561  24.562  1.00  0.00    -0.550 OA
ATOM      6  O   UNL     1    -117.459  15.292  24.313  1.00  0.00    -0.550 OA
ENDBRANCH   3   4
ENDBRANCH   2   3
ENDBRANCH   1   2
BRANCH   1   7
ATOM      7  C   UNL     1    -115.159  11.310  24.891  1.00  0.00     0.000 C 
BRANCH   7   8
ATOM      8  C   UNL     1    -113.807  11.445  25.621  1.00  0.00    -0.000 C 
BRANCH   8   9
ATOM      9  C   UNL     1    -112.644  11.948  24.749  1.00  0.00    -0.003 C 
ATOM     10  C   UNL     1    -111.959  10.829  23.966  1.00  0.00     0.004 C 
ENDBRANCH   8   9
ENDBRANCH   7   8
ENDBRANCH   1   7
TORSDOF 6
ENDMDL
MODEL 4
REMARK VINA RESULT:    -3.365     11.161     12.589
REMARK INTER + INTRA:          -4.767
REMARK INTER:                  -4.576
REMARK INTRA:                  -0.191
REMARK UNBOUND:                -0.222
REMARK SMILES CCCCCCCC(=O)[O-]
REMARK SMILES IDX 5 1 6 2 7 3 8 4 9 5 10 6 4 7 3 8 2 9 1 10
REMARK H PARENT
REMARK Flexibility Score: inf
ROOT
ATOM      1  C   UNL     1    -102.515  10.674  22.261  1.00  0.00     0.000 C 
ENDROOT
BRANCH   1   2
ATOM      2  C   UNL     1    -102.336  10.731  20.735  1.00  0.00     0.006 C 
BRANCH   2   3
ATOM      3  C   UNL     1    -103.659  11.005  20.007  1.00  0.00     0.053 C 
BRANCH   3   4
ATOM      4  C   UNL     1    -103.433  11.494  18.609  1.00  0.00     0.041 C 
ATOM      5  O   UNL     1    -104.409  11.853  17.897  1.00  0.00    -0.550 OA
ATOM      6  O   UNL     1    -102.143  11.580  18.102  1.00  0.00    -0.550 OA
ENDBRANCH   3   4
ENDBRANCH   2   3
ENDBRANCH   1   2
BRANCH   1   7
ATOM      7  C   UNL     1    -101.770  11.804  22.993  1.00  0.00     0.000 C 
BRANCH   7   8
ATOM      8  C   UNL     1    -102.577  12.515  24.098  1.00  0.00    -0.000 C 
BRANCH   8   9
ATOM      9  C   UNL     1    -102.673  11.747  25.428  1.00  0.00    -0.003 C 
ATOM     10  C   UNL     1    -104.111  11.402  25.814  1.00  0.00     0.004 C 
ENDBRANCH   8   9
ENDBRANCH   7   8
ENDBRANCH   1   7
TORSDOF 6
ENDMDL
MODEL 5
REMARK VINA RESULT:    -3.352      4.351      6.315
REMARK INTER + INTRA:          -4.750
REMARK INTER:                  -4.628
REMARK INTRA:                  -0.121
REMARK UNBOUND:                -0.222
REMARK SMILES CCCCCCCC(=O)[O-]
REMARK SMILES IDX 5 1 6 2 7 3 8 4 9 5 10 6 4 7 3 8 2 9 1 10
REMARK H PARENT
REMARK Flexibility Score: inf
ROOT
ATOM      1  C   UNL     1    -116.374  12.147  22.722  1.00  0.00     0.000 C 
ENDROOT
BRANCH   1   2
ATOM      2  C   UNL     1    -117.496  13.149  22.401  1.00  0.00     0.006 C 
BRANCH   2   3
ATOM      3  C   UNL     1    -117.898  13.113  20.922  1.00  0.00     0.053 C 
BRANCH   3   4
ATOM      4  C   UNL     1    -118.329  14.461  20.430  1.00  0.00     0.041 C 
ATOM      5  O   UNL     1    -117.961  14.870  19.297  1.00  0.00    -0.550 OA
ATOM      6  O   UNL     1    -119.162  15.252  21.210  1.00  0.00    -0.550 OA
ENDBRANCH   3   4
ENDBRANCH   2   3
ENDBRANCH   1   2
BRANCH   1   7
ATOM      7  C   UNL     1    -115.718  12.402  24.091  1.00  0.00     0.000 C 
BRANCH   7   8
ATOM      8  C   UNL     1    -114.948  11.204  24.683  1.00  0.00    -0.000 C 
BRANCH   8   9
ATOM      9  C   UNL     1    -113.764  11.578  25.591  1.00  0.00    -0.003 C 
ATOM     10  C   UNL     1    -112.613  12.234  24.830  1.00  0.00     0.004 C 
ENDBRANCH   8   9
ENDBRANCH   7   8
ENDBRANCH   1   7
TORSDOF 6
ENDMDL
MODEL 6
REMARK VINA RESULT:    -3.248     18.359     18.964
REMARK INTER + INTRA:          -4.609
REMARK INTER:                  -4.290
REMARK INTRA:                  -0.319
REMARK UNBOUND:                -0.222
REMARK SMILES CCCCCCCC(=O)[O-]
REMARK SMILES IDX 5 1 6 2 7 3 8 4 9 5 10 6 4 7 3 8 2 9 1 10
REMARK H PARENT
REMARK Flexibility Score: inf
ROOT
ATOM      1  C   UNL     1    -100.172  20.529  31.980  1.00  0.00     0.000 C 
ENDROOT
BRANCH   1   2
ATOM      2  C   UNL     1    -100.142  22.066  32.042  1.00  0.00     0.006 C 
BRANCH   2   3
ATOM      3  C   UNL     1    -101.271  22.700  31.220  1.00  0.00     0.053 C 
BRANCH   3   4
ATOM      4  C   UNL     1    -102.234  23.452  32.087  1.00  0.00     0.041 C 
ATOM      5  O   UNL     1    -101.934  23.728  33.278  1.00  0.00    -0.550 OA
ATOM      6  O   UNL     1    -103.452  23.873  31.570  1.00  0.00    -0.550 OA
ENDBRANCH   3   4
ENDBRANCH   2   3
ENDBRANCH   1   2
BRANCH   1   7
ATOM      7  C   UNL     1    -100.236  19.876  33.372  1.00  0.00     0.000 C 
BRANCH   7   8
ATOM      8  C   UNL     1    -101.419  20.325  34.253  1.00  0.00    -0.000 C 
BRANCH   8   9
ATOM      9  C   UNL     1    -101.970  19.246  35.202  1.00  0.00    -0.003 C 
ATOM     10  C   UNL     1    -101.154  17.954  35.172  1.00  0.00     0.004 C 
ENDBRANCH   8   9
ENDBRANCH   7   8
ENDBRANCH   1   7
TORSDOF 6
ENDMDL
MODEL 7
REMARK VINA RESULT:    -3.225     18.283     19.198
REMARK INTER + INTRA:          -4.578
REMARK INTER:                  -4.225
REMARK INTRA:                  -0.353
REMARK UNBOUND:                -0.222
REMARK SMILES CCCCCCCC(=O)[O-]
REMARK SMILES IDX 5 1 6 2 7 3 8 4 9 5 10 6 4 7 3 8 2 9 1 10
REMARK H PARENT
REMARK Flexibility Score: inf
ROOT
ATOM      1  C   UNL     1    -100.436  23.404  31.694  1.00  0.00     0.000 C 
ENDROOT
BRANCH   1   2
ATOM      2  C   UNL     1    -101.535  24.439  31.987  1.00  0.00     0.006 C 
BRANCH   2   3
ATOM      3  C   UNL     1    -102.940  23.880  31.730  1.00  0.00     0.053 C 
BRANCH   3   4
ATOM      4  C   UNL     1    -103.908  24.296  32.794  1.00  0.00     0.041 C 
ATOM      5  O   UNL     1    -103.501  24.910  33.816  1.00  0.00    -0.550 OA
ATOM      6  O   UNL     1    -105.263  24.033  32.644  1.00  0.00    -0.550 OA
ENDBRANCH   3   4
ENDBRANCH   2   3
ENDBRANCH   1   2
BRANCH   1   7
ATOM      7  C   UNL     1    -100.982  21.971  31.570  1.00  0.00     0.000 C 
BRANCH   7   8
ATOM      8  C   UNL     1     -99.968  20.852  31.885  1.00  0.00    -0.000 C 
BRANCH   8   9
ATOM      9  C   UNL     1    -100.264  20.047  33.163  1.00  0.00    -0.003 C 
ATOM     10  C   UNL     1    -101.351  20.682  34.028  1.00  0.00     0.004 C 
ENDBRANCH   8   9
ENDBRANCH   7   8
ENDBRANCH   1   7
TORSDOF 6
ENDMDL
MODEL 8
REMARK VINA RESULT:    -3.210     11.516     12.402
REMARK INTER + INTRA:          -4.557
REMARK INTER:                  -4.419
REMARK INTRA:                  -0.138
REMARK UNBOUND:                -0.222
REMARK SMILES CCCCCCCC(=O)[O-]
REMARK SMILES IDX 5 1 6 2 7 3 8 4 9 5 10 6 4 7 3 8 2 9 1 10
REMARK H PARENT
REMARK Flexibility Score: inf
ROOT
ATOM      1  C   UNL     1    -102.009  11.164  21.911  1.00  0.00     0.000 C 
ENDROOT
BRANCH   1   2
ATOM      2  C   UNL     1    -102.694  10.798  23.238  1.00  0.00     0.006 C 
BRANCH   2   3
ATOM      3  C   UNL     1    -102.708  11.972  24.225  1.00  0.00     0.053 C 
BRANCH   3   4
ATOM      4  C   UNL     1    -103.138  11.543  25.594  1.00  0.00     0.041 C 
ATOM      5  O   UNL     1    -104.330  11.709  25.966  1.00  0.00    -0.550 OA
ATOM      6  O   UNL     1    -102.230  10.933  26.450  1.00  0.00    -0.550 OA
ENDBRANCH   3   4
ENDBRANCH   2   3
ENDBRANCH   1   2
BRANCH   1   7
ATOM      7  C   UNL     1    -102.868  10.822  20.680  1.00  0.00     0.000 C 
BRANCH   7   8
ATOM      8  C   UNL     1    -102.091  10.686  19.355  1.00  0.00    -0.000 C 
BRANCH   8   9
ATOM      9  C   UNL     1    -102.858  11.144  18.102  1.00  0.00    -0.003 C 
ATOM     10  C   UNL     1    -104.134  11.916  18.434  1.00  0.00     0.004 C 
ENDBRANCH   8   9
ENDBRANCH   7   8
ENDBRANCH   1   7
TORSDOF 6
ENDMDL
MODEL 9
REMARK VINA RESULT:    -3.144     11.923     13.030
REMARK INTER + INTRA:          -4.469
REMARK INTER:                  -4.101
REMARK INTRA:                  -0.367
REMARK UNBOUND:                -0.222
REMARK SMILES CCCCCCCC(=O)[O-]
REMARK SMILES IDX 5 1 6 2 7 3 8 4 9 5 10 6 4 7 3 8 2 9 1 10
REMARK H PARENT
REMARK Flexibility Score: inf
ROOT
ATOM      1  C   UNL     1    -102.861  12.147  24.487  1.00  0.00     0.000 C 
ENDROOT
BRANCH   1   2
ATOM      2  C   UNL     1    -102.504  10.943  23.598  1.00  0.00     0.006 C 
BRANCH   2   3
ATOM      3  C   UNL     1    -101.722  11.361  22.346  1.00  0.00     0.053 C 
BRANCH   3   4
ATOM      4  C   UNL     1    -102.255  10.699  21.112  1.00  0.00     0.041 C 
ATOM      5  O   UNL     1    -103.444  10.899  20.748  1.00  0.00    -0.550 OA
ATOM      6  O   UNL     1    -101.429   9.885  20.348  1.00  0.00    -0.550 OA
ENDBRANCH   3   4
ENDBRANCH   2   3
ENDBRANCH   1   2
BRANCH   1   7
ATOM      7  C   UNL     1    -102.755  11.832  25.990  1.00  0.00     0.000 C 
BRANCH   7   8
ATOM      8  C   UNL     1    -102.924  10.345  26.363  1.00  0.00    -0.000 C 
BRANCH   8   9
ATOM      9  C   UNL     1    -101.787   9.756  27.217  1.00  0.00    -0.003 C 
ATOM     10  C   UNL     1    -100.399  10.138  26.706  1.00  0.00     0.004 C 
ENDBRANCH   8   9
ENDBRANCH   7   8
ENDBRANCH   1   7
TORSDOF 6
ENDMDL
