MODEL 1
REMARK VINA RESULT:    -4.565      0.000      0.000
REMARK INTER + INTRA:         -12.990
REMARK INTER:                  -9.903
REMARK INTRA:                  -3.086
REMARK UNBOUND:                -3.086
REMARK SMILES CCCCCCCCCCCCCCCCCCCCCC(=O)[O-]
REMARK SMILES IDX 12 1 11 2 10 3 9 4 8 5 7 6 6 7 5 8 4 9 3 10 2 11 1 12 13 13
REMARK SMILES IDX 14 14 15 15 16 16 17 17 18 18 19 19 20 20 21 21 22 22 23 23
REMARK SMILES IDX 24 24
REMARK H PARENT
REMARK Flexibility Score: inf
ROOT
ATOM      1  C   UNL     1      26.242   5.427  10.743  1.00  0.00     0.000 C 
ENDROOT
BRANCH   1   2
ATOM      2  C   UNL     1      27.744   5.589  11.057  1.00  0.00     0.000 C 
BRANCH   2   3
ATOM      3  C   UNL     1      28.561   4.280  11.064  1.00  0.00     0.000 C 
BRANCH   3   4
ATOM      4  C   UNL     1      27.976   3.198  10.137  1.00  0.00    -0.000 C 
BRANCH   4   5
ATOM      5  C   UNL     1      28.337   3.423   8.659  1.00  0.00    -0.000 C 
BRANCH   5   6
ATOM      6  C   UNL     1      27.096   3.480   7.749  1.00  0.00    -0.000 C 
BRANCH   6   7
ATOM      7  C   UNL     1      27.042   2.317   6.746  1.00  0.00    -0.000 C 
BRANCH   7   8
ATOM      8  C   UNL     1      26.462   1.032   7.361  1.00  0.00    -0.000 C 
BRANCH   8   9
ATOM      9  C   UNL     1      27.164  -0.245   6.856  1.00  0.00    -0.000 C 
BRANCH   9  10
ATOM     10  C   UNL     1      28.328  -0.743   7.736  1.00  0.00    -0.000 C 
BRANCH  10  11
ATOM     11  C   UNL     1      28.220  -0.384   9.229  1.00  0.00    -0.003 C 
ATOM     12  C   UNL     1      27.653  -1.520  10.081  1.00  0.00     0.004 C 
ENDBRANCH  10  11
ENDBRANCH   9  10
ENDBRANCH   8   9
ENDBRANCH   7   8
ENDBRANCH   6   7
ENDBRANCH   5   6
ENDBRANCH   4   5
ENDBRANCH   3   4
ENDBRANCH   2   3
ENDBRANCH   1   2
BRANCH   1  13
ATOM     13  C   UNL     1      25.730   6.422   9.688  1.00  0.00     0.000 C 
BRANCH  13  14
ATOM     14  C   UNL     1      26.865   7.010   8.826  1.00  0.00     0.000 C 
BRANCH  14  15
ATOM     15  C   UNL     1      26.382   7.846   7.632  1.00  0.00     0.000 C 
BRANCH  15  16
ATOM     16  C   UNL     1      26.385   7.070   6.301  1.00  0.00     0.000 C 
BRANCH  16  17
ATOM     17  C   UNL     1      25.036   7.187   5.570  1.00  0.00     0.000 C 
BRANCH  17  18
ATOM     18  C   UNL     1      23.919   6.414   6.305  1.00  0.00     0.000 C 
BRANCH  18  19
ATOM     19  C   UNL     1      24.286   4.948   6.617  1.00  0.00     0.000 C 
BRANCH  19  20
ATOM     20  C   UNL     1      23.088   4.057   6.995  1.00  0.00     0.006 C 
BRANCH  20  21
ATOM     21  C   UNL     1      22.158   4.663   8.056  1.00  0.00     0.053 C 
BRANCH  21  22
ATOM     22  C   UNL     1      22.658   4.452   9.454  1.00  0.00     0.041 C 
ATOM     23  O   UNL     1      23.446   3.502   9.705  1.00  0.00    -0.550 OA
ATOM     24  O   UNL     1      22.310   5.340  10.466  1.00  0.00    -0.550 OA
ENDBRANCH  21  22
ENDBRANCH  20  21
ENDBRANCH  19  20
ENDBRANCH  18  19
ENDBRANCH  17  18
ENDBRANCH  16  17
ENDBRANCH  15  16
ENDBRANCH  14  15
ENDBRANCH  13  14
ENDBRANCH   1  13
TORSDOF 20
ENDMDL
MODEL 2
REMARK VINA RESULT:    -4.462      2.505      6.383
REMARK INTER + INTRA:         -12.766
REMARK INTER:                  -9.183
REMARK INTRA:                  -3.583
REMARK UNBOUND:                -3.086
REMARK SMILES CCCCCCCCCCCCCCCCCCCCCC(=O)[O-]
REMARK SMILES IDX 12 1 11 2 10 3 9 4 8 5 7 6 6 7 5 8 4 9 3 10 2 11 1 12 13 13
REMARK SMILES IDX 14 14 15 15 16 16 17 17 18 18 19 19 20 20 21 21 22 22 23 23
REMARK SMILES IDX 24 24
REMARK H PARENT
REMARK Flexibility Score: inf
ROOT
ATOM      1  C   UNL     1      25.575   4.805  10.302  1.00  0.00     0.000 C 
ENDROOT
BRANCH   1   2
ATOM      2  C   UNL     1      24.684   5.696  11.193  1.00  0.00     0.000 C 
BRANCH   2   3
ATOM      3  C   UNL     1      23.225   5.853  10.717  1.00  0.00     0.000 C 
BRANCH   3   4
ATOM      4  C   UNL     1      22.749   7.317  10.702  1.00  0.00    -0.000 C 
BRANCH   4   5
ATOM      5  C   UNL     1      23.176   8.069   9.431  1.00  0.00    -0.000 C 
BRANCH   5   6
ATOM      6  C   UNL     1      24.277   9.113   9.701  1.00  0.00    -0.000 C 
BRANCH   6   7
ATOM      7  C   UNL     1      25.656   8.664   9.194  1.00  0.00    -0.000 C 
BRANCH   7   8
ATOM      8  C   UNL     1      25.622   8.180   7.734  1.00  0.00    -0.000 C 
BRANCH   8   9
ATOM      9  C   UNL     1      26.636   7.055   7.450  1.00  0.00    -0.000 C 
BRANCH   9  10
ATOM     10  C   UNL     1      26.105   5.899   6.578  1.00  0.00    -0.000 C 
BRANCH  10  11
ATOM     11  C   UNL     1      24.583   5.898   6.350  1.00  0.00    -0.003 C 
ATOM     12  C   UNL     1      23.852   4.844   7.183  1.00  0.00     0.004 C 
ENDBRANCH  10  11
ENDBRANCH   9  10
ENDBRANCH   8   9
ENDBRANCH   7   8
ENDBRANCH   6   7
ENDBRANCH   5   6
ENDBRANCH   4   5
ENDBRANCH   3   4
ENDBRANCH   2   3
ENDBRANCH   1   2
BRANCH   1  13
ATOM     13  C   UNL     1      27.080   5.051  10.506  1.00  0.00     0.000 C 
BRANCH  13  14
ATOM     14  C   UNL     1      27.955   4.171   9.592  1.00  0.00     0.000 C 
BRANCH  14  15
ATOM     15  C   UNL     1      27.195   3.035   8.893  1.00  0.00     0.000 C 
BRANCH  15  16
ATOM     16  C   UNL     1      27.527   2.906   7.394  1.00  0.00     0.000 C 
BRANCH  16  17
ATOM     17  C   UNL     1      26.543   1.970   6.670  1.00  0.00     0.000 C 
BRANCH  17  18
ATOM     18  C   UNL     1      25.893   0.963   7.644  1.00  0.00     0.000 C 
BRANCH  18  19
ATOM     19  C   UNL     1      26.168  -0.512   7.282  1.00  0.00     0.000 C 
BRANCH  19  20
ATOM     20  C   UNL     1      27.622  -0.963   7.509  1.00  0.00     0.006 C 
BRANCH  20  21
ATOM     21  C   UNL     1      28.196  -0.586   8.883  1.00  0.00     0.053 C 
BRANCH  21  22
ATOM     22  C   UNL     1      27.823  -1.564   9.955  1.00  0.00     0.041 C 
ATOM     23  O   UNL     1      27.811  -1.204  11.162  1.00  0.00    -0.550 OA
ATOM     24  O   UNL     1      27.424  -2.854   9.622  1.00  0.00    -0.550 OA
ENDBRANCH  21  22
ENDBRANCH  20  21
ENDBRANCH  19  20
ENDBRANCH  18  19
ENDBRANCH  17  18
ENDBRANCH  16  17
ENDBRANCH  15  16
ENDBRANCH  14  15
ENDBRANCH  13  14
ENDBRANCH   1  13
TORSDOF 20
ENDMDL
MODEL 3
REMARK VINA RESULT:    -4.459      1.647      3.302
REMARK INTER + INTRA:         -12.760
REMARK INTER:                  -9.010
REMARK INTRA:                  -3.750
REMARK UNBOUND:                -3.086
REMARK SMILES CCCCCCCCCCCCCCCCCCCCCC(=O)[O-]
REMARK SMILES IDX 12 1 11 2 10 3 9 4 8 5 7 6 6 7 5 8 4 9 3 10 2 11 1 12 13 13
REMARK SMILES IDX 14 14 15 15 16 16 17 17 18 18 19 19 20 20 21 21 22 22 23 23
REMARK SMILES IDX 24 24
REMARK H PARENT
REMARK Flexibility Score: inf
ROOT
ATOM      1  C   UNL     1      27.958   2.981   8.312  1.00  0.00     0.000 C 
ENDROOT
BRANCH   1   2
ATOM      2  C   UNL     1      26.654   3.411   7.609  1.00  0.00     0.000 C 
BRANCH   2   3
ATOM      3  C   UNL     1      25.353   2.911   8.271  1.00  0.00     0.000 C 
BRANCH   3   4
ATOM      4  C   UNL     1      24.433   2.151   7.298  1.00  0.00    -0.000 C 
BRANCH   4   5
ATOM      5  C   UNL     1      24.757   2.443   5.823  1.00  0.00    -0.000 C 
BRANCH   5   6
ATOM      6  C   UNL     1      24.867   1.161   4.976  1.00  0.00    -0.000 C 
BRANCH   6   7
ATOM      7  C   UNL     1      26.312   0.653   4.855  1.00  0.00    -0.000 C 
BRANCH   7   8
ATOM      8  C   UNL     1      26.550  -0.649   5.640  1.00  0.00    -0.000 C 
BRANCH   8   9
ATOM      9  C   UNL     1      27.413  -0.441   6.901  1.00  0.00    -0.000 C 
BRANCH   9  10
ATOM     10  C   UNL     1      26.654  -0.552   8.239  1.00  0.00    -0.000 C 
BRANCH  10  11
ATOM     11  C   UNL     1      27.494  -1.053   9.428  1.00  0.00    -0.003 C 
ATOM     12  C   UNL     1      27.619  -2.576   9.475  1.00  0.00     0.004 C 
ENDBRANCH  10  11
ENDBRANCH   9  10
ENDBRANCH   8   9
ENDBRANCH   7   8
ENDBRANCH   6   7
ENDBRANCH   5   6
ENDBRANCH   4   5
ENDBRANCH   3   4
ENDBRANCH   2   3
ENDBRANCH   1   2
BRANCH   1  13
ATOM     13  C   UNL     1      27.918   3.167   9.838  1.00  0.00     0.000 C 
BRANCH  13  14
ATOM     14  C   UNL     1      28.706   4.406  10.307  1.00  0.00     0.000 C 
BRANCH  14  15
ATOM     15  C   UNL     1      27.828   5.562  10.806  1.00  0.00     0.000 C 
BRANCH  15  16
ATOM     16  C   UNL     1      27.122   6.329   9.672  1.00  0.00     0.000 C 
BRANCH  16  17
ATOM     17  C   UNL     1      25.590   6.244   9.794  1.00  0.00     0.000 C 
BRANCH  17  18
ATOM     18  C   UNL     1      24.884   7.146   8.757  1.00  0.00     0.000 C 
BRANCH  18  19
ATOM     19  C   UNL     1      25.416   6.966   7.320  1.00  0.00     0.000 C 
BRANCH  19  20
ATOM     20  C   UNL     1      24.491   6.154   6.395  1.00  0.00     0.006 C 
BRANCH  20  21
ATOM     21  C   UNL     1      22.992   6.382   6.638  1.00  0.00     0.053 C 
BRANCH  21  22
ATOM     22  C   UNL     1      22.280   5.138   7.076  1.00  0.00     0.041 C 
ATOM     23  O   UNL     1      21.728   4.393   6.223  1.00  0.00    -0.550 OA
ATOM     24  O   UNL     1      22.281   4.761   8.415  1.00  0.00    -0.550 OA
ENDBRANCH  21  22
ENDBRANCH  20  21
ENDBRANCH  19  20
ENDBRANCH  18  19
ENDBRANCH  17  18
ENDBRANCH  16  17
ENDBRANCH  15  16
ENDBRANCH  14  15
ENDBRANCH  13  14
ENDBRANCH   1  13
TORSDOF 20
ENDMDL
MODEL 4
REMARK VINA RESULT:    -4.422      2.105      6.633
REMARK INTER + INTRA:         -12.678
REMARK INTER:                  -9.515
REMARK INTRA:                  -3.163
REMARK UNBOUND:                -3.086
REMARK SMILES CCCCCCCCCCCCCCCCCCCCCC(=O)[O-]
REMARK SMILES IDX 12 1 11 2 10 3 9 4 8 5 7 6 6 7 5 8 4 9 3 10 2 11 1 12 13 13
REMARK SMILES IDX 14 14 15 15 16 16 17 17 18 18 19 19 20 20 21 21 22 22 23 23
REMARK SMILES IDX 24 24
REMARK H PARENT
REMARK Flexibility Score: inf
ROOT
ATOM      1  C   UNL     1      28.028   3.204   9.801  1.00  0.00     0.000 C 
ENDROOT
BRANCH   1   2
ATOM      2  C   UNL     1      28.223   4.728   9.658  1.00  0.00     0.000 C 
BRANCH   2   3
ATOM      3  C   UNL     1      27.126   5.596  10.309  1.00  0.00     0.000 C 
BRANCH   3   4
ATOM      4  C   UNL     1      25.851   4.804  10.649  1.00  0.00    -0.000 C 
BRANCH   4   5
ATOM      5  C   UNL     1      24.579   5.666  10.578  1.00  0.00    -0.000 C 
BRANCH   5   6
ATOM      6  C   UNL     1      23.793   5.455   9.271  1.00  0.00    -0.000 C 
BRANCH   6   7
ATOM      7  C   UNL     1      24.442   4.410   8.350  1.00  0.00    -0.000 C 
BRANCH   7   8
ATOM      8  C   UNL     1      24.670   4.938   6.923  1.00  0.00    -0.000 C 
BRANCH   8   9
ATOM      9  C   UNL     1      26.133   5.346   6.659  1.00  0.00    -0.000 C 
BRANCH   9  10
ATOM     10  C   UNL     1      26.331   6.794   6.167  1.00  0.00    -0.000 C 
BRANCH  10  11
ATOM     11  C   UNL     1      26.816   7.788   7.238  1.00  0.00    -0.003 C 
ATOM     12  C   UNL     1      25.692   8.291   8.144  1.00  0.00     0.004 C 
ENDBRANCH  10  11
ENDBRANCH   9  10
ENDBRANCH   8   9
ENDBRANCH   7   8
ENDBRANCH   6   7
ENDBRANCH   5   6
ENDBRANCH   4   5
ENDBRANCH   3   4
ENDBRANCH   2   3
ENDBRANCH   1   2
BRANCH   1  13
ATOM     13  C   UNL     1      27.682   2.508   8.473  1.00  0.00     0.000 C 
BRANCH  13  14
ATOM     14  C   UNL     1      28.081   1.019   8.462  1.00  0.00     0.000 C 
BRANCH  14  15
ATOM     15  C   UNL     1      28.497   0.466   9.833  1.00  0.00     0.000 C 
BRANCH  15  16
ATOM     16  C   UNL     1      28.030  -0.981  10.077  1.00  0.00     0.000 C 
BRANCH  16  17
ATOM     17  C   UNL     1      27.118  -1.485   8.944  1.00  0.00     0.000 C 
BRANCH  17  18
ATOM     18  C   UNL     1      27.809  -2.578   8.098  1.00  0.00     0.000 C 
BRANCH  18  19
ATOM     19  C   UNL     1      28.102  -2.143   6.647  1.00  0.00     0.000 C 
BRANCH  19  20
ATOM     20  C   UNL     1      26.846  -1.867   5.799  1.00  0.00     0.006 C 
BRANCH  20  21
ATOM     21  C   UNL     1      26.678  -0.402   5.374  1.00  0.00     0.053 C 
BRANCH  21  22
ATOM     22  C   UNL     1      25.298   0.122   5.636  1.00  0.00     0.041 C 
ATOM     23  O   UNL     1      25.023   0.645   6.748  1.00  0.00    -0.550 OA
ATOM     24  O   UNL     1      24.334   0.097   4.634  1.00  0.00    -0.550 OA
ENDBRANCH  21  22
ENDBRANCH  20  21
ENDBRANCH  19  20
ENDBRANCH  18  19
ENDBRANCH  17  18
ENDBRANCH  16  17
ENDBRANCH  15  16
ENDBRANCH  14  15
ENDBRANCH  13  14
ENDBRANCH   1  13
TORSDOF 20
ENDMDL
MODEL 5
REMARK VINA RESULT:    -4.415      2.048      5.546
REMARK INTER + INTRA:         -12.663
REMARK INTER:                  -8.731
REMARK INTRA:                  -3.932
REMARK UNBOUND:                -3.086
REMARK SMILES CCCCCCCCCCCCCCCCCCCCCC(=O)[O-]
REMARK SMILES IDX 12 1 11 2 10 3 9 4 8 5 7 6 6 7 5 8 4 9 3 10 2 11 1 12 13 13
REMARK SMILES IDX 14 14 15 15 16 16 17 17 18 18 19 19 20 20 21 21 22 22 23 23
REMARK SMILES IDX 24 24
REMARK H PARENT
REMARK Flexibility Score: inf
ROOT
ATOM      1  C   UNL     1      22.860   7.288  10.717  1.00  0.00     0.000 C 
ENDROOT
BRANCH   1   2
ATOM      2  C   UNL     1      23.355   8.378   9.744  1.00  0.00     0.000 C 
BRANCH   2   3
ATOM      3  C   UNL     1      24.307   7.887   8.633  1.00  0.00     0.000 C 
BRANCH   3   4
ATOM      4  C   UNL     1      25.733   8.451   8.767  1.00  0.00    -0.000 C 
BRANCH   4   5
ATOM      5  C   UNL     1      26.751   7.709   7.884  1.00  0.00    -0.000 C 
BRANCH   5   6
ATOM      6  C   UNL     1      26.330   7.663   6.404  1.00  0.00    -0.000 C 
BRANCH   6   7
ATOM      7  C   UNL     1      26.256   6.230   5.853  1.00  0.00    -0.000 C 
BRANCH   7   8
ATOM      8  C   UNL     1      26.390   5.165   6.954  1.00  0.00    -0.000 C 
BRANCH   8   9
ATOM      9  C   UNL     1      25.202   4.183   6.988  1.00  0.00    -0.000 C 
BRANCH   9  10
ATOM     10  C   UNL     1      23.831   4.802   6.647  1.00  0.00    -0.000 C 
BRANCH  10  11
ATOM     11  C   UNL     1      22.736   4.592   7.709  1.00  0.00    -0.003 C 
ATOM     12  C   UNL     1      22.749   3.189   8.316  1.00  0.00     0.004 C 
ENDBRANCH  10  11
ENDBRANCH   9  10
ENDBRANCH   8   9
ENDBRANCH   7   8
ENDBRANCH   6   7
ENDBRANCH   5   6
ENDBRANCH   4   5
ENDBRANCH   3   4
ENDBRANCH   2   3
ENDBRANCH   1   2
BRANCH   1  13
ATOM     13  C   UNL     1      24.001   6.564  11.452  1.00  0.00     0.000 C 
BRANCH  13  14
ATOM     14  C   UNL     1      24.028   5.051  11.163  1.00  0.00     0.000 C 
BRANCH  14  15
ATOM     15  C   UNL     1      25.368   4.536  10.617  1.00  0.00     0.000 C 
BRANCH  15  16
ATOM     16  C   UNL     1      26.525   5.538  10.788  1.00  0.00     0.000 C 
BRANCH  16  17
ATOM     17  C   UNL     1      27.860   4.958  10.288  1.00  0.00     0.000 C 
BRANCH  17  18
ATOM     18  C   UNL     1      28.341   3.788  11.174  1.00  0.00     0.000 C 
BRANCH  18  19
ATOM     19  C   UNL     1      28.336   2.424  10.452  1.00  0.00     0.000 C 
BRANCH  19  20
ATOM     20  C   UNL     1      27.944   2.492   8.964  1.00  0.00     0.006 C 
BRANCH  20  21
ATOM     21  C   UNL     1      27.955   1.137   8.243  1.00  0.00     0.053 C 
BRANCH  21  22
ATOM     22  C   UNL     1      26.680   0.863   7.504  1.00  0.00     0.041 C 
ATOM     23  O   UNL     1      26.698   0.697   6.256  1.00  0.00    -0.550 OA
ATOM     24  O   UNL     1      25.482   0.724   8.197  1.00  0.00    -0.550 OA
ENDBRANCH  21  22
ENDBRANCH  20  21
ENDBRANCH  19  20
ENDBRANCH  18  19
ENDBRANCH  17  18
ENDBRANCH  16  17
ENDBRANCH  15  16
ENDBRANCH  14  15
ENDBRANCH  13  14
ENDBRANCH   1  13
TORSDOF 20
ENDMDL
MODEL 6
REMARK VINA RESULT:    -4.397      1.358      2.857
REMARK INTER + INTRA:         -12.625
REMARK INTER:                  -9.440
REMARK INTRA:                  -3.185
REMARK UNBOUND:                -3.086
REMARK SMILES CCCCCCCCCCCCCCCCCCCCCC(=O)[O-]
REMARK SMILES IDX 12 1 11 2 10 3 9 4 8 5 7 6 6 7 5 8 4 9 3 10 2 11 1 12 13 13
REMARK SMILES IDX 14 14 15 15 16 16 17 17 18 18 19 19 20 20 21 21 22 22 23 23
REMARK SMILES IDX 24 24
REMARK H PARENT
REMARK Flexibility Score: inf
ROOT
ATOM      1  C   UNL     1      27.823   4.067  10.423  1.00  0.00     0.000 C 
ENDROOT
BRANCH   1   2
ATOM      2  C   UNL     1      27.992   3.676   8.940  1.00  0.00     0.000 C 
BRANCH   2   3
ATOM      3  C   UNL     1      27.291   2.368   8.519  1.00  0.00     0.000 C 
BRANCH   3   4
ATOM      4  C   UNL     1      28.276   1.221   8.227  1.00  0.00    -0.000 C 
BRANCH   4   5
ATOM      5  C   UNL     1      28.312   0.168   9.348  1.00  0.00    -0.000 C 
BRANCH   5   6
ATOM      6  C   UNL     1      28.073  -1.261   8.826  1.00  0.00    -0.000 C 
BRANCH   6   7
ATOM      7  C   UNL     1      28.376  -1.404   7.327  1.00  0.00    -0.000 C 
BRANCH   7   8
ATOM      8  C   UNL     1      27.130  -1.769   6.502  1.00  0.00    -0.000 C 
BRANCH   8   9
ATOM      9  C   UNL     1      26.691  -0.642   5.546  1.00  0.00    -0.000 C 
BRANCH   9  10
ATOM     10  C   UNL     1      25.378   0.069   5.932  1.00  0.00    -0.000 C 
BRANCH  10  11
ATOM     11  C   UNL     1      24.885  -0.198   7.366  1.00  0.00    -0.003 C 
ATOM     12  C   UNL     1      23.456   0.285   7.610  1.00  0.00     0.004 C 
ENDBRANCH  10  11
ENDBRANCH   9  10
ENDBRANCH   8   9
ENDBRANCH   7   8
ENDBRANCH   6   7
ENDBRANCH   5   6
ENDBRANCH   4   5
ENDBRANCH   3   4
ENDBRANCH   2   3
ENDBRANCH   1   2
BRANCH   1  13
ATOM     13  C   UNL     1      27.674   5.583  10.639  1.00  0.00     0.000 C 
BRANCH  13  14
ATOM     14  C   UNL     1      27.241   6.326   9.360  1.00  0.00     0.000 C 
BRANCH  14  15
ATOM     15  C   UNL     1      26.104   7.336   9.570  1.00  0.00     0.000 C 
BRANCH  15  16
ATOM     16  C   UNL     1      25.706   8.087   8.285  1.00  0.00     0.000 C 
BRANCH  16  17
ATOM     17  C   UNL     1      26.729   7.865   7.156  1.00  0.00     0.000 C 
BRANCH  17  18
ATOM     18  C   UNL     1      26.084   7.184   5.928  1.00  0.00     0.000 C 
BRANCH  18  19
ATOM     19  C   UNL     1      24.894   6.269   6.283  1.00  0.00     0.000 C 
BRANCH  19  20
ATOM     20  C   UNL     1      25.283   4.815   6.609  1.00  0.00     0.006 C 
BRANCH  20  21
ATOM     21  C   UNL     1      24.131   3.958   7.152  1.00  0.00     0.053 C 
BRANCH  21  22
ATOM     22  C   UNL     1      23.679   4.390   8.514  1.00  0.00     0.041 C 
ATOM     23  O   UNL     1      24.431   4.224   9.510  1.00  0.00    -0.550 OA
ATOM     24  O   UNL     1      22.458   5.036   8.678  1.00  0.00    -0.550 OA
ENDBRANCH  21  22
ENDBRANCH  20  21
ENDBRANCH  19  20
ENDBRANCH  18  19
ENDBRANCH  17  18
ENDBRANCH  16  17
ENDBRANCH  15  16
ENDBRANCH  14  15
ENDBRANCH  13  14
ENDBRANCH   1  13
TORSDOF 20
ENDMDL
MODEL 7
REMARK VINA RESULT:    -4.384      2.878      6.508
REMARK INTER + INTRA:         -12.597
REMARK INTER:                  -9.378
REMARK INTRA:                  -3.219
REMARK UNBOUND:                -3.086
REMARK SMILES CCCCCCCCCCCCCCCCCCCCCC(=O)[O-]
REMARK SMILES IDX 12 1 11 2 10 3 9 4 8 5 7 6 6 7 5 8 4 9 3 10 2 11 1 12 13 13
REMARK SMILES IDX 14 14 15 15 16 16 17 17 18 18 19 19 20 20 21 21 22 22 23 23
REMARK SMILES IDX 24 24
REMARK H PARENT
REMARK Flexibility Score: inf
ROOT
ATOM      1  C   UNL     1      27.262   3.187   9.265  1.00  0.00     0.000 C 
ENDROOT
BRANCH   1   2
ATOM      2  C   UNL     1      28.190   3.968  10.219  1.00  0.00     0.000 C 
BRANCH   2   3
ATOM      3  C   UNL     1      27.660   5.344  10.675  1.00  0.00     0.000 C 
BRANCH   3   4
ATOM      4  C   UNL     1      26.131   5.472  10.553  1.00  0.00    -0.000 C 
BRANCH   4   5
ATOM      5  C   UNL     1      25.703   6.551   9.544  1.00  0.00    -0.000 C 
BRANCH   5   6
ATOM      6  C   UNL     1      26.834   6.933   8.570  1.00  0.00    -0.000 C 
BRANCH   6   7
ATOM      7  C   UNL     1      26.338   7.785   7.391  1.00  0.00    -0.000 C 
BRANCH   7   8
ATOM      8  C   UNL     1      26.110   6.955   6.116  1.00  0.00    -0.000 C 
BRANCH   8   9
ATOM      9  C   UNL     1      24.675   7.080   5.566  1.00  0.00    -0.000 C 
BRANCH   9  10
ATOM     10  C   UNL     1      23.587   6.386   6.411  1.00  0.00    -0.000 C 
BRANCH  10  11
ATOM     11  C   UNL     1      22.140   6.642   5.952  1.00  0.00    -0.003 C 
ATOM     12  C   UNL     1      21.225   5.434   6.153  1.00  0.00     0.004 C 
ENDBRANCH  10  11
ENDBRANCH   9  10
ENDBRANCH   8   9
ENDBRANCH   7   8
ENDBRANCH   6   7
ENDBRANCH   5   6
ENDBRANCH   4   5
ENDBRANCH   3   4
ENDBRANCH   2   3
ENDBRANCH   1   2
BRANCH   1  13
ATOM     13  C   UNL     1      27.870   2.967   7.869  1.00  0.00     0.000 C 
BRANCH  13  14
ATOM     14  C   UNL     1      26.801   2.878   6.763  1.00  0.00     0.000 C 
BRANCH  14  15
ATOM     15  C   UNL     1      25.440   3.476   7.150  1.00  0.00     0.000 C 
BRANCH  15  16
ATOM     16  C   UNL     1      24.265   2.500   6.955  1.00  0.00     0.000 C 
BRANCH  16  17
ATOM     17  C   UNL     1      24.239   1.413   8.044  1.00  0.00     0.000 C 
BRANCH  17  18
ATOM     18  C   UNL     1      24.158  -0.004   7.435  1.00  0.00     0.000 C 
BRANCH  18  19
ATOM     19  C   UNL     1      25.515  -0.736   7.390  1.00  0.00     0.000 C 
BRANCH  19  20
ATOM     20  C   UNL     1      26.458  -0.403   8.561  1.00  0.00     0.006 C 
BRANCH  20  21
ATOM     21  C   UNL     1      27.890  -0.929   8.391  1.00  0.00     0.053 C 
BRANCH  21  22
ATOM     22  C   UNL     1      27.975  -2.423   8.489  1.00  0.00     0.041 C 
ATOM     23  O   UNL     1      27.602  -3.008   9.539  1.00  0.00    -0.550 OA
ATOM     24  O   UNL     1      28.400  -3.176   7.399  1.00  0.00    -0.550 OA
ENDBRANCH  21  22
ENDBRANCH  20  21
ENDBRANCH  19  20
ENDBRANCH  18  19
ENDBRANCH  17  18
ENDBRANCH  16  17
ENDBRANCH  15  16
ENDBRANCH  14  15
ENDBRANCH  13  14
ENDBRANCH   1  13
TORSDOF 20
ENDMDL
MODEL 8
REMARK VINA RESULT:    -4.383      2.459      4.343
REMARK INTER + INTRA:         -12.593
REMARK INTER:                  -8.492
REMARK INTRA:                  -4.101
REMARK UNBOUND:                -3.086
REMARK SMILES CCCCCCCCCCCCCCCCCCCCCC(=O)[O-]
REMARK SMILES IDX 12 1 11 2 10 3 9 4 8 5 7 6 6 7 5 8 4 9 3 10 2 11 1 12 13 13
REMARK SMILES IDX 14 14 15 15 16 16 17 17 18 18 19 19 20 20 21 21 22 22 23 23
REMARK SMILES IDX 24 24
REMARK H PARENT
REMARK Flexibility Score: inf
ROOT
ATOM      1  C   UNL     1      24.911   6.579  10.624  1.00  0.00     0.000 C 
ENDROOT
BRANCH   1   2
ATOM      2  C   UNL     1      24.225   7.695   9.808  1.00  0.00     0.000 C 
BRANCH   2   3
ATOM      3  C   UNL     1      25.179   8.608   9.010  1.00  0.00     0.000 C 
BRANCH   3   4
ATOM      4  C   UNL     1      26.350   7.843   8.366  1.00  0.00    -0.000 C 
BRANCH   4   5
ATOM      5  C   UNL     1      26.183   7.668   6.848  1.00  0.00    -0.000 C 
BRANCH   5   6
ATOM      6  C   UNL     1      26.143   6.188   6.422  1.00  0.00    -0.000 C 
BRANCH   6   7
ATOM      7  C   UNL     1      26.265   5.225   7.614  1.00  0.00    -0.000 C 
BRANCH   7   8
ATOM      8  C   UNL     1      26.786   3.838   7.203  1.00  0.00    -0.000 C 
BRANCH   8   9
ATOM      9  C   UNL     1      27.470   3.085   8.362  1.00  0.00    -0.000 C 
BRANCH   9  10
ATOM     10  C   UNL     1      28.384   3.949   9.255  1.00  0.00    -0.000 C 
BRANCH  10  11
ATOM     11  C   UNL     1      27.976   4.015  10.738  1.00  0.00    -0.003 C 
ATOM     12  C   UNL     1      28.357   5.336  11.408  1.00  0.00     0.004 C 
ENDBRANCH  10  11
ENDBRANCH   9  10
ENDBRANCH   8   9
ENDBRANCH   7   8
ENDBRANCH   6   7
ENDBRANCH   5   6
ENDBRANCH   4   5
ENDBRANCH   3   4
ENDBRANCH   2   3
ENDBRANCH   1   2
BRANCH   1  13
ATOM     13  C   UNL     1      23.949   5.455  11.047  1.00  0.00     0.000 C 
BRANCH  13  14
ATOM     14  C   UNL     1      24.276   4.108  10.373  1.00  0.00     0.000 C 
BRANCH  14  15
ATOM     15  C   UNL     1      23.111   3.499   9.581  1.00  0.00     0.000 C 
BRANCH  15  16
ATOM     16  C   UNL     1      23.563   2.517   8.483  1.00  0.00     0.000 C 
BRANCH  16  17
ATOM     17  C   UNL     1      23.191   3.022   7.078  1.00  0.00     0.000 C 
BRANCH  17  18
ATOM     18  C   UNL     1      22.141   4.154   7.138  1.00  0.00     0.000 C 
BRANCH  18  19
ATOM     19  C   UNL     1      22.646   5.496   6.567  1.00  0.00     0.000 C 
BRANCH  19  20
ATOM     20  C   UNL     1      22.113   6.741   7.300  1.00  0.00     0.006 C 
BRANCH  20  21
ATOM     21  C   UNL     1      21.053   6.442   8.369  1.00  0.00     0.053 C 
BRANCH  21  22
ATOM     22  C   UNL     1      20.317   7.670   8.815  1.00  0.00     0.041 C 
ATOM     23  O   UNL     1      20.517   8.770   8.235  1.00  0.00    -0.550 OA
ATOM     24  O   UNL     1      19.363   7.590   9.823  1.00  0.00    -0.550 OA
ENDBRANCH  21  22
ENDBRANCH  20  21
ENDBRANCH  19  20
ENDBRANCH  18  19
ENDBRANCH  17  18
ENDBRANCH  16  17
ENDBRANCH  15  16
ENDBRANCH  14  15
ENDBRANCH  13  14
ENDBRANCH   1  13
TORSDOF 20
ENDMDL
MODEL 9
REMARK VINA RESULT:    -4.354      2.918      6.056
REMARK INTER + INTRA:         -12.531
REMARK INTER:                  -9.111
REMARK INTRA:                  -3.420
REMARK UNBOUND:                -3.086
REMARK SMILES CCCCCCCCCCCCCCCCCCCCCC(=O)[O-]
REMARK SMILES IDX 12 1 11 2 10 3 9 4 8 5 7 6 6 7 5 8 4 9 3 10 2 11 1 12 13 13
REMARK SMILES IDX 14 14 15 15 16 16 17 17 18 18 19 19 20 20 21 21 22 22 23 23
REMARK SMILES IDX 24 24
REMARK H PARENT
REMARK Flexibility Score: inf
ROOT
ATOM      1  C   UNL     1      27.766   3.772  10.016  1.00  0.00     0.000 C 
ENDROOT
BRANCH   1   2
ATOM      2  C   UNL     1      27.416   5.183  10.534  1.00  0.00     0.000 C 
BRANCH   2   3
ATOM      3  C   UNL     1      25.911   5.455  10.741  1.00  0.00     0.000 C 
BRANCH   3   4
ATOM      4  C   UNL     1      25.396   6.654   9.925  1.00  0.00    -0.000 C 
BRANCH   4   5
ATOM      5  C   UNL     1      26.460   7.230   8.976  1.00  0.00    -0.000 C 
BRANCH   5   6
ATOM      6  C   UNL     1      25.853   7.806   7.683  1.00  0.00    -0.000 C 
BRANCH   6   7
ATOM      7  C   UNL     1      26.397   7.125   6.418  1.00  0.00    -0.000 C 
BRANCH   7   8
ATOM      8  C   UNL     1      26.130   5.610   6.399  1.00  0.00    -0.000 C 
BRANCH   8   9
ATOM      9  C   UNL     1      24.645   5.259   6.625  1.00  0.00    -0.000 C 
BRANCH   9  10
ATOM     10  C   UNL     1      24.341   3.753   6.754  1.00  0.00    -0.000 C 
BRANCH  10  11
ATOM     11  C   UNL     1      24.375   3.199   8.190  1.00  0.00    -0.003 C 
ATOM     12  C   UNL     1      23.215   3.696   9.052  1.00  0.00     0.004 C 
ENDBRANCH  10  11
ENDBRANCH   9  10
ENDBRANCH   8   9
ENDBRANCH   7   8
ENDBRANCH   6   7
ENDBRANCH   5   6
ENDBRANCH   4   5
ENDBRANCH   3   4
ENDBRANCH   2   3
ENDBRANCH   1   2
BRANCH   1  13
ATOM     13  C   UNL     1      27.990   3.720   8.495  1.00  0.00     0.000 C 
BRANCH  13  14
ATOM     14  C   UNL     1      28.051   2.278   7.953  1.00  0.00     0.000 C 
BRANCH  14  15
ATOM     15  C   UNL     1      27.882   1.193   9.026  1.00  0.00     0.000 C 
BRANCH  15  16
ATOM     16  C   UNL     1      28.378  -0.194   8.577  1.00  0.00     0.000 C 
BRANCH  16  17
ATOM     17  C   UNL     1      27.539  -0.752   7.413  1.00  0.00     0.000 C 
BRANCH  17  18
ATOM     18  C   UNL     1      26.024  -0.652   7.704  1.00  0.00     0.000 C 
BRANCH  18  19
ATOM     19  C   UNL     1      25.215  -0.023   6.551  1.00  0.00     0.000 C 
BRANCH  19  20
ATOM     20  C   UNL     1      26.058   0.780   5.544  1.00  0.00     0.006 C 
BRANCH  20  21
ATOM     21  C   UNL     1      25.336   1.105   4.229  1.00  0.00     0.053 C 
BRANCH  21  22
ATOM     22  C   UNL     1      25.849   0.302   3.072  1.00  0.00     0.041 C 
ATOM     23  O   UNL     1      25.748   0.749   1.899  1.00  0.00    -0.550 OA
ATOM     24  O   UNL     1      26.500  -0.908   3.290  1.00  0.00    -0.550 OA
ENDBRANCH  21  22
ENDBRANCH  20  21
ENDBRANCH  19  20
ENDBRANCH  18  19
ENDBRANCH  17  18
ENDBRANCH  16  17
ENDBRANCH  15  16
ENDBRANCH  14  15
ENDBRANCH  13  14
ENDBRANCH   1  13
TORSDOF 20
ENDMDL
