MODEL 1
REMARK VINA RESULT:    -2.639      0.000      0.000
REMARK INTER + INTRA:          -2.639
REMARK INTER:                  -2.639
REMARK INTRA:                   0.000
REMARK UNBOUND:                 0.000
REMARK SMILES CC(=O)[O-]
REMARK SMILES IDX 1 1 2 2 3 3 4 4
REMARK H PARENT
REMARK Flexibility Score: inf
ROOT
ATOM      1  C   UNL     1     -21.451   1.809  21.992  1.00  0.00     0.063 C 
ATOM      2  C   UNL     1     -22.835   2.207  22.378  1.00  0.00     0.038 C 
ATOM      3  O   UNL     1     -23.616   2.693  21.519  1.00  0.00    -0.550 OA
ATOM      4  O   UNL     1     -23.286   1.990  23.674  1.00  0.00    -0.550 OA
ENDROOT
TORSDOF 0
ENDMDL
MODEL 2
REMARK VINA RESULT:    -2.580      1.398      1.767
REMARK INTER + INTRA:          -2.580
REMARK INTER:                  -2.580
REMARK INTRA:                   0.000
REMARK UNBOUND:                 0.000
REMARK SMILES CC(=O)[O-]
REMARK SMILES IDX 1 1 2 2 3 3 4 4
REMARK H PARENT
REMARK Flexibility Score: inf
ROOT
ATOM      1  C   UNL     1     -23.102   1.841  23.739  1.00  0.00     0.063 C 
ATOM      2  C   UNL     1     -22.704   2.127  22.330  1.00  0.00     0.038 C 
ATOM      3  O   UNL     1     -23.507   2.702  21.550  1.00  0.00    -0.550 OA
ATOM      4  O   UNL     1     -21.425   1.810  21.891  1.00  0.00    -0.550 OA
ENDROOT
TORSDOF 0
ENDMDL
MODEL 3
REMARK VINA RESULT:    -2.568     14.705     15.099
REMARK INTER + INTRA:          -2.568
REMARK INTER:                  -2.568
REMARK INTRA:                   0.000
REMARK UNBOUND:                 0.000
REMARK SMILES CC(=O)[O-]
REMARK SMILES IDX 1 1 2 2 3 3 4 4
REMARK H PARENT
REMARK Flexibility Score: inf
ROOT
ATOM      1  C   UNL     1     -18.056   2.263  37.960  1.00  0.00     0.063 C 
ATOM      2  C   UNL     1     -18.175   1.648  36.606  1.00  0.00     0.038 C 
ATOM      3  O   UNL     1     -17.242   1.774  35.770  1.00  0.00    -0.550 OA
ATOM      4  O   UNL     1     -19.291   0.886  36.284  1.00  0.00    -0.550 OA
ENDROOT
TORSDOF 0
ENDMDL
MODEL 4
REMARK VINA RESULT:    -2.567      1.465      1.715
REMARK INTER + INTRA:          -2.567
REMARK INTER:                  -2.567
REMARK INTRA:                   0.000
REMARK UNBOUND:                 0.000
REMARK SMILES CC(=O)[O-]
REMARK SMILES IDX 1 1 2 2 3 3 4 4
REMARK H PARENT
REMARK Flexibility Score: inf
ROOT
ATOM      1  C   UNL     1     -23.490   2.608  21.532  1.00  0.00     0.063 C 
ATOM      2  C   UNL     1     -22.634   2.031  22.608  1.00  0.00     0.038 C 
ATOM      3  O   UNL     1     -21.565   1.433  22.314  1.00  0.00    -0.550 OA
ATOM      4  O   UNL     1     -22.985   2.199  23.941  1.00  0.00    -0.550 OA
ENDROOT
TORSDOF 0
ENDMDL
MODEL 5
REMARK VINA RESULT:    -2.496     14.661     15.091
REMARK INTER + INTRA:          -2.496
REMARK INTER:                  -2.496
REMARK INTRA:                   0.000
REMARK UNBOUND:                 0.000
REMARK SMILES CC(=O)[O-]
REMARK SMILES IDX 1 1 2 2 3 3 4 4
REMARK H PARENT
REMARK Flexibility Score: inf
ROOT
ATOM      1  C   UNL     1     -18.475   1.989  38.076  1.00  0.00     0.063 C 
ATOM      2  C   UNL     1     -18.445   1.514  36.663  1.00  0.00     0.038 C 
ATOM      3  O   UNL     1     -19.379   0.797  36.217  1.00  0.00    -0.550 OA
ATOM      4  O   UNL     1     -17.416   1.908  35.818  1.00  0.00    -0.550 OA
ENDROOT
TORSDOF 0
ENDMDL
MODEL 6
REMARK VINA RESULT:    -2.482      1.738      2.067
REMARK INTER + INTRA:          -2.482
REMARK INTER:                  -2.482
REMARK INTRA:                   0.000
REMARK UNBOUND:                 0.000
REMARK SMILES CC(=O)[O-]
REMARK SMILES IDX 1 1 2 2 3 3 4 4
REMARK H PARENT
REMARK Flexibility Score: inf
ROOT
ATOM      1  C   UNL     1     -23.022   2.333  21.975  1.00  0.00     0.063 C 
ATOM      2  C   UNL     1     -22.810   1.357  23.082  1.00  0.00     0.038 C 
ATOM      3  O   UNL     1     -23.706   1.178  23.949  1.00  0.00    -0.550 OA
ATOM      4  O   UNL     1     -21.646   0.600  23.130  1.00  0.00    -0.550 OA
ENDROOT
TORSDOF 0
ENDMDL
MODEL 7
REMARK VINA RESULT:    -2.457     15.044     15.571
REMARK INTER + INTRA:          -2.457
REMARK INTER:                  -2.457
REMARK INTRA:                   0.000
REMARK UNBOUND:                 0.000
REMARK SMILES CC(=O)[O-]
REMARK SMILES IDX 1 1 2 2 3 3 4 4
REMARK H PARENT
REMARK Flexibility Score: inf
ROOT
ATOM      1  C   UNL     1     -19.018   0.605  37.387  1.00  0.00     0.063 C 
ATOM      2  C   UNL     1     -18.124   1.763  37.101  1.00  0.00     0.038 C 
ATOM      3  O   UNL     1     -17.906   2.629  37.989  1.00  0.00    -0.550 OA
ATOM      4  O   UNL     1     -17.483   1.861  35.872  1.00  0.00    -0.550 OA
ENDROOT
TORSDOF 0
ENDMDL
MODEL 8
REMARK VINA RESULT:    -2.441     15.164     15.685
REMARK INTER + INTRA:          -2.441
REMARK INTER:                  -2.441
REMARK INTRA:                   0.000
REMARK UNBOUND:                 0.000
REMARK SMILES CC(=O)[O-]
REMARK SMILES IDX 1 1 2 2 3 3 4 4
REMARK H PARENT
REMARK Flexibility Score: inf
ROOT
ATOM      1  C   UNL     1     -17.842   1.902  36.219  1.00  0.00     0.063 C 
ATOM      2  C   UNL     1     -18.588   1.580  37.469  1.00  0.00     0.038 C 
ATOM      3  O   UNL     1     -18.513   2.346  38.466  1.00  0.00    -0.550 OA
ATOM      4  O   UNL     1     -19.411   0.462  37.520  1.00  0.00    -0.550 OA
ENDROOT
TORSDOF 0
ENDMDL
MODEL 9
REMARK VINA RESULT:    -2.399      9.790     10.043
REMARK INTER + INTRA:          -2.399
REMARK INTER:                  -2.399
REMARK INTRA:                   0.000
REMARK UNBOUND:                 0.000
REMARK SMILES CC(=O)[O-]
REMARK SMILES IDX 1 1 2 2 3 3 4 4
REMARK H PARENT
REMARK Flexibility Score: inf
ROOT
ATOM      1  C   UNL     1     -17.728   7.662  29.393  1.00  0.00     0.063 C 
ATOM      2  C   UNL     1     -17.137   7.901  28.045  1.00  0.00     0.038 C 
ATOM      3  O   UNL     1     -17.761   7.551  27.010  1.00  0.00    -0.550 OA
ATOM      4  O   UNL     1     -15.921   8.562  27.926  1.00  0.00    -0.550 OA
ENDROOT
TORSDOF 0
ENDMDL
