MODEL 1
REMARK VINA RESULT:    -5.879      0.000      0.000
REMARK INTER + INTRA:          -7.569
REMARK INTER:                  -7.253
REMARK INTRA:                  -0.316
REMARK UNBOUND:                -0.316
REMARK SMILES COc1cc(-c2oc3cc(O)cc(O)c3c(=O)c2O)ccc1O
REMARK SMILES IDX 6 1 18 2 16 3 17 4 15 5 13 6 12 7 10 8 9 9 8 10 7 11 5 12
REMARK SMILES IDX 3 13 22 14 4 15 21 16 20 17 2 18 1 19 23 20 19 22 14 24
REMARK SMILES IDX 11 26
REMARK H PARENT 23 21 19 23 14 25 11 27
REMARK Flexibility Score: inf
ROOT
ATOM      1  C   UNL     1       1.446  10.602   6.826  1.00  0.00     0.180 A 
ATOM      2  C   UNL     1       2.620   9.853   6.623  1.00  0.00     0.208 A 
ATOM      3  C   UNL     1       3.852  10.522   6.576  1.00  0.00     0.238 A 
ATOM      4  O   UNL     1       4.913   9.861   6.404  1.00  0.00    -0.285 OA
ATOM      5  C   UNL     1       3.889  11.925   6.713  1.00  0.00     0.111 A 
ATOM      6  C   UNL     1       5.089  12.677   6.674  1.00  0.00     0.134 A 
ATOM      7  C   UNL     1       5.041  14.071   6.810  1.00  0.00     0.093 A 
ATOM      8  C   UNL     1       3.821  14.729   6.982  1.00  0.00     0.123 A 
ATOM      9  C   UNL     1       2.632  13.993   7.021  1.00  0.00     0.094 A 
ATOM     10  C   UNL     1       2.659  12.601   6.890  1.00  0.00     0.146 A 
ATOM     11  O   UNL     1       1.517  11.925   6.937  1.00  0.00    -0.452 OA
ENDROOT
BRANCH   1  12
ATOM     12  C   UNL     1       0.111   9.966   6.906  1.00  0.00     0.025 A 
ATOM     13  C   UNL     1      -1.550   8.617   8.092  1.00  0.00     0.161 A 
ATOM     14  C   UNL     1      -2.457   8.822   7.037  1.00  0.00     0.157 A 
ATOM     15  C   UNL     1      -0.269   9.200   8.023  1.00  0.00     0.062 A 
ATOM     16  C   UNL     1      -2.086   9.602   5.938  1.00  0.00     0.051 A 
ATOM     17  C   UNL     1      -0.816  10.177   5.875  1.00  0.00     0.016 A 
BRANCH  13  18
ATOM     18  O   UNL     1      -1.954   7.838   9.189  1.00  0.00    -0.493 OA
ATOM     19  C   UNL     1      -1.075   7.057   9.993  1.00  0.00     0.278 C 
ENDBRANCH  13  18
BRANCH  14  20
ATOM     20  O   UNL     1      -3.733   8.261   7.063  1.00  0.00    -0.504 OA
ATOM     21  H   UNL     1      -4.360   8.306   6.268  1.00  0.00     0.293 HD
ENDBRANCH  14  20
ENDBRANCH   1  12
BRANCH   2  22
ATOM     22  O   UNL     1       2.552   8.469   6.439  1.00  0.00    -0.502 OA
ATOM     23  H   UNL     1       1.673   7.968   6.409  1.00  0.00     0.293 HD
ENDBRANCH   2  22
BRANCH   6  24
ATOM     24  O   UNL     1       6.324  12.049   6.503  1.00  0.00    -0.507 OA
ATOM     25  H   UNL     1       6.436  11.252   5.889  1.00  0.00     0.293 HD
ENDBRANCH   6  24
BRANCH   8  26
ATOM     26  O   UNL     1       3.801  16.116   7.113  1.00  0.00    -0.508 OA
ATOM     27  H   UNL     1       3.333  16.706   6.434  1.00  0.00     0.293 HD
ENDBRANCH   8  26
TORSDOF 6
ENDMDL
MODEL 2
REMARK VINA RESULT:    -5.120      1.957      7.094
REMARK INTER + INTRA:          -6.633
REMARK INTER:                  -6.389
REMARK INTRA:                  -0.244
REMARK UNBOUND:                -0.316
REMARK SMILES COc1cc(-c2oc3cc(O)cc(O)c3c(=O)c2O)ccc1O
REMARK SMILES IDX 6 1 18 2 16 3 17 4 15 5 13 6 12 7 10 8 9 9 8 10 7 11 5 12
REMARK SMILES IDX 3 13 22 14 4 15 21 16 20 17 2 18 1 19 23 20 19 22 14 24
REMARK SMILES IDX 11 26
REMARK H PARENT 23 21 19 23 14 25 11 27
REMARK Flexibility Score: inf
ROOT
ATOM      1  C   UNL     1       4.029  11.128   6.824  1.00  0.00     0.180 A 
ATOM      2  C   UNL     1       4.568   9.892   6.416  1.00  0.00     0.208 A 
ATOM      3  C   UNL     1       3.706   8.798   6.250  1.00  0.00     0.238 A 
ATOM      4  O   UNL     1       4.175   7.689   5.875  1.00  0.00    -0.285 OA
ATOM      5  C   UNL     1       2.329   8.950   6.513  1.00  0.00     0.111 A 
ATOM      6  C   UNL     1       1.393   7.896   6.375  1.00  0.00     0.134 A 
ATOM      7  C   UNL     1       0.040   8.124   6.664  1.00  0.00     0.093 A 
ATOM      8  C   UNL     1      -0.395   9.382   7.089  1.00  0.00     0.123 A 
ATOM      9  C   UNL     1       0.524  10.426   7.228  1.00  0.00     0.094 A 
ATOM     10  C   UNL     1       1.877  10.219   6.942  1.00  0.00     0.146 A 
ATOM     11  O   UNL     1       2.728  11.229   7.077  1.00  0.00    -0.452 OA
ENDROOT
BRANCH   1  12
ATOM     12  C   UNL     1       4.872  12.332   7.002  1.00  0.00     0.025 A 
ATOM     13  C   UNL     1       6.137  13.869   8.425  1.00  0.00     0.161 A 
ATOM     14  C   UNL     1       6.516  14.599   7.283  1.00  0.00     0.157 A 
ATOM     15  C   UNL     1       5.320  12.731   8.274  1.00  0.00     0.062 A 
ATOM     16  C   UNL     1       6.088  14.189   6.017  1.00  0.00     0.051 A 
ATOM     17  C   UNL     1       5.279  13.061   5.875  1.00  0.00     0.016 A 
BRANCH  13  18
ATOM     18  O   UNL     1       6.591  14.298   9.683  1.00  0.00    -0.493 OA
ATOM     19  C   UNL     1       6.088  15.434  10.380  1.00  0.00     0.278 C 
ENDBRANCH  13  18
BRANCH  14  20
ATOM     20  O   UNL     1       7.320  15.733   7.387  1.00  0.00    -0.504 OA
ATOM     21  H   UNL     1       6.953  16.631   7.678  1.00  0.00     0.293 HD
ENDBRANCH  14  20
ENDBRANCH   1  12
BRANCH   2  22
ATOM     22  O   UNL     1       5.944   9.755   6.210  1.00  0.00    -0.502 OA
ATOM     23  H   UNL     1       6.358   9.765   5.286  1.00  0.00     0.293 HD
ENDBRANCH   2  22
BRANCH   6  24
ATOM     24  O   UNL     1       1.796   6.628   5.952  1.00  0.00    -0.507 OA
ATOM     25  H   UNL     1       1.620   6.299   5.011  1.00  0.00     0.293 HD
ENDBRANCH   6  24
BRANCH   8  26
ATOM     26  O   UNL     1      -1.745   9.582   7.372  1.00  0.00    -0.508 OA
ATOM     27  H   UNL     1      -2.046  10.022   8.234  1.00  0.00     0.293 HD
ENDBRANCH   8  26
TORSDOF 6
ENDMDL
MODEL 3
REMARK VINA RESULT:    -4.906     10.014     11.781
REMARK INTER + INTRA:          -6.368
REMARK INTER:                  -6.549
REMARK INTRA:                   0.181
REMARK UNBOUND:                -0.316
REMARK SMILES COc1cc(-c2oc3cc(O)cc(O)c3c(=O)c2O)ccc1O
REMARK SMILES IDX 6 1 18 2 16 3 17 4 15 5 13 6 12 7 10 8 9 9 8 10 7 11 5 12
REMARK SMILES IDX 3 13 22 14 4 15 21 16 20 17 2 18 1 19 23 20 19 22 14 24
REMARK SMILES IDX 11 26
REMARK H PARENT 23 21 19 23 14 25 11 27
REMARK Flexibility Score: inf
ROOT
ATOM      1  C   UNL     1       7.042   0.777   6.396  1.00  0.00     0.180 A 
ATOM      2  C   UNL     1       6.547   2.095   6.355  1.00  0.00     0.208 A 
ATOM      3  C   UNL     1       7.453   3.154   6.200  1.00  0.00     0.238 A 
ATOM      4  O   UNL     1       7.022   4.339   6.151  1.00  0.00    -0.285 OA
ATOM      5  C   UNL     1       8.834   2.883   6.109  1.00  0.00     0.111 A 
ATOM      6  C   UNL     1       9.814   3.894   5.955  1.00  0.00     0.134 A 
ATOM      7  C   UNL     1      11.170   3.543   5.881  1.00  0.00     0.093 A 
ATOM      8  C   UNL     1      11.565   2.206   5.958  1.00  0.00     0.123 A 
ATOM      9  C   UNL     1      10.603   1.203   6.110  1.00  0.00     0.094 A 
ATOM     10  C   UNL     1       9.246   1.532   6.184  1.00  0.00     0.146 A 
ATOM     11  O   UNL     1       8.351   0.560   6.322  1.00  0.00    -0.452 OA
ENDROOT
BRANCH   1  12
ATOM     12  C   UNL     1       6.147  -0.395   6.539  1.00  0.00     0.025 A 
ATOM     13  C   UNL     1       4.104  -1.438   7.391  1.00  0.00     0.161 A 
ATOM     14  C   UNL     1       4.452  -2.632   6.735  1.00  0.00     0.157 A 
ATOM     15  C   UNL     1       4.955  -0.319   7.281  1.00  0.00     0.062 A 
ATOM     16  C   UNL     1       5.627  -2.699   5.980  1.00  0.00     0.051 A 
ATOM     17  C   UNL     1       6.464  -1.588   5.875  1.00  0.00     0.016 A 
BRANCH  13  18
ATOM     18  O   UNL     1       2.913  -1.395   8.133  1.00  0.00    -0.493 OA
ATOM     19  C   UNL     1       1.968  -0.331   8.086  1.00  0.00     0.278 C 
ENDBRANCH  13  18
BRANCH  14  20
ATOM     20  O   UNL     1       3.641  -3.764   6.820  1.00  0.00    -0.504 OA
ATOM     21  H   UNL     1       2.641  -3.702   6.969  1.00  0.00     0.293 HD
ENDBRANCH  14  20
ENDBRANCH   1  12
BRANCH   2  22
ATOM     22  O   UNL     1       5.179   2.341   6.498  1.00  0.00    -0.502 OA
ATOM     23  H   UNL     1       4.639   1.972   7.271  1.00  0.00     0.293 HD
ENDBRANCH   2  22
BRANCH   6  24
ATOM     24  O   UNL     1       9.452   5.240   5.875  1.00  0.00    -0.507 OA
ATOM     25  H   UNL     1       9.435   5.836   6.693  1.00  0.00     0.293 HD
ENDBRANCH   6  24
BRANCH   8  26
ATOM     26  O   UNL     1      12.919   1.884   5.883  1.00  0.00    -0.508 OA
ATOM     27  H   UNL     1      13.296   1.066   6.347  1.00  0.00     0.293 HD
ENDBRANCH   8  26
TORSDOF 6
ENDMDL
MODEL 4
REMARK VINA RESULT:    -4.895      1.798      3.531
REMARK INTER + INTRA:          -6.355
REMARK INTER:                  -6.259
REMARK INTRA:                  -0.096
REMARK UNBOUND:                -0.316
REMARK SMILES COc1cc(-c2oc3cc(O)cc(O)c3c(=O)c2O)ccc1O
REMARK SMILES IDX 6 1 18 2 16 3 17 4 15 5 13 6 12 7 10 8 9 9 8 10 7 11 5 12
REMARK SMILES IDX 3 13 22 14 4 15 21 16 20 17 2 18 1 19 23 20 19 22 14 24
REMARK SMILES IDX 11 26
REMARK H PARENT 23 21 19 23 14 25 11 27
REMARK Flexibility Score: inf
ROOT
ATOM      1  C   UNL     1       2.595  11.643   6.989  1.00  0.00     0.180 A 
ATOM      2  C   UNL     1       2.163  12.893   6.504  1.00  0.00     0.208 A 
ATOM      3  C   UNL     1       3.066  13.966   6.495  1.00  0.00     0.238 A 
ATOM      4  O   UNL     1       2.693  15.088   6.054  1.00  0.00    -0.285 OA
ATOM      5  C   UNL     1       4.374  13.780   6.986  1.00  0.00     0.111 A 
ATOM      6  C   UNL     1       5.345  14.812   7.016  1.00  0.00     0.134 A 
ATOM      7  C   UNL     1       6.623  14.550   7.529  1.00  0.00     0.093 A 
ATOM      8  C   UNL     1       6.950  13.281   8.012  1.00  0.00     0.123 A 
ATOM      9  C   UNL     1       5.997  12.258   7.986  1.00  0.00     0.094 A 
ATOM     10  C   UNL     1       4.717  12.499   7.477  1.00  0.00     0.146 A 
ATOM     11  O   UNL     1       3.832  11.509   7.458  1.00  0.00    -0.452 OA
ENDROOT
BRANCH   1  12
ATOM     12  C   UNL     1       1.707  10.459   7.012  1.00  0.00     0.025 A 
ATOM     13  C   UNL     1       1.247   8.117   6.472  1.00  0.00     0.161 A 
ATOM     14  C   UNL     1       0.008   8.219   7.130  1.00  0.00     0.157 A 
ATOM     15  C   UNL     1       2.096   9.241   6.424  1.00  0.00     0.062 A 
ATOM     16  C   UNL     1      -0.367   9.423   7.733  1.00  0.00     0.051 A 
ATOM     17  C   UNL     1       0.478  10.532   7.682  1.00  0.00     0.016 A 
BRANCH  13  18
ATOM     18  O   UNL     1       1.602   6.892   5.885  1.00  0.00    -0.493 OA
ATOM     19  C   UNL     1       2.914   6.336   5.904  1.00  0.00     0.278 C 
ENDBRANCH  13  18
BRANCH  14  20
ATOM     20  O   UNL     1      -0.864   7.132   7.198  1.00  0.00    -0.504 OA
ATOM     21  H   UNL     1      -0.542   6.193   7.401  1.00  0.00     0.293 HD
ENDBRANCH  14  20
ENDBRANCH   1  12
BRANCH   2  22
ATOM     22  O   UNL     1       0.845  13.064   6.069  1.00  0.00    -0.502 OA
ATOM     23  H   UNL     1       0.091  12.459   6.370  1.00  0.00     0.293 HD
ENDBRANCH   2  22
BRANCH   6  24
ATOM     24  O   UNL     1       5.049  16.091   6.541  1.00  0.00    -0.507 OA
ATOM     25  H   UNL     1       4.679  16.812   7.148  1.00  0.00     0.293 HD
ENDBRANCH   6  24
BRANCH   8  26
ATOM     26  O   UNL     1       8.227  13.047   8.518  1.00  0.00    -0.508 OA
ATOM     27  H   UNL     1       8.744  12.207   8.286  1.00  0.00     0.293 HD
ENDBRANCH   8  26
TORSDOF 6
ENDMDL
MODEL 5
REMARK VINA RESULT:    -4.820      2.128      7.580
REMARK INTER + INTRA:          -6.263
REMARK INTER:                  -5.878
REMARK INTRA:                  -0.385
REMARK UNBOUND:                -0.316
REMARK SMILES COc1cc(-c2oc3cc(O)cc(O)c3c(=O)c2O)ccc1O
REMARK SMILES IDX 6 1 18 2 16 3 17 4 15 5 13 6 12 7 10 8 9 9 8 10 7 11 5 12
REMARK SMILES IDX 3 13 22 14 4 15 21 16 20 17 2 18 1 19 23 20 19 22 14 24
REMARK SMILES IDX 11 26
REMARK H PARENT 23 21 19 23 14 25 11 27
REMARK Flexibility Score: inf
ROOT
ATOM      1  C   UNL     1       3.316  12.346   6.907  1.00  0.00     0.180 A 
ATOM      2  C   UNL     1       2.021  12.892   6.990  1.00  0.00     0.208 A 
ATOM      3  C   UNL     1       0.915  12.036   6.875  1.00  0.00     0.238 A 
ATOM      4  O   UNL     1      -0.250  12.512   6.958  1.00  0.00    -0.285 OA
ATOM      5  C   UNL     1       1.120  10.657   6.662  1.00  0.00     0.111 A 
ATOM      6  C   UNL     1       0.060   9.727   6.532  1.00  0.00     0.134 A 
ATOM      7  C   UNL     1       0.347   8.372   6.312  1.00  0.00     0.093 A 
ATOM      8  C   UNL     1       1.668   7.929   6.219  1.00  0.00     0.123 A 
ATOM      9  C   UNL     1       2.719   8.842   6.346  1.00  0.00     0.094 A 
ATOM     10  C   UNL     1       2.454  10.197   6.567  1.00  0.00     0.146 A 
ATOM     11  O   UNL     1       3.471  11.043   6.690  1.00  0.00    -0.452 OA
ENDROOT
BRANCH   1  12
ATOM     12  C   UNL     1       4.531  13.181   7.037  1.00  0.00     0.025 A 
ATOM     13  C   UNL     1       6.222  14.303   8.404  1.00  0.00     0.161 A 
ATOM     14  C   UNL     1       6.875  14.726   7.233  1.00  0.00     0.157 A 
ATOM     15  C   UNL     1       5.053  13.523   8.297  1.00  0.00     0.062 A 
ATOM     16  C   UNL     1       6.368  14.367   5.980  1.00  0.00     0.051 A 
ATOM     17  C   UNL     1       5.210  13.594   5.882  1.00  0.00     0.016 A 
BRANCH  13  18
ATOM     18  O   UNL     1       6.761  14.669   9.649  1.00  0.00    -0.493 OA
ATOM     19  C   UNL     1       6.420  15.855  10.359  1.00  0.00     0.278 C 
ENDBRANCH  13  18
BRANCH  14  20
ATOM     20  O   UNL     1       8.033  15.502   7.292  1.00  0.00    -0.504 OA
ATOM     21  H   UNL     1       8.007  16.497   7.480  1.00  0.00     0.293 HD
ENDBRANCH  14  20
ENDBRANCH   1  12
BRANCH   2  22
ATOM     22  O   UNL     1       1.844  14.269   7.151  1.00  0.00    -0.502 OA
ATOM     23  H   UNL     1       2.573  14.938   6.939  1.00  0.00     0.293 HD
ENDBRANCH   2  22
BRANCH   6  24
ATOM     24  O   UNL     1      -1.271  10.138   6.620  1.00  0.00    -0.507 OA
ATOM     25  H   UNL     1      -1.719  10.304   7.513  1.00  0.00     0.293 HD
ENDBRANCH   6  24
BRANCH   8  26
ATOM     26  O   UNL     1       1.925   6.577   5.998  1.00  0.00    -0.508 OA
ATOM     27  H   UNL     1       1.470   5.855   6.545  1.00  0.00     0.293 HD
ENDBRANCH   8  26
TORSDOF 6
ENDMDL
MODEL 6
REMARK VINA RESULT:    -4.602      1.825      6.866
REMARK INTER + INTRA:          -5.994
REMARK INTER:                  -5.862
REMARK INTRA:                  -0.132
REMARK UNBOUND:                -0.316
REMARK SMILES COc1cc(-c2oc3cc(O)cc(O)c3c(=O)c2O)ccc1O
REMARK SMILES IDX 6 1 18 2 16 3 17 4 15 5 13 6 12 7 10 8 9 9 8 10 7 11 5 12
REMARK SMILES IDX 3 13 22 14 4 15 21 16 20 17 2 18 1 19 23 20 19 22 14 24
REMARK SMILES IDX 11 26
REMARK H PARENT 23 21 19 23 14 25 11 27
REMARK Flexibility Score: inf
ROOT
ATOM      1  C   UNL     1       2.759  10.110   6.672  1.00  0.00     0.180 A 
ATOM      2  C   UNL     1       3.060   8.781   6.318  1.00  0.00     0.208 A 
ATOM      3  C   UNL     1       2.012   7.855   6.203  1.00  0.00     0.238 A 
ATOM      4  O   UNL     1       2.269   6.664   5.877  1.00  0.00    -0.285 OA
ATOM      5  C   UNL     1       0.688   8.266   6.460  1.00  0.00     0.111 A 
ATOM      6  C   UNL     1      -0.425   7.395   6.370  1.00  0.00     0.134 A 
ATOM      7  C   UNL     1      -1.711   7.878   6.650  1.00  0.00     0.093 A 
ATOM      8  C   UNL     1      -1.907   9.211   7.019  1.00  0.00     0.123 A 
ATOM      9  C   UNL     1      -0.812  10.076   7.111  1.00  0.00     0.094 A 
ATOM     10  C   UNL     1       0.478   9.614   6.833  1.00  0.00     0.146 A 
ATOM     11  O   UNL     1       1.500  10.458   6.921  1.00  0.00    -0.452 OA
ENDROOT
BRANCH   1  12
ATOM     12  C   UNL     1       3.807  11.148   6.794  1.00  0.00     0.025 A 
ATOM     13  C   UNL     1       5.899  11.976   7.758  1.00  0.00     0.161 A 
ATOM     14  C   UNL     1       5.804  13.125   6.953  1.00  0.00     0.157 A 
ATOM     15  C   UNL     1       4.898  10.987   7.667  1.00  0.00     0.062 A 
ATOM     16  C   UNL     1       4.730  13.274   6.070  1.00  0.00     0.051 A 
ATOM     17  C   UNL     1       3.743  12.291   5.985  1.00  0.00     0.016 A 
BRANCH  13  18
ATOM     18  O   UNL     1       6.994  11.847   8.628  1.00  0.00    -0.493 OA
ATOM     19  C   UNL     1       7.117  10.843   9.630  1.00  0.00     0.278 C 
ENDBRANCH  13  18
BRANCH  14  20
ATOM     20  O   UNL     1       6.769  14.130   7.014  1.00  0.00    -0.504 OA
ATOM     21  H   UNL     1       7.450  14.180   7.762  1.00  0.00     0.293 HD
ENDBRANCH  14  20
ENDBRANCH   1  12
BRANCH   2  22
ATOM     22  O   UNL     1       4.386   8.386   6.117  1.00  0.00    -0.502 OA
ATOM     23  H   UNL     1       4.671   7.415   6.127  1.00  0.00     0.293 HD
ENDBRANCH   2  22
BRANCH   6  24
ATOM     24  O   UNL     1      -0.263   6.057   6.005  1.00  0.00    -0.507 OA
ATOM     25  H   UNL     1       0.560   5.529   6.268  1.00  0.00     0.293 HD
ENDBRANCH   6  24
BRANCH   8  26
ATOM     26  O   UNL     1      -3.195   9.665   7.294  1.00  0.00    -0.508 OA
ATOM     27  H   UNL     1      -3.691   9.380   8.131  1.00  0.00     0.293 HD
ENDBRANCH   8  26
TORSDOF 6
ENDMDL
MODEL 7
REMARK VINA RESULT:    -4.458      6.798      9.631
REMARK INTER + INTRA:          -5.816
REMARK INTER:                  -6.284
REMARK INTRA:                   0.468
REMARK UNBOUND:                -0.316
REMARK SMILES COc1cc(-c2oc3cc(O)cc(O)c3c(=O)c2O)ccc1O
REMARK SMILES IDX 6 1 18 2 16 3 17 4 15 5 13 6 12 7 10 8 9 9 8 10 7 11 5 12
REMARK SMILES IDX 3 13 22 14 4 15 21 16 20 17 2 18 1 19 23 20 19 22 14 24
REMARK SMILES IDX 11 26
REMARK H PARENT 23 21 19 23 14 25 11 27
REMARK Flexibility Score: inf
ROOT
ATOM      1  C   UNL     1       4.656   4.044   6.462  1.00  0.00     0.180 A 
ATOM      2  C   UNL     1       5.983   3.654   6.197  1.00  0.00     0.208 A 
ATOM      3  C   UNL     1       6.323   2.296   6.293  1.00  0.00     0.238 A 
ATOM      4  O   UNL     1       7.505   1.933   6.048  1.00  0.00    -0.285 OA
ATOM      5  C   UNL     1       5.340   1.357   6.669  1.00  0.00     0.111 A 
ATOM      6  C   UNL     1       5.600  -0.030   6.792  1.00  0.00     0.134 A 
ATOM      7  C   UNL     1       4.571  -0.899   7.180  1.00  0.00     0.093 A 
ATOM      8  C   UNL     1       3.290  -0.412   7.447  1.00  0.00     0.123 A 
ATOM      9  C   UNL     1       3.026   0.956   7.328  1.00  0.00     0.094 A 
ATOM     10  C   UNL     1       4.038   1.839   6.940  1.00  0.00     0.146 A 
ATOM     11  O   UNL     1       3.760   3.133   6.829  1.00  0.00    -0.452 OA
ENDROOT
BRANCH   1  12
ATOM     12  C   UNL     1       4.217   5.455   6.364  1.00  0.00     0.025 A 
ATOM     13  C   UNL     1       2.508   7.188   6.616  1.00  0.00     0.161 A 
ATOM     14  C   UNL     1       3.444   8.157   6.213  1.00  0.00     0.157 A 
ATOM     15  C   UNL     1       2.905   5.838   6.697  1.00  0.00     0.062 A 
ATOM     16  C   UNL     1       4.754   7.778   5.904  1.00  0.00     0.051 A 
ATOM     17  C   UNL     1       5.141   6.440   5.986  1.00  0.00     0.016 A 
BRANCH  13  18
ATOM     18  O   UNL     1       1.202   7.599   6.932  1.00  0.00    -0.493 OA
ATOM     19  C   UNL     1       0.562   7.367   8.183  1.00  0.00     0.278 C 
ENDBRANCH  13  18
BRANCH  14  20
ATOM     20  O   UNL     1       3.093   9.503   6.116  1.00  0.00    -0.504 OA
ATOM     21  H   UNL     1       3.754  10.215   5.828  1.00  0.00     0.293 HD
ENDBRANCH  14  20
ENDBRANCH   1  12
BRANCH   2  22
ATOM     22  O   UNL     1       6.950   4.611   5.875  1.00  0.00    -0.502 OA
ATOM     23  H   UNL     1       7.144   5.408   6.469  1.00  0.00     0.293 HD
ENDBRANCH   2  22
BRANCH   6  24
ATOM     24  O   UNL     1       6.870  -0.548   6.532  1.00  0.00    -0.507 OA
ATOM     25  H   UNL     1       7.088  -1.525   6.684  1.00  0.00     0.293 HD
ENDBRANCH   6  24
BRANCH   8  26
ATOM     26  O   UNL     1       2.285  -1.297   7.832  1.00  0.00    -0.508 OA
ATOM     27  H   UNL     1       2.200  -1.618   8.790  1.00  0.00     0.293 HD
ENDBRANCH   8  26
TORSDOF 6
ENDMDL
