MODEL 1
REMARK VINA RESULT:    -3.391      0.000      0.000
REMARK INTER + INTRA:          -4.252
REMARK INTER:                  -4.184
REMARK INTRA:                  -0.068
REMARK UNBOUND:                -0.068
REMARK SMILES CCCCCC(=O)[O-]
REMARK SMILES IDX 4 1 5 2 6 3 7 4 8 5 3 6 2 7 1 8
REMARK H PARENT
REMARK Flexibility Score: inf
ROOT
ATOM      1  C   UNL     1       5.060  -4.595  -8.409  1.00  0.00     0.006 C 
ENDROOT
BRANCH   1   2
ATOM      2  C   UNL     1       6.433  -4.684  -7.731  1.00  0.00     0.053 C 
BRANCH   2   3
ATOM      3  C   UNL     1       6.310  -4.893  -6.251  1.00  0.00     0.041 C 
ATOM      4  O   UNL     1       7.298  -5.301  -5.586  1.00  0.00    -0.550 OA
ATOM      5  O   UNL     1       5.116  -4.604  -5.605  1.00  0.00    -0.550 OA
ENDBRANCH   2   3
ENDBRANCH   1   2
BRANCH   1   6
ATOM      6  C   UNL     1       4.997  -3.469  -9.451  1.00  0.00     0.000 C 
BRANCH   6   7
ATOM      7  C   UNL     1       3.671  -2.707  -9.359  1.00  0.00    -0.003 C 
ATOM      8  C   UNL     1       3.850  -1.239  -9.736  1.00  0.00     0.004 C 
ENDBRANCH   6   7
ENDBRANCH   1   6
TORSDOF 4
ENDMDL
MODEL 2
REMARK VINA RESULT:    -3.188     20.094     20.621
REMARK INTER + INTRA:          -4.001
REMARK INTER:                  -3.886
REMARK INTRA:                  -0.116
REMARK UNBOUND:                -0.068
REMARK SMILES CCCCCC(=O)[O-]
REMARK SMILES IDX 4 1 5 2 6 3 7 4 8 5 3 6 2 7 1 8
REMARK H PARENT
REMARK Flexibility Score: inf
ROOT
ATOM      1  C   UNL     1      -9.175  -4.896   7.034  1.00  0.00     0.006 C 
ENDROOT
BRANCH   1   2
ATOM      2  C   UNL     1      -8.987  -3.601   7.835  1.00  0.00     0.053 C 
BRANCH   2   3
ATOM      3  C   UNL     1      -8.631  -2.445   6.949  1.00  0.00     0.041 C 
ATOM      4  O   UNL     1      -8.014  -1.454   7.420  1.00  0.00    -0.550 OA
ATOM      5  O   UNL     1      -8.951  -2.480   5.599  1.00  0.00    -0.550 OA
ENDBRANCH   2   3
ENDBRANCH   1   2
BRANCH   1   6
ATOM      6  C   UNL     1      -7.916  -5.774   7.042  1.00  0.00     0.000 C 
BRANCH   6   7
ATOM      7  C   UNL     1      -8.232  -7.194   6.561  1.00  0.00    -0.003 C 
ATOM      8  C   UNL     1      -9.679  -7.309   6.091  1.00  0.00     0.004 C 
ENDBRANCH   6   7
ENDBRANCH   1   6
TORSDOF 4
ENDMDL
MODEL 3
REMARK VINA RESULT:    -3.186     11.079     12.090
REMARK INTER + INTRA:          -4.000
REMARK INTER:                  -3.852
REMARK INTRA:                  -0.148
REMARK UNBOUND:                -0.068
REMARK SMILES CCCCCC(=O)[O-]
REMARK SMILES IDX 4 1 5 2 6 3 7 4 8 5 3 6 2 7 1 8
REMARK H PARENT
REMARK Flexibility Score: inf
ROOT
ATOM      1  C   UNL     1       5.391  -7.127   3.698  1.00  0.00     0.006 C 
ENDROOT
BRANCH   1   2
ATOM      2  C   UNL     1       4.229  -6.813   2.747  1.00  0.00     0.053 C 
BRANCH   2   3
ATOM      3  C   UNL     1       3.491  -8.053   2.342  1.00  0.00     0.041 C 
ATOM      4  O   UNL     1       3.550  -8.465   1.154  1.00  0.00    -0.550 OA
ATOM      5  O   UNL     1       2.767  -8.771   3.284  1.00  0.00    -0.550 OA
ENDBRANCH   2   3
ENDBRANCH   1   2
BRANCH   1   6
ATOM      6  C   UNL     1       6.527  -7.888   2.998  1.00  0.00     0.000 C 
BRANCH   6   7
ATOM      7  C   UNL     1       7.876  -7.600   3.665  1.00  0.00    -0.003 C 
ATOM      8  C   UNL     1       7.802  -6.356   4.547  1.00  0.00     0.004 C 
ENDBRANCH   6   7
ENDBRANCH   1   6
TORSDOF 4
ENDMDL
MODEL 4
REMARK VINA RESULT:    -3.069      2.993      4.034
REMARK INTER + INTRA:          -3.855
REMARK INTER:                  -3.777
REMARK INTRA:                  -0.078
REMARK UNBOUND:                -0.068
REMARK SMILES CCCCCC(=O)[O-]
REMARK SMILES IDX 4 1 5 2 6 3 7 4 8 5 3 6 2 7 1 8
REMARK H PARENT
REMARK Flexibility Score: inf
ROOT
ATOM      1  C   UNL     1       4.739  -7.278  -7.829  1.00  0.00     0.006 C 
ENDROOT
BRANCH   1   2
ATOM      2  C   UNL     1       5.873  -6.279  -7.565  1.00  0.00     0.053 C 
BRANCH   2   3
ATOM      3  C   UNL     1       5.356  -4.980  -7.025  1.00  0.00     0.041 C 
ATOM      4  O   UNL     1       4.767  -4.168  -7.785  1.00  0.00    -0.550 OA
ATOM      5  O   UNL     1       5.496  -4.683  -5.676  1.00  0.00    -0.550 OA
ENDBRANCH   2   3
ENDBRANCH   1   2
BRANCH   1   6
ATOM      6  C   UNL     1       4.444  -7.443  -9.327  1.00  0.00     0.000 C 
BRANCH   6   7
ATOM      7  C   UNL     1       3.610  -8.701  -9.588  1.00  0.00    -0.003 C 
ATOM      8  C   UNL     1       2.165  -8.346  -9.925  1.00  0.00     0.004 C 
ENDBRANCH   6   7
ENDBRANCH   1   6
TORSDOF 4
ENDMDL
MODEL 5
REMARK VINA RESULT:    -2.979     23.259     24.073
REMARK INTER + INTRA:          -3.744
REMARK INTER:                  -3.616
REMARK INTRA:                  -0.128
REMARK UNBOUND:                -0.068
REMARK SMILES CCCCCC(=O)[O-]
REMARK SMILES IDX 4 1 5 2 6 3 7 4 8 5 3 6 2 7 1 8
REMARK H PARENT
REMARK Flexibility Score: inf
ROOT
ATOM      1  C   UNL     1      -5.949   8.247   7.646  1.00  0.00     0.006 C 
ENDROOT
BRANCH   1   2
ATOM      2  C   UNL     1      -5.463   9.605   7.124  1.00  0.00     0.053 C 
BRANCH   2   3
ATOM      3  C   UNL     1      -5.456  10.647   8.201  1.00  0.00     0.041 C 
ATOM      4  O   UNL     1      -4.367  11.125   8.613  1.00  0.00    -0.550 OA
ATOM      5  O   UNL     1      -6.655  11.112   8.726  1.00  0.00    -0.550 OA
ENDBRANCH   2   3
ENDBRANCH   1   2
BRANCH   1   6
ATOM      6  C   UNL     1      -5.318   7.884   8.999  1.00  0.00     0.000 C 
BRANCH   6   7
ATOM      7  C   UNL     1      -6.386   7.775  10.093  1.00  0.00    -0.003 C 
ATOM      8  C   UNL     1      -7.622   7.038   9.587  1.00  0.00     0.004 C 
ENDBRANCH   6   7
ENDBRANCH   1   6
TORSDOF 4
ENDMDL
MODEL 6
REMARK VINA RESULT:    -2.963     18.388     19.020
REMARK INTER + INTRA:          -3.724
REMARK INTER:                  -3.615
REMARK INTRA:                  -0.109
REMARK UNBOUND:                -0.068
REMARK SMILES CCCCCC(=O)[O-]
REMARK SMILES IDX 4 1 5 2 6 3 7 4 8 5 3 6 2 7 1 8
REMARK H PARENT
REMARK Flexibility Score: inf
ROOT
ATOM      1  C   UNL     1       6.146   7.412   6.015  1.00  0.00     0.006 C 
ENDROOT
BRANCH   1   2
ATOM      2  C   UNL     1       6.185   8.274   7.283  1.00  0.00     0.053 C 
BRANCH   2   3
ATOM      3  C   UNL     1       6.009   7.450   8.523  1.00  0.00     0.041 C 
ATOM      4  O   UNL     1       6.044   7.996   9.656  1.00  0.00    -0.550 OA
ATOM      5  O   UNL     1       5.772   6.086   8.423  1.00  0.00    -0.550 OA
ENDBRANCH   2   3
ENDBRANCH   1   2
BRANCH   1   6
ATOM      6  C   UNL     1       6.857   8.085   4.832  1.00  0.00     0.000 C 
BRANCH   6   7
ATOM      7  C   UNL     1       7.154   9.557   5.132  1.00  0.00    -0.003 C 
ATOM      8  C   UNL     1       6.243  10.481   4.329  1.00  0.00     0.004 C 
ENDBRANCH   6   7
ENDBRANCH   1   6
TORSDOF 4
ENDMDL
MODEL 7
REMARK VINA RESULT:    -2.936     23.578     24.180
REMARK INTER + INTRA:          -3.690
REMARK INTER:                  -3.463
REMARK INTRA:                  -0.227
REMARK UNBOUND:                -0.068
REMARK SMILES CCCCCC(=O)[O-]
REMARK SMILES IDX 4 1 5 2 6 3 7 4 8 5 3 6 2 7 1 8
REMARK H PARENT
REMARK Flexibility Score: inf
ROOT
ATOM      1  C   UNL     1      -6.081   7.958   8.177  1.00  0.00     0.006 C 
ENDROOT
BRANCH   1   2
ATOM      2  C   UNL     1      -7.344   7.402   8.846  1.00  0.00     0.053 C 
BRANCH   2   3
ATOM      3  C   UNL     1      -8.556   8.218   8.513  1.00  0.00     0.041 C 
ATOM      4  O   UNL     1      -8.478   9.473   8.458  1.00  0.00    -0.550 OA
ATOM      5  O   UNL     1      -9.762   7.589   8.232  1.00  0.00    -0.550 OA
ENDBRANCH   2   3
ENDBRANCH   1   2
BRANCH   1   6
ATOM      6  C   UNL     1      -5.127   8.612   9.188  1.00  0.00     0.000 C 
BRANCH   6   7
ATOM      7  C   UNL     1      -4.876  10.082   8.836  1.00  0.00    -0.003 C 
ATOM      8  C   UNL     1      -5.217  10.368   7.377  1.00  0.00     0.004 C 
ENDBRANCH   6   7
ENDBRANCH   1   6
TORSDOF 4
ENDMDL
MODEL 8
REMARK VINA RESULT:    -2.929     13.104     14.429
REMARK INTER + INTRA:          -3.682
REMARK INTER:                  -3.561
REMARK INTRA:                  -0.120
REMARK UNBOUND:                -0.068
REMARK SMILES CCCCCC(=O)[O-]
REMARK SMILES IDX 4 1 5 2 6 3 7 4 8 5 3 6 2 7 1 8
REMARK H PARENT
REMARK Flexibility Score: inf
ROOT
ATOM      1  C   UNL     1      -8.459  -5.439  -9.156  1.00  0.00     0.006 C 
ENDROOT
BRANCH   1   2
ATOM      2  C   UNL     1      -9.241  -5.609  -7.848  1.00  0.00     0.053 C 
BRANCH   2   3
ATOM      3  C   UNL     1     -10.031  -4.381  -7.507  1.00  0.00     0.041 C 
ATOM      4  O   UNL     1     -10.792  -3.860  -8.363  1.00  0.00    -0.550 OA
ATOM      5  O   UNL     1      -9.949  -3.834  -6.234  1.00  0.00    -0.550 OA
ENDBRANCH   2   3
ENDBRANCH   1   2
BRANCH   1   6
ATOM      6  C   UNL     1      -7.245  -6.376  -9.235  1.00  0.00     0.000 C 
BRANCH   6   7
ATOM      7  C   UNL     1      -6.761  -6.769  -7.835  1.00  0.00    -0.003 C 
ATOM      8  C   UNL     1      -5.473  -6.037  -7.471  1.00  0.00     0.004 C 
ENDBRANCH   6   7
ENDBRANCH   1   6
TORSDOF 4
ENDMDL
MODEL 9
REMARK VINA RESULT:    -2.927      1.614      2.208
REMARK INTER + INTRA:          -3.680
REMARK INTER:                  -3.525
REMARK INTRA:                  -0.155
REMARK UNBOUND:                -0.068
REMARK SMILES CCCCCC(=O)[O-]
REMARK SMILES IDX 4 1 5 2 6 3 7 4 8 5 3 6 2 7 1 8
REMARK H PARENT
REMARK Flexibility Score: inf
ROOT
ATOM      1  C   UNL     1       4.971  -6.947  -8.293  1.00  0.00     0.006 C 
ENDROOT
BRANCH   1   2
ATOM      2  C   UNL     1       5.879  -6.243  -7.277  1.00  0.00     0.053 C 
BRANCH   2   3
ATOM      3  C   UNL     1       5.132  -5.858  -6.036  1.00  0.00     0.041 C 
ATOM      4  O   UNL     1       4.709  -6.747  -5.251  1.00  0.00    -0.550 OA
ATOM      5  O   UNL     1       4.933  -4.519  -5.731  1.00  0.00    -0.550 OA
ENDBRANCH   2   3
ENDBRANCH   1   2
BRANCH   1   6
ATOM      6  C   UNL     1       4.657  -6.059  -9.507  1.00  0.00     0.000 C 
BRANCH   6   7
ATOM      7  C   UNL     1       5.315  -4.682  -9.366  1.00  0.00    -0.003 C 
ATOM      8  C   UNL     1       4.273  -3.568  -9.374  1.00  0.00     0.004 C 
ENDBRANCH   6   7
ENDBRANCH   1   6
TORSDOF 4
ENDMDL
