MODEL 1
REMARK VINA RESULT:    -6.995      0.000      0.000
REMARK INTER + INTRA:         -13.755
REMARK INTER:                 -11.084
REMARK INTRA:                  -2.671
REMARK UNBOUND:                -2.671
REMARK SMILES C[C@H]1O[C@H](O[C@H]2[C@@H](Oc3cc(O)c4c(c3)O[C@H](c3ccc(O)cc3)CC4=O)O[C@@H](CO)[C@@H](O)[C@@H]2O)[C@@H](O)[C@H](O)[C@H]1O
REMARK SMILES IDX 6 1 34 2 32 3 29 4 28 5 7 6 5 7 4 8 1 9 2 10 40 11 3 12
REMARK SMILES IDX 38 13 36 14 41 15 39 17 37 19 35 21 8 23 9 24 10 25 15 26
REMARK SMILES IDX 11 27 14 28 13 29 16 30 26 31 17 32 27 33 25 34 12 35 18 37
REMARK SMILES IDX 19 38 24 39 20 40 23 41 21 42 22 43 33 45 30 47 31 48
REMARK H PARENT 41 16 39 18 37 20 35 22 12 36 22 44 33 46 31 49
REMARK Flexibility Score: inf
ROOT
ATOM      1  C   UNL     1     -10.766 -39.053 -21.506  1.00  0.00     0.221 C 
ATOM      2  C   UNL     1      -9.610 -39.676 -22.318  1.00  0.00     0.181 C 
ATOM      3  C   UNL     1      -8.374 -38.751 -22.249  1.00  0.00     0.177 C 
ATOM      4  C   UNL     1      -8.763 -37.290 -22.624  1.00  0.00     0.179 C 
ATOM      5  O   UNL     1      -9.861 -36.833 -21.850  1.00  0.00    -0.332 OA
ATOM      6  C   UNL     1     -10.997 -37.638 -22.100  1.00  0.00     0.339 C 
ENDROOT
BRANCH   1   7
ATOM      7  O   UNL     1     -10.353 -39.096 -20.139  1.00  0.00    -0.337 OA
BRANCH   7   8
ATOM      8  C   UNL     1     -11.353 -39.448 -19.201  1.00  0.00     0.282 C 
ATOM      9  C   UNL     1     -14.005 -41.989 -19.235  1.00  0.00     0.041 C 
ATOM     10  C   UNL     1     -12.722 -41.360 -18.695  1.00  0.00     0.150 C 
ATOM     11  C   UNL     1     -12.984 -40.641 -17.344  1.00  0.00     0.174 C 
ATOM     12  O   UNL     1     -12.154 -40.521 -19.701  1.00  0.00    -0.344 OA
ATOM     13  C   UNL     1     -11.659 -40.112 -16.754  1.00  0.00     0.179 C 
ATOM     14  C   UNL     1     -10.639 -39.801 -17.876  1.00  0.00     0.202 C 
BRANCH  11  15
ATOM     15  O   UNL     1     -13.883 -39.575 -17.543  1.00  0.00    -0.388 OA
ATOM     16  H   UNL     1     -13.609 -38.851 -16.917  1.00  0.00     0.211 HD
ENDBRANCH  11  15
BRANCH  13  17
ATOM     17  O   UNL     1     -11.100 -41.070 -15.892  1.00  0.00    -0.387 OA
ATOM     18  H   UNL     1     -10.854 -41.848 -16.455  1.00  0.00     0.211 HD
ENDBRANCH  13  17
BRANCH  14  19
ATOM     19  O   UNL     1      -9.761 -38.776 -17.480  1.00  0.00    -0.385 OA
ATOM     20  H   UNL     1      -9.208 -39.112 -16.727  1.00  0.00     0.211 HD
ENDBRANCH  14  19
ENDBRANCH   7   8
ENDBRANCH   1   7
BRANCH   2  21
ATOM     21  O   UNL     1      -9.974 -39.878 -23.665  1.00  0.00    -0.387 OA
ATOM     22  H   UNL     1     -10.106 -38.976 -24.073  1.00  0.00     0.211 HD
ENDBRANCH   2  21
BRANCH   6  23
ATOM     23  O   UNL     1     -12.167 -37.047 -21.552  1.00  0.00    -0.462 OA
BRANCH  23  24
ATOM     24  C   UNL     1     -13.440 -37.636 -21.589  1.00  0.00     0.130 A 
ATOM     25  C   UNL     1     -14.067 -37.803 -22.829  1.00  0.00     0.093 A 
ATOM     26  C   UNL     1     -14.106 -38.061 -20.427  1.00  0.00     0.094 A 
ATOM     27  C   UNL     1     -15.357 -38.339 -22.925  1.00  0.00     0.133 A 
ATOM     28  C   UNL     1     -15.382 -38.634 -20.511  1.00  0.00     0.138 A 
ATOM     29  C   UNL     1     -16.026 -38.745 -21.758  1.00  0.00     0.102 A 
ATOM     30  O   UNL     1     -15.988 -39.115 -19.346  1.00  0.00    -0.484 OA
ATOM     31  C   UNL     1     -17.383 -39.339 -21.784  1.00  0.00     0.174 C 
ATOM     32  C   UNL     1     -17.376 -39.472 -19.289  1.00  0.00     0.211 C 
ATOM     33  O   UNL     1     -18.125 -39.233 -22.798  1.00  0.00    -0.294 OA
ATOM     34  C   UNL     1     -17.862 -40.118 -20.600  1.00  0.00     0.131 C 
BRANCH  27  35
ATOM     35  O   UNL     1     -15.957 -38.498 -24.176  1.00  0.00    -0.507 OA
ATOM     36  H   UNL     1     -16.116 -37.714 -24.800  1.00  0.00     0.293 HD
ENDBRANCH  27  35
BRANCH  32  37
ATOM     37  C   UNL     1     -17.601 -40.416 -18.131  1.00  0.00    -0.007 A 
ATOM     38  C   UNL     1     -17.337 -39.998 -16.818  1.00  0.00     0.011 A 
ATOM     39  C   UNL     1     -17.982 -41.748 -18.365  1.00  0.00     0.011 A 
ATOM     40  C   UNL     1     -17.462 -40.894 -15.746  1.00  0.00     0.046 A 
ATOM     41  C   UNL     1     -18.124 -42.641 -17.297  1.00  0.00     0.046 A 
ATOM     42  C   UNL     1     -17.866 -42.221 -15.985  1.00  0.00     0.115 A 
BRANCH  42  43
ATOM     43  O   UNL     1     -18.010 -43.119 -14.931  1.00  0.00    -0.508 OA
ATOM     44  H   UNL     1     -17.267 -43.768 -14.682  1.00  0.00     0.293 HD
ENDBRANCH  42  43
ENDBRANCH  32  37
ENDBRANCH  23  24
ENDBRANCH   6  23
BRANCH   3  45
ATOM     45  O   UNL     1      -7.818 -38.800 -20.957  1.00  0.00    -0.387 OA
ATOM     46  H   UNL     1      -7.030 -38.194 -20.948  1.00  0.00     0.211 HD
ENDBRANCH   3  45
BRANCH   4  47
ATOM     47  C   UNL     1      -7.578 -36.329 -22.431  1.00  0.00     0.191 C 
BRANCH  47  48
ATOM     48  O   UNL     1      -6.363 -36.992 -22.669  1.00  0.00    -0.394 OA
ATOM     49  H   UNL     1      -5.998 -36.626 -23.514  1.00  0.00     0.210 HD
ENDBRANCH  47  48
ENDBRANCH   4  47
TORSDOF 14
ENDMDL
MODEL 2
REMARK VINA RESULT:    -6.641      3.593      9.132
REMARK INTER + INTRA:         -13.194
REMARK INTER:                 -11.485
REMARK INTRA:                  -1.709
REMARK UNBOUND:                -2.671
REMARK SMILES C[C@H]1O[C@H](O[C@H]2[C@@H](Oc3cc(O)c4c(c3)O[C@H](c3ccc(O)cc3)CC4=O)O[C@@H](CO)[C@@H](O)[C@@H]2O)[C@@H](O)[C@H](O)[C@H]1O
REMARK SMILES IDX 6 1 34 2 32 3 29 4 28 5 7 6 5 7 4 8 1 9 2 10 40 11 3 12
REMARK SMILES IDX 38 13 36 14 41 15 39 17 37 19 35 21 8 23 9 24 10 25 15 26
REMARK SMILES IDX 11 27 14 28 13 29 16 30 26 31 17 32 27 33 25 34 12 35 18 37
REMARK SMILES IDX 19 38 24 39 20 40 23 41 21 42 22 43 33 45 30 47 31 48
REMARK H PARENT 41 16 39 18 37 20 35 22 12 36 22 44 33 46 31 49
REMARK Flexibility Score: inf
ROOT
ATOM      1  C   UNL     1     -11.559 -37.535 -20.620  1.00  0.00     0.221 C 
ATOM      2  C   UNL     1     -12.917 -37.276 -21.309  1.00  0.00     0.181 C 
ATOM      3  C   UNL     1     -13.050 -38.191 -22.547  1.00  0.00     0.177 C 
ATOM      4  C   UNL     1     -11.790 -38.071 -23.454  1.00  0.00     0.179 C 
ATOM      5  O   UNL     1     -10.599 -38.283 -22.714  1.00  0.00    -0.332 OA
ATOM      6  C   UNL     1     -10.475 -37.300 -21.705  1.00  0.00     0.339 C 
ENDROOT
BRANCH   1   7
ATOM      7  O   UNL     1     -11.635 -38.859 -20.089  1.00  0.00    -0.337 OA
BRANCH   7   8
ATOM      8  C   UNL     1     -12.486 -39.029 -18.972  1.00  0.00     0.282 C 
ATOM      9  C   UNL     1     -15.648 -40.840 -18.513  1.00  0.00     0.041 C 
ATOM     10  C   UNL     1     -14.167 -40.585 -18.239  1.00  0.00     0.150 C 
ATOM     11  C   UNL     1     -13.967 -39.932 -16.844  1.00  0.00     0.174 C 
ATOM     12  O   UNL     1     -13.615 -39.833 -19.320  1.00  0.00    -0.344 OA
ATOM     13  C   UNL     1     -12.461 -39.788 -16.533  1.00  0.00     0.179 C 
ATOM     14  C   UNL     1     -11.637 -39.647 -17.837  1.00  0.00     0.202 C 
BRANCH  11  15
ATOM     15  O   UNL     1     -14.587 -38.667 -16.822  1.00  0.00    -0.388 OA
ATOM     16  H   UNL     1     -15.273 -38.674 -17.543  1.00  0.00     0.211 HD
ENDBRANCH  11  15
BRANCH  13  17
ATOM     17  O   UNL     1     -12.004 -40.917 -15.834  1.00  0.00    -0.387 OA
ATOM     18  H   UNL     1     -12.296 -40.804 -14.893  1.00  0.00     0.211 HD
ENDBRANCH  13  17
BRANCH  14  19
ATOM     19  O   UNL     1     -10.468 -38.900 -17.607  1.00  0.00    -0.385 OA
ATOM     20  H   UNL     1      -9.757 -39.241 -18.209  1.00  0.00     0.211 HD
ENDBRANCH  14  19
ENDBRANCH   7   8
ENDBRANCH   1   7
BRANCH   2  21
ATOM     21  O   UNL     1     -13.050 -35.927 -21.702  1.00  0.00    -0.387 OA
ATOM     22  H   UNL     1     -12.764 -35.870 -22.657  1.00  0.00     0.211 HD
ENDBRANCH   2  21
BRANCH   6  23
ATOM     23  O   UNL     1      -9.175 -37.325 -21.131  1.00  0.00    -0.462 OA
BRANCH  23  24
ATOM     24  C   UNL     1      -8.004 -37.628 -21.842  1.00  0.00     0.130 A 
ATOM     25  C   UNL     1      -7.424 -36.632 -22.635  1.00  0.00     0.093 A 
ATOM     26  C   UNL     1      -7.399 -38.895 -21.789  1.00  0.00     0.094 A 
ATOM     27  C   UNL     1      -6.284 -36.889 -23.407  1.00  0.00     0.133 A 
ATOM     28  C   UNL     1      -6.236 -39.156 -22.526  1.00  0.00     0.138 A 
ATOM     29  C   UNL     1      -5.692 -38.164 -23.364  1.00  0.00     0.102 A 
ATOM     30  O   UNL     1      -5.614 -40.403 -22.395  1.00  0.00    -0.484 OA
ATOM     31  C   UNL     1      -4.475 -38.503 -24.137  1.00  0.00     0.174 C 
ATOM     32  C   UNL     1      -4.589 -40.851 -23.292  1.00  0.00     0.211 C 
ATOM     33  O   UNL     1      -4.085 -37.781 -25.094  1.00  0.00    -0.294 OA
ATOM     34  C   UNL     1      -3.670 -39.701 -23.742  1.00  0.00     0.131 C 
BRANCH  27  35
ATOM     35  O   UNL     1      -5.722 -35.875 -24.186  1.00  0.00    -0.507 OA
ATOM     36  H   UNL     1      -4.806 -35.970 -24.613  1.00  0.00     0.293 HD
ENDBRANCH  27  35
BRANCH  32  37
ATOM     37  C   UNL     1      -3.775 -41.931 -22.616  1.00  0.00    -0.007 A 
ATOM     38  C   UNL     1      -3.460 -41.829 -21.253  1.00  0.00     0.011 A 
ATOM     39  C   UNL     1      -3.244 -42.994 -23.366  1.00  0.00     0.011 A 
ATOM     40  C   UNL     1      -2.635 -42.782 -20.639  1.00  0.00     0.046 A 
ATOM     41  C   UNL     1      -2.434 -43.956 -22.755  1.00  0.00     0.046 A 
ATOM     42  C   UNL     1      -2.125 -43.857 -21.390  1.00  0.00     0.115 A 
BRANCH  42  43
ATOM     43  O   UNL     1      -1.317 -44.820 -20.793  1.00  0.00    -0.508 OA
ATOM     44  H   UNL     1      -0.930 -44.685 -19.862  1.00  0.00     0.293 HD
ENDBRANCH  42  43
ENDBRANCH  32  37
ENDBRANCH  23  24
ENDBRANCH   6  23
BRANCH   3  45
ATOM     45  O   UNL     1     -13.239 -39.522 -22.132  1.00  0.00    -0.387 OA
ATOM     46  H   UNL     1     -12.493 -39.751 -21.516  1.00  0.00     0.211 HD
ENDBRANCH   3  45
BRANCH   4  47
ATOM     47  C   UNL     1     -11.843 -39.071 -24.620  1.00  0.00     0.191 C 
BRANCH  47  48
ATOM     48  O   UNL     1     -11.654 -40.383 -24.153  1.00  0.00    -0.394 OA
ATOM     49  H   UNL     1     -12.535 -40.703 -23.834  1.00  0.00     0.210 HD
ENDBRANCH  47  48
ENDBRANCH   4  47
TORSDOF 14
ENDMDL
MODEL 3
REMARK VINA RESULT:    -6.573      3.170      9.256
REMARK INTER + INTRA:         -13.086
REMARK INTER:                 -11.493
REMARK INTRA:                  -1.593
REMARK UNBOUND:                -2.671
REMARK SMILES C[C@H]1O[C@H](O[C@H]2[C@@H](Oc3cc(O)c4c(c3)O[C@H](c3ccc(O)cc3)CC4=O)O[C@@H](CO)[C@@H](O)[C@@H]2O)[C@@H](O)[C@H](O)[C@H]1O
REMARK SMILES IDX 6 1 34 2 32 3 29 4 28 5 7 6 5 7 4 8 1 9 2 10 40 11 3 12
REMARK SMILES IDX 38 13 36 14 41 15 39 17 37 19 35 21 8 23 9 24 10 25 15 26
REMARK SMILES IDX 11 27 14 28 13 29 16 30 26 31 17 32 27 33 25 34 12 35 18 37
REMARK SMILES IDX 19 38 24 39 20 40 23 41 21 42 22 43 33 45 30 47 31 48
REMARK H PARENT 41 16 39 18 37 20 35 22 12 36 22 44 33 46 31 49
REMARK Flexibility Score: inf
ROOT
ATOM      1  C   UNL     1     -12.872 -40.214 -20.195  1.00  0.00     0.221 C 
ATOM      2  C   UNL     1     -13.062 -41.484 -19.336  1.00  0.00     0.181 C 
ATOM      3  C   UNL     1     -12.538 -41.223 -17.907  1.00  0.00     0.177 C 
ATOM      4  C   UNL     1     -11.095 -40.639 -17.951  1.00  0.00     0.179 C 
ATOM      5  O   UNL     1     -11.023 -39.504 -18.800  1.00  0.00    -0.332 OA
ATOM      6  C   UNL     1     -11.360 -39.870 -20.124  1.00  0.00     0.339 C 
ENDROOT
BRANCH   1   7
ATOM      7  O   UNL     1     -13.761 -39.237 -19.653  1.00  0.00    -0.337 OA
BRANCH   7   8
ATOM      8  C   UNL     1     -15.129 -39.398 -19.976  1.00  0.00     0.282 C 
ATOM      9  C   UNL     1     -17.974 -40.788 -18.115  1.00  0.00     0.041 C 
ATOM     10  C   UNL     1     -17.214 -39.658 -18.806  1.00  0.00     0.150 C 
ATOM     11  C   UNL     1     -17.866 -39.306 -20.171  1.00  0.00     0.174 C 
ATOM     12  O   UNL     1     -15.833 -40.007 -18.892  1.00  0.00    -0.344 OA
ATOM     13  C   UNL     1     -17.159 -38.086 -20.802  1.00  0.00     0.179 C 
ATOM     14  C   UNL     1     -15.684 -38.002 -20.341  1.00  0.00     0.202 C 
BRANCH  11  15
ATOM     15  O   UNL     1     -17.777 -40.415 -21.035  1.00  0.00    -0.388 OA
ATOM     16  H   UNL     1     -18.535 -40.338 -21.676  1.00  0.00     0.211 HD
ENDBRANCH  11  15
BRANCH  13  17
ATOM     17  O   UNL     1     -17.816 -36.903 -20.425  1.00  0.00    -0.387 OA
ATOM     18  H   UNL     1     -17.440 -36.638 -19.547  1.00  0.00     0.211 HD
ENDBRANCH  13  17
BRANCH  14  19
ATOM     19  O   UNL     1     -14.892 -37.377 -21.321  1.00  0.00    -0.385 OA
ATOM     20  H   UNL     1     -14.075 -37.923 -21.457  1.00  0.00     0.211 HD
ENDBRANCH  14  19
ENDBRANCH   7   8
ENDBRANCH   1   7
BRANCH   2  21
ATOM     21  O   UNL     1     -12.388 -42.591 -19.893  1.00  0.00    -0.387 OA
ATOM     22  H   UNL     1     -12.394 -43.315 -19.206  1.00  0.00     0.211 HD
ENDBRANCH   2  21
BRANCH   6  23
ATOM     23  O   UNL     1     -11.039 -38.827 -21.035  1.00  0.00    -0.462 OA
BRANCH  23  24
ATOM     24  C   UNL     1      -9.785 -38.671 -21.644  1.00  0.00     0.130 A 
ATOM     25  C   UNL     1      -9.223 -37.390 -21.705  1.00  0.00     0.093 A 
ATOM     26  C   UNL     1      -9.077 -39.751 -22.197  1.00  0.00     0.094 A 
ATOM     27  C   UNL     1      -7.998 -37.163 -22.345  1.00  0.00     0.133 A 
ATOM     28  C   UNL     1      -7.832 -39.545 -22.807  1.00  0.00     0.138 A 
ATOM     29  C   UNL     1      -7.303 -38.245 -22.912  1.00  0.00     0.102 A 
ATOM     30  O   UNL     1      -7.117 -40.651 -23.281  1.00  0.00    -0.484 OA
ATOM     31  C   UNL     1      -5.994 -38.084 -23.586  1.00  0.00     0.174 C 
ATOM     32  C   UNL     1      -5.977 -40.521 -24.141  1.00  0.00     0.211 C 
ATOM     33  O   UNL     1      -5.581 -36.952 -23.954  1.00  0.00    -0.294 OA
ATOM     34  C   UNL     1      -5.126 -39.286 -23.791  1.00  0.00     0.131 C 
BRANCH  27  35
ATOM     35  O   UNL     1      -7.459 -35.876 -22.387  1.00  0.00    -0.507 OA
ATOM     36  H   UNL     1      -8.013 -35.053 -22.173  1.00  0.00     0.293 HD
ENDBRANCH  27  35
BRANCH  32  37
ATOM     37  C   UNL     1      -5.136 -41.773 -24.047  1.00  0.00    -0.007 A 
ATOM     38  C   UNL     1      -4.009 -41.806 -23.211  1.00  0.00     0.011 A 
ATOM     39  C   UNL     1      -5.418 -42.880 -24.864  1.00  0.00     0.011 A 
ATOM     40  C   UNL     1      -3.177 -42.934 -23.182  1.00  0.00     0.046 A 
ATOM     41  C   UNL     1      -4.599 -44.014 -24.827  1.00  0.00     0.046 A 
ATOM     42  C   UNL     1      -3.476 -44.048 -23.987  1.00  0.00     0.115 A 
BRANCH  42  43
ATOM     43  O   UNL     1      -2.669 -45.182 -23.959  1.00  0.00    -0.508 OA
ATOM     44  H   UNL     1      -1.785 -45.191 -23.456  1.00  0.00     0.293 HD
ENDBRANCH  42  43
ENDBRANCH  32  37
ENDBRANCH  23  24
ENDBRANCH   6  23
BRANCH   3  45
ATOM     45  O   UNL     1     -13.409 -40.345 -17.237  1.00  0.00    -0.387 OA
ATOM     46  H   UNL     1     -12.850 -39.666 -16.772  1.00  0.00     0.211 HD
ENDBRANCH   3  45
BRANCH   4  47
ATOM     47  C   UNL     1     -10.607 -40.248 -16.547  1.00  0.00     0.191 C 
BRANCH  47  48
ATOM     48  O   UNL     1     -11.175 -41.089 -15.576  1.00  0.00    -0.394 OA
ATOM     49  H   UNL     1     -12.145 -40.889 -15.555  1.00  0.00     0.210 HD
ENDBRANCH  47  48
ENDBRANCH   4  47
TORSDOF 14
ENDMDL
MODEL 4
REMARK VINA RESULT:    -6.539      6.805     11.868
REMARK INTER + INTRA:         -13.032
REMARK INTER:                 -11.325
REMARK INTRA:                  -1.708
REMARK UNBOUND:                -2.671
REMARK SMILES C[C@H]1O[C@H](O[C@H]2[C@@H](Oc3cc(O)c4c(c3)O[C@H](c3ccc(O)cc3)CC4=O)O[C@@H](CO)[C@@H](O)[C@@H]2O)[C@@H](O)[C@H](O)[C@H]1O
REMARK SMILES IDX 6 1 34 2 32 3 29 4 28 5 7 6 5 7 4 8 1 9 2 10 40 11 3 12
REMARK SMILES IDX 38 13 36 14 41 15 39 17 37 19 35 21 8 23 9 24 10 25 15 26
REMARK SMILES IDX 11 27 14 28 13 29 16 30 26 31 17 32 27 33 25 34 12 35 18 37
REMARK SMILES IDX 19 38 24 39 20 40 23 41 21 42 22 43 33 45 30 47 31 48
REMARK H PARENT 41 16 39 18 37 20 35 22 12 36 22 44 33 46 31 49
REMARK Flexibility Score: inf
ROOT
ATOM      1  C   UNL     1      -5.710 -38.684 -21.945  1.00  0.00     0.221 C 
ATOM      2  C   UNL     1      -5.147 -37.302 -21.549  1.00  0.00     0.181 C 
ATOM      3  C   UNL     1      -4.750 -36.522 -22.823  1.00  0.00     0.177 C 
ATOM      4  C   UNL     1      -3.838 -37.395 -23.735  1.00  0.00     0.179 C 
ATOM      5  O   UNL     1      -4.430 -38.657 -24.001  1.00  0.00    -0.332 OA
ATOM      6  C   UNL     1      -4.607 -39.371 -22.793  1.00  0.00     0.339 C 
ENDROOT
BRANCH   1   7
ATOM      7  O   UNL     1      -6.945 -38.427 -22.617  1.00  0.00    -0.337 OA
BRANCH   7   8
ATOM      8  C   UNL     1      -8.092 -39.040 -22.058  1.00  0.00     0.282 C 
ATOM      9  C   UNL     1     -11.187 -37.675 -20.628  1.00  0.00     0.041 C 
ATOM     10  C   UNL     1     -10.395 -38.472 -21.663  1.00  0.00     0.150 C 
ATOM     11  C   UNL     1     -10.592 -39.999 -21.454  1.00  0.00     0.174 C 
ATOM     12  O   UNL     1      -9.031 -38.051 -21.634  1.00  0.00    -0.344 OA
ATOM     13  C   UNL     1      -9.881 -40.787 -22.576  1.00  0.00     0.179 C 
ATOM     14  C   UNL     1      -8.670 -39.996 -23.127  1.00  0.00     0.202 C 
BRANCH  11  15
ATOM     15  O   UNL     1     -10.074 -40.374 -20.199  1.00  0.00    -0.388 OA
ATOM     16  H   UNL     1      -9.082 -40.335 -20.277  1.00  0.00     0.211 HD
ENDBRANCH  11  15
BRANCH  13  17
ATOM     17  O   UNL     1     -10.775 -41.032 -23.632  1.00  0.00    -0.387 OA
ATOM     18  H   UNL     1     -11.321 -41.815 -23.364  1.00  0.00     0.211 HD
ENDBRANCH  13  17
BRANCH  14  19
ATOM     19  O   UNL     1      -7.685 -40.872 -23.616  1.00  0.00    -0.385 OA
ATOM     20  H   UNL     1      -7.366 -41.434 -22.863  1.00  0.00     0.211 HD
ENDBRANCH  14  19
ENDBRANCH   7   8
ENDBRANCH   1   7
BRANCH   2  21
ATOM     21  O   UNL     1      -4.027 -37.423 -20.700  1.00  0.00    -0.387 OA
ATOM     22  H   UNL     1      -3.854 -36.520 -20.311  1.00  0.00     0.211 HD
ENDBRANCH   2  21
BRANCH   6  23
ATOM     23  O   UNL     1      -4.943 -40.728 -23.051  1.00  0.00    -0.462 OA
BRANCH  23  24
ATOM     24  C   UNL     1      -4.057 -41.804 -22.891  1.00  0.00     0.130 A 
ATOM     25  C   UNL     1      -3.721 -42.569 -24.014  1.00  0.00     0.093 A 
ATOM     26  C   UNL     1      -3.500 -42.141 -21.647  1.00  0.00     0.094 A 
ATOM     27  C   UNL     1      -2.881 -43.685 -23.909  1.00  0.00     0.133 A 
ATOM     28  C   UNL     1      -2.629 -43.233 -21.532  1.00  0.00     0.138 A 
ATOM     29  C   UNL     1      -2.341 -44.029 -22.657  1.00  0.00     0.102 A 
ATOM     30  O   UNL     1      -2.032 -43.499 -20.295  1.00  0.00    -0.484 OA
ATOM     31  C   UNL     1      -1.431 -45.183 -22.473  1.00  0.00     0.174 C 
ATOM     32  C   UNL     1      -1.345 -44.727 -20.018  1.00  0.00     0.211 C 
ATOM     33  O   UNL     1      -1.334 -46.086 -23.347  1.00  0.00    -0.294 OA
ATOM     34  C   UNL     1      -0.577 -45.250 -21.246  1.00  0.00     0.131 C 
BRANCH  27  35
ATOM     35  O   UNL     1      -2.558 -44.428 -25.046  1.00  0.00    -0.507 OA
ATOM     36  H   UNL     1      -2.594 -45.442 -25.054  1.00  0.00     0.293 HD
ENDBRANCH  27  35
BRANCH  32  37
ATOM     37  C   UNL     1      -0.393 -44.516 -18.863  1.00  0.00    -0.007 A 
ATOM     38  C   UNL     1       0.707 -45.370 -18.689  1.00  0.00     0.011 A 
ATOM     39  C   UNL     1      -0.653 -43.526 -17.901  1.00  0.00     0.011 A 
ATOM     40  C   UNL     1       1.546 -45.233 -17.574  1.00  0.00     0.046 A 
ATOM     41  C   UNL     1       0.191 -43.375 -16.795  1.00  0.00     0.046 A 
ATOM     42  C   UNL     1       1.293 -44.226 -16.626  1.00  0.00     0.115 A 
BRANCH  42  43
ATOM     43  O   UNL     1       2.125 -44.066 -15.521  1.00  0.00    -0.508 OA
ATOM     44  H   UNL     1       2.803 -44.778 -15.261  1.00  0.00     0.293 HD
ENDBRANCH  42  43
ENDBRANCH  32  37
ENDBRANCH  23  24
ENDBRANCH   6  23
BRANCH   3  45
ATOM     45  O   UNL     1      -5.908 -36.123 -23.514  1.00  0.00    -0.387 OA
ATOM     46  H   UNL     1      -5.892 -36.567 -24.404  1.00  0.00     0.211 HD
ENDBRANCH   3  45
BRANCH   4  47
ATOM     47  C   UNL     1      -3.541 -36.689 -25.068  1.00  0.00     0.191 C 
BRANCH  47  48
ATOM     48  O   UNL     1      -2.352 -35.946 -24.979  1.00  0.00    -0.394 OA
ATOM     49  H   UNL     1      -2.260 -35.449 -25.830  1.00  0.00     0.210 HD
ENDBRANCH  47  48
ENDBRANCH   4  47
TORSDOF 14
ENDMDL
MODEL 5
REMARK VINA RESULT:    -6.489      2.921      8.791
REMARK INTER + INTRA:         -12.953
REMARK INTER:                 -11.279
REMARK INTRA:                  -1.674
REMARK UNBOUND:                -2.671
REMARK SMILES C[C@H]1O[C@H](O[C@H]2[C@@H](Oc3cc(O)c4c(c3)O[C@H](c3ccc(O)cc3)CC4=O)O[C@@H](CO)[C@@H](O)[C@@H]2O)[C@@H](O)[C@H](O)[C@H]1O
REMARK SMILES IDX 6 1 34 2 32 3 29 4 28 5 7 6 5 7 4 8 1 9 2 10 40 11 3 12
REMARK SMILES IDX 38 13 36 14 41 15 39 17 37 19 35 21 8 23 9 24 10 25 15 26
REMARK SMILES IDX 11 27 14 28 13 29 16 30 26 31 17 32 27 33 25 34 12 35 18 37
REMARK SMILES IDX 19 38 24 39 20 40 23 41 21 42 22 43 33 45 30 47 31 48
REMARK H PARENT 41 16 39 18 37 20 35 22 12 36 22 44 33 46 31 49
REMARK Flexibility Score: inf
ROOT
ATOM      1  C   UNL     1     -12.864 -40.139 -19.118  1.00  0.00     0.221 C 
ATOM      2  C   UNL     1     -12.969 -41.538 -18.473  1.00  0.00     0.181 C 
ATOM      3  C   UNL     1     -12.289 -41.520 -17.087  1.00  0.00     0.177 C 
ATOM      4  C   UNL     1     -10.854 -40.922 -17.189  1.00  0.00     0.179 C 
ATOM      5  O   UNL     1     -10.867 -39.658 -17.834  1.00  0.00    -0.332 OA
ATOM      6  C   UNL     1     -11.351 -39.795 -19.156  1.00  0.00     0.339 C 
ENDROOT
BRANCH   1   7
ATOM      7  O   UNL     1     -13.680 -39.278 -18.321  1.00  0.00    -0.337 OA
BRANCH   7   8
ATOM      8  C   UNL     1     -14.943 -38.944 -18.866  1.00  0.00     0.282 C 
ATOM      9  C   UNL     1     -16.143 -38.592 -22.319  1.00  0.00     0.041 C 
ATOM     10  C   UNL     1     -16.121 -39.249 -20.940  1.00  0.00     0.150 C 
ATOM     11  C   UNL     1     -17.382 -38.860 -20.121  1.00  0.00     0.174 C 
ATOM     12  O   UNL     1     -14.887 -38.937 -20.293  1.00  0.00    -0.344 OA
ATOM     13  C   UNL     1     -17.404 -39.622 -18.778  1.00  0.00     0.179 C 
ATOM     14  C   UNL     1     -15.967 -39.961 -18.311  1.00  0.00     0.202 C 
BRANCH  11  15
ATOM     15  O   UNL     1     -17.383 -37.470 -19.887  1.00  0.00    -0.388 OA
ATOM     16  H   UNL     1     -17.794 -37.047 -20.688  1.00  0.00     0.211 HD
ENDBRANCH  11  15
BRANCH  13  17
ATOM     17  O   UNL     1     -18.125 -40.820 -18.917  1.00  0.00    -0.387 OA
ATOM     18  H   UNL     1     -17.709 -41.315 -19.668  1.00  0.00     0.211 HD
ENDBRANCH  13  17
BRANCH  14  19
ATOM     19  O   UNL     1     -15.905 -40.035 -16.908  1.00  0.00    -0.385 OA
ATOM     20  H   UNL     1     -16.731 -39.628 -16.537  1.00  0.00     0.211 HD
ENDBRANCH  14  19
ENDBRANCH   7   8
ENDBRANCH   1   7
BRANCH   2  21
ATOM     21  O   UNL     1     -12.369 -42.526 -19.282  1.00  0.00    -0.387 OA
ATOM     22  H   UNL     1     -11.394 -42.320 -19.323  1.00  0.00     0.211 HD
ENDBRANCH   2  21
BRANCH   6  23
ATOM     23  O   UNL     1     -11.123 -38.608 -19.904  1.00  0.00    -0.462 OA
BRANCH  23  24
ATOM     24  C   UNL     1     -10.220 -38.511 -20.973  1.00  0.00     0.130 A 
ATOM     25  C   UNL     1     -10.059 -37.272 -21.604  1.00  0.00     0.093 A 
ATOM     26  C   UNL     1      -9.478 -39.611 -21.433  1.00  0.00     0.094 A 
ATOM     27  C   UNL     1      -9.209 -37.124 -22.708  1.00  0.00     0.133 A 
ATOM     28  C   UNL     1      -8.596 -39.470 -22.513  1.00  0.00     0.138 A 
ATOM     29  C   UNL     1      -8.483 -38.232 -23.176  1.00  0.00     0.102 A 
ATOM     30  O   UNL     1      -7.815 -40.564 -22.901  1.00  0.00    -0.484 OA
ATOM     31  C   UNL     1      -7.551 -38.146 -24.324  1.00  0.00     0.174 C 
ATOM     32  C   UNL     1      -7.090 -40.595 -24.138  1.00  0.00     0.211 C 
ATOM     33  O   UNL     1      -7.587 -37.174 -25.125  1.00  0.00    -0.294 OA
ATOM     34  C   UNL     1      -6.519 -39.214 -24.509  1.00  0.00     0.131 C 
BRANCH  27  35
ATOM     35  O   UNL     1      -9.063 -35.875 -23.316  1.00  0.00    -0.507 OA
ATOM     36  H   UNL     1      -8.486 -35.743 -24.140  1.00  0.00     0.293 HD
ENDBRANCH  27  35
BRANCH  32  37
ATOM     37  C   UNL     1      -5.973 -41.608 -24.035  1.00  0.00    -0.007 A 
ATOM     38  C   UNL     1      -4.830 -41.322 -23.272  1.00  0.00     0.011 A 
ATOM     39  C   UNL     1      -6.024 -42.799 -24.777  1.00  0.00     0.011 A 
ATOM     40  C   UNL     1      -3.753 -42.220 -23.240  1.00  0.00     0.046 A 
ATOM     41  C   UNL     1      -4.959 -43.705 -24.735  1.00  0.00     0.046 A 
ATOM     42  C   UNL     1      -3.819 -43.422 -23.968  1.00  0.00     0.115 A 
BRANCH  42  43
ATOM     43  O   UNL     1      -2.765 -44.331 -23.935  1.00  0.00    -0.508 OA
ATOM     44  H   UNL     1      -2.783 -45.183 -24.489  1.00  0.00     0.293 HD
ENDBRANCH  42  43
ENDBRANCH  32  37
ENDBRANCH  23  24
ENDBRANCH   6  23
BRANCH   3  45
ATOM     45  O   UNL     1     -13.073 -40.779 -16.184  1.00  0.00    -0.387 OA
ATOM     46  H   UNL     1     -13.579 -40.105 -16.713  1.00  0.00     0.211 HD
ENDBRANCH   3  45
BRANCH   4  47
ATOM     47  C   UNL     1     -10.211 -40.771 -15.801  1.00  0.00     0.191 C 
BRANCH  47  48
ATOM     48  O   UNL     1      -9.086 -41.605 -15.686  1.00  0.00    -0.394 OA
ATOM     49  H   UNL     1      -8.433 -41.127 -15.115  1.00  0.00     0.210 HD
ENDBRANCH  47  48
ENDBRANCH   4  47
TORSDOF 14
ENDMDL
MODEL 6
REMARK VINA RESULT:    -6.417      3.609      9.530
REMARK INTER + INTRA:         -12.839
REMARK INTER:                 -11.088
REMARK INTRA:                  -1.751
REMARK UNBOUND:                -2.671
REMARK SMILES C[C@H]1O[C@H](O[C@H]2[C@@H](Oc3cc(O)c4c(c3)O[C@H](c3ccc(O)cc3)CC4=O)O[C@@H](CO)[C@@H](O)[C@@H]2O)[C@@H](O)[C@H](O)[C@H]1O
REMARK SMILES IDX 6 1 34 2 32 3 29 4 28 5 7 6 5 7 4 8 1 9 2 10 40 11 3 12
REMARK SMILES IDX 38 13 36 14 41 15 39 17 37 19 35 21 8 23 9 24 10 25 15 26
REMARK SMILES IDX 11 27 14 28 13 29 16 30 26 31 17 32 27 33 25 34 12 35 18 37
REMARK SMILES IDX 19 38 24 39 20 40 23 41 21 42 22 43 33 45 30 47 31 48
REMARK H PARENT 41 16 39 18 37 20 35 22 12 36 22 44 33 46 31 49
REMARK Flexibility Score: inf
ROOT
ATOM      1  C   UNL     1     -12.100 -38.241 -20.685  1.00  0.00     0.221 C 
ATOM      2  C   UNL     1     -13.182 -37.175 -20.966  1.00  0.00     0.181 C 
ATOM      3  C   UNL     1     -13.861 -37.474 -22.320  1.00  0.00     0.177 C 
ATOM      4  C   UNL     1     -12.793 -37.673 -23.436  1.00  0.00     0.179 C 
ATOM      5  O   UNL     1     -11.825 -38.640 -23.058  1.00  0.00    -0.332 OA
ATOM      6  C   UNL     1     -11.137 -38.207 -21.901  1.00  0.00     0.339 C 
ENDROOT
BRANCH   1   7
ATOM      7  O   UNL     1     -12.802 -39.468 -20.479  1.00  0.00    -0.337 OA
BRANCH   7   8
ATOM      8  C   UNL     1     -12.736 -40.006 -19.171  1.00  0.00     0.282 C 
ATOM      9  C   UNL     1     -10.017 -40.229 -16.712  1.00  0.00     0.041 C 
ATOM     10  C   UNL     1     -11.377 -39.739 -17.205  1.00  0.00     0.150 C 
ATOM     11  C   UNL     1     -12.530 -40.480 -16.476  1.00  0.00     0.174 C 
ATOM     12  O   UNL     1     -11.424 -39.844 -18.628  1.00  0.00    -0.344 OA
ATOM     13  C   UNL     1     -13.894 -39.892 -16.898  1.00  0.00     0.179 C 
ATOM     14  C   UNL     1     -13.824 -39.303 -18.328  1.00  0.00     0.202 C 
BRANCH  11  15
ATOM     15  O   UNL     1     -12.480 -41.853 -16.786  1.00  0.00    -0.388 OA
ATOM     16  H   UNL     1     -13.347 -42.079 -17.219  1.00  0.00     0.211 HD
ENDBRANCH  11  15
BRANCH  13  17
ATOM     17  O   UNL     1     -14.274 -38.872 -16.010  1.00  0.00    -0.387 OA
ATOM     18  H   UNL     1     -13.622 -38.890 -15.263  1.00  0.00     0.211 HD
ENDBRANCH  13  17
BRANCH  14  19
ATOM     19  O   UNL     1     -15.081 -39.371 -18.956  1.00  0.00    -0.385 OA
ATOM     20  H   UNL     1     -15.610 -40.087 -18.518  1.00  0.00     0.211 HD
ENDBRANCH  14  19
ENDBRANCH   7   8
ENDBRANCH   1   7
BRANCH   2  21
ATOM     21  O   UNL     1     -12.634 -35.875 -20.988  1.00  0.00    -0.387 OA
ATOM     22  H   UNL     1     -12.133 -35.782 -21.846  1.00  0.00     0.211 HD
ENDBRANCH   2  21
BRANCH   6  23
ATOM     23  O   UNL     1      -9.993 -39.016 -21.660  1.00  0.00    -0.462 OA
BRANCH  23  24
ATOM     24  C   UNL     1      -8.732 -38.789 -22.233  1.00  0.00     0.130 A 
ATOM     25  C   UNL     1      -8.369 -37.477 -22.559  1.00  0.00     0.093 A 
ATOM     26  C   UNL     1      -7.826 -39.831 -22.492  1.00  0.00     0.094 A 
ATOM     27  C   UNL     1      -7.145 -37.194 -23.177  1.00  0.00     0.133 A 
ATOM     28  C   UNL     1      -6.582 -39.558 -23.076  1.00  0.00     0.138 A 
ATOM     29  C   UNL     1      -6.249 -38.242 -23.452  1.00  0.00     0.102 A 
ATOM     30  O   UNL     1      -5.670 -40.605 -23.254  1.00  0.00    -0.484 OA
ATOM     31  C   UNL     1      -4.930 -38.016 -24.085  1.00  0.00     0.174 C 
ATOM     32  C   UNL     1      -4.497 -40.477 -24.069  1.00  0.00     0.211 C 
ATOM     33  O   UNL     1      -4.666 -36.938 -24.682  1.00  0.00    -0.294 OA
ATOM     34  C   UNL     1      -3.875 -39.072 -23.971  1.00  0.00     0.131 C 
BRANCH  27  35
ATOM     35  O   UNL     1      -6.806 -35.875 -23.487  1.00  0.00    -0.507 OA
ATOM     36  H   UNL     1      -7.160 -35.089 -22.952  1.00  0.00     0.293 HD
ENDBRANCH  27  35
BRANCH  32  37
ATOM     37  C   UNL     1      -3.486 -41.521 -23.654  1.00  0.00    -0.007 A 
ATOM     38  C   UNL     1      -3.642 -42.213 -22.443  1.00  0.00     0.011 A 
ATOM     39  C   UNL     1      -2.334 -41.740 -24.427  1.00  0.00     0.011 A 
ATOM     40  C   UNL     1      -2.665 -43.121 -22.011  1.00  0.00     0.046 A 
ATOM     41  C   UNL     1      -1.365 -42.658 -24.008  1.00  0.00     0.046 A 
ATOM     42  C   UNL     1      -1.524 -43.352 -22.801  1.00  0.00     0.115 A 
BRANCH  42  43
ATOM     43  O   UNL     1      -0.552 -44.263 -22.394  1.00  0.00    -0.508 OA
ATOM     44  H   UNL     1      -0.370 -44.440 -21.410  1.00  0.00     0.293 HD
ENDBRANCH  42  43
ENDBRANCH  32  37
ENDBRANCH  23  24
ENDBRANCH   6  23
BRANCH   3  45
ATOM     45  O   UNL     1     -14.673 -38.618 -22.200  1.00  0.00    -0.387 OA
ATOM     46  H   UNL     1     -15.606 -38.307 -22.056  1.00  0.00     0.211 HD
ENDBRANCH   3  45
BRANCH   4  47
ATOM     47  C   UNL     1     -13.442 -38.103 -24.761  1.00  0.00     0.191 C 
BRANCH  47  48
ATOM     48  O   UNL     1     -14.792 -37.716 -24.798  1.00  0.00    -0.394 OA
ATOM     49  H   UNL     1     -15.067 -37.547 -23.861  1.00  0.00     0.210 HD
ENDBRANCH  47  48
ENDBRANCH   4  47
TORSDOF 14
ENDMDL
MODEL 7
REMARK VINA RESULT:    -6.053      1.613      7.979
REMARK INTER + INTRA:         -12.262
REMARK INTER:                 -11.145
REMARK INTRA:                  -1.117
REMARK UNBOUND:                -2.671
REMARK SMILES C[C@H]1O[C@H](O[C@H]2[C@@H](Oc3cc(O)c4c(c3)O[C@H](c3ccc(O)cc3)CC4=O)O[C@@H](CO)[C@@H](O)[C@@H]2O)[C@@H](O)[C@H](O)[C@H]1O
REMARK SMILES IDX 6 1 34 2 32 3 29 4 28 5 7 6 5 7 4 8 1 9 2 10 40 11 3 12
REMARK SMILES IDX 38 13 36 14 41 15 39 17 37 19 35 21 8 23 9 24 10 25 15 26
REMARK SMILES IDX 11 27 14 28 13 29 16 30 26 31 17 32 27 33 25 34 12 35 18 37
REMARK SMILES IDX 19 38 24 39 20 40 23 41 21 42 22 43 33 45 30 47 31 48
REMARK H PARENT 41 16 39 18 37 20 35 22 12 36 22 44 33 46 31 49
REMARK Flexibility Score: inf
ROOT
ATOM      1  C   UNL     1     -15.511 -39.641 -16.675  1.00  0.00     0.221 C 
ATOM      2  C   UNL     1     -16.834 -40.247 -16.158  1.00  0.00     0.181 C 
ATOM      3  C   UNL     1     -17.495 -41.078 -17.280  1.00  0.00     0.177 C 
ATOM      4  C   UNL     1     -17.593 -40.244 -18.592  1.00  0.00     0.179 C 
ATOM      5  O   UNL     1     -16.334 -39.699 -18.953  1.00  0.00    -0.332 OA
ATOM      6  C   UNL     1     -15.880 -38.822 -17.941  1.00  0.00     0.339 C 
ENDROOT
BRANCH   1   7
ATOM      7  O   UNL     1     -14.628 -40.745 -16.882  1.00  0.00    -0.337 OA
BRANCH   7   8
ATOM      8  C   UNL     1     -13.349 -40.426 -17.398  1.00  0.00     0.282 C 
ATOM      9  C   UNL     1      -9.995 -40.432 -15.901  1.00  0.00     0.041 C 
ATOM     10  C   UNL     1     -11.052 -40.923 -16.889  1.00  0.00     0.150 C 
ATOM     11  C   UNL     1     -10.764 -40.390 -18.319  1.00  0.00     0.174 C 
ATOM     12  O   UNL     1     -12.348 -40.588 -16.392  1.00  0.00    -0.344 OA
ATOM     13  C   UNL     1     -11.771 -40.989 -19.325  1.00  0.00     0.179 C 
ATOM     14  C   UNL     1     -13.112 -41.329 -18.630  1.00  0.00     0.202 C 
BRANCH  11  15
ATOM     15  O   UNL     1     -10.854 -38.984 -18.325  1.00  0.00    -0.388 OA
ATOM     16  H   UNL     1     -10.239 -38.663 -19.040  1.00  0.00     0.211 HD
ENDBRANCH  11  15
BRANCH  13  17
ATOM     17  O   UNL     1     -11.246 -42.164 -19.888  1.00  0.00    -0.387 OA
ATOM     18  H   UNL     1     -10.262 -42.047 -19.922  1.00  0.00     0.211 HD
ENDBRANCH  13  17
BRANCH  14  19
ATOM     19  O   UNL     1     -14.179 -41.241 -19.542  1.00  0.00    -0.385 OA
ATOM     20  H   UNL     1     -13.839 -40.840 -20.384  1.00  0.00     0.211 HD
ENDBRANCH  14  19
ENDBRANCH   7   8
ENDBRANCH   1   7
BRANCH   2  21
ATOM     21  O   UNL     1     -17.727 -39.246 -15.722  1.00  0.00    -0.387 OA
ATOM     22  H   UNL     1     -18.083 -38.794 -16.538  1.00  0.00     0.211 HD
ENDBRANCH   2  21
BRANCH   6  23
ATOM     23  O   UNL     1     -14.765 -38.063 -18.391  1.00  0.00    -0.462 OA
BRANCH  23  24
ATOM     24  C   UNL     1     -14.310 -38.043 -19.718  1.00  0.00     0.130 A 
ATOM     25  C   UNL     1     -15.254 -38.037 -20.751  1.00  0.00     0.093 A 
ATOM     26  C   UNL     1     -12.943 -38.031 -20.044  1.00  0.00     0.094 A 
ATOM     27  C   UNL     1     -14.861 -38.067 -22.095  1.00  0.00     0.133 A 
ATOM     28  C   UNL     1     -12.535 -38.023 -21.385  1.00  0.00     0.138 A 
ATOM     29  C   UNL     1     -13.492 -38.075 -22.416  1.00  0.00     0.102 A 
ATOM     30  O   UNL     1     -11.169 -37.936 -21.678  1.00  0.00    -0.484 OA
ATOM     31  C   UNL     1     -13.002 -38.086 -23.814  1.00  0.00     0.174 C 
ATOM     32  C   UNL     1     -10.645 -38.183 -22.990  1.00  0.00     0.211 C 
ATOM     33  O   UNL     1     -13.761 -38.394 -24.771  1.00  0.00    -0.294 OA
ATOM     34  C   UNL     1     -11.590 -37.678 -24.096  1.00  0.00     0.131 C 
BRANCH  27  35
ATOM     35  O   UNL     1     -15.824 -38.057 -23.107  1.00  0.00    -0.507 OA
ATOM     36  H   UNL     1     -15.796 -37.386 -23.868  1.00  0.00     0.293 HD
ENDBRANCH  27  35
BRANCH  32  37
ATOM     37  C   UNL     1      -9.294 -37.519 -23.119  1.00  0.00    -0.007 A 
ATOM     38  C   UNL     1      -8.722 -37.323 -24.386  1.00  0.00     0.011 A 
ATOM     39  C   UNL     1      -8.557 -37.180 -21.973  1.00  0.00     0.011 A 
ATOM     40  C   UNL     1      -7.433 -36.785 -24.510  1.00  0.00     0.046 A 
ATOM     41  C   UNL     1      -7.277 -36.628 -22.092  1.00  0.00     0.046 A 
ATOM     42  C   UNL     1      -6.709 -36.427 -23.359  1.00  0.00     0.115 A 
BRANCH  42  43
ATOM     43  O   UNL     1      -5.434 -35.877 -23.464  1.00  0.00    -0.508 OA
ATOM     44  H   UNL     1      -4.847 -35.737 -22.646  1.00  0.00     0.293 HD
ENDBRANCH  42  43
ENDBRANCH  32  37
ENDBRANCH  23  24
ENDBRANCH   6  23
BRANCH   3  45
ATOM     45  O   UNL     1     -16.756 -42.256 -17.495  1.00  0.00    -0.387 OA
ATOM     46  H   UNL     1     -15.845 -41.987 -17.789  1.00  0.00     0.211 HD
ENDBRANCH   3  45
BRANCH   4  47
ATOM     47  C   UNL     1     -18.125 -41.096 -19.757  1.00  0.00     0.191 C 
BRANCH  47  48
ATOM     48  O   UNL     1     -17.109 -41.922 -20.267  1.00  0.00    -0.394 OA
ATOM     49  H   UNL     1     -16.248 -41.528 -19.977  1.00  0.00     0.210 HD
ENDBRANCH  47  48
ENDBRANCH   4  47
TORSDOF 14
ENDMDL
MODEL 8
REMARK VINA RESULT:    -5.850      9.219     13.953
REMARK INTER + INTRA:         -11.940
REMARK INTER:                 -10.652
REMARK INTRA:                  -1.288
REMARK UNBOUND:                -2.671
REMARK SMILES C[C@H]1O[C@H](O[C@H]2[C@@H](Oc3cc(O)c4c(c3)O[C@H](c3ccc(O)cc3)CC4=O)O[C@@H](CO)[C@@H](O)[C@@H]2O)[C@@H](O)[C@H](O)[C@H]1O
REMARK SMILES IDX 6 1 34 2 32 3 29 4 28 5 7 6 5 7 4 8 1 9 2 10 40 11 3 12
REMARK SMILES IDX 38 13 36 14 41 15 39 17 37 19 35 21 8 23 9 24 10 25 15 26
REMARK SMILES IDX 11 27 14 28 13 29 16 30 26 31 17 32 27 33 25 34 12 35 18 37
REMARK SMILES IDX 19 38 24 39 20 40 23 41 21 42 22 43 33 45 30 47 31 48
REMARK H PARENT 41 16 39 18 37 20 35 22 12 36 22 44 33 46 31 49
REMARK Flexibility Score: inf
ROOT
ATOM      1  C   UNL     1      -3.401 -41.332 -22.757  1.00  0.00     0.221 C 
ATOM      2  C   UNL     1      -2.981 -41.255 -24.242  1.00  0.00     0.181 C 
ATOM      3  C   UNL     1      -3.480 -42.515 -24.984  1.00  0.00     0.177 C 
ATOM      4  C   UNL     1      -3.055 -43.804 -24.221  1.00  0.00     0.179 C 
ATOM      5  O   UNL     1      -3.451 -43.751 -22.859  1.00  0.00    -0.332 OA
ATOM      6  C   UNL     1      -2.818 -42.663 -22.214  1.00  0.00     0.339 C 
ENDROOT
BRANCH   1   7
ATOM      7  O   UNL     1      -4.825 -41.223 -22.746  1.00  0.00    -0.337 OA
BRANCH   7   8
ATOM      8  C   UNL     1      -5.344 -39.918 -22.567  1.00  0.00     0.282 C 
ATOM      9  C   UNL     1      -3.837 -36.583 -22.865  1.00  0.00     0.041 C 
ATOM     10  C   UNL     1      -4.816 -37.682 -23.274  1.00  0.00     0.150 C 
ATOM     11  C   UNL     1      -6.257 -37.341 -22.807  1.00  0.00     0.174 C 
ATOM     12  O   UNL     1      -4.331 -38.939 -22.802  1.00  0.00    -0.344 OA
ATOM     13  C   UNL     1      -7.252 -38.401 -23.329  1.00  0.00     0.179 C 
ATOM     14  C   UNL     1      -6.554 -39.770 -23.518  1.00  0.00     0.202 C 
BRANCH  11  15
ATOM     15  O   UNL     1      -6.298 -37.293 -21.400  1.00  0.00    -0.388 OA
ATOM     16  H   UNL     1      -6.446 -38.226 -21.087  1.00  0.00     0.211 HD
ENDBRANCH  11  15
BRANCH  13  17
ATOM     17  O   UNL     1      -7.785 -37.994 -24.563  1.00  0.00    -0.387 OA
ATOM     18  H   UNL     1      -7.669 -37.010 -24.610  1.00  0.00     0.211 HD
ENDBRANCH  13  17
BRANCH  14  19
ATOM     19  O   UNL     1      -7.471 -40.823 -23.348  1.00  0.00    -0.385 OA
ATOM     20  H   UNL     1      -7.548 -41.312 -24.208  1.00  0.00     0.211 HD
ENDBRANCH  14  19
ENDBRANCH   7   8
ENDBRANCH   1   7
BRANCH   2  21
ATOM     21  O   UNL     1      -1.581 -41.149 -24.379  1.00  0.00    -0.387 OA
ATOM     22  H   UNL     1      -1.254 -42.019 -24.741  1.00  0.00     0.211 HD
ENDBRANCH   2  21
BRANCH   6  23
ATOM     23  O   UNL     1      -2.982 -42.746 -20.804  1.00  0.00    -0.462 OA
BRANCH  23  24
ATOM     24  C   UNL     1      -1.996 -43.213 -19.922  1.00  0.00     0.130 A 
ATOM     25  C   UNL     1      -1.244 -42.278 -19.200  1.00  0.00     0.093 A 
ATOM     26  C   UNL     1      -1.736 -44.582 -19.740  1.00  0.00     0.094 A 
ATOM     27  C   UNL     1      -0.214 -42.682 -18.342  1.00  0.00     0.133 A 
ATOM     28  C   UNL     1      -0.733 -45.001 -18.857  1.00  0.00     0.138 A 
ATOM     29  C   UNL     1       0.055 -44.052 -18.178  1.00  0.00     0.102 A 
ATOM     30  O   UNL     1      -0.547 -46.371 -18.641  1.00  0.00    -0.484 OA
ATOM     31  C   UNL     1       1.115 -44.552 -17.273  1.00  0.00     0.174 C 
ATOM     32  C   UNL     1       0.606 -46.897 -17.970  1.00  0.00     0.211 C 
ATOM     33  O   UNL     1       2.022 -43.791 -16.843  1.00  0.00    -0.294 OA
ATOM     34  C   UNL     1       1.079 -45.980 -16.827  1.00  0.00     0.131 C 
BRANCH  27  35
ATOM     35  O   UNL     1       0.518 -41.728 -17.631  1.00  0.00    -0.507 OA
ATOM     36  H   UNL     1       1.192 -41.989 -16.918  1.00  0.00     0.293 HD
ENDBRANCH  27  35
BRANCH  32  37
ATOM     37  C   UNL     1       0.285 -48.273 -17.432  1.00  0.00    -0.007 A 
ATOM     38  C   UNL     1      -0.904 -48.917 -17.806  1.00  0.00     0.011 A 
ATOM     39  C   UNL     1       1.123 -48.876 -16.479  1.00  0.00     0.011 A 
ATOM     40  C   UNL     1      -1.249 -50.156 -17.246  1.00  0.00     0.046 A 
ATOM     41  C   UNL     1       0.791 -50.119 -15.930  1.00  0.00     0.046 A 
ATOM     42  C   UNL     1      -0.395 -50.765 -16.310  1.00  0.00     0.115 A 
BRANCH  42  43
ATOM     43  O   UNL     1      -0.715 -52.001 -15.755  1.00  0.00    -0.508 OA
ATOM     44  H   UNL     1      -0.161 -52.830 -15.951  1.00  0.00     0.293 HD
ENDBRANCH  42  43
ENDBRANCH  32  37
ENDBRANCH  23  24
ENDBRANCH   6  23
BRANCH   3  45
ATOM     45  O   UNL     1      -4.879 -42.458 -25.125  1.00  0.00    -0.387 OA
ATOM     46  H   UNL     1      -5.110 -41.545 -25.443  1.00  0.00     0.211 HD
ENDBRANCH   3  45
BRANCH   4  47
ATOM     47  C   UNL     1      -3.655 -45.061 -24.870  1.00  0.00     0.191 C 
BRANCH  47  48
ATOM     48  O   UNL     1      -3.020 -46.217 -24.386  1.00  0.00    -0.394 OA
ATOM     49  H   UNL     1      -2.669 -46.703 -25.175  1.00  0.00     0.210 HD
ENDBRANCH  47  48
ENDBRANCH   4  47
TORSDOF 14
ENDMDL
MODEL 9
REMARK VINA RESULT:    -5.744      2.532      8.934
REMARK INTER + INTRA:         -11.773
REMARK INTER:                  -9.896
REMARK INTRA:                  -1.877
REMARK UNBOUND:                -2.671
REMARK SMILES C[C@H]1O[C@H](O[C@H]2[C@@H](Oc3cc(O)c4c(c3)O[C@H](c3ccc(O)cc3)CC4=O)O[C@@H](CO)[C@@H](O)[C@@H]2O)[C@@H](O)[C@H](O)[C@H]1O
REMARK SMILES IDX 6 1 34 2 32 3 29 4 28 5 7 6 5 7 4 8 1 9 2 10 40 11 3 12
REMARK SMILES IDX 38 13 36 14 41 15 39 17 37 19 35 21 8 23 9 24 10 25 15 26
REMARK SMILES IDX 11 27 14 28 13 29 16 30 26 31 17 32 27 33 25 34 12 35 18 37
REMARK SMILES IDX 19 38 24 39 20 40 23 41 21 42 22 43 33 45 30 47 31 48
REMARK H PARENT 41 16 39 18 37 20 35 22 12 36 22 44 33 46 31 49
REMARK Flexibility Score: inf
ROOT
ATOM      1  C   UNL     1     -12.564 -37.779 -20.501  1.00  0.00     0.221 C 
ATOM      2  C   UNL     1     -13.333 -36.559 -21.052  1.00  0.00     0.181 C 
ATOM      3  C   UNL     1     -14.838 -36.897 -21.147  1.00  0.00     0.177 C 
ATOM      4  C   UNL     1     -15.049 -38.239 -21.909  1.00  0.00     0.179 C 
ATOM      5  O   UNL     1     -14.265 -39.280 -21.349  1.00  0.00    -0.332 OA
ATOM      6  C   UNL     1     -12.891 -38.960 -21.453  1.00  0.00     0.339 C 
ENDROOT
BRANCH   1   7
ATOM      7  O   UNL     1     -12.990 -37.933 -19.146  1.00  0.00    -0.337 OA
BRANCH   7   8
ATOM      8  C   UNL     1     -12.848 -39.229 -18.596  1.00  0.00     0.282 C 
ATOM      9  C   UNL     1     -10.365 -40.706 -16.328  1.00  0.00     0.041 C 
ATOM     10  C   UNL     1     -11.774 -40.248 -16.701  1.00  0.00     0.150 C 
ATOM     11  C   UNL     1     -12.687 -41.465 -17.013  1.00  0.00     0.174 C 
ATOM     12  O   UNL     1     -11.691 -39.295 -17.761  1.00  0.00    -0.344 OA
ATOM     13  C   UNL     1     -14.135 -40.994 -17.273  1.00  0.00     0.179 C 
ATOM     14  C   UNL     1     -14.155 -39.552 -17.836  1.00  0.00     0.202 C 
BRANCH  11  15
ATOM     15  O   UNL     1     -12.193 -42.149 -18.141  1.00  0.00    -0.388 OA
ATOM     16  H   UNL     1     -11.669 -41.488 -18.668  1.00  0.00     0.211 HD
ENDBRANCH  11  15
BRANCH  13  17
ATOM     17  O   UNL     1     -14.871 -41.019 -16.077  1.00  0.00    -0.387 OA
ATOM     18  H   UNL     1     -14.404 -41.649 -15.470  1.00  0.00     0.211 HD
ENDBRANCH  13  17
BRANCH  14  19
ATOM     19  O   UNL     1     -15.284 -39.353 -18.651  1.00  0.00    -0.385 OA
ATOM     20  H   UNL     1     -15.022 -38.770 -19.411  1.00  0.00     0.211 HD
ENDBRANCH  14  19
ENDBRANCH   7   8
ENDBRANCH   1   7
BRANCH   2  21
ATOM     21  O   UNL     1     -12.854 -36.175 -22.322  1.00  0.00    -0.387 OA
ATOM     22  H   UNL     1     -12.740 -35.183 -22.306  1.00  0.00     0.211 HD
ENDBRANCH   2  21
BRANCH   6  23
ATOM     23  O   UNL     1     -12.084 -40.090 -21.150  1.00  0.00    -0.462 OA
BRANCH  23  24
ATOM     24  C   UNL     1     -10.985 -40.502 -21.918  1.00  0.00     0.130 A 
ATOM     25  C   UNL     1     -11.138 -41.601 -22.773  1.00  0.00     0.093 A 
ATOM     26  C   UNL     1      -9.739 -39.856 -21.858  1.00  0.00     0.094 A 
ATOM     27  C   UNL     1     -10.065 -42.090 -23.527  1.00  0.00     0.133 A 
ATOM     28  C   UNL     1      -8.666 -40.312 -22.635  1.00  0.00     0.138 A 
ATOM     29  C   UNL     1      -8.815 -41.451 -23.449  1.00  0.00     0.102 A 
ATOM     30  O   UNL     1      -7.460 -39.602 -22.610  1.00  0.00    -0.484 OA
ATOM     31  C   UNL     1      -7.641 -41.900 -24.232  1.00  0.00     0.174 C 
ATOM     32  C   UNL     1      -6.243 -40.130 -23.156  1.00  0.00     0.211 C 
ATOM     33  O   UNL     1      -7.608 -43.041 -24.767  1.00  0.00    -0.294 OA
ATOM     34  C   UNL     1      -6.492 -40.961 -24.428  1.00  0.00     0.131 C 
BRANCH  27  35
ATOM     35  O   UNL     1     -10.247 -43.185 -24.375  1.00  0.00    -0.507 OA
ATOM     36  H   UNL     1      -9.659 -43.338 -25.189  1.00  0.00     0.293 HD
ENDBRANCH  27  35
BRANCH  32  37
ATOM     37  C   UNL     1      -5.298 -38.990 -23.459  1.00  0.00    -0.007 A 
ATOM     38  C   UNL     1      -4.421 -39.071 -24.552  1.00  0.00     0.011 A 
ATOM     39  C   UNL     1      -5.219 -37.885 -22.595  1.00  0.00     0.011 A 
ATOM     40  C   UNL     1      -3.483 -38.057 -24.789  1.00  0.00     0.046 A 
ATOM     41  C   UNL     1      -4.296 -36.862 -22.838  1.00  0.00     0.046 A 
ATOM     42  C   UNL     1      -3.424 -36.942 -23.934  1.00  0.00     0.115 A 
BRANCH  42  43
ATOM     43  O   UNL     1      -2.509 -35.918 -24.164  1.00  0.00    -0.508 OA
ATOM     44  H   UNL     1      -2.783 -35.055 -24.627  1.00  0.00     0.293 HD
ENDBRANCH  42  43
ENDBRANCH  32  37
ENDBRANCH  23  24
ENDBRANCH   6  23
BRANCH   3  45
ATOM     45  O   UNL     1     -15.389 -36.968 -19.854  1.00  0.00    -0.387 OA
ATOM     46  H   UNL     1     -15.468 -36.037 -19.512  1.00  0.00     0.211 HD
ENDBRANCH   3  45
BRANCH   4  47
ATOM     47  C   UNL     1     -16.527 -38.661 -21.897  1.00  0.00     0.191 C 
BRANCH  47  48
ATOM     48  O   UNL     1     -16.752 -39.643 -20.918  1.00  0.00    -0.394 OA
ATOM     49  H   UNL     1     -17.646 -40.029 -21.100  1.00  0.00     0.210 HD
ENDBRANCH  47  48
ENDBRANCH   4  47
TORSDOF 14
ENDMDL
