MODEL 1
REMARK VINA RESULT:    -3.594      0.000      0.000
REMARK INTER + INTRA:         -13.051
REMARK INTER:                  -9.057
REMARK INTRA:                  -3.994
REMARK UNBOUND:                -3.994
REMARK SMILES CCCCCCCCCCCCCCCCCCCCCCCCCCCC(=O)[O-]
REMARK SMILES IDX 15 1 16 2 17 3 18 4 19 5 20 6 21 7 22 8 23 9 24 10 25 11
REMARK SMILES IDX 26 12 27 13 28 14 29 15 30 16 14 17 13 18 12 19 11 20 10 21
REMARK SMILES IDX 9 22 8 23 7 24 6 25 5 26 4 27 3 28 2 29 1 30
REMARK H PARENT
REMARK Flexibility Score: inf
ROOT
ATOM      1  C   UNL     1     -46.836 -47.304  70.759  1.00  0.00     0.000 C 
ENDROOT
BRANCH   1   2
ATOM      2  C   UNL     1     -45.717 -48.356  70.823  1.00  0.00     0.000 C 
BRANCH   2   3
ATOM      3  C   UNL     1     -44.311 -47.731  70.770  1.00  0.00     0.000 C 
BRANCH   3   4
ATOM      4  C   UNL     1     -44.288 -46.197  70.609  1.00  0.00     0.000 C 
BRANCH   4   5
ATOM      5  C   UNL     1     -43.402 -45.448  71.622  1.00  0.00     0.000 C 
BRANCH   5   6
ATOM      6  C   UNL     1     -41.966 -45.242  71.118  1.00  0.00     0.000 C 
BRANCH   6   7
ATOM      7  C   UNL     1     -41.704 -43.767  70.788  1.00  0.00     0.000 C 
BRANCH   7   8
ATOM      8  C   UNL     1     -42.131 -43.446  69.347  1.00  0.00     0.000 C 
BRANCH   8   9
ATOM      9  C   UNL     1     -43.100 -42.255  69.263  1.00  0.00     0.000 C 
BRANCH   9  10
ATOM     10  C   UNL     1     -42.387 -40.903  69.446  1.00  0.00     0.000 C 
BRANCH  10  11
ATOM     11  C   UNL     1     -42.898 -40.113  70.665  1.00  0.00     0.000 C 
BRANCH  11  12
ATOM     12  C   UNL     1     -44.129 -40.715  71.369  1.00  0.00     0.006 C 
BRANCH  12  13
ATOM     13  C   UNL     1     -45.051 -39.652  71.982  1.00  0.00     0.053 C 
BRANCH  13  14
ATOM     14  C   UNL     1     -45.572 -40.111  73.307  1.00  0.00     0.041 C 
ATOM     15  O   UNL     1     -46.661 -39.659  73.749  1.00  0.00    -0.550 OA
ATOM     16  O   UNL     1     -44.884 -41.079  74.029  1.00  0.00    -0.550 OA
ENDBRANCH  13  14
ENDBRANCH  12  13
ENDBRANCH  11  12
ENDBRANCH  10  11
ENDBRANCH   9  10
ENDBRANCH   8   9
ENDBRANCH   7   8
ENDBRANCH   6   7
ENDBRANCH   5   6
ENDBRANCH   4   5
ENDBRANCH   3   4
ENDBRANCH   2   3
ENDBRANCH   1   2
BRANCH   1  17
ATOM     17  C   UNL     1     -48.243 -47.927  70.770  1.00  0.00     0.000 C 
BRANCH  17  18
ATOM     18  C   UNL     1     -48.274 -49.470  70.763  1.00  0.00     0.000 C 
BRANCH  18  19
ATOM     19  C   UNL     1     -49.263 -50.102  69.767  1.00  0.00     0.000 C 
BRANCH  19  20
ATOM     20  C   UNL     1     -50.451 -49.204  69.374  1.00  0.00     0.000 C 
BRANCH  20  21
ATOM     21  C   UNL     1     -50.674 -49.099  67.849  1.00  0.00     0.000 C 
BRANCH  21  22
ATOM     22  C   UNL     1     -50.284 -47.720  67.291  1.00  0.00    -0.000 C 
BRANCH  22  23
ATOM     23  C   UNL     1     -48.761 -47.521  67.220  1.00  0.00    -0.000 C 
BRANCH  23  24
ATOM     24  C   UNL     1     -48.084 -48.485  66.230  1.00  0.00    -0.000 C 
BRANCH  24  25
ATOM     25  C   UNL     1     -47.076 -49.422  66.914  1.00  0.00    -0.000 C 
BRANCH  25  26
ATOM     26  C   UNL     1     -45.776 -48.705  67.302  1.00  0.00    -0.000 C 
BRANCH  26  27
ATOM     27  C   UNL     1     -44.654 -49.712  67.583  1.00  0.00    -0.000 C 
BRANCH  27  28
ATOM     28  C   UNL     1     -43.275 -49.068  67.397  1.00  0.00    -0.000 C 
BRANCH  28  29
ATOM     29  C   UNL     1     -43.396 -47.555  67.192  1.00  0.00    -0.003 C 
ATOM     30  C   UNL     1     -42.153 -46.828  67.696  1.00  0.00     0.004 C 
ENDBRANCH  28  29
ENDBRANCH  27  28
ENDBRANCH  26  27
ENDBRANCH  25  26
ENDBRANCH  24  25
ENDBRANCH  23  24
ENDBRANCH  22  23
ENDBRANCH  21  22
ENDBRANCH  20  21
ENDBRANCH  19  20
ENDBRANCH  18  19
ENDBRANCH  17  18
ENDBRANCH   1  17
TORSDOF 26
ENDMDL
MODEL 2
REMARK VINA RESULT:    -3.564      3.485      7.810
REMARK INTER + INTRA:         -12.974
REMARK INTER:                  -7.723
REMARK INTRA:                  -5.252
REMARK UNBOUND:                -3.994
REMARK SMILES CCCCCCCCCCCCCCCCCCCCCCCCCCCC(=O)[O-]
REMARK SMILES IDX 15 1 16 2 17 3 18 4 19 5 20 6 21 7 22 8 23 9 24 10 25 11
REMARK SMILES IDX 26 12 27 13 28 14 29 15 30 16 14 17 13 18 12 19 11 20 10 21
REMARK SMILES IDX 9 22 8 23 7 24 6 25 5 26 4 27 3 28 2 29 1 30
REMARK H PARENT
REMARK Flexibility Score: inf
ROOT
ATOM      1  C   UNL     1     -49.535 -48.684  71.032  1.00  0.00     0.000 C 
ENDROOT
BRANCH   1   2
ATOM      2  C   UNL     1     -49.999 -50.129  71.280  1.00  0.00     0.000 C 
BRANCH   2   3
ATOM      3  C   UNL     1     -50.181 -50.925  69.975  1.00  0.00     0.000 C 
BRANCH   3   4
ATOM      4  C   UNL     1     -49.552 -52.334  69.979  1.00  0.00     0.000 C 
BRANCH   4   5
ATOM      5  C   UNL     1     -48.221 -52.456  69.215  1.00  0.00     0.000 C 
BRANCH   5   6
ATOM      6  C   UNL     1     -47.004 -52.079  70.073  1.00  0.00     0.000 C 
BRANCH   6   7
ATOM      7  C   UNL     1     -45.961 -51.317  69.247  1.00  0.00     0.000 C 
BRANCH   7   8
ATOM      8  C   UNL     1     -46.554 -50.860  67.906  1.00  0.00     0.000 C 
BRANCH   8   9
ATOM      9  C   UNL     1     -46.084 -49.456  67.492  1.00  0.00     0.000 C 
BRANCH   9  10
ATOM     10  C   UNL     1     -47.245 -48.562  67.020  1.00  0.00     0.000 C 
BRANCH  10  11
ATOM     11  C   UNL     1     -48.601 -49.289  67.013  1.00  0.00     0.000 C 
BRANCH  11  12
ATOM     12  C   UNL     1     -49.813 -48.422  67.405  1.00  0.00     0.006 C 
BRANCH  12  13
ATOM     13  C   UNL     1     -49.648 -46.947  67.012  1.00  0.00     0.053 C 
BRANCH  13  14
ATOM     14  C   UNL     1     -50.280 -46.684  65.682  1.00  0.00     0.041 C 
ATOM     15  O   UNL     1     -51.534 -46.716  65.560  1.00  0.00    -0.550 OA
ATOM     16  O   UNL     1     -49.490 -46.349  64.589  1.00  0.00    -0.550 OA
ENDBRANCH  13  14
ENDBRANCH  12  13
ENDBRANCH  11  12
ENDBRANCH  10  11
ENDBRANCH   9  10
ENDBRANCH   8   9
ENDBRANCH   7   8
ENDBRANCH   6   7
ENDBRANCH   5   6
ENDBRANCH   4   5
ENDBRANCH   3   4
ENDBRANCH   2   3
ENDBRANCH   1   2
BRANCH   1  17
ATOM     17  C   UNL     1     -48.024 -48.581  70.759  1.00  0.00     0.000 C 
BRANCH  17  18
ATOM     18  C   UNL     1     -47.519 -47.168  70.402  1.00  0.00     0.000 C 
BRANCH  18  19
ATOM     19  C   UNL     1     -46.000 -46.959  70.539  1.00  0.00     0.000 C 
BRANCH  19  20
ATOM     20  C   UNL     1     -45.205 -48.218  70.934  1.00  0.00     0.000 C 
BRANCH  20  21
ATOM     21  C   UNL     1     -43.836 -48.337  70.228  1.00  0.00     0.000 C 
BRANCH  21  22
ATOM     22  C   UNL     1     -43.645 -47.275  69.132  1.00  0.00    -0.000 C 
BRANCH  22  23
ATOM     23  C   UNL     1     -42.275 -47.380  68.441  1.00  0.00    -0.000 C 
BRANCH  23  24
ATOM     24  C   UNL     1     -41.547 -46.027  68.362  1.00  0.00    -0.000 C 
BRANCH  24  25
ATOM     25  C   UNL     1     -42.442 -44.905  67.812  1.00  0.00    -0.000 C 
BRANCH  25  26
ATOM     26  C   UNL     1     -42.187 -43.557  68.501  1.00  0.00    -0.000 C 
BRANCH  26  27
ATOM     27  C   UNL     1     -43.360 -43.172  69.410  1.00  0.00    -0.000 C 
BRANCH  27  28
ATOM     28  C   UNL     1     -42.875 -42.845  70.827  1.00  0.00    -0.000 C 
BRANCH  28  29
ATOM     29  C   UNL     1     -42.080 -44.011  71.422  1.00  0.00    -0.003 C 
ATOM     30  C   UNL     1     -43.007 -45.117  71.918  1.00  0.00     0.004 C 
ENDBRANCH  28  29
ENDBRANCH  27  28
ENDBRANCH  26  27
ENDBRANCH  25  26
ENDBRANCH  24  25
ENDBRANCH  23  24
ENDBRANCH  22  23
ENDBRANCH  21  22
ENDBRANCH  20  21
ENDBRANCH  19  20
ENDBRANCH  18  19
ENDBRANCH  17  18
ENDBRANCH   1  17
TORSDOF 26
ENDMDL
MODEL 3
REMARK VINA RESULT:    -3.550      2.407      5.853
REMARK INTER + INTRA:         -12.939
REMARK INTER:                  -8.214
REMARK INTRA:                  -4.725
REMARK UNBOUND:                -3.994
REMARK SMILES CCCCCCCCCCCCCCCCCCCCCCCCCCCC(=O)[O-]
REMARK SMILES IDX 15 1 16 2 17 3 18 4 19 5 20 6 21 7 22 8 23 9 24 10 25 11
REMARK SMILES IDX 26 12 27 13 28 14 29 15 30 16 14 17 13 18 12 19 11 20 10 21
REMARK SMILES IDX 9 22 8 23 7 24 6 25 5 26 4 27 3 28 2 29 1 30
REMARK H PARENT
REMARK Flexibility Score: inf
ROOT
ATOM      1  C   UNL     1     -44.874 -49.784  70.387  1.00  0.00     0.000 C 
ENDROOT
BRANCH   1   2
ATOM      2  C   UNL     1     -46.258 -49.114  70.385  1.00  0.00     0.000 C 
BRANCH   2   3
ATOM      3  C   UNL     1     -46.243 -47.720  71.037  1.00  0.00     0.000 C 
BRANCH   3   4
ATOM      4  C   UNL     1     -45.207 -46.739  70.450  1.00  0.00     0.000 C 
BRANCH   4   5
ATOM      5  C   UNL     1     -44.162 -46.216  71.453  1.00  0.00     0.000 C 
BRANCH   5   6
ATOM      6  C   UNL     1     -42.841 -46.999  71.398  1.00  0.00     0.000 C 
BRANCH   6   7
ATOM      7  C   UNL     1     -41.668 -46.136  71.880  1.00  0.00     0.000 C 
BRANCH   7   8
ATOM      8  C   UNL     1     -42.140 -45.103  72.915  1.00  0.00     0.000 C 
BRANCH   8   9
ATOM      9  C   UNL     1     -42.253 -45.687  74.334  1.00  0.00     0.000 C 
BRANCH   9  10
ATOM     10  C   UNL     1     -43.361 -45.011  75.161  1.00  0.00     0.000 C 
BRANCH  10  11
ATOM     11  C   UNL     1     -44.057 -43.861  74.411  1.00  0.00     0.000 C 
BRANCH  11  12
ATOM     12  C   UNL     1     -44.060 -42.506  75.145  1.00  0.00     0.006 C 
BRANCH  12  13
ATOM     13  C   UNL     1     -44.089 -41.305  74.190  1.00  0.00     0.053 C 
BRANCH  13  14
ATOM     14  C   UNL     1     -45.363 -40.537  74.351  1.00  0.00     0.041 C 
ATOM     15  O   UNL     1     -46.096 -40.311  73.351  1.00  0.00    -0.550 OA
ATOM     16  O   UNL     1     -45.770 -40.120  75.612  1.00  0.00    -0.550 OA
ENDBRANCH  13  14
ENDBRANCH  12  13
ENDBRANCH  11  12
ENDBRANCH  10  11
ENDBRANCH   9  10
ENDBRANCH   8   9
ENDBRANCH   7   8
ENDBRANCH   6   7
ENDBRANCH   5   6
ENDBRANCH   4   5
ENDBRANCH   3   4
ENDBRANCH   2   3
ENDBRANCH   1   2
BRANCH   1  17
ATOM     17  C   UNL     1     -44.511 -50.408  69.029  1.00  0.00     0.000 C 
BRANCH  17  18
ATOM     18  C   UNL     1     -43.479 -49.614  68.200  1.00  0.00     0.000 C 
BRANCH  18  19
ATOM     19  C   UNL     1     -44.057 -48.451  67.374  1.00  0.00     0.000 C 
BRANCH  19  20
ATOM     20  C   UNL     1     -43.190 -47.177  67.351  1.00  0.00     0.000 C 
BRANCH  20  21
ATOM     21  C   UNL     1     -41.759 -47.388  67.892  1.00  0.00     0.000 C 
BRANCH  21  22
ATOM     22  C   UNL     1     -41.044 -46.061  68.198  1.00  0.00    -0.000 C 
BRANCH  22  23
ATOM     23  C   UNL     1     -41.857 -44.835  67.748  1.00  0.00    -0.000 C 
BRANCH  23  24
ATOM     24  C   UNL     1     -41.938 -43.747  68.834  1.00  0.00    -0.000 C 
BRANCH  24  25
ATOM     25  C   UNL     1     -43.385 -43.408  69.223  1.00  0.00    -0.000 C 
BRANCH  25  26
ATOM     26  C   UNL     1     -43.481 -42.146  70.091  1.00  0.00    -0.000 C 
BRANCH  26  27
ATOM     27  C   UNL     1     -42.211 -41.958  70.931  1.00  0.00    -0.000 C 
BRANCH  27  28
ATOM     28  C   UNL     1     -41.768 -40.491  70.941  1.00  0.00    -0.000 C 
BRANCH  28  29
ATOM     29  C   UNL     1     -42.021 -39.828  69.582  1.00  0.00    -0.003 C 
ATOM     30  C   UNL     1     -40.914 -40.166  68.588  1.00  0.00     0.004 C 
ENDBRANCH  28  29
ENDBRANCH  27  28
ENDBRANCH  26  27
ENDBRANCH  25  26
ENDBRANCH  24  25
ENDBRANCH  23  24
ENDBRANCH  22  23
ENDBRANCH  21  22
ENDBRANCH  20  21
ENDBRANCH  19  20
ENDBRANCH  18  19
ENDBRANCH  17  18
ENDBRANCH   1  17
TORSDOF 26
ENDMDL
MODEL 4
REMARK VINA RESULT:    -3.513      3.691      7.980
REMARK INTER + INTRA:         -12.846
REMARK INTER:                  -7.807
REMARK INTRA:                  -5.039
REMARK UNBOUND:                -3.994
REMARK SMILES CCCCCCCCCCCCCCCCCCCCCCCCCCCC(=O)[O-]
REMARK SMILES IDX 15 1 16 2 17 3 18 4 19 5 20 6 21 7 22 8 23 9 24 10 25 11
REMARK SMILES IDX 26 12 27 13 28 14 29 15 30 16 14 17 13 18 12 19 11 20 10 21
REMARK SMILES IDX 9 22 8 23 7 24 6 25 5 26 4 27 3 28 2 29 1 30
REMARK H PARENT
REMARK Flexibility Score: inf
ROOT
ATOM      1  C   UNL     1     -46.293 -47.355  70.633  1.00  0.00     0.000 C 
ENDROOT
BRANCH   1   2
ATOM      2  C   UNL     1     -47.808 -47.428  70.885  1.00  0.00     0.000 C 
BRANCH   2   3
ATOM      3  C   UNL     1     -48.356 -48.864  70.789  1.00  0.00     0.000 C 
BRANCH   3   4
ATOM      4  C   UNL     1     -49.182 -49.161  69.521  1.00  0.00     0.000 C 
BRANCH   4   5
ATOM      5  C   UNL     1     -49.075 -48.100  68.410  1.00  0.00     0.000 C 
BRANCH   5   6
ATOM      6  C   UNL     1     -47.880 -48.337  67.474  1.00  0.00     0.000 C 
BRANCH   6   7
ATOM      7  C   UNL     1     -47.728 -49.826  67.139  1.00  0.00     0.000 C 
BRANCH   7   8
ATOM      8  C   UNL     1     -46.561 -50.051  66.164  1.00  0.00     0.000 C 
BRANCH   8   9
ATOM      9  C   UNL     1     -46.265 -48.819  65.293  1.00  0.00     0.000 C 
BRANCH   9  10
ATOM     10  C   UNL     1     -47.067 -48.822  63.979  1.00  0.00     0.000 C 
BRANCH  10  11
ATOM     11  C   UNL     1     -48.300 -47.901  64.022  1.00  0.00     0.000 C 
BRANCH  11  12
ATOM     12  C   UNL     1     -49.659 -48.626  64.052  1.00  0.00     0.006 C 
BRANCH  12  13
ATOM     13  C   UNL     1     -50.849 -47.682  63.836  1.00  0.00     0.053 C 
BRANCH  13  14
ATOM     14  C   UNL     1     -50.672 -46.425  64.630  1.00  0.00     0.041 C 
ATOM     15  O   UNL     1     -50.788 -46.448  65.884  1.00  0.00    -0.550 OA
ATOM     16  O   UNL     1     -50.324 -45.242  63.991  1.00  0.00    -0.550 OA
ENDBRANCH  13  14
ENDBRANCH  12  13
ENDBRANCH  11  12
ENDBRANCH  10  11
ENDBRANCH   9  10
ENDBRANCH   8   9
ENDBRANCH   7   8
ENDBRANCH   6   7
ENDBRANCH   5   6
ENDBRANCH   4   5
ENDBRANCH   3   4
ENDBRANCH   2   3
ENDBRANCH   1   2
BRANCH   1  17
ATOM     17  C   UNL     1     -45.599 -48.722  70.762  1.00  0.00     0.000 C 
BRANCH  17  18
ATOM     18  C   UNL     1     -44.894 -49.221  69.483  1.00  0.00     0.000 C 
BRANCH  18  19
ATOM     19  C   UNL     1     -44.353 -48.116  68.559  1.00  0.00     0.000 C 
BRANCH  19  20
ATOM     20  C   UNL     1     -43.083 -48.492  67.772  1.00  0.00     0.000 C 
BRANCH  20  21
ATOM     21  C   UNL     1     -42.023 -47.370  67.727  1.00  0.00     0.000 C 
BRANCH  21  22
ATOM     22  C   UNL     1     -42.392 -46.249  66.741  1.00  0.00    -0.000 C 
BRANCH  22  23
ATOM     23  C   UNL     1     -41.892 -44.870  67.201  1.00  0.00    -0.000 C 
BRANCH  23  24
ATOM     24  C   UNL     1     -41.688 -44.791  68.724  1.00  0.00    -0.000 C 
BRANCH  24  25
ATOM     25  C   UNL     1     -42.907 -44.203  69.453  1.00  0.00    -0.000 C 
BRANCH  25  26
ATOM     26  C   UNL     1     -43.372 -45.080  70.624  1.00  0.00    -0.000 C 
BRANCH  26  27
ATOM     27  C   UNL     1     -42.178 -45.735  71.329  1.00  0.00    -0.000 C 
BRANCH  27  28
ATOM     28  C   UNL     1     -42.432 -47.227  71.572  1.00  0.00    -0.000 C 
BRANCH  28  29
ATOM     29  C   UNL     1     -41.192 -48.061  71.233  1.00  0.00    -0.003 C 
ATOM     30  C   UNL     1     -41.555 -49.526  71.012  1.00  0.00     0.004 C 
ENDBRANCH  28  29
ENDBRANCH  27  28
ENDBRANCH  26  27
ENDBRANCH  25  26
ENDBRANCH  24  25
ENDBRANCH  23  24
ENDBRANCH  22  23
ENDBRANCH  21  22
ENDBRANCH  20  21
ENDBRANCH  19  20
ENDBRANCH  18  19
ENDBRANCH  17  18
ENDBRANCH   1  17
TORSDOF 26
ENDMDL
MODEL 5
REMARK VINA RESULT:    -3.492      3.386      8.196
REMARK INTER + INTRA:         -12.792
REMARK INTER:                  -8.141
REMARK INTRA:                  -4.652
REMARK UNBOUND:                -3.994
REMARK SMILES CCCCCCCCCCCCCCCCCCCCCCCCCCCC(=O)[O-]
REMARK SMILES IDX 15 1 16 2 17 3 18 4 19 5 20 6 21 7 22 8 23 9 24 10 25 11
REMARK SMILES IDX 26 12 27 13 28 14 29 15 30 16 14 17 13 18 12 19 11 20 10 21
REMARK SMILES IDX 9 22 8 23 7 24 6 25 5 26 4 27 3 28 2 29 1 30
REMARK H PARENT
REMARK Flexibility Score: inf
ROOT
ATOM      1  C   UNL     1     -41.143 -46.769  70.930  1.00  0.00     0.000 C 
ENDROOT
BRANCH   1   2
ATOM      2  C   UNL     1     -42.211 -47.812  70.561  1.00  0.00     0.000 C 
BRANCH   2   3
ATOM      3  C   UNL     1     -43.338 -47.225  69.692  1.00  0.00     0.000 C 
BRANCH   3   4
ATOM      4  C   UNL     1     -44.392 -46.403  70.463  1.00  0.00     0.000 C 
BRANCH   4   5
ATOM      5  C   UNL     1     -45.347 -47.229  71.343  1.00  0.00     0.000 C 
BRANCH   5   6
ATOM      6  C   UNL     1     -45.694 -48.593  70.727  1.00  0.00     0.000 C 
BRANCH   6   7
ATOM      7  C   UNL     1     -47.205 -48.854  70.781  1.00  0.00     0.000 C 
BRANCH   7   8
ATOM      8  C   UNL     1     -47.990 -47.537  70.692  1.00  0.00     0.000 C 
BRANCH   8   9
ATOM      9  C   UNL     1     -48.152 -47.034  69.248  1.00  0.00     0.000 C 
BRANCH   9  10
ATOM     10  C   UNL     1     -48.737 -48.108  68.313  1.00  0.00     0.000 C 
BRANCH  10  11
ATOM     11  C   UNL     1     -47.925 -48.286  67.017  1.00  0.00     0.000 C 
BRANCH  11  12
ATOM     12  C   UNL     1     -46.764 -49.294  67.103  1.00  0.00     0.006 C 
BRANCH  12  13
ATOM     13  C   UNL     1     -45.384 -48.634  66.977  1.00  0.00     0.053 C 
BRANCH  13  14
ATOM     14  C   UNL     1     -44.301 -49.663  67.053  1.00  0.00     0.041 C 
ATOM     15  O   UNL     1     -43.439 -49.742  66.138  1.00  0.00    -0.550 OA
ATOM     16  O   UNL     1     -44.208 -50.497  68.160  1.00  0.00    -0.550 OA
ENDBRANCH  13  14
ENDBRANCH  12  13
ENDBRANCH  11  12
ENDBRANCH  10  11
ENDBRANCH   9  10
ENDBRANCH   8   9
ENDBRANCH   7   8
ENDBRANCH   6   7
ENDBRANCH   5   6
ENDBRANCH   4   5
ENDBRANCH   3   4
ENDBRANCH   2   3
ENDBRANCH   1   2
BRANCH   1  17
ATOM     17  C   UNL     1     -40.924 -46.653  72.449  1.00  0.00     0.000 C 
BRANCH  17  18
ATOM     18  C   UNL     1     -42.163 -46.214  73.257  1.00  0.00     0.000 C 
BRANCH  18  19
ATOM     19  C   UNL     1     -42.178 -44.735  73.683  1.00  0.00     0.000 C 
BRANCH  19  20
ATOM     20  C   UNL     1     -42.569 -43.743  72.570  1.00  0.00     0.000 C 
BRANCH  20  21
ATOM     21  C   UNL     1     -43.088 -42.388  73.099  1.00  0.00     0.000 C 
BRANCH  21  22
ATOM     22  C   UNL     1     -43.249 -41.343  71.981  1.00  0.00    -0.000 C 
BRANCH  22  23
ATOM     23  C   UNL     1     -41.944 -41.105  71.203  1.00  0.00    -0.000 C 
BRANCH  23  24
ATOM     24  C   UNL     1     -42.135 -41.212  69.680  1.00  0.00    -0.000 C 
BRANCH  24  25
ATOM     25  C   UNL     1     -43.346 -42.077  69.296  1.00  0.00    -0.000 C 
BRANCH  25  26
ATOM     26  C   UNL     1     -42.948 -43.511  68.918  1.00  0.00    -0.000 C 
BRANCH  26  27
ATOM     27  C   UNL     1     -41.425 -43.645  68.793  1.00  0.00    -0.000 C 
BRANCH  27  28
ATOM     28  C   UNL     1     -41.048 -44.620  67.672  1.00  0.00    -0.000 C 
BRANCH  28  29
ATOM     29  C   UNL     1     -42.297 -45.183  66.985  1.00  0.00    -0.003 C 
ATOM     30  C   UNL     1     -41.981 -46.473  66.234  1.00  0.00     0.004 C 
ENDBRANCH  28  29
ENDBRANCH  27  28
ENDBRANCH  26  27
ENDBRANCH  25  26
ENDBRANCH  24  25
ENDBRANCH  23  24
ENDBRANCH  22  23
ENDBRANCH  21  22
ENDBRANCH  20  21
ENDBRANCH  19  20
ENDBRANCH  18  19
ENDBRANCH  17  18
ENDBRANCH   1  17
TORSDOF 26
ENDMDL
MODEL 6
REMARK VINA RESULT:    -3.486      2.320      4.039
REMARK INTER + INTRA:         -12.778
REMARK INTER:                  -8.305
REMARK INTRA:                  -4.474
REMARK UNBOUND:                -3.994
REMARK SMILES CCCCCCCCCCCCCCCCCCCCCCCCCCCC(=O)[O-]
REMARK SMILES IDX 15 1 16 2 17 3 18 4 19 5 20 6 21 7 22 8 23 9 24 10 25 11
REMARK SMILES IDX 26 12 27 13 28 14 29 15 30 16 14 17 13 18 12 19 11 20 10 21
REMARK SMILES IDX 9 22 8 23 7 24 6 25 5 26 4 27 3 28 2 29 1 30
REMARK H PARENT
REMARK Flexibility Score: inf
ROOT
ATOM      1  C   UNL     1     -46.037 -47.072  70.519  1.00  0.00     0.000 C 
ENDROOT
BRANCH   1   2
ATOM      2  C   UNL     1     -45.507 -48.494  70.766  1.00  0.00     0.000 C 
BRANCH   2   3
ATOM      3  C   UNL     1     -44.070 -48.689  70.250  1.00  0.00     0.000 C 
BRANCH   3   4
ATOM      4  C   UNL     1     -43.716 -47.872  68.990  1.00  0.00     0.000 C 
BRANCH   4   5
ATOM      5  C   UNL     1     -42.245 -47.968  68.543  1.00  0.00     0.000 C 
BRANCH   5   6
ATOM      6  C   UNL     1     -41.716 -46.652  67.952  1.00  0.00     0.000 C 
BRANCH   6   7
ATOM      7  C   UNL     1     -42.657 -45.485  68.272  1.00  0.00     0.000 C 
BRANCH   7   8
ATOM      8  C   UNL     1     -41.871 -44.283  68.819  1.00  0.00     0.000 C 
BRANCH   8   9
ATOM      9  C   UNL     1     -41.931 -44.179  70.352  1.00  0.00     0.000 C 
BRANCH   9  10
ATOM     10  C   UNL     1     -43.226 -44.773  70.933  1.00  0.00     0.000 C 
BRANCH  10  11
ATOM     11  C   UNL     1     -42.982 -45.661  72.166  1.00  0.00     0.000 C 
BRANCH  11  12
ATOM     12  C   UNL     1     -44.084 -45.606  73.242  1.00  0.00     0.006 C 
BRANCH  12  13
ATOM     13  C   UNL     1     -43.549 -45.225  74.630  1.00  0.00     0.053 C 
BRANCH  13  14
ATOM     14  C   UNL     1     -43.991 -43.845  75.002  1.00  0.00     0.041 C 
ATOM     15  O   UNL     1     -44.387 -43.602  76.173  1.00  0.00    -0.550 OA
ATOM     16  O   UNL     1     -43.914 -42.815  74.073  1.00  0.00    -0.550 OA
ENDBRANCH  13  14
ENDBRANCH  12  13
ENDBRANCH  11  12
ENDBRANCH  10  11
ENDBRANCH   9  10
ENDBRANCH   8   9
ENDBRANCH   7   8
ENDBRANCH   6   7
ENDBRANCH   5   6
ENDBRANCH   4   5
ENDBRANCH   3   4
ENDBRANCH   2   3
ENDBRANCH   1   2
BRANCH   1  17
ATOM     17  C   UNL     1     -47.537 -47.046  70.176  1.00  0.00     0.000 C 
BRANCH  17  18
ATOM     18  C   UNL     1     -48.440 -47.860  71.126  1.00  0.00     0.000 C 
BRANCH  18  19
ATOM     19  C   UNL     1     -49.312 -48.930  70.446  1.00  0.00     0.000 C 
BRANCH  19  20
ATOM     20  C   UNL     1     -48.884 -50.385  70.716  1.00  0.00     0.000 C 
BRANCH  20  21
ATOM     21  C   UNL     1     -47.842 -50.924  69.711  1.00  0.00     0.000 C 
BRANCH  21  22
ATOM     22  C   UNL     1     -48.084 -50.413  68.281  1.00  0.00    -0.000 C 
BRANCH  22  23
ATOM     23  C   UNL     1     -46.793 -49.929  67.601  1.00  0.00    -0.000 C 
BRANCH  23  24
ATOM     24  C   UNL     1     -46.979 -48.591  66.863  1.00  0.00    -0.000 C 
BRANCH  24  25
ATOM     25  C   UNL     1     -48.432 -48.094  66.900  1.00  0.00    -0.000 C 
BRANCH  25  26
ATOM     26  C   UNL     1     -48.929 -47.628  65.524  1.00  0.00    -0.000 C 
BRANCH  26  27
ATOM     27  C   UNL     1     -48.273 -48.437  64.398  1.00  0.00    -0.000 C 
BRANCH  27  28
ATOM     28  C   UNL     1     -47.696 -47.513  63.319  1.00  0.00    -0.000 C 
BRANCH  28  29
ATOM     29  C   UNL     1     -48.598 -46.294  63.096  1.00  0.00    -0.003 C 
ATOM     30  C   UNL     1     -49.612 -46.553  61.986  1.00  0.00     0.004 C 
ENDBRANCH  28  29
ENDBRANCH  27  28
ENDBRANCH  26  27
ENDBRANCH  25  26
ENDBRANCH  24  25
ENDBRANCH  23  24
ENDBRANCH  22  23
ENDBRANCH  21  22
ENDBRANCH  20  21
ENDBRANCH  19  20
ENDBRANCH  18  19
ENDBRANCH  17  18
ENDBRANCH   1  17
TORSDOF 26
ENDMDL
MODEL 7
REMARK VINA RESULT:    -3.481      3.852      8.446
REMARK INTER + INTRA:         -12.766
REMARK INTER:                  -7.257
REMARK INTRA:                  -5.509
REMARK UNBOUND:                -3.994
REMARK SMILES CCCCCCCCCCCCCCCCCCCCCCCCCCCC(=O)[O-]
REMARK SMILES IDX 15 1 16 2 17 3 18 4 19 5 20 6 21 7 22 8 23 9 24 10 25 11
REMARK SMILES IDX 26 12 27 13 28 14 29 15 30 16 14 17 13 18 12 19 11 20 10 21
REMARK SMILES IDX 9 22 8 23 7 24 6 25 5 26 4 27 3 28 2 29 1 30
REMARK H PARENT
REMARK Flexibility Score: inf
ROOT
ATOM      1  C   UNL     1     -44.436 -46.244  70.694  1.00  0.00     0.000 C 
ENDROOT
BRANCH   1   2
ATOM      2  C   UNL     1     -45.650 -46.937  71.334  1.00  0.00     0.000 C 
BRANCH   2   3
ATOM      3  C   UNL     1     -46.886 -46.933  70.418  1.00  0.00     0.000 C 
BRANCH   3   4
ATOM      4  C   UNL     1     -48.019 -47.888  70.849  1.00  0.00     0.000 C 
BRANCH   4   5
ATOM      5  C   UNL     1     -48.092 -49.209  70.062  1.00  0.00     0.000 C 
BRANCH   5   6
ATOM      6  C   UNL     1     -47.310 -50.348  70.735  1.00  0.00     0.000 C 
BRANCH   6   7
ATOM      7  C   UNL     1     -46.230 -50.904  69.799  1.00  0.00     0.000 C 
BRANCH   7   8
ATOM      8  C   UNL     1     -44.894 -50.175  70.013  1.00  0.00     0.000 C 
BRANCH   8   9
ATOM      9  C   UNL     1     -44.091 -50.005  68.713  1.00  0.00     0.000 C 
BRANCH   9  10
ATOM     10  C   UNL     1     -44.255 -48.602  68.101  1.00  0.00     0.000 C 
BRANCH  10  11
ATOM     11  C   UNL     1     -45.023 -48.613  66.767  1.00  0.00     0.000 C 
BRANCH  11  12
ATOM     12  C   UNL     1     -46.559 -48.611  66.893  1.00  0.00     0.006 C 
BRANCH  12  13
ATOM     13  C   UNL     1     -47.248 -49.514  65.862  1.00  0.00     0.053 C 
BRANCH  13  14
ATOM     14  C   UNL     1     -47.528 -50.862  66.448  1.00  0.00     0.041 C 
ATOM     15  O   UNL     1     -46.649 -51.764  66.407  1.00  0.00    -0.550 OA
ATOM     16  O   UNL     1     -48.736 -51.105  67.090  1.00  0.00    -0.550 OA
ENDBRANCH  13  14
ENDBRANCH  12  13
ENDBRANCH  11  12
ENDBRANCH  10  11
ENDBRANCH   9  10
ENDBRANCH   8   9
ENDBRANCH   7   8
ENDBRANCH   6   7
ENDBRANCH   5   6
ENDBRANCH   4   5
ENDBRANCH   3   4
ENDBRANCH   2   3
ENDBRANCH   1   2
BRANCH   1  17
ATOM     17  C   UNL     1     -43.143 -46.435  71.506  1.00  0.00     0.000 C 
BRANCH  17  18
ATOM     18  C   UNL     1     -42.295 -47.661  71.106  1.00  0.00     0.000 C 
BRANCH  18  19
ATOM     19  C   UNL     1     -41.017 -47.343  70.309  1.00  0.00     0.000 C 
BRANCH  19  20
ATOM     20  C   UNL     1     -41.020 -45.979  69.593  1.00  0.00     0.000 C 
BRANCH  20  21
ATOM     21  C   UNL     1     -41.526 -46.042  68.135  1.00  0.00     0.000 C 
BRANCH  21  22
ATOM     22  C   UNL     1     -42.356 -44.806  67.747  1.00  0.00    -0.000 C 
BRANCH  22  23
ATOM     23  C   UNL     1     -42.112 -43.612  68.685  1.00  0.00    -0.000 C 
BRANCH  23  24
ATOM     24  C   UNL     1     -43.420 -42.941  69.140  1.00  0.00    -0.000 C 
BRANCH  24  25
ATOM     25  C   UNL     1     -43.238 -42.091  70.407  1.00  0.00    -0.000 C 
BRANCH  25  26
ATOM     26  C   UNL     1     -42.211 -42.693  71.376  1.00  0.00    -0.000 C 
BRANCH  26  27
ATOM     27  C   UNL     1     -42.846 -42.985  72.741  1.00  0.00    -0.000 C 
BRANCH  27  28
ATOM     28  C   UNL     1     -41.885 -43.771  73.640  1.00  0.00    -0.000 C 
BRANCH  28  29
ATOM     29  C   UNL     1     -40.583 -44.099  72.903  1.00  0.00    -0.003 C 
ATOM     30  C   UNL     1     -40.023 -45.449  73.342  1.00  0.00     0.004 C 
ENDBRANCH  28  29
ENDBRANCH  27  28
ENDBRANCH  26  27
ENDBRANCH  25  26
ENDBRANCH  24  25
ENDBRANCH  23  24
ENDBRANCH  22  23
ENDBRANCH  21  22
ENDBRANCH  20  21
ENDBRANCH  19  20
ENDBRANCH  18  19
ENDBRANCH  17  18
ENDBRANCH   1  17
TORSDOF 26
ENDMDL
MODEL 8
REMARK VINA RESULT:    -3.459      1.514      4.907
REMARK INTER + INTRA:         -12.710
REMARK INTER:                  -8.072
REMARK INTRA:                  -4.637
REMARK UNBOUND:                -3.994
REMARK SMILES CCCCCCCCCCCCCCCCCCCCCCCCCCCC(=O)[O-]
REMARK SMILES IDX 15 1 16 2 17 3 18 4 19 5 20 6 21 7 22 8 23 9 24 10 25 11
REMARK SMILES IDX 26 12 27 13 28 14 29 15 30 16 14 17 13 18 12 19 11 20 10 21
REMARK SMILES IDX 9 22 8 23 7 24 6 25 5 26 4 27 3 28 2 29 1 30
REMARK H PARENT
REMARK Flexibility Score: inf
ROOT
ATOM      1  C   UNL     1     -39.919 -45.932  67.992  1.00  0.00     0.000 C 
ENDROOT
BRANCH   1   2
ATOM      2  C   UNL     1     -39.918 -45.548  69.481  1.00  0.00     0.000 C 
BRANCH   2   3
ATOM      3  C   UNL     1     -40.301 -46.725  70.397  1.00  0.00     0.000 C 
BRANCH   3   4
ATOM      4  C   UNL     1     -41.433 -46.426  71.401  1.00  0.00     0.000 C 
BRANCH   4   5
ATOM      5  C   UNL     1     -41.664 -44.933  71.697  1.00  0.00     0.000 C 
BRANCH   5   6
ATOM      6  C   UNL     1     -43.116 -44.495  71.452  1.00  0.00     0.000 C 
BRANCH   6   7
ATOM      7  C   UNL     1     -43.403 -44.349  69.953  1.00  0.00     0.000 C 
BRANCH   7   8
ATOM      8  C   UNL     1     -43.545 -42.869  69.566  1.00  0.00     0.000 C 
BRANCH   8   9
ATOM      9  C   UNL     1     -42.189 -42.173  69.359  1.00  0.00     0.000 C 
BRANCH   9  10
ATOM     10  C   UNL     1     -42.183 -40.728  69.889  1.00  0.00     0.000 C 
BRANCH  10  11
ATOM     11  C   UNL     1     -43.382 -40.415  70.801  1.00  0.00     0.000 C 
BRANCH  11  12
ATOM     12  C   UNL     1     -43.030 -40.129  72.274  1.00  0.00     0.006 C 
BRANCH  12  13
ATOM     13  C   UNL     1     -42.823 -41.405  73.101  1.00  0.00     0.053 C 
BRANCH  13  14
ATOM     14  C   UNL     1     -43.994 -41.641  74.003  1.00  0.00     0.041 C 
ATOM     15  O   UNL     1     -43.914 -42.485  74.934  1.00  0.00    -0.550 OA
ATOM     16  O   UNL     1     -45.152 -40.888  73.852  1.00  0.00    -0.550 OA
ENDBRANCH  13  14
ENDBRANCH  12  13
ENDBRANCH  11  12
ENDBRANCH  10  11
ENDBRANCH   9  10
ENDBRANCH   8   9
ENDBRANCH   7   8
ENDBRANCH   6   7
ENDBRANCH   5   6
ENDBRANCH   4   5
ENDBRANCH   3   4
ENDBRANCH   2   3
ENDBRANCH   1   2
BRANCH   1  17
ATOM     17  C   UNL     1     -40.868 -45.060  67.152  1.00  0.00     0.000 C 
BRANCH  17  18
ATOM     18  C   UNL     1     -42.304 -45.607  67.010  1.00  0.00     0.000 C 
BRANCH  18  19
ATOM     19  C   UNL     1     -42.460 -47.116  67.268  1.00  0.00     0.000 C 
BRANCH  19  20
ATOM     20  C   UNL     1     -43.508 -47.488  68.334  1.00  0.00     0.000 C 
BRANCH  20  21
ATOM     21  C   UNL     1     -43.145 -48.747  69.152  1.00  0.00     0.000 C 
BRANCH  21  22
ATOM     22  C   UNL     1     -44.003 -48.893  70.420  1.00  0.00    -0.000 C 
BRANCH  22  23
ATOM     23  C   UNL     1     -45.249 -49.765  70.193  1.00  0.00    -0.000 C 
BRANCH  23  24
ATOM     24  C   UNL     1     -46.523 -49.144  70.794  1.00  0.00    -0.000 C 
BRANCH  24  25
ATOM     25  C   UNL     1     -46.430 -47.616  70.923  1.00  0.00    -0.000 C 
BRANCH  25  26
ATOM     26  C   UNL     1     -47.418 -46.887  70.002  1.00  0.00    -0.000 C 
BRANCH  26  27
ATOM     27  C   UNL     1     -48.357 -47.879  69.306  1.00  0.00    -0.000 C 
BRANCH  27  28
ATOM     28  C   UNL     1     -48.735 -47.390  67.903  1.00  0.00    -0.000 C 
BRANCH  28  29
ATOM     29  C   UNL     1     -48.239 -48.361  66.827  1.00  0.00    -0.003 C 
ATOM     30  C   UNL     1     -46.754 -48.667  67.000  1.00  0.00     0.004 C 
ENDBRANCH  28  29
ENDBRANCH  27  28
ENDBRANCH  26  27
ENDBRANCH  25  26
ENDBRANCH  24  25
ENDBRANCH  23  24
ENDBRANCH  22  23
ENDBRANCH  21  22
ENDBRANCH  20  21
ENDBRANCH  19  20
ENDBRANCH  18  19
ENDBRANCH  17  18
ENDBRANCH   1  17
TORSDOF 26
ENDMDL
MODEL 9
REMARK VINA RESULT:    -3.413      3.882      8.119
REMARK INTER + INTRA:         -12.595
REMARK INTER:                  -7.619
REMARK INTRA:                  -4.976
REMARK UNBOUND:                -3.994
REMARK SMILES CCCCCCCCCCCCCCCCCCCCCCCCCCCC(=O)[O-]
REMARK SMILES IDX 15 1 16 2 17 3 18 4 19 5 20 6 21 7 22 8 23 9 24 10 25 11
REMARK SMILES IDX 26 12 27 13 28 14 29 15 30 16 14 17 13 18 12 19 11 20 10 21
REMARK SMILES IDX 9 22 8 23 7 24 6 25 5 26 4 27 3 28 2 29 1 30
REMARK H PARENT
REMARK Flexibility Score: inf
ROOT
ATOM      1  C   UNL     1     -48.400 -47.929  71.100  1.00  0.00     0.000 C 
ENDROOT
BRANCH   1   2
ATOM      2  C   UNL     1     -48.976 -49.137  70.343  1.00  0.00     0.000 C 
BRANCH   2   3
ATOM      3  C   UNL     1     -48.277 -50.458  70.714  1.00  0.00     0.000 C 
BRANCH   3   4
ATOM      4  C   UNL     1     -47.542 -51.154  69.550  1.00  0.00     0.000 C 
BRANCH   4   5
ATOM      5  C   UNL     1     -47.753 -50.511  68.168  1.00  0.00     0.000 C 
BRANCH   5   6
ATOM      6  C   UNL     1     -46.474 -49.870  67.607  1.00  0.00     0.000 C 
BRANCH   6   7
ATOM      7  C   UNL     1     -46.791 -48.571  66.857  1.00  0.00     0.000 C 
BRANCH   7   8
ATOM      8  C   UNL     1     -47.904 -48.795  65.822  1.00  0.00     0.000 C 
BRANCH   8   9
ATOM      9  C   UNL     1     -48.870 -47.603  65.715  1.00  0.00     0.000 C 
BRANCH   9  10
ATOM     10  C   UNL     1     -49.639 -47.351  67.025  1.00  0.00     0.000 C 
BRANCH  10  11
ATOM     11  C   UNL     1     -50.675 -48.446  67.337  1.00  0.00     0.000 C 
BRANCH  11  12
ATOM     12  C   UNL     1     -52.123 -48.114  66.928  1.00  0.00     0.006 C 
BRANCH  12  13
ATOM     13  C   UNL     1     -52.306 -46.654  66.495  1.00  0.00     0.053 C 
BRANCH  13  14
ATOM     14  C   UNL     1     -52.600 -46.574  65.030  1.00  0.00     0.041 C 
ATOM     15  O   UNL     1     -52.081 -45.664  64.329  1.00  0.00    -0.550 OA
ATOM     16  O   UNL     1     -53.401 -47.536  64.427  1.00  0.00    -0.550 OA
ENDBRANCH  13  14
ENDBRANCH  12  13
ENDBRANCH  11  12
ENDBRANCH  10  11
ENDBRANCH   9  10
ENDBRANCH   8   9
ENDBRANCH   7   8
ENDBRANCH   6   7
ENDBRANCH   5   6
ENDBRANCH   4   5
ENDBRANCH   3   4
ENDBRANCH   2   3
ENDBRANCH   1   2
BRANCH   1  17
ATOM     17  C   UNL     1     -47.359 -47.150  70.277  1.00  0.00     0.000 C 
BRANCH  17  18
ATOM     18  C   UNL     1     -45.934 -47.136  70.869  1.00  0.00     0.000 C 
BRANCH  18  19
ATOM     19  C   UNL     1     -45.173 -48.471  70.779  1.00  0.00     0.000 C 
BRANCH  19  20
ATOM     20  C   UNL     1     -43.870 -48.421  69.958  1.00  0.00     0.000 C 
BRANCH  20  21
ATOM     21  C   UNL     1     -43.848 -47.303  68.893  1.00  0.00     0.000 C 
BRANCH  21  22
ATOM     22  C   UNL     1     -42.419 -46.924  68.467  1.00  0.00    -0.000 C 
BRANCH  22  23
ATOM     23  C   UNL     1     -42.115 -45.432  68.685  1.00  0.00    -0.000 C 
BRANCH  23  24
ATOM     24  C   UNL     1     -43.068 -44.775  69.699  1.00  0.00    -0.000 C 
BRANCH  24  25
ATOM     25  C   UNL     1     -42.326 -43.929  70.745  1.00  0.00    -0.000 C 
BRANCH  25  26
ATOM     26  C   UNL     1     -42.790 -44.227  72.178  1.00  0.00    -0.000 C 
BRANCH  26  27
ATOM     27  C   UNL     1     -43.057 -45.725  72.370  1.00  0.00    -0.000 C 
BRANCH  27  28
ATOM     28  C   UNL     1     -41.841 -46.428  72.984  1.00  0.00    -0.000 C 
BRANCH  28  29
ATOM     29  C   UNL     1     -40.949 -47.038  71.897  1.00  0.00    -0.003 C 
ATOM     30  C   UNL     1     -40.748 -48.534  72.122  1.00  0.00     0.004 C 
ENDBRANCH  28  29
ENDBRANCH  27  28
ENDBRANCH  26  27
ENDBRANCH  25  26
ENDBRANCH  24  25
ENDBRANCH  23  24
ENDBRANCH  22  23
ENDBRANCH  21  22
ENDBRANCH  20  21
ENDBRANCH  19  20
ENDBRANCH  18  19
ENDBRANCH  17  18
ENDBRANCH   1  17
TORSDOF 26
ENDMDL
