MODEL 1
REMARK VINA RESULT:    -6.106      0.000      0.000
REMARK INTER + INTRA:          -9.390
REMARK INTER:                  -8.248
REMARK INTRA:                  -1.143
REMARK UNBOUND:                -1.143
REMARK SMILES CC(=O)CCC=C(C)CCC=C(C)C
REMARK SMILES IDX 7 1 6 2 8 3 9 4 10 5 11 6 13 7 12 8 14 9 5 10 4 11 2 12 3 13
REMARK SMILES IDX 1 14
REMARK H PARENT
REMARK Flexibility Score: inf
ROOT
ATOM      1  C   UNL     1      26.850  15.174  79.419  1.00  0.00    -0.077 C 
ATOM      2  C   UNL     1      28.142  14.793  79.540  1.00  0.00    -0.028 C 
ATOM      3  C   UNL     1      26.018  14.800  78.215  1.00  0.00     0.039 C 
ENDROOT
BRANCH   1   4
ATOM      4  C   UNL     1      26.192  15.953  80.540  1.00  0.00     0.034 C 
BRANCH   4   5
ATOM      5  C   UNL     1      25.493  15.028  81.546  1.00  0.00     0.032 C 
BRANCH   5   6
ATOM      6  C   UNL     1      26.377  14.693  82.726  1.00  0.00    -0.028 C 
ATOM      7  C   UNL     1      26.807  12.389  81.864  1.00  0.00     0.039 C 
ATOM      8  C   UNL     1      26.977  13.494  82.880  1.00  0.00    -0.080 C 
ATOM      9  C   UNL     1      27.837  13.266  84.096  1.00  0.00     0.039 C 
ENDBRANCH   5   6
ENDBRANCH   4   5
ENDBRANCH   1   4
BRANCH   2  10
ATOM     10  C   UNL     1      28.906  14.028  78.489  1.00  0.00     0.035 C 
BRANCH  10  11
ATOM     11  C   UNL     1      29.304  12.642  79.006  1.00  0.00     0.079 C 
BRANCH  11  12
ATOM     12  C   UNL     1      30.667  12.682  79.643  1.00  0.00     0.130 C 
ATOM     13  O   UNL     1      31.662  12.562  78.944  1.00  0.00    -0.300 OA
ATOM     14  C   UNL     1      30.833  12.859  81.124  1.00  0.00     0.087 C 
ENDBRANCH  11  12
ENDBRANCH  10  11
ENDBRANCH   2  10
TORSDOF 6
ENDMDL
MODEL 2
REMARK VINA RESULT:    -6.071      1.495      2.617
REMARK INTER + INTRA:          -9.342
REMARK INTER:                  -7.885
REMARK INTRA:                  -1.458
REMARK UNBOUND:                -1.143
REMARK SMILES CC(=O)CCC=C(C)CCC=C(C)C
REMARK SMILES IDX 7 1 6 2 8 3 9 4 10 5 11 6 13 7 12 8 14 9 5 10 4 11 2 12 3 13
REMARK SMILES IDX 1 14
REMARK H PARENT
REMARK Flexibility Score: inf
ROOT
ATOM      1  C   UNL     1      27.676  13.754  78.219  1.00  0.00    -0.077 C 
ATOM      2  C   UNL     1      28.835  14.357  78.568  1.00  0.00    -0.028 C 
ATOM      3  C   UNL     1      27.499  12.256  78.308  1.00  0.00     0.039 C 
ENDROOT
BRANCH   1   4
ATOM      4  C   UNL     1      26.498  14.597  77.776  1.00  0.00     0.034 C 
BRANCH   4   5
ATOM      5  C   UNL     1      26.162  15.693  78.797  1.00  0.00     0.032 C 
BRANCH   5   6
ATOM      6  C   UNL     1      25.643  15.126  80.098  1.00  0.00    -0.028 C 
ATOM      7  C   UNL     1      27.450  16.242  81.411  1.00  0.00     0.039 C 
ATOM      8  C   UNL     1      26.224  15.368  81.292  1.00  0.00    -0.080 C 
ATOM      9  C   UNL     1      25.625  14.749  82.527  1.00  0.00     0.039 C 
ENDBRANCH   5   6
ENDBRANCH   4   5
ENDBRANCH   1   4
BRANCH   2  10
ATOM     10  C   UNL     1      30.077  13.625  79.011  1.00  0.00     0.035 C 
BRANCH  10  11
ATOM     11  C   UNL     1      30.338  13.849  80.504  1.00  0.00     0.079 C 
BRANCH  11  12
ATOM     12  C   UNL     1      29.726  12.744  81.322  1.00  0.00     0.130 C 
ATOM     13  O   UNL     1      29.815  11.588  80.936  1.00  0.00    -0.300 OA
ATOM     14  C   UNL     1      28.999  13.031  82.603  1.00  0.00     0.087 C 
ENDBRANCH  11  12
ENDBRANCH  10  11
ENDBRANCH   2  10
TORSDOF 6
ENDMDL
MODEL 3
REMARK VINA RESULT:    -6.036      1.295      3.730
REMARK INTER + INTRA:          -9.295
REMARK INTER:                  -8.209
REMARK INTRA:                  -1.086
REMARK UNBOUND:                -1.143
REMARK SMILES CC(=O)CCC=C(C)CCC=C(C)C
REMARK SMILES IDX 7 1 6 2 8 3 9 4 10 5 11 6 13 7 12 8 14 9 5 10 4 11 2 12 3 13
REMARK SMILES IDX 1 14
REMARK H PARENT
REMARK Flexibility Score: inf
ROOT
ATOM      1  C   UNL     1      26.792  13.596  82.701  1.00  0.00    -0.077 C 
ATOM      2  C   UNL     1      27.006  12.477  81.971  1.00  0.00    -0.028 C 
ATOM      3  C   UNL     1      27.720  14.007  83.820  1.00  0.00     0.039 C 
ENDROOT
BRANCH   1   4
ATOM      4  C   UNL     1      25.623  14.497  82.363  1.00  0.00     0.034 C 
BRANCH   4   5
ATOM      5  C   UNL     1      26.033  15.637  81.420  1.00  0.00     0.032 C 
BRANCH   5   6
ATOM      6  C   UNL     1      25.622  15.374  79.989  1.00  0.00    -0.028 C 
ATOM      7  C   UNL     1      27.952  14.750  79.341  1.00  0.00     0.039 C 
ATOM      8  C   UNL     1      26.490  14.972  79.036  1.00  0.00    -0.080 C 
ATOM      9  C   UNL     1      25.974  14.740  77.640  1.00  0.00     0.039 C 
ENDBRANCH   5   6
ENDBRANCH   4   5
ENDBRANCH   1   4
BRANCH   2  10
ATOM     10  C   UNL     1      28.125  11.498  82.221  1.00  0.00     0.035 C 
BRANCH  10  11
ATOM     11  C   UNL     1      28.905  11.222  80.932  1.00  0.00     0.079 C 
BRANCH  11  12
ATOM     12  C   UNL     1      30.080  12.155  80.811  1.00  0.00     0.130 C 
ATOM     13  O   UNL     1      30.392  12.857  81.761  1.00  0.00    -0.300 OA
ATOM     14  C   UNL     1      30.875  12.250  79.542  1.00  0.00     0.087 C 
ENDBRANCH  11  12
ENDBRANCH  10  11
ENDBRANCH   2  10
TORSDOF 6
ENDMDL
MODEL 4
REMARK VINA RESULT:    -6.034      2.528      5.340
REMARK INTER + INTRA:          -9.293
REMARK INTER:                  -8.113
REMARK INTRA:                  -1.180
REMARK UNBOUND:                -1.143
REMARK SMILES CC(=O)CCC=C(C)CCC=C(C)C
REMARK SMILES IDX 7 1 6 2 8 3 9 4 10 5 11 6 13 7 12 8 14 9 5 10 4 11 2 12 3 13
REMARK SMILES IDX 1 14
REMARK H PARENT
REMARK Flexibility Score: inf
ROOT
ATOM      1  C   UNL     1      27.098  12.883  82.256  1.00  0.00    -0.077 C 
ATOM      2  C   UNL     1      25.974  13.592  82.004  1.00  0.00    -0.028 C 
ATOM      3  C   UNL     1      28.070  13.288  83.339  1.00  0.00     0.039 C 
ENDROOT
BRANCH   1   4
ATOM      4  C   UNL     1      27.374  11.615  81.473  1.00  0.00     0.034 C 
BRANCH   4   5
ATOM      5  C   UNL     1      28.241  11.884  80.235  1.00  0.00     0.032 C 
BRANCH   5   6
ATOM      6  C   UNL     1      27.429  12.395  79.067  1.00  0.00    -0.028 C 
ATOM      7  C   UNL     1      28.344  14.705  79.326  1.00  0.00     0.039 C 
ATOM      8  C   UNL     1      27.469  13.678  78.647  1.00  0.00    -0.080 C 
ATOM      9  C   UNL     1      26.617  14.081  77.473  1.00  0.00     0.039 C 
ENDBRANCH   5   6
ENDBRANCH   4   5
ENDBRANCH   1   4
BRANCH   2  10
ATOM     10  C   UNL     1      25.600  14.873  82.707  1.00  0.00     0.035 C 
BRANCH  10  11
ATOM     11  C   UNL     1      24.910  15.841  81.740  1.00  0.00     0.079 C 
BRANCH  11  12
ATOM     12  C   UNL     1      25.894  16.845  81.201  1.00  0.00     0.130 C 
ATOM     13  O   UNL     1      25.671  17.390  80.130  1.00  0.00    -0.300 OA
ATOM     14  C   UNL     1      27.150  17.186  81.947  1.00  0.00     0.087 C 
ENDBRANCH  11  12
ENDBRANCH  10  11
ENDBRANCH   2  10
TORSDOF 6
ENDMDL
MODEL 5
REMARK VINA RESULT:    -6.010      1.403      2.006
REMARK INTER + INTRA:          -9.261
REMARK INTER:                  -8.001
REMARK INTRA:                  -1.260
REMARK UNBOUND:                -1.143
REMARK SMILES CC(=O)CCC=C(C)CCC=C(C)C
REMARK SMILES IDX 7 1 6 2 8 3 9 4 10 5 11 6 13 7 12 8 14 9 5 10 4 11 2 12 3 13
REMARK SMILES IDX 1 14
REMARK H PARENT
REMARK Flexibility Score: inf
ROOT
ATOM      1  C   UNL     1      28.522  15.135  80.926  1.00  0.00    -0.077 C 
ATOM      2  C   UNL     1      28.077  14.667  79.737  1.00  0.00    -0.028 C 
ATOM      3  C   UNL     1      29.992  15.155  81.275  1.00  0.00     0.039 C 
ENDROOT
BRANCH   1   4
ATOM      4  C   UNL     1      27.533  15.707  81.922  1.00  0.00     0.034 C 
BRANCH   4   5
ATOM      5  C   UNL     1      26.650  14.615  82.542  1.00  0.00     0.032 C 
BRANCH   5   6
ATOM      6  C   UNL     1      27.399  13.776  83.552  1.00  0.00    -0.028 C 
ATOM      7  C   UNL     1      27.252  11.744  82.107  1.00  0.00     0.039 C 
ATOM      8  C   UNL     1      27.675  12.469  83.363  1.00  0.00    -0.080 C 
ATOM      9  C   UNL     1      28.426  11.726  84.437  1.00  0.00     0.039 C 
ENDBRANCH   5   6
ENDBRANCH   4   5
ENDBRANCH   1   4
BRANCH   2  10
ATOM     10  C   UNL     1      28.961  14.064  78.675  1.00  0.00     0.035 C 
BRANCH  10  11
ATOM     11  C   UNL     1      28.978  12.536  78.785  1.00  0.00     0.079 C 
BRANCH  11  12
ATOM     12  C   UNL     1      30.238  12.066  79.462  1.00  0.00     0.130 C 
ATOM     13  O   UNL     1      30.164  11.269  80.385  1.00  0.00    -0.300 OA
ATOM     14  C   UNL     1      31.588  12.562  79.033  1.00  0.00     0.087 C 
ENDBRANCH  11  12
ENDBRANCH  10  11
ENDBRANCH   2  10
TORSDOF 6
ENDMDL
MODEL 6
REMARK VINA RESULT:    -5.922      2.664      5.399
REMARK INTER + INTRA:          -9.142
REMARK INTER:                  -8.167
REMARK INTRA:                  -0.975
REMARK UNBOUND:                -1.143
REMARK SMILES CC(=O)CCC=C(C)CCC=C(C)C
REMARK SMILES IDX 7 1 6 2 8 3 9 4 10 5 11 6 13 7 12 8 14 9 5 10 4 11 2 12 3 13
REMARK SMILES IDX 1 14
REMARK H PARENT
REMARK Flexibility Score: inf
ROOT
ATOM      1  C   UNL     1      27.285  12.707  82.554  1.00  0.00    -0.077 C 
ATOM      2  C   UNL     1      26.305  13.471  82.020  1.00  0.00    -0.028 C 
ATOM      3  C   UNL     1      27.952  13.066  83.861  1.00  0.00     0.039 C 
ENDROOT
BRANCH   1   4
ATOM      4  C   UNL     1      27.697  11.424  81.860  1.00  0.00     0.034 C 
BRANCH   4   5
ATOM      5  C   UNL     1      27.850  11.618  80.345  1.00  0.00     0.032 C 
BRANCH   5   6
ATOM      6  C   UNL     1      29.298  11.623  79.911  1.00  0.00    -0.028 C 
ATOM      7  C   UNL     1      29.321  14.112  79.703  1.00  0.00     0.039 C 
ATOM      8  C   UNL     1      29.975  12.753  79.615  1.00  0.00    -0.080 C 
ATOM      9  C   UNL     1      31.416  12.643  79.191  1.00  0.00     0.039 C 
ENDBRANCH   5   6
ENDBRANCH   4   5
ENDBRANCH   1   4
BRANCH   2  10
ATOM     10  C   UNL     1      25.821  14.771  82.610  1.00  0.00     0.035 C 
BRANCH  10  11
ATOM     11  C   UNL     1      25.128  15.627  81.545  1.00  0.00     0.079 C 
BRANCH  11  12
ATOM     12  C   UNL     1      25.918  16.879  81.273  1.00  0.00     0.130 C 
ATOM     13  O   UNL     1      25.460  17.730  80.525  1.00  0.00    -0.300 OA
ATOM     14  C   UNL     1      27.264  17.105  81.897  1.00  0.00     0.087 C 
ENDBRANCH  11  12
ENDBRANCH  10  11
ENDBRANCH   2  10
TORSDOF 6
ENDMDL
MODEL 7
REMARK VINA RESULT:    -5.888      1.764      4.037
REMARK INTER + INTRA:          -9.095
REMARK INTER:                  -7.782
REMARK INTRA:                  -1.314
REMARK UNBOUND:                -1.143
REMARK SMILES CC(=O)CCC=C(C)CCC=C(C)C
REMARK SMILES IDX 7 1 6 2 8 3 9 4 10 5 11 6 13 7 12 8 14 9 5 10 4 11 2 12 3 13
REMARK SMILES IDX 1 14
REMARK H PARENT
REMARK Flexibility Score: inf
ROOT
ATOM      1  C   UNL     1      26.434  15.540  81.593  1.00  0.00    -0.077 C 
ATOM      2  C   UNL     1      26.346  14.570  82.532  1.00  0.00    -0.028 C 
ATOM      3  C   UNL     1      27.457  16.648  81.686  1.00  0.00     0.039 C 
ENDROOT
BRANCH   1   4
ATOM      4  C   UNL     1      25.522  15.496  80.384  1.00  0.00     0.034 C 
BRANCH   4   5
ATOM      5  C   UNL     1      26.316  15.484  79.069  1.00  0.00     0.032 C 
BRANCH   5   6
ATOM      6  C   UNL     1      26.561  14.081  78.562  1.00  0.00    -0.028 C 
ATOM      7  C   UNL     1      28.992  14.209  79.121  1.00  0.00     0.039 C 
ATOM      8  C   UNL     1      27.777  13.494  78.579  1.00  0.00    -0.080 C 
ATOM      9  C   UNL     1      27.911  12.092  78.046  1.00  0.00     0.039 C 
ENDBRANCH   5   6
ENDBRANCH   4   5
ENDBRANCH   1   4
BRANCH   2  10
ATOM     10  C   UNL     1      27.187  14.515  83.782  1.00  0.00     0.035 C 
BRANCH  10  11
ATOM     11  C   UNL     1      27.884  13.156  83.909  1.00  0.00     0.079 C 
BRANCH  11  12
ATOM     12  C   UNL     1      28.864  12.954  82.784  1.00  0.00     0.130 C 
ATOM     13  O   UNL     1      29.723  13.797  82.575  1.00  0.00    -0.300 OA
ATOM     14  C   UNL     1      28.804  11.739  81.905  1.00  0.00     0.087 C 
ENDBRANCH  11  12
ENDBRANCH  10  11
ENDBRANCH   2  10
TORSDOF 6
ENDMDL
MODEL 8
REMARK VINA RESULT:    -5.784      1.809      3.424
REMARK INTER + INTRA:          -8.956
REMARK INTER:                  -7.761
REMARK INTRA:                  -1.195
REMARK UNBOUND:                -1.143
REMARK SMILES CC(=O)CCC=C(C)CCC=C(C)C
REMARK SMILES IDX 7 1 6 2 8 3 9 4 10 5 11 6 13 7 12 8 14 9 5 10 4 11 2 12 3 13
REMARK SMILES IDX 1 14
REMARK H PARENT
REMARK Flexibility Score: inf
ROOT
ATOM      1  C   UNL     1      28.162  13.452  79.124  1.00  0.00    -0.077 C 
ATOM      2  C   UNL     1      27.764  12.294  79.698  1.00  0.00    -0.028 C 
ATOM      3  C   UNL     1      29.558  13.997  79.313  1.00  0.00     0.039 C 
ENDROOT
BRANCH   1   4
ATOM      4  C   UNL     1      27.207  14.205  78.220  1.00  0.00     0.034 C 
BRANCH   4   5
ATOM      5  C   UNL     1      26.000  14.755  78.994  1.00  0.00     0.032 C 
BRANCH   5   6
ATOM      6  C   UNL     1      26.375  15.904  79.901  1.00  0.00    -0.028 C 
ATOM      7  C   UNL     1      25.969  14.537  81.951  1.00  0.00     0.039 C 
ATOM      8  C   UNL     1      26.362  15.815  81.247  1.00  0.00    -0.080 C 
ATOM      9  C   UNL     1      26.753  17.024  82.057  1.00  0.00     0.039 C 
ENDBRANCH   5   6
ENDBRANCH   4   5
ENDBRANCH   1   4
BRANCH   2  10
ATOM     10  C   UNL     1      28.618  11.465  80.624  1.00  0.00     0.035 C 
BRANCH  10  11
ATOM     11  C   UNL     1      27.905  11.235  81.961  1.00  0.00     0.079 C 
BRANCH  11  12
ATOM     12  C   UNL     1      28.565  12.027  83.058  1.00  0.00     0.130 C 
ATOM     13  O   UNL     1      29.379  12.892  82.771  1.00  0.00    -0.300 OA
ATOM     14  C   UNL     1      28.250  11.772  84.503  1.00  0.00     0.087 C 
ENDBRANCH  11  12
ENDBRANCH  10  11
ENDBRANCH   2  10
TORSDOF 6
ENDMDL
MODEL 9
REMARK VINA RESULT:    -5.774      1.299      3.537
REMARK INTER + INTRA:          -8.942
REMARK INTER:                  -7.563
REMARK INTRA:                  -1.379
REMARK UNBOUND:                -1.143
REMARK SMILES CC(=O)CCC=C(C)CCC=C(C)C
REMARK SMILES IDX 7 1 6 2 8 3 9 4 10 5 11 6 13 7 12 8 14 9 5 10 4 11 2 12 3 13
REMARK SMILES IDX 1 14
REMARK H PARENT
REMARK Flexibility Score: inf
ROOT
ATOM      1  C   UNL     1      28.282  12.751  82.806  1.00  0.00    -0.077 C 
ATOM      2  C   UNL     1      29.476  13.309  82.505  1.00  0.00    -0.028 C 
ATOM      3  C   UNL     1      27.694  11.632  81.977  1.00  0.00     0.039 C 
ENDROOT
BRANCH   1   4
ATOM      4  C   UNL     1      27.528  13.214  84.035  1.00  0.00     0.034 C 
BRANCH   4   5
ATOM      5  C   UNL     1      26.879  14.589  83.824  1.00  0.00     0.032 C 
BRANCH   5   6
ATOM      6  C   UNL     1      26.078  14.655  82.544  1.00  0.00    -0.028 C 
ATOM      7  C   UNL     1      27.585  16.401  81.586  1.00  0.00     0.039 C 
ATOM      8  C   UNL     1      26.391  15.478  81.521  1.00  0.00    -0.080 C 
ATOM      9  C   UNL     1      25.523  15.464  80.290  1.00  0.00     0.039 C 
ENDBRANCH   5   6
ENDBRANCH   4   5
ENDBRANCH   1   4
BRANCH   2  10
ATOM     10  C   UNL     1      30.311  12.942  81.304  1.00  0.00     0.035 C 
BRANCH  10  11
ATOM     11  C   UNL     1      30.191  14.009  80.212  1.00  0.00     0.079 C 
BRANCH  11  12
ATOM     12  C   UNL     1      29.344  13.511  79.072  1.00  0.00     0.130 C 
ATOM     13  O   UNL     1      29.369  12.325  78.776  1.00  0.00    -0.300 OA
ATOM     14  C   UNL     1      28.471  14.441  78.282  1.00  0.00     0.087 C 
ENDBRANCH  11  12
ENDBRANCH  10  11
ENDBRANCH   2  10
TORSDOF 6
ENDMDL
