MODEL 1
REMARK VINA RESULT:    -6.404      0.000      0.000
REMARK INTER + INTRA:          -6.592
REMARK INTER:                  -6.592
REMARK INTRA:                   0.000
REMARK UNBOUND:                 0.000
REMARK SMILES C=C1[C@H](O)C[C@]23C[C@H]1C(C)(C)[C@H]2CC[C@@H]3C
REMARK SMILES IDX 16 1 15 2 14 3 13 4 12 5 6 6 7 7 8 8 9 9 10 10 11 11 2 12
REMARK SMILES IDX 1 13 3 14 5 15 4 16
REMARK H PARENT 4 17
REMARK Flexibility Score: inf
ROOT
ATOM      1  C   UNL     1     116.155 125.973 130.996  1.00  0.00     0.008 C 
ATOM      2  C   UNL     1     115.557 124.972 129.997  1.00  0.00    -0.008 C 
ATOM      3  C   UNL     1     116.506 124.704 128.831  1.00  0.00     0.004 C 
ATOM      4  C   UNL     1     116.036 123.382 128.250  1.00  0.00     0.005 C 
ATOM      5  C   UNL     1     115.634 122.550 129.477  1.00  0.00     0.002 C 
ATOM      6  C   UNL     1     115.187 123.564 130.558  1.00  0.00    -0.020 C 
ATOM      7  C   UNL     1     113.676 123.348 130.687  1.00  0.00     0.016 C 
ATOM      8  C   UNL     1     113.574 121.836 130.573  1.00  0.00     0.023 C 
ATOM      9  C   UNL     1     114.472 121.505 129.342  1.00  0.00    -0.025 C 
ATOM     10  C   UNL     1     113.631 121.645 128.046  1.00  0.00     0.012 C 
ATOM     11  C   UNL     1     115.021 120.056 129.362  1.00  0.00     0.012 C 
ATOM     12  C   UNL     1     114.127 121.247 131.870  1.00  0.00    -0.045 C 
ATOM     13  C   UNL     1     113.557 120.149 132.394  1.00  0.00     0.011 C 
ATOM     14  C   UNL     1     115.429 121.789 132.465  1.00  0.00     0.140 C 
ATOM     15  C   UNL     1     115.820 123.205 131.938  1.00  0.00     0.044 C 
ENDROOT
BRANCH  14  16
ATOM     16  O   UNL     1     115.322 121.830 133.865  1.00  0.00    -0.389 OA
ATOM     17  H   UNL     1     114.352 121.858 134.078  1.00  0.00     0.211 HD
ENDBRANCH  14  16
TORSDOF 1
ENDMDL
MODEL 2
REMARK VINA RESULT:    -6.230      1.829      4.101
REMARK INTER + INTRA:          -6.412
REMARK INTER:                  -6.412
REMARK INTRA:                   0.000
REMARK UNBOUND:                 0.000
REMARK SMILES C=C1[C@H](O)C[C@]23C[C@H]1C(C)(C)[C@H]2CC[C@@H]3C
REMARK SMILES IDX 16 1 15 2 14 3 13 4 12 5 6 6 7 7 8 8 9 9 10 10 11 11 2 12
REMARK SMILES IDX 1 13 3 14 5 15 4 16
REMARK H PARENT 4 17
REMARK Flexibility Score: inf
ROOT
ATOM      1  C   UNL     1     113.187 121.813 126.756  1.00  0.00     0.008 C 
ATOM      2  C   UNL     1     113.344 121.342 128.209  1.00  0.00    -0.008 C 
ATOM      3  C   UNL     1     114.005 119.968 128.289  1.00  0.00     0.004 C 
ATOM      4  C   UNL     1     114.542 119.882 129.706  1.00  0.00     0.005 C 
ATOM      5  C   UNL     1     115.050 121.300 130.006  1.00  0.00     0.002 C 
ATOM      6  C   UNL     1     114.185 122.257 129.152  1.00  0.00    -0.020 C 
ATOM      7  C   UNL     1     113.329 123.016 130.171  1.00  0.00     0.016 C 
ATOM      8  C   UNL     1     114.324 123.238 131.299  1.00  0.00     0.023 C 
ATOM      9  C   UNL     1     114.986 121.837 131.478  1.00  0.00    -0.025 C 
ATOM     10  C   UNL     1     114.114 120.982 132.435  1.00  0.00     0.012 C 
ATOM     11  C   UNL     1     116.400 121.910 132.107  1.00  0.00     0.012 C 
ATOM     12  C   UNL     1     115.320 124.293 130.819  1.00  0.00    -0.045 C 
ATOM     13  C   UNL     1     115.796 125.197 131.691  1.00  0.00     0.011 C 
ATOM     14  C   UNL     1     115.909 124.208 129.410  1.00  0.00     0.140 C 
ATOM     15  C   UNL     1     115.082 123.312 128.435  1.00  0.00     0.044 C 
ENDROOT
BRANCH  14  16
ATOM     16  O   UNL     1     116.021 125.500 128.869  1.00  0.00    -0.389 OA
ATOM     17  H   UNL     1     116.956 125.796 129.026  1.00  0.00     0.211 HD
ENDBRANCH  14  16
TORSDOF 1
ENDMDL
MODEL 3
REMARK VINA RESULT:    -6.106      1.910      4.254
REMARK INTER + INTRA:          -6.285
REMARK INTER:                  -6.285
REMARK INTRA:                   0.000
REMARK UNBOUND:                 0.000
REMARK SMILES C=C1[C@H](O)C[C@]23C[C@H]1C(C)(C)[C@H]2CC[C@@H]3C
REMARK SMILES IDX 16 1 15 2 14 3 13 4 12 5 6 6 7 7 8 8 9 9 10 10 11 11 2 12
REMARK SMILES IDX 1 13 3 14 5 15 4 16
REMARK H PARENT 4 17
REMARK Flexibility Score: inf
ROOT
ATOM      1  C   UNL     1     113.780 119.984 132.741  1.00  0.00     0.008 C 
ATOM      2  C   UNL     1     114.286 121.379 132.348  1.00  0.00    -0.008 C 
ATOM      3  C   UNL     1     115.715 121.618 132.830  1.00  0.00     0.004 C 
ATOM      4  C   UNL     1     116.229 122.752 131.962  1.00  0.00     0.005 C 
ATOM      5  C   UNL     1     115.632 122.469 130.575  1.00  0.00     0.002 C 
ATOM      6  C   UNL     1     114.307 121.710 130.824  1.00  0.00    -0.020 C 
ATOM      7  C   UNL     1     113.213 122.699 130.409  1.00  0.00     0.016 C 
ATOM      8  C   UNL     1     113.832 123.338 129.177  1.00  0.00     0.023 C 
ATOM      9  C   UNL     1     115.285 123.674 129.634  1.00  0.00    -0.025 C 
ATOM     10  C   UNL     1     115.289 125.058 130.337  1.00  0.00     0.012 C 
ATOM     11  C   UNL     1     116.286 123.768 128.456  1.00  0.00     0.012 C 
ATOM     12  C   UNL     1     113.802 122.292 128.063  1.00  0.00    -0.045 C 
ATOM     13  C   UNL     1     113.564 122.679 126.799  1.00  0.00     0.011 C 
ATOM     14  C   UNL     1     114.221 120.849 128.354  1.00  0.00     0.140 C 
ATOM     15  C   UNL     1     114.195 120.480 129.870  1.00  0.00     0.044 C 
ENDROOT
BRANCH  14  16
ATOM     16  O   UNL     1     113.386 119.968 127.648  1.00  0.00    -0.389 OA
ATOM     17  H   UNL     1     112.546 119.887 128.173  1.00  0.00     0.211 HD
ENDBRANCH  14  16
TORSDOF 1
ENDMDL
MODEL 4
REMARK VINA RESULT:    -6.069      1.579      4.056
REMARK INTER + INTRA:          -6.246
REMARK INTER:                  -6.246
REMARK INTRA:                   0.000
REMARK UNBOUND:                 0.000
REMARK SMILES C=C1[C@H](O)C[C@]23C[C@H]1C(C)(C)[C@H]2CC[C@@H]3C
REMARK SMILES IDX 16 1 15 2 14 3 13 4 12 5 6 6 7 7 8 8 9 9 10 10 11 11 2 12
REMARK SMILES IDX 1 13 3 14 5 15 4 16
REMARK H PARENT 4 17
REMARK Flexibility Score: inf
ROOT
ATOM      1  C   UNL     1     116.351 121.108 134.261  1.00  0.00     0.008 C 
ATOM      2  C   UNL     1     115.672 120.563 132.996  1.00  0.00    -0.008 C 
ATOM      3  C   UNL     1     114.199 120.245 133.239  1.00  0.00     0.004 C 
ATOM      4  C   UNL     1     113.576 120.226 131.854  1.00  0.00     0.005 C 
ATOM      5  C   UNL     1     114.286 121.363 131.104  1.00  0.00     0.002 C 
ATOM      6  C   UNL     1     115.691 121.489 131.741  1.00  0.00    -0.020 C 
ATOM      7  C   UNL     1     116.652 121.004 130.651  1.00  0.00     0.016 C 
ATOM      8  C   UNL     1     116.019 121.593 129.401  1.00  0.00     0.023 C 
ATOM      9  C   UNL     1     114.509 121.233 129.557  1.00  0.00    -0.025 C 
ATOM     10  C   UNL     1     114.265 119.809 128.991  1.00  0.00     0.012 C 
ATOM     11  C   UNL     1     113.573 122.190 128.777  1.00  0.00     0.012 C 
ATOM     12  C   UNL     1     116.262 123.101 129.441  1.00  0.00    -0.045 C 
ATOM     13  C   UNL     1     116.513 123.761 128.298  1.00  0.00     0.011 C 
ATOM     14  C   UNL     1     116.040 123.881 130.739  1.00  0.00     0.140 C 
ATOM     15  C   UNL     1     116.033 122.985 132.018  1.00  0.00     0.044 C 
ENDROOT
BRANCH  14  16
ATOM     16  O   UNL     1     117.032 124.866 130.869  1.00  0.00    -0.389 OA
ATOM     17  H   UNL     1     116.833 125.565 130.192  1.00  0.00     0.211 HD
ENDBRANCH  14  16
TORSDOF 1
ENDMDL
MODEL 5
REMARK VINA RESULT:    -6.033      1.711      2.586
REMARK INTER + INTRA:          -6.209
REMARK INTER:                  -6.209
REMARK INTRA:                   0.000
REMARK UNBOUND:                 0.000
REMARK SMILES C=C1[C@H](O)C[C@]23C[C@H]1C(C)(C)[C@H]2CC[C@@H]3C
REMARK SMILES IDX 16 1 15 2 14 3 13 4 12 5 6 6 7 7 8 8 9 9 10 10 11 11 2 12
REMARK SMILES IDX 1 13 3 14 5 15 4 16
REMARK H PARENT 4 17
REMARK Flexibility Score: inf
ROOT
ATOM      1  C   UNL     1     118.506 123.899 128.466  1.00  0.00     0.008 C 
ATOM      2  C   UNL     1     117.545 122.722 128.241  1.00  0.00    -0.008 C 
ATOM      3  C   UNL     1     118.252 121.378 128.396  1.00  0.00     0.004 C 
ATOM      4  C   UNL     1     117.135 120.384 128.657  1.00  0.00     0.005 C 
ATOM      5  C   UNL     1     116.147 121.149 129.551  1.00  0.00     0.002 C 
ATOM      6  C   UNL     1     116.305 122.645 129.184  1.00  0.00    -0.020 C 
ATOM      7  C   UNL     1     114.993 123.009 128.482  1.00  0.00     0.016 C 
ATOM      8  C   UNL     1     113.978 122.242 129.315  1.00  0.00     0.023 C 
ATOM      9  C   UNL     1     114.617 120.825 129.447  1.00  0.00    -0.025 C 
ATOM     10  C   UNL     1     114.224 119.973 128.211  1.00  0.00     0.012 C 
ATOM     11  C   UNL     1     114.125 120.052 130.696  1.00  0.00     0.012 C 
ATOM     12  C   UNL     1     113.868 122.956 130.661  1.00  0.00    -0.045 C 
ATOM     13  C   UNL     1     112.674 123.036 131.272  1.00  0.00     0.011 C 
ATOM     14  C   UNL     1     115.132 123.412 131.394  1.00  0.00     0.140 C 
ATOM     15  C   UNL     1     116.389 123.517 130.475  1.00  0.00     0.044 C 
ENDROOT
BRANCH  14  16
ATOM     16  O   UNL     1     114.898 124.656 132.002  1.00  0.00    -0.389 OA
ATOM     17  H   UNL     1     115.523 124.722 132.771  1.00  0.00     0.211 HD
ENDBRANCH  14  16
TORSDOF 1
ENDMDL
MODEL 6
REMARK VINA RESULT:    -5.972      2.190      3.764
REMARK INTER + INTRA:          -6.146
REMARK INTER:                  -6.146
REMARK INTRA:                   0.000
REMARK UNBOUND:                 0.000
REMARK SMILES C=C1[C@H](O)C[C@]23C[C@H]1C(C)(C)[C@H]2CC[C@@H]3C
REMARK SMILES IDX 16 1 15 2 14 3 13 4 12 5 6 6 7 7 8 8 9 9 10 10 11 11 2 12
REMARK SMILES IDX 1 13 3 14 5 15 4 16
REMARK H PARENT 4 17
REMARK Flexibility Score: inf
ROOT
ATOM      1  C   UNL     1     117.048 128.349 131.836  1.00  0.00     0.008 C 
ATOM      2  C   UNL     1     117.463 127.616 130.551  1.00  0.00    -0.008 C 
ATOM      3  C   UNL     1     118.960 127.316 130.531  1.00  0.00     0.004 C 
ATOM      4  C   UNL     1     119.113 126.195 129.520  1.00  0.00     0.005 C 
ATOM      5  C   UNL     1     117.877 125.310 129.743  1.00  0.00     0.002 C 
ATOM      6  C   UNL     1     116.766 126.248 130.273  1.00  0.00    -0.020 C 
ATOM      7  C   UNL     1     115.745 126.316 129.133  1.00  0.00     0.016 C 
ATOM      8  C   UNL     1     115.745 124.880 128.637  1.00  0.00     0.023 C 
ATOM      9  C   UNL     1     117.263 124.537 128.525  1.00  0.00    -0.025 C 
ATOM     10  C   UNL     1     117.788 125.000 127.141  1.00  0.00     0.012 C 
ATOM     11  C   UNL     1     117.551 123.018 128.627  1.00  0.00     0.012 C 
ATOM     12  C   UNL     1     115.037 124.037 129.696  1.00  0.00    -0.045 C 
ATOM     13  C   UNL     1     114.254 123.015 129.313  1.00  0.00     0.011 C 
ATOM     14  C   UNL     1     115.361 124.236 131.179  1.00  0.00     0.140 C 
ATOM     15  C   UNL     1     116.043 125.604 131.495  1.00  0.00     0.044 C 
ENDROOT
BRANCH  14  16
ATOM     16  O   UNL     1     114.182 124.121 131.935  1.00  0.00    -0.389 OA
ATOM     17  H   UNL     1     113.516 124.732 131.523  1.00  0.00     0.211 HD
ENDBRANCH  14  16
TORSDOF 1
ENDMDL
MODEL 7
REMARK VINA RESULT:    -5.754      1.555      3.806
REMARK INTER + INTRA:          -5.922
REMARK INTER:                  -5.922
REMARK INTRA:                   0.000
REMARK UNBOUND:                 0.000
REMARK SMILES C=C1[C@H](O)C[C@]23C[C@H]1C(C)(C)[C@H]2CC[C@@H]3C
REMARK SMILES IDX 16 1 15 2 14 3 13 4 12 5 6 6 7 7 8 8 9 9 10 10 11 11 2 12
REMARK SMILES IDX 1 13 3 14 5 15 4 16
REMARK H PARENT 4 17
REMARK Flexibility Score: inf
ROOT
ATOM      1  C   UNL     1     117.500 118.738 129.027  1.00  0.00     0.008 C 
ATOM      2  C   UNL     1     116.406 119.673 128.493  1.00  0.00    -0.008 C 
ATOM      3  C   UNL     1     115.104 118.923 128.222  1.00  0.00     0.004 C 
ATOM      4  C   UNL     1     114.035 120.000 128.210  1.00  0.00     0.005 C 
ATOM      5  C   UNL     1     114.464 120.972 129.319  1.00  0.00     0.002 C 
ATOM      6  C   UNL     1     116.006 120.872 129.408  1.00  0.00    -0.020 C 
ATOM      7  C   UNL     1     116.510 122.221 128.885  1.00  0.00     0.016 C 
ATOM      8  C   UNL     1     115.493 123.179 129.482  1.00  0.00     0.023 C 
ATOM      9  C   UNL     1     114.126 122.496 129.170  1.00  0.00    -0.025 C 
ATOM     10  C   UNL     1     113.662 122.914 127.749  1.00  0.00     0.012 C 
ATOM     11  C   UNL     1     113.000 122.916 130.148  1.00  0.00     0.012 C 
ATOM     12  C   UNL     1     115.773 123.255 130.983  1.00  0.00    -0.045 C 
ATOM     13  C   UNL     1     115.623 124.425 131.625  1.00  0.00     0.011 C 
ATOM     14  C   UNL     1     116.041 121.976 131.779  1.00  0.00     0.140 C 
ATOM     15  C   UNL     1     116.461 120.760 130.895  1.00  0.00     0.044 C 
ENDROOT
BRANCH  14  16
ATOM     16  O   UNL     1     117.041 122.221 132.735  1.00  0.00    -0.389 OA
ATOM     17  H   UNL     1     117.333 123.162 132.611  1.00  0.00     0.211 HD
ENDBRANCH  14  16
TORSDOF 1
ENDMDL
MODEL 8
REMARK VINA RESULT:    -5.517      2.188      4.381
REMARK INTER + INTRA:          -5.678
REMARK INTER:                  -5.678
REMARK INTRA:                   0.000
REMARK UNBOUND:                 0.000
REMARK SMILES C=C1[C@H](O)C[C@]23C[C@H]1C(C)(C)[C@H]2CC[C@@H]3C
REMARK SMILES IDX 16 1 15 2 14 3 13 4 12 5 6 6 7 7 8 8 9 9 10 10 11 11 2 12
REMARK SMILES IDX 1 13 3 14 5 15 4 16
REMARK H PARENT 4 17
REMARK Flexibility Score: inf
ROOT
ATOM      1  C   UNL     1     119.088 121.183 133.355  1.00  0.00     0.008 C 
ATOM      2  C   UNL     1     117.612 120.759 133.321  1.00  0.00    -0.008 C 
ATOM      3  C   UNL     1     116.898 121.095 134.628  1.00  0.00     0.004 C 
ATOM      4  C   UNL     1     115.423 121.104 134.268  1.00  0.00     0.005 C 
ATOM      5  C   UNL     1     115.378 121.730 132.866  1.00  0.00     0.002 C 
ATOM      6  C   UNL     1     116.731 121.387 132.198  1.00  0.00    -0.020 C 
ATOM      7  C   UNL     1     116.372 120.393 131.089  1.00  0.00     0.016 C 
ATOM      8  C   UNL     1     115.070 120.977 130.566  1.00  0.00     0.023 C 
ATOM      9  C   UNL     1     114.260 121.277 131.865  1.00  0.00    -0.025 C 
ATOM     10  C   UNL     1     113.495 119.997 132.293  1.00  0.00     0.012 C 
ATOM     11  C   UNL     1     113.198 122.388 131.675  1.00  0.00     0.012 C 
ATOM     12  C   UNL     1     115.424 122.250 129.797  1.00  0.00    -0.045 C 
ATOM     13  C   UNL     1     114.739 122.563 128.685  1.00  0.00     0.011 C 
ATOM     14  C   UNL     1     116.421 123.250 130.386  1.00  0.00     0.140 C 
ATOM     15  C   UNL     1     117.332 122.648 131.502  1.00  0.00     0.044 C 
ENDROOT
BRANCH  14  16
ATOM     16  O   UNL     1     117.229 123.767 129.359  1.00  0.00    -0.389 OA
ATOM     17  H   UNL     1     117.825 124.443 129.777  1.00  0.00     0.211 HD
ENDBRANCH  14  16
TORSDOF 1
ENDMDL
MODEL 9
REMARK VINA RESULT:    -5.496      2.324      4.916
REMARK INTER + INTRA:          -5.657
REMARK INTER:                  -5.657
REMARK INTRA:                   0.000
REMARK UNBOUND:                 0.000
REMARK SMILES C=C1[C@H](O)C[C@]23C[C@H]1C(C)(C)[C@H]2CC[C@@H]3C
REMARK SMILES IDX 16 1 15 2 14 3 13 4 12 5 6 6 7 7 8 8 9 9 10 10 11 11 2 12
REMARK SMILES IDX 1 13 3 14 5 15 4 16
REMARK H PARENT 4 17
REMARK Flexibility Score: inf
ROOT
ATOM      1  C   UNL     1     114.151 121.063 130.225  1.00  0.00     0.008 C 
ATOM      2  C   UNL     1     114.438 122.572 130.214  1.00  0.00    -0.008 C 
ATOM      3  C   UNL     1     114.483 123.147 131.627  1.00  0.00     0.004 C 
ATOM      4  C   UNL     1     115.254 124.448 131.488  1.00  0.00     0.005 C 
ATOM      5  C   UNL     1     116.348 124.131 130.457  1.00  0.00     0.002 C 
ATOM      6  C   UNL     1     115.772 123.022 129.544  1.00  0.00    -0.020 C 
ATOM      7  C   UNL     1     115.562 123.709 128.190  1.00  0.00     0.016 C 
ATOM      8  C   UNL     1     116.794 124.594 128.103  1.00  0.00     0.023 C 
ATOM      9  C   UNL     1     116.853 125.272 129.506  1.00  0.00    -0.025 C 
ATOM     10  C   UNL     1     115.959 126.540 129.496  1.00  0.00     0.012 C 
ATOM     11  C   UNL     1     118.279 125.734 129.898  1.00  0.00     0.012 C 
ATOM     12  C   UNL     1     117.991 123.677 127.851  1.00  0.00    -0.045 C 
ATOM     13  C   UNL     1     118.982 124.090 127.045  1.00  0.00     0.011 C 
ATOM     14  C   UNL     1     118.148 122.383 128.654  1.00  0.00     0.140 C 
ATOM     15  C   UNL     1     116.826 121.894 129.324  1.00  0.00     0.044 C 
ENDROOT
BRANCH  14  16
ATOM     16  O   UNL     1     118.644 121.371 127.816  1.00  0.00    -0.389 OA
ATOM     17  H   UNL     1     118.806 121.786 126.928  1.00  0.00     0.211 HD
ENDBRANCH  14  16
TORSDOF 1
ENDMDL
