MODEL 1
REMARK VINA RESULT:    -5.358      0.000      0.000
REMARK INTER + INTRA:          -6.349
REMARK INTER:                  -6.298
REMARK INTRA:                  -0.051
REMARK UNBOUND:                -0.051
REMARK SMILES O=c1c(O)c(-c2ccc(O)cc2)oc2cc(O)cc(O)c12
REMARK SMILES IDX 5 1 3 2 2 3 1 4 21 5 19 6 18 7 16 8 15 9 14 10 13 11 6 12
REMARK SMILES IDX 7 13 8 14 9 15 12 16 11 17 10 18 4 20 20 22 17 24
REMARK H PARENT 10 19 4 21 20 23 17 25
REMARK Flexibility Score: inf
ROOT
ATOM      1  C   UNL     1      46.264  16.093  -3.898  1.00  0.00     0.180 A 
ATOM      2  C   UNL     1      46.022  14.746  -3.576  1.00  0.00     0.208 A 
ATOM      3  C   UNL     1      47.099  13.845  -3.570  1.00  0.00     0.238 A 
ATOM      4  O   UNL     1      46.868  12.629  -3.334  1.00  0.00    -0.285 OA
ATOM      5  C   UNL     1      48.405  14.303  -3.868  1.00  0.00     0.111 A 
ATOM      6  C   UNL     1      49.574  13.485  -3.852  1.00  0.00     0.134 A 
ATOM      7  C   UNL     1      50.794  14.015  -4.292  1.00  0.00     0.093 A 
ATOM      8  C   UNL     1      50.898  15.351  -4.685  1.00  0.00     0.123 A 
ATOM      9  C   UNL     1      49.775  16.174  -4.648  1.00  0.00     0.094 A 
ATOM     10  C   UNL     1      48.537  15.664  -4.249  1.00  0.00     0.146 A 
ATOM     11  O   UNL     1      47.488  16.479  -4.239  1.00  0.00    -0.452 OA
ENDROOT
BRANCH   1  12
ATOM     12  C   UNL     1      45.186  17.108  -3.902  1.00  0.00     0.021 A 
ATOM     13  C   UNL     1      45.006  17.922  -5.033  1.00  0.00     0.016 A 
ATOM     14  C   UNL     1      44.009  18.902  -5.049  1.00  0.00     0.047 A 
ATOM     15  C   UNL     1      43.190  19.091  -3.932  1.00  0.00     0.115 A 
ATOM     16  C   UNL     1      44.371  17.316  -2.774  1.00  0.00     0.016 A 
ATOM     17  C   UNL     1      43.375  18.297  -2.793  1.00  0.00     0.047 A 
BRANCH  15  18
ATOM     18  O   UNL     1      42.199  20.070  -3.963  1.00  0.00    -0.508 OA
ATOM     19  H   UNL     1      42.296  20.904  -4.532  1.00  0.00     0.293 HD
ENDBRANCH  15  18
ENDBRANCH   1  12
BRANCH   2  20
ATOM     20  O   UNL     1      44.723  14.310  -3.305  1.00  0.00    -0.502 OA
ATOM     21  H   UNL     1      43.904  14.788  -3.660  1.00  0.00     0.293 HD
ENDBRANCH   2  20
BRANCH   6  22
ATOM     22  O   UNL     1      49.598  12.165  -3.391  1.00  0.00    -0.507 OA
ATOM     23  H   UNL     1      50.433  11.607  -3.292  1.00  0.00     0.293 HD
ENDBRANCH   6  22
BRANCH   8  24
ATOM     24  O   UNL     1      52.119  15.875  -5.106  1.00  0.00    -0.508 OA
ATOM     25  H   UNL     1      52.989  15.380  -4.951  1.00  0.00     0.293 HD
ENDBRANCH   8  24
TORSDOF 5
ENDMDL
MODEL 2
REMARK VINA RESULT:    -5.211      1.733      7.143
REMARK INTER + INTRA:          -6.177
REMARK INTER:                  -6.477
REMARK INTRA:                   0.300
REMARK UNBOUND:                -0.051
REMARK SMILES O=c1c(O)c(-c2ccc(O)cc2)oc2cc(O)cc(O)c12
REMARK SMILES IDX 5 1 3 2 2 3 1 4 21 5 19 6 18 7 16 8 15 9 14 10 13 11 6 12
REMARK SMILES IDX 7 13 8 14 9 15 12 16 11 17 10 18 4 20 20 22 17 24
REMARK H PARENT 10 19 4 21 20 23 17 25
REMARK Flexibility Score: inf
ROOT
ATOM      1  C   UNL     1      46.409  16.539  -4.228  1.00  0.00     0.180 A 
ATOM      2  C   UNL     1      46.073  17.578  -5.113  1.00  0.00     0.208 A 
ATOM      3  C   UNL     1      44.819  18.199  -4.988  1.00  0.00     0.238 A 
ATOM      4  O   UNL     1      44.501  19.091  -5.818  1.00  0.00    -0.285 OA
ATOM      5  C   UNL     1      43.926  17.788  -3.969  1.00  0.00     0.111 A 
ATOM      6  C   UNL     1      42.649  18.374  -3.726  1.00  0.00     0.134 A 
ATOM      7  C   UNL     1      41.794  17.800  -2.776  1.00  0.00     0.093 A 
ATOM      8  C   UNL     1      42.200  16.700  -2.016  1.00  0.00     0.123 A 
ATOM      9  C   UNL     1      43.468  16.156  -2.205  1.00  0.00     0.094 A 
ATOM     10  C   UNL     1      44.328  16.685  -3.171  1.00  0.00     0.146 A 
ATOM     11  O   UNL     1      45.524  16.130  -3.326  1.00  0.00    -0.452 OA
ENDROOT
BRANCH   1  12
ATOM     12  C   UNL     1      47.720  15.853  -4.281  1.00  0.00     0.021 A 
ATOM     13  C   UNL     1      47.835  14.542  -3.789  1.00  0.00     0.016 A 
ATOM     14  C   UNL     1      49.068  13.884  -3.808  1.00  0.00     0.047 A 
ATOM     15  C   UNL     1      50.204  14.530  -4.305  1.00  0.00     0.115 A 
ATOM     16  C   UNL     1      48.870  16.505  -4.762  1.00  0.00     0.016 A 
ATOM     17  C   UNL     1      50.102  15.845  -4.780  1.00  0.00     0.047 A 
BRANCH  15  18
ATOM     18  O   UNL     1      51.426  13.861  -4.320  1.00  0.00    -0.508 OA
ATOM     19  H   UNL     1      51.718  13.275  -3.547  1.00  0.00     0.293 HD
ENDBRANCH  15  18
ENDBRANCH   1  12
BRANCH   2  20
ATOM     20  O   UNL     1      46.960  17.955  -6.125  1.00  0.00    -0.502 OA
ATOM     21  H   UNL     1      47.688  18.643  -5.981  1.00  0.00     0.293 HD
ENDBRANCH   2  20
BRANCH   6  22
ATOM     22  O   UNL     1      42.185  19.528  -4.365  1.00  0.00    -0.507 OA
ATOM     23  H   UNL     1      41.252  19.901  -4.269  1.00  0.00     0.293 HD
ENDBRANCH   6  22
BRANCH   8  24
ATOM     24  O   UNL     1      41.349  16.144  -1.061  1.00  0.00    -0.508 OA
ATOM     25  H   UNL     1      40.434  15.789  -1.310  1.00  0.00     0.293 HD
ENDBRANCH   8  24
TORSDOF 5
ENDMDL
MODEL 3
REMARK VINA RESULT:    -5.195      1.245      1.502
REMARK INTER + INTRA:          -6.157
REMARK INTER:                  -6.110
REMARK INTRA:                  -0.047
REMARK UNBOUND:                -0.051
REMARK SMILES O=c1c(O)c(-c2ccc(O)cc2)oc2cc(O)cc(O)c12
REMARK SMILES IDX 5 1 3 2 2 3 1 4 21 5 19 6 18 7 16 8 15 9 14 10 13 11 6 12
REMARK SMILES IDX 7 13 8 14 9 15 12 16 11 17 10 18 4 20 20 22 17 24
REMARK H PARENT 10 19 4 21 20 23 17 25
REMARK Flexibility Score: inf
ROOT
ATOM      1  C   UNL     1      45.520  15.966  -3.578  1.00  0.00     0.180 A 
ATOM      2  C   UNL     1      44.867  14.791  -3.166  1.00  0.00     0.208 A 
ATOM      3  C   UNL     1      45.622  13.620  -2.988  1.00  0.00     0.238 A 
ATOM      4  O   UNL     1      45.024  12.557  -2.672  1.00  0.00    -0.285 OA
ATOM      5  C   UNL     1      47.020  13.642  -3.206  1.00  0.00     0.111 A 
ATOM      6  C   UNL     1      47.888  12.525  -3.017  1.00  0.00     0.134 A 
ATOM      7  C   UNL     1      49.234  12.625  -3.390  1.00  0.00     0.093 A 
ATOM      8  C   UNL     1      49.757  13.823  -3.884  1.00  0.00     0.123 A 
ATOM      9  C   UNL     1      48.932  14.937  -4.017  1.00  0.00     0.094 A 
ATOM     10  C   UNL     1      47.576  14.856  -3.688  1.00  0.00     0.146 A 
ATOM     11  O   UNL     1      46.821  15.938  -3.840  1.00  0.00    -0.452 OA
ENDROOT
BRANCH   1  12
ATOM     12  C   UNL     1      44.797  17.244  -3.764  1.00  0.00     0.021 A 
ATOM     13  C   UNL     1      44.941  17.952  -4.968  1.00  0.00     0.016 A 
ATOM     14  C   UNL     1      44.286  19.173  -5.156  1.00  0.00     0.047 A 
ATOM     15  C   UNL     1      43.492  19.709  -4.138  1.00  0.00     0.115 A 
ATOM     16  C   UNL     1      44.012  17.798  -2.736  1.00  0.00     0.016 A 
ATOM     17  C   UNL     1      43.358  19.020  -2.925  1.00  0.00     0.047 A 
BRANCH  15  18
ATOM     18  O   UNL     1      42.843  20.926  -4.339  1.00  0.00    -0.508 OA
ATOM     19  H   UNL     1      41.973  21.145  -3.870  1.00  0.00     0.293 HD
ENDBRANCH  15  18
ENDBRANCH   1  12
BRANCH   2  20
ATOM     20  O   UNL     1      43.483  14.785  -2.976  1.00  0.00    -0.502 OA
ATOM     21  H   UNL     1      43.022  14.134  -2.352  1.00  0.00     0.293 HD
ENDBRANCH   2  20
BRANCH   6  22
ATOM     22  O   UNL     1      47.488  11.313  -2.446  1.00  0.00    -0.507 OA
ATOM     23  H   UNL     1      46.547  10.950  -2.472  1.00  0.00     0.293 HD
ENDBRANCH   6  22
BRANCH   8  24
ATOM     24  O   UNL     1      51.102  13.918  -4.238  1.00  0.00    -0.508 OA
ATOM     25  H   UNL     1      51.835  13.917  -3.539  1.00  0.00     0.293 HD
ENDBRANCH   8  24
TORSDOF 5
ENDMDL
MODEL 4
REMARK VINA RESULT:    -5.063      1.320      3.262
REMARK INTER + INTRA:          -6.002
REMARK INTER:                  -5.946
REMARK INTRA:                  -0.056
REMARK UNBOUND:                -0.051
REMARK SMILES O=c1c(O)c(-c2ccc(O)cc2)oc2cc(O)cc(O)c12
REMARK SMILES IDX 5 1 3 2 2 3 1 4 21 5 19 6 18 7 16 8 15 9 14 10 13 11 6 12
REMARK SMILES IDX 7 13 8 14 9 15 12 16 11 17 10 18 4 20 20 22 17 24
REMARK H PARENT 10 19 4 21 20 23 17 25
REMARK Flexibility Score: inf
ROOT
ATOM      1  C   UNL     1      46.205  16.189  -3.865  1.00  0.00     0.180 A 
ATOM      2  C   UNL     1      47.487  16.445  -4.380  1.00  0.00     0.208 A 
ATOM      3  C   UNL     1      48.495  15.482  -4.206  1.00  0.00     0.238 A 
ATOM      4  O   UNL     1      49.655  15.739  -4.622  1.00  0.00    -0.285 OA
ATOM      5  C   UNL     1      48.204  14.269  -3.536  1.00  0.00     0.111 A 
ATOM      6  C   UNL     1      49.137  13.208  -3.339  1.00  0.00     0.134 A 
ATOM      7  C   UNL     1      48.777  12.110  -2.547  1.00  0.00     0.093 A 
ATOM      8  C   UNL     1      47.496  12.006  -2.000  1.00  0.00     0.123 A 
ATOM      9  C   UNL     1      46.558  13.009  -2.235  1.00  0.00     0.094 A 
ATOM     10  C   UNL     1      46.900  14.134  -2.991  1.00  0.00     0.146 A 
ATOM     11  O   UNL     1      45.980  15.072  -3.183  1.00  0.00    -0.452 OA
ENDROOT
BRANCH   1  12
ATOM     12  C   UNL     1      45.085  17.144  -4.029  1.00  0.00     0.021 A 
ATOM     13  C   UNL     1      44.357  17.557  -2.902  1.00  0.00     0.016 A 
ATOM     14  C   UNL     1      43.282  18.440  -3.037  1.00  0.00     0.047 A 
ATOM     15  C   UNL     1      42.911  18.909  -4.300  1.00  0.00     0.115 A 
ATOM     16  C   UNL     1      44.695  17.603  -5.300  1.00  0.00     0.016 A 
ATOM     17  C   UNL     1      43.619  18.486  -5.433  1.00  0.00     0.047 A 
BRANCH  15  18
ATOM     18  O   UNL     1      41.838  19.790  -4.420  1.00  0.00    -0.508 OA
ATOM     19  H   UNL     1      41.936  20.682  -4.891  1.00  0.00     0.293 HD
ENDBRANCH  15  18
ENDBRANCH   1  12
BRANCH   2  20
ATOM     20  O   UNL     1      47.760  17.657  -5.020  1.00  0.00    -0.502 OA
ATOM     21  H   UNL     1      47.872  17.729  -6.023  1.00  0.00     0.293 HD
ENDBRANCH   2  20
BRANCH   6  22
ATOM     22  O   UNL     1      50.409  13.169  -3.917  1.00  0.00    -0.507 OA
ATOM     23  H   UNL     1      50.600  13.319  -4.897  1.00  0.00     0.293 HD
ENDBRANCH   6  22
BRANCH   8  24
ATOM     24  O   UNL     1      47.141  10.902  -1.226  1.00  0.00    -0.508 OA
ATOM     25  H   UNL     1      47.791  10.145  -1.054  1.00  0.00     0.293 HD
ENDBRANCH   8  24
TORSDOF 5
ENDMDL
MODEL 5
REMARK VINA RESULT:    -5.001      2.350      3.174
REMARK INTER + INTRA:          -5.930
REMARK INTER:                  -5.737
REMARK INTRA:                  -0.193
REMARK UNBOUND:                -0.051
REMARK SMILES O=c1c(O)c(-c2ccc(O)cc2)oc2cc(O)cc(O)c12
REMARK SMILES IDX 5 1 3 2 2 3 1 4 21 5 19 6 18 7 16 8 15 9 14 10 13 11 6 12
REMARK SMILES IDX 7 13 8 14 9 15 12 16 11 17 10 18 4 20 20 22 17 24
REMARK H PARENT 10 19 4 21 20 23 17 25
REMARK Flexibility Score: inf
ROOT
ATOM      1  C   UNL     1      45.604  14.966  -3.352  1.00  0.00     0.180 A 
ATOM      2  C   UNL     1      46.047  14.808  -4.676  1.00  0.00     0.208 A 
ATOM      3  C   UNL     1      47.078  13.893  -4.944  1.00  0.00     0.238 A 
ATOM      4  O   UNL     1      47.508  13.795  -6.124  1.00  0.00    -0.285 OA
ATOM      5  C   UNL     1      47.639  13.134  -3.889  1.00  0.00     0.111 A 
ATOM      6  C   UNL     1      48.659  12.150  -4.052  1.00  0.00     0.134 A 
ATOM      7  C   UNL     1      49.233  11.555  -2.921  1.00  0.00     0.093 A 
ATOM      8  C   UNL     1      48.776  11.862  -1.637  1.00  0.00     0.123 A 
ATOM      9  C   UNL     1      47.740  12.778  -1.470  1.00  0.00     0.094 A 
ATOM     10  C   UNL     1      47.174  13.415  -2.578  1.00  0.00     0.146 A 
ATOM     11  O   UNL     1      46.196  14.290  -2.374  1.00  0.00    -0.452 OA
ENDROOT
BRANCH   1  12
ATOM     12  C   UNL     1      44.506  15.893  -2.994  1.00  0.00     0.021 A 
ATOM     13  C   UNL     1      43.244  15.376  -2.661  1.00  0.00     0.016 A 
ATOM     14  C   UNL     1      42.187  16.234  -2.342  1.00  0.00     0.047 A 
ATOM     15  C   UNL     1      42.374  17.619  -2.366  1.00  0.00     0.115 A 
ATOM     16  C   UNL     1      44.683  17.288  -3.036  1.00  0.00     0.016 A 
ATOM     17  C   UNL     1      43.625  18.145  -2.717  1.00  0.00     0.047 A 
BRANCH  15  18
ATOM     18  O   UNL     1      41.313  18.462  -2.045  1.00  0.00    -0.508 OA
ATOM     19  H   UNL     1      41.222  19.381  -2.463  1.00  0.00     0.293 HD
ENDBRANCH  15  18
ENDBRANCH   1  12
BRANCH   2  20
ATOM     20  O   UNL     1      45.494  15.582  -5.700  1.00  0.00    -0.502 OA
ATOM     21  H   UNL     1      45.547  16.593  -5.707  1.00  0.00     0.293 HD
ENDBRANCH   2  20
BRANCH   6  22
ATOM     22  O   UNL     1      49.123  11.703  -5.293  1.00  0.00    -0.507 OA
ATOM     23  H   UNL     1      49.528  12.296  -6.002  1.00  0.00     0.293 HD
ENDBRANCH   6  22
BRANCH   8  24
ATOM     24  O   UNL     1      49.341  11.253  -0.517  1.00  0.00    -0.508 OA
ATOM     25  H   UNL     1      49.041  10.338  -0.204  1.00  0.00     0.293 HD
ENDBRANCH   8  24
TORSDOF 5
ENDMDL
MODEL 6
REMARK VINA RESULT:    -4.954      1.459      6.580
REMARK INTER + INTRA:          -5.874
REMARK INTER:                  -5.973
REMARK INTRA:                   0.099
REMARK UNBOUND:                -0.051
REMARK SMILES O=c1c(O)c(-c2ccc(O)cc2)oc2cc(O)cc(O)c12
REMARK SMILES IDX 5 1 3 2 2 3 1 4 21 5 19 6 18 7 16 8 15 9 14 10 13 11 6 12
REMARK SMILES IDX 7 13 8 14 9 15 12 16 11 17 10 18 4 20 20 22 17 24
REMARK H PARENT 10 19 4 21 20 23 17 25
REMARK Flexibility Score: inf
ROOT
ATOM      1  C   UNL     1      49.025  14.914  -4.320  1.00  0.00     0.180 A 
ATOM      2  C   UNL     1      48.467  13.942  -3.470  1.00  0.00     0.208 A 
ATOM      3  C   UNL     1      47.117  14.055  -3.102  1.00  0.00     0.238 A 
ATOM      4  O   UNL     1      46.637  13.212  -2.298  1.00  0.00    -0.285 OA
ATOM      5  C   UNL     1      46.336  15.126  -3.600  1.00  0.00     0.111 A 
ATOM      6  C   UNL     1      44.950  15.315  -3.324  1.00  0.00     0.134 A 
ATOM      7  C   UNL     1      44.311  16.481  -3.763  1.00  0.00     0.093 A 
ATOM      8  C   UNL     1      44.994  17.434  -4.524  1.00  0.00     0.123 A 
ATOM      9  C   UNL     1      46.333  17.230  -4.848  1.00  0.00     0.094 A 
ATOM     10  C   UNL     1      47.006  16.094  -4.393  1.00  0.00     0.146 A 
ATOM     11  O   UNL     1      48.286  15.943  -4.716  1.00  0.00    -0.452 OA
ENDROOT
BRANCH   1  12
ATOM     12  C   UNL     1      50.433  14.850  -4.771  1.00  0.00     0.021 A 
ATOM     13  C   UNL     1      51.194  16.029  -4.835  1.00  0.00     0.016 A 
ATOM     14  C   UNL     1      52.518  15.996  -5.281  1.00  0.00     0.047 A 
ATOM     15  C   UNL     1      53.095  14.787  -5.682  1.00  0.00     0.115 A 
ATOM     16  C   UNL     1      51.013  13.640  -5.195  1.00  0.00     0.016 A 
ATOM     17  C   UNL     1      52.338  13.609  -5.641  1.00  0.00     0.047 A 
BRANCH  15  18
ATOM     18  O   UNL     1      54.417  14.768  -6.123  1.00  0.00    -0.508 OA
ATOM     19  H   UNL     1      54.786  13.988  -6.654  1.00  0.00     0.293 HD
ENDBRANCH  15  18
ENDBRANCH   1  12
BRANCH   2  20
ATOM     20  O   UNL     1      49.260  12.904  -2.973  1.00  0.00    -0.502 OA
ATOM     21  H   UNL     1      50.113  12.606  -3.428  1.00  0.00     0.293 HD
ENDBRANCH   2  20
BRANCH   6  22
ATOM     22  O   UNL     1      44.152  14.383  -2.653  1.00  0.00    -0.507 OA
ATOM     23  H   UNL     1      43.542  13.718  -3.106  1.00  0.00     0.293 HD
ENDBRANCH   6  22
BRANCH   8  24
ATOM     24  O   UNL     1      44.346  18.585  -4.970  1.00  0.00    -0.508 OA
ATOM     25  H   UNL     1      43.595  18.540  -5.647  1.00  0.00     0.293 HD
ENDBRANCH   8  24
TORSDOF 5
ENDMDL
MODEL 7
REMARK VINA RESULT:    -4.871      1.708      3.086
REMARK INTER + INTRA:          -5.776
REMARK INTER:                  -5.983
REMARK INTRA:                   0.206
REMARK UNBOUND:                -0.051
REMARK SMILES O=c1c(O)c(-c2ccc(O)cc2)oc2cc(O)cc(O)c12
REMARK SMILES IDX 5 1 3 2 2 3 1 4 21 5 19 6 18 7 16 8 15 9 14 10 13 11 6 12
REMARK SMILES IDX 7 13 8 14 9 15 12 16 11 17 10 18 4 20 20 22 17 24
REMARK H PARENT 10 19 4 21 20 23 17 25
REMARK Flexibility Score: inf
ROOT
ATOM      1  C   UNL     1      45.478  16.100  -3.429  1.00  0.00     0.180 A 
ATOM      2  C   UNL     1      46.200  16.778  -4.427  1.00  0.00     0.208 A 
ATOM      3  C   UNL     1      47.449  16.273  -4.824  1.00  0.00     0.238 A 
ATOM      4  O   UNL     1      48.116  16.914  -5.680  1.00  0.00    -0.285 OA
ATOM      5  C   UNL     1      47.952  15.089  -4.233  1.00  0.00     0.111 A 
ATOM      6  C   UNL     1      49.186  14.468  -4.587  1.00  0.00     0.134 A 
ATOM      7  C   UNL     1      49.647  13.373  -3.844  1.00  0.00     0.093 A 
ATOM      8  C   UNL     1      48.885  12.839  -2.802  1.00  0.00     0.123 A 
ATOM      9  C   UNL     1      47.652  13.403  -2.486  1.00  0.00     0.094 A 
ATOM     10  C   UNL     1      47.183  14.518  -3.186  1.00  0.00     0.146 A 
ATOM     11  O   UNL     1      46.006  15.031  -2.846  1.00  0.00    -0.452 OA
ENDROOT
BRANCH   1  12
ATOM     12  C   UNL     1      44.145  16.556  -2.975  1.00  0.00     0.021 A 
ATOM     13  C   UNL     1      43.913  17.927  -2.775  1.00  0.00     0.016 A 
ATOM     14  C   UNL     1      42.669  18.378  -2.324  1.00  0.00     0.047 A 
ATOM     15  C   UNL     1      41.646  17.465  -2.053  1.00  0.00     0.115 A 
ATOM     16  C   UNL     1      43.118  15.641  -2.681  1.00  0.00     0.016 A 
ATOM     17  C   UNL     1      41.874  16.094  -2.230  1.00  0.00     0.047 A 
BRANCH  15  18
ATOM     18  O   UNL     1      40.410  17.928  -1.606  1.00  0.00    -0.508 OA
ATOM     19  H   UNL     1      39.570  17.815  -2.161  1.00  0.00     0.293 HD
ENDBRANCH  15  18
ENDBRANCH   1  12
BRANCH   2  20
ATOM     20  O   UNL     1      45.695  17.956  -4.984  1.00  0.00    -0.502 OA
ATOM     21  H   UNL     1      44.705  18.162  -5.013  1.00  0.00     0.293 HD
ENDBRANCH   2  20
BRANCH   6  22
ATOM     22  O   UNL     1      49.979  14.864  -5.669  1.00  0.00    -0.507 OA
ATOM     23  H   UNL     1      50.984  14.945  -5.645  1.00  0.00     0.293 HD
ENDBRANCH   6  22
BRANCH   8  24
ATOM     24  O   UNL     1      49.344  11.740  -2.078  1.00  0.00    -0.508 OA
ATOM     25  H   UNL     1      50.227  11.294  -2.295  1.00  0.00     0.293 HD
ENDBRANCH   8  24
TORSDOF 5
ENDMDL
MODEL 8
REMARK VINA RESULT:    -4.830      1.760      6.421
REMARK INTER + INTRA:          -5.728
REMARK INTER:                  -5.800
REMARK INTRA:                   0.071
REMARK UNBOUND:                -0.051
REMARK SMILES O=c1c(O)c(-c2ccc(O)cc2)oc2cc(O)cc(O)c12
REMARK SMILES IDX 5 1 3 2 2 3 1 4 21 5 19 6 18 7 16 8 15 9 14 10 13 11 6 12
REMARK SMILES IDX 7 13 8 14 9 15 12 16 11 17 10 18 4 20 20 22 17 24
REMARK H PARENT 10 19 4 21 20 23 17 25
REMARK Flexibility Score: inf
ROOT
ATOM      1  C   UNL     1      46.057  16.086  -4.008  1.00  0.00     0.180 A 
ATOM      2  C   UNL     1      45.516  14.798  -3.848  1.00  0.00     0.208 A 
ATOM      3  C   UNL     1      44.225  14.665  -3.312  1.00  0.00     0.238 A 
ATOM      4  O   UNL     1      43.767  13.508  -3.120  1.00  0.00    -0.285 OA
ATOM      5  C   UNL     1      43.484  15.819  -2.960  1.00  0.00     0.111 A 
ATOM      6  C   UNL     1      42.153  15.803  -2.446  1.00  0.00     0.134 A 
ATOM      7  C   UNL     1      41.567  16.997  -2.008  1.00  0.00     0.093 A 
ATOM      8  C   UNL     1      42.241  18.215  -2.127  1.00  0.00     0.123 A 
ATOM      9  C   UNL     1      43.518  18.250  -2.681  1.00  0.00     0.094 A 
ATOM     10  C   UNL     1      44.142  17.070  -3.093  1.00  0.00     0.146 A 
ATOM     11  O   UNL     1      45.365  17.146  -3.606  1.00  0.00    -0.452 OA
ENDROOT
BRANCH   1  12
ATOM     12  C   UNL     1      47.401  16.309  -4.588  1.00  0.00     0.021 A 
ATOM     13  C   UNL     1      48.503  15.607  -4.073  1.00  0.00     0.016 A 
ATOM     14  C   UNL     1      49.784  15.819  -4.590  1.00  0.00     0.047 A 
ATOM     15  C   UNL     1      49.983  16.745  -5.618  1.00  0.00     0.115 A 
ATOM     16  C   UNL     1      47.611  17.254  -5.609  1.00  0.00     0.016 A 
ATOM     17  C   UNL     1      48.893  17.465  -6.125  1.00  0.00     0.047 A 
BRANCH  15  18
ATOM     18  O   UNL     1      51.265  16.945  -6.125  1.00  0.00    -0.508 OA
ATOM     19  H   UNL     1      52.025  16.310  -5.909  1.00  0.00     0.293 HD
ENDBRANCH  15  18
ENDBRANCH   1  12
BRANCH   2  20
ATOM     20  O   UNL     1      46.271  13.671  -4.182  1.00  0.00    -0.502 OA
ATOM     21  H   UNL     1      46.647  13.524  -5.111  1.00  0.00     0.293 HD
ENDBRANCH   2  20
BRANCH   6  22
ATOM     22  O   UNL     1      41.359  14.654  -2.371  1.00  0.00    -0.507 OA
ATOM     23  H   UNL     1      40.892  14.227  -3.157  1.00  0.00     0.293 HD
ENDBRANCH   6  22
BRANCH   8  24
ATOM     24  O   UNL     1      41.643  19.401  -1.703  1.00  0.00    -0.508 OA
ATOM     25  H   UNL     1      42.073  20.302  -1.876  1.00  0.00     0.293 HD
ENDBRANCH   8  24
TORSDOF 5
ENDMDL
MODEL 9
REMARK VINA RESULT:    -4.793      3.063      7.713
REMARK INTER + INTRA:          -5.685
REMARK INTER:                  -5.438
REMARK INTRA:                  -0.246
REMARK UNBOUND:                -0.051
REMARK SMILES O=c1c(O)c(-c2ccc(O)cc2)oc2cc(O)cc(O)c12
REMARK SMILES IDX 5 1 3 2 2 3 1 4 21 5 19 6 18 7 16 8 15 9 14 10 13 11 6 12
REMARK SMILES IDX 7 13 8 14 9 15 12 16 11 17 10 18 4 20 20 22 17 24
REMARK H PARENT 10 19 4 21 20 23 17 25
REMARK Flexibility Score: inf
ROOT
ATOM      1  C   UNL     1      44.015  16.466  -3.102  1.00  0.00     0.180 A 
ATOM      2  C   UNL     1      44.292  17.331  -4.175  1.00  0.00     0.208 A 
ATOM      3  C   UNL     1      43.759  18.630  -4.157  1.00  0.00     0.238 A 
ATOM      4  O   UNL     1      43.965  19.383  -5.145  1.00  0.00    -0.285 OA
ATOM      5  C   UNL     1      42.970  19.054  -3.060  1.00  0.00     0.111 A 
ATOM      6  C   UNL     1      42.413  20.359  -2.918  1.00  0.00     0.134 A 
ATOM      7  C   UNL     1      41.540  20.627  -1.856  1.00  0.00     0.093 A 
ATOM      8  C   UNL     1      41.258  19.653  -0.895  1.00  0.00     0.123 A 
ATOM      9  C   UNL     1      41.842  18.393  -0.991  1.00  0.00     0.094 A 
ATOM     10  C   UNL     1      42.688  18.086  -2.060  1.00  0.00     0.146 A 
ATOM     11  O   UNL     1      43.217  16.869  -2.121  1.00  0.00    -0.452 OA
ENDROOT
BRANCH   1  12
ATOM     12  C   UNL     1      44.561  15.091  -3.038  1.00  0.00     0.021 A 
ATOM     13  C   UNL     1      43.706  13.996  -3.248  1.00  0.00     0.016 A 
ATOM     14  C   UNL     1      44.195  12.689  -3.169  1.00  0.00     0.047 A 
ATOM     15  C   UNL     1      45.540  12.459  -2.866  1.00  0.00     0.115 A 
ATOM     16  C   UNL     1      45.909  14.852  -2.714  1.00  0.00     0.016 A 
ATOM     17  C   UNL     1      46.396  13.544  -2.636  1.00  0.00     0.047 A 
BRANCH  15  18
ATOM     18  O   UNL     1      46.015  11.151  -2.792  1.00  0.00    -0.508 OA
ATOM     19  H   UNL     1      46.986  10.929  -2.980  1.00  0.00     0.293 HD
ENDBRANCH  15  18
ENDBRANCH   1  12
BRANCH   2  20
ATOM     20  O   UNL     1      45.055  16.887  -5.258  1.00  0.00    -0.502 OA
ATOM     21  H   UNL     1      44.703  16.886  -6.207  1.00  0.00     0.293 HD
ENDBRANCH   2  20
BRANCH   6  22
ATOM     22  O   UNL     1      42.704  21.429  -3.770  1.00  0.00    -0.507 OA
ATOM     23  H   UNL     1      42.775  22.393  -3.478  1.00  0.00     0.293 HD
ENDBRANCH   6  22
BRANCH   8  24
ATOM     24  O   UNL     1      40.400  19.933   0.168  1.00  0.00    -0.508 OA
ATOM     25  H   UNL     1      39.865  19.203   0.623  1.00  0.00     0.293 HD
ENDBRANCH   8  24
TORSDOF 5
ENDMDL
