MODEL 1
REMARK VINA RESULT:    -1.819      0.000      0.000
REMARK INTER + INTRA:          -1.819
REMARK INTER:                  -1.819
REMARK INTRA:                   0.000
REMARK UNBOUND:                 0.000
REMARK SMILES CC(=O)[O-]
REMARK SMILES IDX 1 1 2 2 3 3 4 4
REMARK H PARENT
REMARK Flexibility Score: inf
ROOT
ATOM      1  C   UNL     1     110.625 125.588 105.087  1.00  0.00     0.063 C 
ATOM      2  C   UNL     1     110.564 124.501 106.106  1.00  0.00     0.038 C 
ATOM      3  O   UNL     1     110.896 123.326 105.796  1.00  0.00    -0.550 OA
ATOM      4  O   UNL     1     110.193 124.790 107.412  1.00  0.00    -0.550 OA
ENDROOT
TORSDOF 0
ENDMDL
MODEL 2
REMARK VINA RESULT:    -1.806      0.101      1.620
REMARK INTER + INTRA:          -1.806
REMARK INTER:                  -1.806
REMARK INTRA:                   0.000
REMARK UNBOUND:                 0.000
REMARK SMILES CC(=O)[O-]
REMARK SMILES IDX 1 1 2 2 3 3 4 4
REMARK H PARENT
REMARK Flexibility Score: inf
ROOT
ATOM      1  C   UNL     1     110.608 125.599 105.033  1.00  0.00     0.063 C 
ATOM      2  C   UNL     1     110.585 124.557 106.099  1.00  0.00     0.038 C 
ATOM      3  O   UNL     1     110.209 124.853 107.264  1.00  0.00    -0.550 OA
ATOM      4  O   UNL     1     110.926 123.245 105.799  1.00  0.00    -0.550 OA
ENDROOT
TORSDOF 0
ENDMDL
MODEL 3
REMARK VINA RESULT:    -1.737     12.084     12.516
REMARK INTER + INTRA:          -1.737
REMARK INTER:                  -1.737
REMARK INTRA:                   0.000
REMARK UNBOUND:                 0.000
REMARK SMILES CC(=O)[O-]
REMARK SMILES IDX 1 1 2 2 3 3 4 4
REMARK H PARENT
REMARK Flexibility Score: inf
ROOT
ATOM      1  C   UNL     1     112.470 138.011 104.566  1.00  0.00     0.063 C 
ATOM      2  C   UNL     1     112.524 136.820 105.462  1.00  0.00     0.038 C 
ATOM      3  O   UNL     1     113.625 136.439 105.939  1.00  0.00    -0.550 OA
ATOM      4  O   UNL     1     111.354 136.162 105.817  1.00  0.00    -0.550 OA
ENDROOT
TORSDOF 0
ENDMDL
MODEL 4
REMARK VINA RESULT:    -1.700      1.763      2.053
REMARK INTER + INTRA:          -1.700
REMARK INTER:                  -1.700
REMARK INTRA:                   0.000
REMARK UNBOUND:                 0.000
REMARK SMILES CC(=O)[O-]
REMARK SMILES IDX 1 1 2 2 3 3 4 4
REMARK H PARENT
REMARK Flexibility Score: inf
ROOT
ATOM      1  C   UNL     1     110.240 124.236 106.886  1.00  0.00     0.063 C 
ATOM      2  C   UNL     1     110.562 125.052 105.680  1.00  0.00     0.038 C 
ATOM      3  O   UNL     1     109.878 124.925 104.631  1.00  0.00    -0.550 OA
ATOM      4  O   UNL     1     111.582 125.994 105.728  1.00  0.00    -0.550 OA
ENDROOT
TORSDOF 0
ENDMDL
MODEL 5
REMARK VINA RESULT:    -1.660     18.443     18.891
REMARK INTER + INTRA:          -1.660
REMARK INTER:                  -1.660
REMARK INTRA:                   0.000
REMARK UNBOUND:                 0.000
REMARK SMILES CC(=O)[O-]
REMARK SMILES IDX 1 1 2 2 3 3 4 4
REMARK H PARENT
REMARK Flexibility Score: inf
ROOT
ATOM      1  C   UNL     1     120.723 128.113 119.994  1.00  0.00     0.063 C 
ATOM      2  C   UNL     1     122.058 127.965 120.642  1.00  0.00     0.038 C 
ATOM      3  O   UNL     1     122.246 128.402 121.808  1.00  0.00    -0.550 OA
ATOM      4  O   UNL     1     123.082 127.296 119.984  1.00  0.00    -0.550 OA
ENDROOT
TORSDOF 0
ENDMDL
MODEL 6
REMARK VINA RESULT:    -1.646     18.513     18.967
REMARK INTER + INTRA:          -1.646
REMARK INTER:                  -1.646
REMARK INTRA:                   0.000
REMARK UNBOUND:                 0.000
REMARK SMILES CC(=O)[O-]
REMARK SMILES IDX 1 1 2 2 3 3 4 4
REMARK H PARENT
REMARK Flexibility Score: inf
ROOT
ATOM      1  C   UNL     1     123.086 127.483 119.859  1.00  0.00     0.063 C 
ATOM      2  C   UNL     1     122.027 128.059 120.737  1.00  0.00     0.038 C 
ATOM      3  O   UNL     1     122.327 128.512 121.873  1.00  0.00    -0.550 OA
ATOM      4  O   UNL     1     120.718 128.147 120.283  1.00  0.00    -0.550 OA
ENDROOT
TORSDOF 0
ENDMDL
MODEL 7
REMARK VINA RESULT:    -1.624     20.574     20.885
REMARK INTER + INTRA:          -1.624
REMARK INTER:                  -1.624
REMARK INTRA:                   0.000
REMARK UNBOUND:                 0.000
REMARK SMILES CC(=O)[O-]
REMARK SMILES IDX 1 1 2 2 3 3 4 4
REMARK H PARENT
REMARK Flexibility Score: inf
ROOT
ATOM      1  C   UNL     1     124.091 127.482 120.078  1.00  0.00     0.063 C 
ATOM      2  C   UNL     1     125.488 127.139 120.473  1.00  0.00     0.038 C 
ATOM      3  O   UNL     1     125.840 125.933 120.565  1.00  0.00    -0.550 OA
ATOM      4  O   UNL     1     126.419 128.147 120.686  1.00  0.00    -0.550 OA
ENDROOT
TORSDOF 0
ENDMDL
MODEL 8
REMARK VINA RESULT:    -1.619     20.138     20.525
REMARK INTER + INTRA:          -1.619
REMARK INTER:                  -1.619
REMARK INTRA:                   0.000
REMARK UNBOUND:                 0.000
REMARK SMILES CC(=O)[O-]
REMARK SMILES IDX 1 1 2 2 3 3 4 4
REMARK H PARENT
REMARK Flexibility Score: inf
ROOT
ATOM      1  C   UNL     1     125.729 126.382 120.396  1.00  0.00     0.063 C 
ATOM      2  C   UNL     1     124.854 127.590 120.410  1.00  0.00     0.038 C 
ATOM      3  O   UNL     1     125.367 128.740 120.434  1.00  0.00    -0.550 OA
ATOM      4  O   UNL     1     123.474 127.452 120.342  1.00  0.00    -0.550 OA
ENDROOT
TORSDOF 0
ENDMDL
MODEL 9
REMARK VINA RESULT:    -1.612     13.177     13.751
REMARK INTER + INTRA:          -1.612
REMARK INTER:                  -1.612
REMARK INTRA:                   0.000
REMARK UNBOUND:                 0.000
REMARK SMILES CC(=O)[O-]
REMARK SMILES IDX 1 1 2 2 3 3 4 4
REMARK H PARENT
REMARK Flexibility Score: inf
ROOT
ATOM      1  C   UNL     1     112.542 138.707 106.465  1.00  0.00     0.063 C 
ATOM      2  C   UNL     1     112.433 138.007 105.153  1.00  0.00     0.038 C 
ATOM      3  O   UNL     1     112.141 138.656 104.114  1.00  0.00    -0.550 OA
ATOM      4  O   UNL     1     112.705 136.648 105.063  1.00  0.00    -0.550 OA
ENDROOT
TORSDOF 0
ENDMDL
