MODEL 1
REMARK VINA RESULT:    -8.122      0.000      0.000
REMARK INTER + INTRA:         -11.969
REMARK INTER:                 -10.258
REMARK INTRA:                  -1.711
REMARK UNBOUND:                -1.711
REMARK SMILES O[C@@H]1OC[C@H](Cc2ccc3c(c2)OCO3)[C@H]1Cc1ccc2c(c1)OCO2
REMARK SMILES IDX 4 1 5 2 16 3 2 4 3 5 6 6 7 7 12 8 8 9 11 10 9 11 10 12 13 13
REMARK SMILES IDX 15 14 14 15 17 16 18 17 23 18 19 19 22 20 20 21 21 22 24 23
REMARK SMILES IDX 26 24 25 25 1 26
REMARK H PARENT 1 27
REMARK Flexibility Score: inf
ROOT
ATOM      1  C   UNL     1     -14.625 -26.389 -12.586  1.00  0.00     0.168 C 
ATOM      2  C   UNL     1     -13.863 -27.501 -11.861  1.00  0.00     0.028 C 
ATOM      3  C   UNL     1     -13.740 -28.602 -12.909  1.00  0.00     0.055 C 
ATOM      4  C   UNL     1     -14.659 -28.120 -14.034  1.00  0.00     0.250 C 
ATOM      5  O   UNL     1     -14.744 -26.720 -13.949  1.00  0.00    -0.352 OA
ENDROOT
BRANCH   2   6
ATOM      6  C   UNL     1     -12.482 -27.051 -11.338  1.00  0.00     0.042 C 
BRANCH   6   7
ATOM      7  C   UNL     1     -12.047 -27.855 -10.139  1.00  0.00    -0.044 A 
ATOM      8  C   UNL     1     -10.690 -28.221  -9.989  1.00  0.00     0.054 A 
ATOM      9  C   UNL     1     -12.993 -28.259  -9.162  1.00  0.00     0.008 A 
ATOM     10  C   UNL     1     -10.333 -28.973  -8.873  1.00  0.00     0.166 A 
ATOM     11  C   UNL     1     -12.588 -29.012  -8.044  1.00  0.00     0.051 A 
ATOM     12  C   UNL     1     -11.241 -29.349  -7.940  1.00  0.00     0.165 A 
ATOM     13  O   UNL     1      -9.087 -29.452  -8.521  1.00  0.00    -0.454 OA
ATOM     14  O   UNL     1     -10.611 -30.082  -6.952  1.00  0.00    -0.454 OA
ATOM     15  C   UNL     1      -9.221 -30.176  -7.290  1.00  0.00     0.468 C 
ENDBRANCH   6   7
ENDBRANCH   2   6
BRANCH   3  16
ATOM     16  C   UNL     1     -14.137 -29.983 -12.337  1.00  0.00     0.044 C 
BRANCH  16  17
ATOM     17  C   UNL     1     -13.123 -31.047 -12.665  1.00  0.00    -0.044 A 
ATOM     18  C   UNL     1     -13.330 -31.916 -13.760  1.00  0.00     0.054 A 
ATOM     19  C   UNL     1     -11.943 -31.168 -11.886  1.00  0.00     0.008 A 
ATOM     20  C   UNL     1     -12.353 -32.869 -14.030  1.00  0.00     0.166 A 
ATOM     21  C   UNL     1     -10.983 -32.151 -12.191  1.00  0.00     0.051 A 
ATOM     22  C   UNL     1     -11.230 -32.984 -13.277  1.00  0.00     0.165 A 
ATOM     23  O   UNL     1     -12.329 -33.812 -15.037  1.00  0.00    -0.454 OA
ATOM     24  O   UNL     1     -10.446 -34.007 -13.770  1.00  0.00    -0.454 OA
ATOM     25  C   UNL     1     -11.114 -34.566 -14.909  1.00  0.00     0.468 C 
ENDBRANCH  16  17
ENDBRANCH   3  16
BRANCH   4  26
ATOM     26  O   UNL     1     -14.128 -28.458 -15.288  1.00  0.00    -0.368 OA
ATOM     27  H   UNL     1     -13.940 -27.610 -15.768  1.00  0.00     0.213 HD
ENDBRANCH   4  26
TORSDOF 5
ENDMDL
MODEL 2
REMARK VINA RESULT:    -8.095      2.731      7.876
REMARK INTER + INTRA:         -11.935
REMARK INTER:                 -10.585
REMARK INTRA:                  -1.350
REMARK UNBOUND:                -1.711
REMARK SMILES O[C@@H]1OC[C@H](Cc2ccc3c(c2)OCO3)[C@H]1Cc1ccc2c(c1)OCO2
REMARK SMILES IDX 4 1 5 2 16 3 2 4 3 5 6 6 7 7 12 8 8 9 11 10 9 11 10 12 13 13
REMARK SMILES IDX 15 14 14 15 17 16 18 17 23 18 19 19 22 20 20 21 21 22 24 23
REMARK SMILES IDX 26 24 25 25 1 26
REMARK H PARENT 1 27
REMARK Flexibility Score: inf
ROOT
ATOM      1  C   UNL     1     -10.111 -33.743 -12.450  1.00  0.00     0.168 C 
ATOM      2  C   UNL     1     -11.553 -33.377 -12.805  1.00  0.00     0.028 C 
ATOM      3  C   UNL     1     -11.735 -31.987 -12.206  1.00  0.00     0.055 C 
ATOM      4  C   UNL     1     -10.477 -31.805 -11.353  1.00  0.00     0.250 C 
ATOM      5  O   UNL     1      -9.469 -32.620 -11.896  1.00  0.00    -0.352 OA
ENDROOT
BRANCH   2   6
ATOM      6  C   UNL     1     -11.826 -33.386 -14.325  1.00  0.00     0.042 C 
BRANCH   6   7
ATOM      7  C   UNL     1     -12.945 -34.329 -14.689  1.00  0.00    -0.044 A 
ATOM      8  C   UNL     1     -14.166 -34.283 -13.980  1.00  0.00     0.054 A 
ATOM      9  C   UNL     1     -12.777 -35.276 -15.733  1.00  0.00     0.008 A 
ATOM     10  C   UNL     1     -15.168 -35.179 -14.341  1.00  0.00     0.166 A 
ATOM     11  C   UNL     1     -13.819 -36.159 -16.071  1.00  0.00     0.051 A 
ATOM     12  C   UNL     1     -15.003 -36.076 -15.344  1.00  0.00     0.165 A 
ATOM     13  O   UNL     1     -16.427 -35.329 -13.794  1.00  0.00    -0.454 OA
ATOM     14  O   UNL     1     -16.152 -36.833 -15.481  1.00  0.00    -0.454 OA
ATOM     15  C   UNL     1     -17.094 -36.386 -14.497  1.00  0.00     0.468 C 
ENDBRANCH   6   7
ENDBRANCH   2   6
BRANCH   3  16
ATOM     16  C   UNL     1     -13.049 -31.880 -11.398  1.00  0.00     0.044 C 
BRANCH  16  17
ATOM     17  C   UNL     1     -13.969 -30.820 -11.945  1.00  0.00    -0.044 A 
ATOM     18  C   UNL     1     -13.534 -29.480 -12.043  1.00  0.00     0.054 A 
ATOM     19  C   UNL     1     -15.273 -31.170 -12.385  1.00  0.00     0.008 A 
ATOM     20  C   UNL     1     -14.418 -28.544 -12.573  1.00  0.00     0.166 A 
ATOM     21  C   UNL     1     -16.136 -30.190 -12.909  1.00  0.00     0.051 A 
ATOM     22  C   UNL     1     -15.665 -28.884 -12.985  1.00  0.00     0.165 A 
ATOM     23  O   UNL     1     -14.220 -27.193 -12.773  1.00  0.00    -0.454 OA
ATOM     24  O   UNL     1     -16.315 -27.763 -13.462  1.00  0.00    -0.454 OA
ATOM     25  C   UNL     1     -15.418 -26.650 -13.348  1.00  0.00     0.468 C 
ENDBRANCH  16  17
ENDBRANCH   3  16
BRANCH   4  26
ATOM     26  O   UNL     1     -10.040 -30.472 -11.390  1.00  0.00    -0.368 OA
ATOM     27  H   UNL     1      -9.094 -30.463 -11.094  1.00  0.00     0.213 HD
ENDBRANCH   4  26
TORSDOF 5
ENDMDL
MODEL 3
REMARK VINA RESULT:    -8.009      1.299      1.997
REMARK INTER + INTRA:         -11.827
REMARK INTER:                  -9.738
REMARK INTRA:                  -2.089
REMARK UNBOUND:                -1.711
REMARK SMILES O[C@@H]1OC[C@H](Cc2ccc3c(c2)OCO3)[C@H]1Cc1ccc2c(c1)OCO2
REMARK SMILES IDX 4 1 5 2 16 3 2 4 3 5 6 6 7 7 12 8 8 9 11 10 9 11 10 12 13 13
REMARK SMILES IDX 15 14 14 15 17 16 18 17 23 18 19 19 22 20 20 21 21 22 24 23
REMARK SMILES IDX 26 24 25 25 1 26
REMARK H PARENT 1 27
REMARK Flexibility Score: inf
ROOT
ATOM      1  C   UNL     1     -14.537 -26.546 -12.717  1.00  0.00     0.168 C 
ATOM      2  C   UNL     1     -13.850 -27.600 -11.846  1.00  0.00     0.028 C 
ATOM      3  C   UNL     1     -13.750 -28.818 -12.759  1.00  0.00     0.055 C 
ATOM      4  C   UNL     1     -14.613 -28.428 -13.960  1.00  0.00     0.250 C 
ATOM      5  O   UNL     1     -14.635 -27.024 -14.037  1.00  0.00    -0.352 OA
ENDROOT
BRANCH   2   6
ATOM      6  C   UNL     1     -12.464 -27.154 -11.333  1.00  0.00     0.042 C 
BRANCH   6   7
ATOM      7  C   UNL     1     -12.050 -27.918 -10.101  1.00  0.00    -0.044 A 
ATOM      8  C   UNL     1     -10.747 -28.460 -10.010  1.00  0.00     0.054 A 
ATOM      9  C   UNL     1     -12.963 -28.109  -9.031  1.00  0.00     0.008 A 
ATOM     10  C   UNL     1     -10.410 -29.168  -8.860  1.00  0.00     0.166 A 
ATOM     11  C   UNL     1     -12.578 -28.825  -7.883  1.00  0.00     0.051 A 
ATOM     12  C   UNL     1     -11.285 -29.341  -7.839  1.00  0.00     0.165 A 
ATOM     13  O   UNL     1      -9.216 -29.790  -8.551  1.00  0.00    -0.454 OA
ATOM     14  O   UNL     1     -10.685 -30.078  -6.836  1.00  0.00    -0.454 OA
ATOM     15  C   UNL     1      -9.351 -30.393  -7.257  1.00  0.00     0.468 C 
ENDBRANCH   6   7
ENDBRANCH   2   6
BRANCH   3  16
ATOM     16  C   UNL     1     -14.226 -30.106 -12.048  1.00  0.00     0.044 C 
BRANCH  16  17
ATOM     17  C   UNL     1     -13.110 -31.097 -11.858  1.00  0.00    -0.044 A 
ATOM     18  C   UNL     1     -12.682 -31.451 -10.559  1.00  0.00     0.054 A 
ATOM     19  C   UNL     1     -12.494 -31.698 -12.988  1.00  0.00     0.008 A 
ATOM     20  C   UNL     1     -11.659 -32.386 -10.441  1.00  0.00     0.166 A 
ATOM     21  C   UNL     1     -11.458 -32.635 -12.823  1.00  0.00     0.051 A 
ATOM     22  C   UNL     1     -11.070 -32.952 -11.525  1.00  0.00     0.165 A 
ATOM     23  O   UNL     1     -11.084 -32.889  -9.292  1.00  0.00    -0.454 OA
ATOM     24  O   UNL     1     -10.093 -33.835 -11.112  1.00  0.00    -0.454 OA
ATOM     25  C   UNL     1     -10.071 -33.830  -9.678  1.00  0.00     0.468 C 
ENDBRANCH  16  17
ENDBRANCH   3  16
BRANCH   4  26
ATOM     26  O   UNL     1     -14.064 -28.930 -15.151  1.00  0.00    -0.368 OA
ATOM     27  H   UNL     1     -13.887 -28.155 -15.744  1.00  0.00     0.213 HD
ENDBRANCH   4  26
TORSDOF 5
ENDMDL
MODEL 4
REMARK VINA RESULT:    -7.993      1.230      1.762
REMARK INTER + INTRA:         -11.807
REMARK INTER:                 -10.375
REMARK INTRA:                  -1.432
REMARK UNBOUND:                -1.711
REMARK SMILES O[C@@H]1OC[C@H](Cc2ccc3c(c2)OCO3)[C@H]1Cc1ccc2c(c1)OCO2
REMARK SMILES IDX 4 1 5 2 16 3 2 4 3 5 6 6 7 7 12 8 8 9 11 10 9 11 10 12 13 13
REMARK SMILES IDX 15 14 14 15 17 16 18 17 23 18 19 19 22 20 20 21 21 22 24 23
REMARK SMILES IDX 26 24 25 25 1 26
REMARK H PARENT 1 27
REMARK Flexibility Score: inf
ROOT
ATOM      1  C   UNL     1     -14.337 -26.277 -12.850  1.00  0.00     0.168 C 
ATOM      2  C   UNL     1     -13.896 -27.500 -12.045  1.00  0.00     0.028 C 
ATOM      3  C   UNL     1     -13.936 -28.639 -13.059  1.00  0.00     0.055 C 
ATOM      4  C   UNL     1     -14.637 -28.010 -14.264  1.00  0.00     0.250 C 
ATOM      5  O   UNL     1     -14.420 -26.622 -14.212  1.00  0.00    -0.352 OA
ENDROOT
BRANCH   2   6
ATOM      6  C   UNL     1     -12.494 -27.342 -11.417  1.00  0.00     0.042 C 
BRANCH   6   7
ATOM      7  C   UNL     1     -12.269 -28.322 -10.293  1.00  0.00    -0.044 A 
ATOM      8  C   UNL     1     -11.466 -29.466 -10.504  1.00  0.00     0.054 A 
ATOM      9  C   UNL     1     -12.867 -28.112  -9.024  1.00  0.00     0.008 A 
ATOM     10  C   UNL     1     -11.293 -30.351  -9.443  1.00  0.00     0.166 A 
ATOM     11  C   UNL     1     -12.660 -29.028  -7.976  1.00  0.00     0.051 A 
ATOM     12  C   UNL     1     -11.863 -30.140  -8.231  1.00  0.00     0.165 A 
ATOM     13  O   UNL     1     -10.571 -31.527  -9.413  1.00  0.00    -0.454 OA
ATOM     14  O   UNL     1     -11.524 -31.171  -7.376  1.00  0.00    -0.454 OA
ATOM     15  C   UNL     1     -10.696 -32.091  -8.100  1.00  0.00     0.468 C 
ENDBRANCH   6   7
ENDBRANCH   2   6
BRANCH   3  16
ATOM     16  C   UNL     1     -14.668 -29.880 -12.497  1.00  0.00     0.044 C 
BRANCH  16  17
ATOM     17  C   UNL     1     -14.271 -31.146 -13.208  1.00  0.00    -0.044 A 
ATOM     18  C   UNL     1     -12.910 -31.515 -13.301  1.00  0.00     0.054 A 
ATOM     19  C   UNL     1     -15.267 -31.985 -13.773  1.00  0.00     0.008 A 
ATOM     20  C   UNL     1     -12.600 -32.704 -13.953  1.00  0.00     0.166 A 
ATOM     21  C   UNL     1     -14.908 -33.177 -14.429  1.00  0.00     0.051 A 
ATOM     22  C   UNL     1     -13.557 -33.499 -14.497  1.00  0.00     0.165 A 
ATOM     23  O   UNL     1     -11.359 -33.271 -14.161  1.00  0.00    -0.454 OA
ATOM     24  O   UNL     1     -12.964 -34.604 -15.076  1.00  0.00    -0.454 OA
ATOM     25  C   UNL     1     -11.548 -34.500 -14.879  1.00  0.00     0.468 C 
ENDBRANCH  16  17
ENDBRANCH   3  16
BRANCH   4  26
ATOM     26  O   UNL     1     -14.098 -28.500 -15.464  1.00  0.00    -0.368 OA
ATOM     27  H   UNL     1     -14.481 -29.403 -15.613  1.00  0.00     0.213 HD
ENDBRANCH   4  26
TORSDOF 5
ENDMDL
MODEL 5
REMARK VINA RESULT:    -7.988      2.647      5.961
REMARK INTER + INTRA:         -11.800
REMARK INTER:                 -10.423
REMARK INTRA:                  -1.377
REMARK UNBOUND:                -1.711
REMARK SMILES O[C@@H]1OC[C@H](Cc2ccc3c(c2)OCO3)[C@H]1Cc1ccc2c(c1)OCO2
REMARK SMILES IDX 4 1 5 2 16 3 2 4 3 5 6 6 7 7 12 8 8 9 11 10 9 11 10 12 13 13
REMARK SMILES IDX 15 14 14 15 17 16 18 17 23 18 19 19 22 20 20 21 21 22 24 23
REMARK SMILES IDX 26 24 25 25 1 26
REMARK H PARENT 1 27
REMARK Flexibility Score: inf
ROOT
ATOM      1  C   UNL     1     -10.491 -31.772 -10.638  1.00  0.00     0.168 C 
ATOM      2  C   UNL     1     -11.641 -31.884 -11.642  1.00  0.00     0.028 C 
ATOM      3  C   UNL     1     -11.428 -33.249 -12.289  1.00  0.00     0.055 C 
ATOM      4  C   UNL     1     -10.045 -33.664 -11.783  1.00  0.00     0.250 C 
ATOM      5  O   UNL     1      -9.817 -33.005 -10.563  1.00  0.00    -0.352 OA
ENDROOT
BRANCH   2   6
ATOM      6  C   UNL     1     -13.034 -31.774 -10.985  1.00  0.00     0.042 C 
BRANCH   6   7
ATOM      7  C   UNL     1     -13.910 -30.771 -11.693  1.00  0.00    -0.044 A 
ATOM      8  C   UNL     1     -13.476 -29.435 -11.843  1.00  0.00     0.054 A 
ATOM      9  C   UNL     1     -15.178 -31.156 -12.202  1.00  0.00     0.008 A 
ATOM     10  C   UNL     1     -14.321 -28.539 -12.492  1.00  0.00     0.166 A 
ATOM     11  C   UNL     1     -15.997 -30.220 -12.860  1.00  0.00     0.051 A 
ATOM     12  C   UNL     1     -15.527 -28.915 -12.982  1.00  0.00     0.165 A 
ATOM     13  O   UNL     1     -14.121 -27.196 -12.745  1.00  0.00    -0.454 OA
ATOM     14  O   UNL     1     -16.145 -27.828 -13.571  1.00  0.00    -0.454 OA
ATOM     15  C   UNL     1     -15.274 -26.698 -13.436  1.00  0.00     0.468 C 
ENDBRANCH   6   7
ENDBRANCH   2   6
BRANCH   3  16
ATOM     16  C   UNL     1     -11.524 -33.171 -13.831  1.00  0.00     0.044 C 
BRANCH  16  17
ATOM     17  C   UNL     1     -12.586 -34.085 -14.381  1.00  0.00    -0.044 A 
ATOM     18  C   UNL     1     -13.850 -34.168 -13.756  1.00  0.00     0.054 A 
ATOM     19  C   UNL     1     -12.327 -34.853 -15.547  1.00  0.00     0.008 A 
ATOM     20  C   UNL     1     -14.801 -35.014 -14.317  1.00  0.00     0.166 A 
ATOM     21  C   UNL     1     -13.317 -35.702 -16.077  1.00  0.00     0.051 A 
ATOM     22  C   UNL     1     -14.545 -35.751 -15.427  1.00  0.00     0.165 A 
ATOM     23  O   UNL     1     -16.093 -35.254 -13.894  1.00  0.00    -0.454 OA
ATOM     24  O   UNL     1     -15.662 -36.494 -15.756  1.00  0.00    -0.454 OA
ATOM     25  C   UNL     1     -16.686 -36.201 -14.796  1.00  0.00     0.468 C 
ENDBRANCH  16  17
ENDBRANCH   3  16
BRANCH   4  26
ATOM     26  O   UNL     1      -9.995 -35.049 -11.557  1.00  0.00    -0.368 OA
ATOM     27  H   UNL     1      -9.742 -35.184 -10.607  1.00  0.00     0.213 HD
ENDBRANCH   4  26
TORSDOF 5
ENDMDL
MODEL 6
REMARK VINA RESULT:    -7.812      1.733      5.192
REMARK INTER + INTRA:         -11.578
REMARK INTER:                  -9.983
REMARK INTRA:                  -1.596
REMARK UNBOUND:                -1.711
REMARK SMILES O[C@@H]1OC[C@H](Cc2ccc3c(c2)OCO3)[C@H]1Cc1ccc2c(c1)OCO2
REMARK SMILES IDX 4 1 5 2 16 3 2 4 3 5 6 6 7 7 12 8 8 9 11 10 9 11 10 12 13 13
REMARK SMILES IDX 15 14 14 15 17 16 18 17 23 18 19 19 22 20 20 21 21 22 24 23
REMARK SMILES IDX 26 24 25 25 1 26
REMARK H PARENT 1 27
REMARK Flexibility Score: inf
ROOT
ATOM      1  C   UNL     1     -11.597 -33.323 -11.248  1.00  0.00     0.168 C 
ATOM      2  C   UNL     1     -12.404 -32.095 -11.675  1.00  0.00     0.028 C 
ATOM      3  C   UNL     1     -13.477 -32.667 -12.596  1.00  0.00     0.055 C 
ATOM      4  C   UNL     1     -13.023 -34.113 -12.808  1.00  0.00     0.250 C 
ATOM      5  O   UNL     1     -12.247 -34.487 -11.697  1.00  0.00    -0.352 OA
ENDROOT
BRANCH   2   6
ATOM      6  C   UNL     1     -13.021 -31.329 -10.486  1.00  0.00     0.042 C 
BRANCH   6   7
ATOM      7  C   UNL     1     -12.296 -30.034 -10.216  1.00  0.00    -0.044 A 
ATOM      8  C   UNL     1     -11.181 -30.017  -9.348  1.00  0.00     0.054 A 
ATOM      9  C   UNL     1     -12.733 -28.825 -10.818  1.00  0.00     0.008 A 
ATOM     10  C   UNL     1     -10.548 -28.799  -9.118  1.00  0.00     0.166 A 
ATOM     11  C   UNL     1     -12.059 -27.617 -10.563  1.00  0.00     0.051 A 
ATOM     12  C   UNL     1     -10.967 -27.649  -9.702  1.00  0.00     0.165 A 
ATOM     13  O   UNL     1      -9.459 -28.534  -8.311  1.00  0.00    -0.454 OA
ATOM     14  O   UNL     1     -10.159 -26.604  -9.294  1.00  0.00    -0.454 OA
ATOM     15  C   UNL     1      -9.177 -27.130  -8.392  1.00  0.00     0.468 C 
ENDBRANCH   6   7
ENDBRANCH   2   6
BRANCH   3  16
ATOM     16  C   UNL     1     -13.593 -31.858 -13.909  1.00  0.00     0.044 C 
BRANCH  16  17
ATOM     17  C   UNL     1     -14.341 -30.565 -13.716  1.00  0.00    -0.044 A 
ATOM     18  C   UNL     1     -13.744 -29.336 -14.076  1.00  0.00     0.054 A 
ATOM     19  C   UNL     1     -15.659 -30.579 -13.189  1.00  0.00     0.008 A 
ATOM     20  C   UNL     1     -14.486 -28.173 -13.894  1.00  0.00     0.166 A 
ATOM     21  C   UNL     1     -16.371 -29.378 -13.016  1.00  0.00     0.051 A 
ATOM     22  C   UNL     1     -15.744 -28.193 -13.383  1.00  0.00     0.165 A 
ATOM     23  O   UNL     1     -14.125 -26.871 -14.174  1.00  0.00    -0.454 OA
ATOM     24  O   UNL     1     -16.234 -26.904 -13.314  1.00  0.00    -0.454 OA
ATOM     25  C   UNL     1     -15.224 -26.020 -13.819  1.00  0.00     0.468 C 
ENDBRANCH  16  17
ENDBRANCH   3  16
BRANCH   4  26
ATOM     26  O   UNL     1     -14.129 -34.974 -12.889  1.00  0.00    -0.368 OA
ATOM     27  H   UNL     1     -14.774 -34.692 -12.189  1.00  0.00     0.213 HD
ENDBRANCH   4  26
TORSDOF 5
ENDMDL
MODEL 7
REMARK VINA RESULT:    -7.791      2.101      5.714
REMARK INTER + INTRA:         -11.551
REMARK INTER:                  -9.714
REMARK INTRA:                  -1.837
REMARK UNBOUND:                -1.711
REMARK SMILES O[C@@H]1OC[C@H](Cc2ccc3c(c2)OCO3)[C@H]1Cc1ccc2c(c1)OCO2
REMARK SMILES IDX 4 1 5 2 16 3 2 4 3 5 6 6 7 7 12 8 8 9 11 10 9 11 10 12 13 13
REMARK SMILES IDX 15 14 14 15 17 16 18 17 23 18 19 19 22 20 20 21 21 22 24 23
REMARK SMILES IDX 26 24 25 25 1 26
REMARK H PARENT 1 27
REMARK Flexibility Score: inf
ROOT
ATOM      1  C   UNL     1     -12.639 -35.388 -13.470  1.00  0.00     0.168 C 
ATOM      2  C   UNL     1     -12.488 -33.907 -13.116  1.00  0.00     0.028 C 
ATOM      3  C   UNL     1     -13.742 -33.263 -13.699  1.00  0.00     0.055 C 
ATOM      4  C   UNL     1     -14.351 -34.384 -14.544  1.00  0.00     0.250 C 
ATOM      5  O   UNL     1     -13.920 -35.610 -14.007  1.00  0.00    -0.352 OA
ENDROOT
BRANCH   2   6
ATOM      6  C   UNL     1     -12.369 -33.654 -11.598  1.00  0.00     0.042 C 
BRANCH   6   7
ATOM      7  C   UNL     1     -11.936 -32.241 -11.297  1.00  0.00    -0.044 A 
ATOM      8  C   UNL     1     -12.835 -31.344 -10.676  1.00  0.00     0.054 A 
ATOM      9  C   UNL     1     -10.634 -31.797 -11.645  1.00  0.00     0.008 A 
ATOM     10  C   UNL     1     -12.399 -30.046 -10.426  1.00  0.00     0.166 A 
ATOM     11  C   UNL     1     -10.231 -30.477 -11.367  1.00  0.00     0.051 A 
ATOM     12  C   UNL     1     -11.151 -29.631 -10.755  1.00  0.00     0.165 A 
ATOM     13  O   UNL     1     -13.092 -29.002  -9.846  1.00  0.00    -0.454 OA
ATOM     14  O   UNL     1     -10.995 -28.306 -10.395  1.00  0.00    -0.454 OA
ATOM     15  C   UNL     1     -12.226 -27.860  -9.810  1.00  0.00     0.468 C 
ENDBRANCH   6   7
ENDBRANCH   2   6
BRANCH   3  16
ATOM     16  C   UNL     1     -13.407 -31.991 -14.511  1.00  0.00     0.044 C 
BRANCH  16  17
ATOM     17  C   UNL     1     -14.207 -30.799 -14.057  1.00  0.00    -0.044 A 
ATOM     18  C   UNL     1     -13.689 -29.493 -14.207  1.00  0.00     0.054 A 
ATOM     19  C   UNL     1     -15.497 -30.983 -13.493  1.00  0.00     0.008 A 
ATOM     20  C   UNL     1     -14.478 -28.426 -13.787  1.00  0.00     0.166 A 
ATOM     21  C   UNL     1     -16.259 -29.876 -13.076  1.00  0.00     0.051 A 
ATOM     22  C   UNL     1     -15.708 -28.610 -13.243  1.00  0.00     0.165 A 
ATOM     23  O   UNL     1     -14.195 -27.076 -13.837  1.00  0.00    -0.454 OA
ATOM     24  O   UNL     1     -16.258 -27.385 -12.921  1.00  0.00    -0.454 OA
ATOM     25  C   UNL     1     -15.318 -26.367 -13.292  1.00  0.00     0.468 C 
ENDBRANCH  16  17
ENDBRANCH   3  16
BRANCH   4  26
ATOM     26  O   UNL     1     -15.753 -34.342 -14.489  1.00  0.00    -0.368 OA
ATOM     27  H   UNL     1     -16.063 -33.814 -15.270  1.00  0.00     0.213 HD
ENDBRANCH   4  26
TORSDOF 5
ENDMDL
MODEL 8
REMARK VINA RESULT:    -7.745      1.459      5.892
REMARK INTER + INTRA:         -11.493
REMARK INTER:                 -10.333
REMARK INTRA:                  -1.160
REMARK UNBOUND:                -1.711
REMARK SMILES O[C@@H]1OC[C@H](Cc2ccc3c(c2)OCO3)[C@H]1Cc1ccc2c(c1)OCO2
REMARK SMILES IDX 4 1 5 2 16 3 2 4 3 5 6 6 7 7 12 8 8 9 11 10 9 11 10 12 13 13
REMARK SMILES IDX 15 14 14 15 17 16 18 17 23 18 19 19 22 20 20 21 21 22 24 23
REMARK SMILES IDX 26 24 25 25 1 26
REMARK H PARENT 1 27
REMARK Flexibility Score: inf
ROOT
ATOM      1  C   UNL     1     -14.393 -28.451 -14.368  1.00  0.00     0.168 C 
ATOM      2  C   UNL     1     -13.796 -28.914 -13.037  1.00  0.00     0.028 C 
ATOM      3  C   UNL     1     -13.760 -27.644 -12.192  1.00  0.00     0.055 C 
ATOM      4  C   UNL     1     -14.095 -26.543 -13.200  1.00  0.00     0.250 C 
ATOM      5  O   UNL     1     -14.842 -27.123 -14.240  1.00  0.00    -0.352 OA
ENDROOT
BRANCH   2   6
ATOM      6  C   UNL     1     -14.617 -30.030 -12.358  1.00  0.00     0.042 C 
BRANCH   6   7
ATOM      7  C   UNL     1     -14.526 -31.333 -13.113  1.00  0.00    -0.044 A 
ATOM      8  C   UNL     1     -13.277 -31.779 -13.602  1.00  0.00     0.054 A 
ATOM      9  C   UNL     1     -15.688 -32.111 -13.349  1.00  0.00     0.008 A 
ATOM     10  C   UNL     1     -13.239 -32.981 -14.303  1.00  0.00     0.166 A 
ATOM     11  C   UNL     1     -15.604 -33.325 -14.056  1.00  0.00     0.051 A 
ATOM     12  C   UNL     1     -14.353 -33.723 -14.519  1.00  0.00     0.165 A 
ATOM     13  O   UNL     1     -12.151 -33.607 -14.879  1.00  0.00    -0.454 OA
ATOM     14  O   UNL     1     -14.020 -34.856 -15.238  1.00  0.00    -0.454 OA
ATOM     15  C   UNL     1     -12.611 -34.818 -15.495  1.00  0.00     0.468 C 
ENDBRANCH   6   7
ENDBRANCH   2   6
BRANCH   3  16
ATOM     16  C   UNL     1     -12.389 -27.455 -11.503  1.00  0.00     0.044 C 
BRANCH  16  17
ATOM     17  C   UNL     1     -12.186 -28.420 -10.365  1.00  0.00    -0.044 A 
ATOM     18  C   UNL     1     -11.370 -29.560 -10.535  1.00  0.00     0.054 A 
ATOM     19  C   UNL     1     -12.801 -28.176  -9.109  1.00  0.00     0.008 A 
ATOM     20  C   UNL     1     -11.201 -30.409  -9.445  1.00  0.00     0.166 A 
ATOM     21  C   UNL     1     -12.609 -29.065  -8.035  1.00  0.00     0.051 A 
ATOM     22  C   UNL     1     -11.797 -30.174  -8.249  1.00  0.00     0.165 A 
ATOM     23  O   UNL     1     -10.454 -31.567  -9.366  1.00  0.00    -0.454 OA
ATOM     24  O   UNL     1     -11.457 -31.174  -7.359  1.00  0.00    -0.454 OA
ATOM     25  C   UNL     1     -10.588 -32.091  -8.037  1.00  0.00     0.468 C 
ENDBRANCH  16  17
ENDBRANCH   3  16
BRANCH   4  26
ATOM     26  O   UNL     1     -14.872 -25.540 -12.600  1.00  0.00    -0.368 OA
ATOM     27  H   UNL     1     -15.462 -25.163 -13.303  1.00  0.00     0.213 HD
ENDBRANCH   4  26
TORSDOF 5
ENDMDL
MODEL 9
REMARK VINA RESULT:    -7.651      1.948      6.165
REMARK INTER + INTRA:         -11.375
REMARK INTER:                  -9.805
REMARK INTRA:                  -1.569
REMARK UNBOUND:                -1.711
REMARK SMILES O[C@@H]1OC[C@H](Cc2ccc3c(c2)OCO3)[C@H]1Cc1ccc2c(c1)OCO2
REMARK SMILES IDX 4 1 5 2 16 3 2 4 3 5 6 6 7 7 12 8 8 9 11 10 9 11 10 12 13 13
REMARK SMILES IDX 15 14 14 15 17 16 18 17 23 18 19 19 22 20 20 21 21 22 24 23
REMARK SMILES IDX 26 24 25 25 1 26
REMARK H PARENT 1 27
REMARK Flexibility Score: inf
ROOT
ATOM      1  C   UNL     1     -16.337 -28.504 -13.621  1.00  0.00     0.168 C 
ATOM      2  C   UNL     1     -15.283 -29.510 -13.153  1.00  0.00     0.028 C 
ATOM      3  C   UNL     1     -14.398 -28.700 -12.210  1.00  0.00     0.055 C 
ATOM      4  C   UNL     1     -14.874 -27.263 -12.432  1.00  0.00     0.250 C 
ATOM      5  O   UNL     1     -16.206 -27.315 -12.880  1.00  0.00    -0.352 OA
ENDROOT
BRANCH   2   6
ATOM      6  C   UNL     1     -15.889 -30.744 -12.450  1.00  0.00     0.042 C 
BRANCH   6   7
ATOM      7  C   UNL     1     -15.150 -32.010 -12.801  1.00  0.00    -0.044 A 
ATOM      8  C   UNL     1     -15.624 -32.839 -13.843  1.00  0.00     0.054 A 
ATOM      9  C   UNL     1     -13.985 -32.386 -12.083  1.00  0.00     0.008 A 
ATOM     10  C   UNL     1     -14.918 -34.004 -14.127  1.00  0.00     0.166 A 
ATOM     11  C   UNL     1     -13.296 -33.569 -12.409  1.00  0.00     0.051 A 
ATOM     12  C   UNL     1     -13.801 -34.353 -13.442  1.00  0.00     0.165 A 
ATOM     13  O   UNL     1     -15.190 -34.964 -15.081  1.00  0.00    -0.454 OA
ATOM     14  O   UNL     1     -13.313 -35.549 -13.934  1.00  0.00    -0.454 OA
ATOM     15  C   UNL     1     -14.182 -35.981 -14.989  1.00  0.00     0.468 C 
ENDBRANCH   6   7
ENDBRANCH   2   6
BRANCH   3  16
ATOM     16  C   UNL     1     -12.897 -28.908 -12.516  1.00  0.00     0.044 C 
BRANCH  16  17
ATOM     17  C   UNL     1     -12.140 -29.425 -11.322  1.00  0.00    -0.044 A 
ATOM     18  C   UNL     1     -12.484 -28.999 -10.020  1.00  0.00     0.054 A 
ATOM     19  C   UNL     1     -11.087 -30.361 -11.500  1.00  0.00     0.008 A 
ATOM     20  C   UNL     1     -11.763 -29.523  -8.951  1.00  0.00     0.166 A 
ATOM     21  C   UNL     1     -10.380 -30.860 -10.391  1.00  0.00     0.051 A 
ATOM     22  C   UNL     1     -10.754 -30.412  -9.128  1.00  0.00     0.165 A 
ATOM     23  O   UNL     1     -11.918 -29.267  -7.603  1.00  0.00    -0.454 OA
ATOM     24  O   UNL     1     -10.221 -30.757  -7.902  1.00  0.00    -0.454 OA
ATOM     25  C   UNL     1     -10.946 -30.045  -6.890  1.00  0.00     0.468 C 
ENDBRANCH  16  17
ENDBRANCH   3  16
BRANCH   4  26
ATOM     26  O   UNL     1     -14.837 -26.537 -11.231  1.00  0.00    -0.368 OA
ATOM     27  H   UNL     1     -14.357 -25.688 -11.414  1.00  0.00     0.213 HD
ENDBRANCH   4  26
TORSDOF 5
ENDMDL
