MODEL 1
REMARK VINA RESULT:    -7.239      0.000      0.000
REMARK INTER + INTRA:         -14.252
REMARK INTER:                 -13.586
REMARK INTRA:                  -0.666
REMARK UNBOUND:                -0.666
REMARK SMILES O=C([O-])CCCCCCCCCCCCCCC(=O)[O-]
REMARK SMILES IDX 10 1 9 2 8 3 7 4 6 5 5 6 4 7 2 8 1 9 3 10 11 11 12 12 13 13
REMARK SMILES IDX 14 14 15 15 16 16 17 17 18 18 19 19 20 20
REMARK H PARENT
REMARK Flexibility Score: inf
ROOT
ATOM      1  C   UNL     1     -23.061 -22.546  32.069  1.00  0.00     0.000 C 
ENDROOT
BRANCH   1   2
ATOM      2  C   UNL     1     -23.114 -23.966  31.478  1.00  0.00     0.000 C 
BRANCH   2   3
ATOM      3  C   UNL     1     -22.516 -24.028  30.056  1.00  0.00     0.000 C 
BRANCH   3   4
ATOM      4  C   UNL     1     -23.452 -24.680  29.023  1.00  0.00     0.000 C 
BRANCH   4   5
ATOM      5  C   UNL     1     -23.469 -26.212  29.115  1.00  0.00     0.000 C 
BRANCH   5   6
ATOM      6  C   UNL     1     -24.784 -26.713  29.723  1.00  0.00     0.006 C 
BRANCH   6   7
ATOM      7  C   UNL     1     -25.924 -26.638  28.702  1.00  0.00     0.053 C 
BRANCH   7   8
ATOM      8  C   UNL     1     -26.442 -28.007  28.394  1.00  0.00     0.041 C 
ATOM      9  O   UNL     1     -26.480 -28.417  27.204  1.00  0.00    -0.550 OA
ATOM     10  O   UNL     1     -26.839 -28.848  29.425  1.00  0.00    -0.550 OA
ENDBRANCH   7   8
ENDBRANCH   6   7
ENDBRANCH   5   6
ENDBRANCH   4   5
ENDBRANCH   3   4
ENDBRANCH   2   3
ENDBRANCH   1   2
BRANCH   1  11
ATOM     11  C   UNL     1     -21.924 -21.693  31.478  1.00  0.00     0.000 C 
BRANCH  11  12
ATOM     12  C   UNL     1     -22.376 -20.615  30.477  1.00  0.00     0.000 C 
BRANCH  12  13
ATOM     13  C   UNL     1     -21.256 -19.622  30.119  1.00  0.00     0.000 C 
BRANCH  13  14
ATOM     14  C   UNL     1     -20.474 -19.149  31.364  1.00  0.00     0.000 C 
BRANCH  14  15
ATOM     15  C   UNL     1     -19.198 -18.356  31.031  1.00  0.00     0.000 C 
BRANCH  15  16
ATOM     16  C   UNL     1     -19.488 -17.053  30.270  1.00  0.00     0.006 C 
BRANCH  16  17
ATOM     17  C   UNL     1     -18.914 -17.071  28.848  1.00  0.00     0.053 C 
BRANCH  17  18
ATOM     18  C   UNL     1     -17.988 -15.919  28.605  1.00  0.00     0.041 C 
ATOM     19  O   UNL     1     -17.585 -15.217  29.570  1.00  0.00    -0.550 OA
ATOM     20  O   UNL     1     -17.593 -15.602  27.312  1.00  0.00    -0.550 OA
ENDBRANCH  17  18
ENDBRANCH  16  17
ENDBRANCH  15  16
ENDBRANCH  14  15
ENDBRANCH  13  14
ENDBRANCH  12  13
ENDBRANCH  11  12
ENDBRANCH   1  11
TORSDOF 15
ENDMDL
MODEL 2
REMARK VINA RESULT:    -7.176      0.747     10.767
REMARK INTER + INTRA:         -14.135
REMARK INTER:                 -13.289
REMARK INTRA:                  -0.847
REMARK UNBOUND:                -0.666
REMARK SMILES O=C([O-])CCCCCCCCCCCCCCC(=O)[O-]
REMARK SMILES IDX 10 1 9 2 8 3 7 4 6 5 5 6 4 7 2 8 1 9 3 10 11 11 12 12 13 13
REMARK SMILES IDX 14 14 15 15 16 16 17 17 18 18 19 19 20 20
REMARK H PARENT
REMARK Flexibility Score: inf
ROOT
ATOM      1  C   UNL     1     -21.852 -21.330  31.476  1.00  0.00     0.000 C 
ENDROOT
BRANCH   1   2
ATOM      2  C   UNL     1     -22.378 -20.331  30.430  1.00  0.00     0.000 C 
BRANCH   2   3
ATOM      3  C   UNL     1     -21.423 -20.191  29.225  1.00  0.00     0.000 C 
BRANCH   3   4
ATOM      4  C   UNL     1     -20.875 -18.767  29.036  1.00  0.00     0.000 C 
BRANCH   4   5
ATOM      5  C   UNL     1     -20.388 -18.135  30.348  1.00  0.00     0.000 C 
BRANCH   5   6
ATOM      6  C   UNL     1     -19.283 -17.106  30.087  1.00  0.00     0.006 C 
BRANCH   6   7
ATOM      7  C   UNL     1     -18.813 -17.162  28.629  1.00  0.00     0.053 C 
BRANCH   7   8
ATOM      8  C   UNL     1     -17.990 -15.958  28.298  1.00  0.00     0.041 C 
ATOM      9  O   UNL     1     -17.501 -15.252  29.218  1.00  0.00    -0.550 OA
ATOM     10  O   UNL     1     -17.725 -15.641  26.972  1.00  0.00    -0.550 OA
ENDBRANCH   7   8
ENDBRANCH   6   7
ENDBRANCH   5   6
ENDBRANCH   4   5
ENDBRANCH   3   4
ENDBRANCH   2   3
ENDBRANCH   1   2
BRANCH   1  11
ATOM     11  C   UNL     1     -22.744 -22.576  31.615  1.00  0.00     0.000 C 
BRANCH  11  12
ATOM     12  C   UNL     1     -22.234 -23.824  30.872  1.00  0.00     0.000 C 
BRANCH  12  13
ATOM     13  C   UNL     1     -22.606 -23.826  29.379  1.00  0.00     0.000 C 
BRANCH  13  14
ATOM     14  C   UNL     1     -23.540 -25.000  29.011  1.00  0.00     0.000 C 
BRANCH  14  15
ATOM     15  C   UNL     1     -24.532 -25.375  30.125  1.00  0.00     0.000 C 
BRANCH  15  16
ATOM     16  C   UNL     1     -25.003 -26.835  30.038  1.00  0.00     0.006 C 
BRANCH  16  17
ATOM     17  C   UNL     1     -25.101 -27.328  28.590  1.00  0.00     0.053 C 
BRANCH  17  18
ATOM     18  C   UNL     1     -26.335 -28.147  28.362  1.00  0.00     0.041 C 
ATOM     19  O   UNL     1     -26.876 -28.757  29.321  1.00  0.00    -0.550 OA
ATOM     20  O   UNL     1     -26.871 -28.261  27.085  1.00  0.00    -0.550 OA
ENDBRANCH  17  18
ENDBRANCH  16  17
ENDBRANCH  15  16
ENDBRANCH  14  15
ENDBRANCH  13  14
ENDBRANCH  12  13
ENDBRANCH  11  12
ENDBRANCH   1  11
TORSDOF 15
ENDMDL
MODEL 3
REMARK VINA RESULT:    -7.169      1.117      1.515
REMARK INTER + INTRA:         -14.122
REMARK INTER:                 -13.382
REMARK INTRA:                  -0.740
REMARK UNBOUND:                -0.666
REMARK SMILES O=C([O-])CCCCCCCCCCCCCCC(=O)[O-]
REMARK SMILES IDX 10 1 9 2 8 3 7 4 6 5 5 6 4 7 2 8 1 9 3 10 11 11 12 12 13 13
REMARK SMILES IDX 14 14 15 15 16 16 17 17 18 18 19 19 20 20
REMARK H PARENT
REMARK Flexibility Score: inf
ROOT
ATOM      1  C   UNL     1     -21.978 -22.296  31.118  1.00  0.00     0.000 C 
ENDROOT
BRANCH   1   2
ATOM      2  C   UNL     1     -23.105 -22.980  31.914  1.00  0.00     0.000 C 
BRANCH   2   3
ATOM      3  C   UNL     1     -23.417 -24.396  31.385  1.00  0.00     0.000 C 
BRANCH   3   4
ATOM      4  C   UNL     1     -22.986 -24.616  29.925  1.00  0.00     0.000 C 
BRANCH   4   5
ATOM      5  C   UNL     1     -23.595 -25.883  29.307  1.00  0.00     0.000 C 
BRANCH   5   6
ATOM      6  C   UNL     1     -25.125 -25.857  29.393  1.00  0.00     0.006 C 
BRANCH   6   7
ATOM      7  C   UNL     1     -25.712 -27.254  29.165  1.00  0.00     0.053 C 
BRANCH   7   8
ATOM      8  C   UNL     1     -26.039 -27.904  30.471  1.00  0.00     0.041 C 
ATOM      9  O   UNL     1     -25.976 -27.244  31.542  1.00  0.00    -0.550 OA
ATOM     10  O   UNL     1     -26.457 -29.229  30.503  1.00  0.00    -0.550 OA
ENDBRANCH   7   8
ENDBRANCH   6   7
ENDBRANCH   5   6
ENDBRANCH   4   5
ENDBRANCH   3   4
ENDBRANCH   2   3
ENDBRANCH   1   2
BRANCH   1  11
ATOM     11  C   UNL     1     -22.390 -20.925  30.555  1.00  0.00     0.000 C 
BRANCH  11  12
ATOM     12  C   UNL     1     -21.870 -20.622  29.139  1.00  0.00     0.000 C 
BRANCH  12  13
ATOM     13  C   UNL     1     -21.212 -19.235  29.026  1.00  0.00     0.000 C 
BRANCH  13  14
ATOM     14  C   UNL     1     -20.786 -18.677  30.401  1.00  0.00     0.000 C 
BRANCH  14  15
ATOM     15  C   UNL     1     -19.277 -18.405  30.520  1.00  0.00     0.000 C 
BRANCH  15  16
ATOM     16  C   UNL     1     -18.620 -18.083  29.168  1.00  0.00     0.006 C 
BRANCH  16  17
ATOM     17  C   UNL     1     -19.051 -16.715  28.625  1.00  0.00     0.053 C 
BRANCH  17  18
ATOM     18  C   UNL     1     -17.877 -15.897  28.179  1.00  0.00     0.041 C 
ATOM     19  O   UNL     1     -17.255 -15.181  29.007  1.00  0.00    -0.550 OA
ATOM     20  O   UNL     1     -17.490 -15.902  26.845  1.00  0.00    -0.550 OA
ENDBRANCH  17  18
ENDBRANCH  16  17
ENDBRANCH  15  16
ENDBRANCH  14  15
ENDBRANCH  13  14
ENDBRANCH  12  13
ENDBRANCH  11  12
ENDBRANCH   1  11
TORSDOF 15
ENDMDL
MODEL 4
REMARK VINA RESULT:    -7.167      1.268     10.605
REMARK INTER + INTRA:         -14.117
REMARK INTER:                 -13.150
REMARK INTRA:                  -0.967
REMARK UNBOUND:                -0.666
REMARK SMILES O=C([O-])CCCCCCCCCCCCCCC(=O)[O-]
REMARK SMILES IDX 10 1 9 2 8 3 7 4 6 5 5 6 4 7 2 8 1 9 3 10 11 11 12 12 13 13
REMARK SMILES IDX 14 14 15 15 16 16 17 17 18 18 19 19 20 20
REMARK H PARENT
REMARK Flexibility Score: inf
ROOT
ATOM      1  C   UNL     1     -21.129 -21.045  31.981  1.00  0.00     0.000 C 
ENDROOT
BRANCH   1   2
ATOM      2  C   UNL     1     -20.776 -19.640  31.463  1.00  0.00     0.000 C 
BRANCH   2   3
ATOM      3  C   UNL     1     -21.188 -19.441  29.989  1.00  0.00     0.000 C 
BRANCH   3   4
ATOM      4  C   UNL     1     -20.710 -18.107  29.391  1.00  0.00     0.000 C 
BRANCH   4   5
ATOM      5  C   UNL     1     -20.146 -17.147  30.448  1.00  0.00     0.000 C 
BRANCH   5   6
ATOM      6  C   UNL     1     -18.687 -16.788  30.144  1.00  0.00     0.006 C 
BRANCH   6   7
ATOM      7  C   UNL     1     -18.391 -16.915  28.646  1.00  0.00     0.053 C 
BRANCH   7   8
ATOM      8  C   UNL     1     -17.804 -15.645  28.119  1.00  0.00     0.041 C 
ATOM      9  O   UNL     1     -17.535 -14.697  28.903  1.00  0.00    -0.550 OA
ATOM     10  O   UNL     1     -17.509 -15.524  26.767  1.00  0.00    -0.550 OA
ENDBRANCH   7   8
ENDBRANCH   6   7
ENDBRANCH   5   6
ENDBRANCH   4   5
ENDBRANCH   3   4
ENDBRANCH   2   3
ENDBRANCH   1   2
BRANCH   1  11
ATOM     11  C   UNL     1     -22.378 -21.637  31.303  1.00  0.00     0.000 C 
BRANCH  11  12
ATOM     12  C   UNL     1     -23.095 -22.734  32.110  1.00  0.00     0.000 C 
BRANCH  12  13
ATOM     13  C   UNL     1     -23.129 -24.089  31.381  1.00  0.00     0.000 C 
BRANCH  13  14
ATOM     14  C   UNL     1     -22.505 -24.009  29.970  1.00  0.00     0.000 C 
BRANCH  14  15
ATOM     15  C   UNL     1     -23.209 -24.899  28.931  1.00  0.00     0.000 C 
BRANCH  15  16
ATOM     16  C   UNL     1     -24.601 -25.362  29.386  1.00  0.00     0.006 C 
BRANCH  16  17
ATOM     17  C   UNL     1     -24.682 -26.884  29.552  1.00  0.00     0.053 C 
BRANCH  17  18
ATOM     18  C   UNL     1     -25.550 -27.275  30.709  1.00  0.00     0.041 C 
ATOM     19  O   UNL     1     -26.132 -28.392  30.715  1.00  0.00    -0.550 OA
ATOM     20  O   UNL     1     -25.741 -26.394  31.766  1.00  0.00    -0.550 OA
ENDBRANCH  17  18
ENDBRANCH  16  17
ENDBRANCH  15  16
ENDBRANCH  14  15
ENDBRANCH  13  14
ENDBRANCH  12  13
ENDBRANCH  11  12
ENDBRANCH   1  11
TORSDOF 15
ENDMDL
MODEL 5
REMARK VINA RESULT:    -7.111      1.596     10.833
REMARK INTER + INTRA:         -14.012
REMARK INTER:                 -13.440
REMARK INTRA:                  -0.571
REMARK UNBOUND:                -0.666
REMARK SMILES O=C([O-])CCCCCCCCCCCCCCC(=O)[O-]
REMARK SMILES IDX 10 1 9 2 8 3 7 4 6 5 5 6 4 7 2 8 1 9 3 10 11 11 12 12 13 13
REMARK SMILES IDX 14 14 15 15 16 16 17 17 18 18 19 19 20 20
REMARK H PARENT
REMARK Flexibility Score: inf
ROOT
ATOM      1  C   UNL     1     -23.224 -22.874  31.986  1.00  0.00     0.000 C 
ENDROOT
BRANCH   1   2
ATOM      2  C   UNL     1     -22.018 -21.990  31.621  1.00  0.00     0.000 C 
BRANCH   2   3
ATOM      3  C   UNL     1     -22.373 -20.927  30.559  1.00  0.00     0.000 C 
BRANCH   3   4
ATOM      4  C   UNL     1     -21.381 -19.753  30.509  1.00  0.00     0.000 C 
BRANCH   4   5
ATOM      5  C   UNL     1     -21.159 -19.220  29.086  1.00  0.00     0.000 C 
BRANCH   5   6
ATOM      6  C   UNL     1     -20.508 -17.832  29.113  1.00  0.00     0.006 C 
BRANCH   6   7
ATOM      7  C   UNL     1     -19.032 -17.926  29.513  1.00  0.00     0.053 C 
BRANCH   7   8
ATOM      8  C   UNL     1     -18.769 -17.113  30.740  1.00  0.00     0.041 C 
ATOM      9  O   UNL     1     -18.888 -17.632  31.882  1.00  0.00    -0.550 OA
ATOM     10  O   UNL     1     -18.347 -15.794  30.624  1.00  0.00    -0.550 OA
ENDBRANCH   7   8
ENDBRANCH   6   7
ENDBRANCH   5   6
ENDBRANCH   4   5
ENDBRANCH   3   4
ENDBRANCH   2   3
ENDBRANCH   1   2
BRANCH   1  11
ATOM     11  C   UNL     1     -23.111 -24.302  31.424  1.00  0.00     0.000 C 
BRANCH  11  12
ATOM     12  C   UNL     1     -22.696 -24.385  29.944  1.00  0.00     0.000 C 
BRANCH  12  13
ATOM     13  C   UNL     1     -23.792 -24.988  29.047  1.00  0.00     0.000 C 
BRANCH  13  14
ATOM     14  C   UNL     1     -24.291 -26.352  29.572  1.00  0.00     0.000 C 
BRANCH  14  15
ATOM     15  C   UNL     1     -25.652 -26.778  28.995  1.00  0.00     0.000 C 
BRANCH  15  16
ATOM     16  C   UNL     1     -25.524 -27.809  27.863  1.00  0.00     0.006 C 
BRANCH  16  17
ATOM     17  C   UNL     1     -26.887 -28.352  27.416  1.00  0.00     0.053 C 
BRANCH  17  18
ATOM     18  C   UNL     1     -26.919 -28.637  25.945  1.00  0.00     0.041 C 
ATOM     19  O   UNL     1     -25.845 -28.807  25.310  1.00  0.00    -0.550 OA
ATOM     20  O   UNL     1     -28.132 -28.686  25.271  1.00  0.00    -0.550 OA
ENDBRANCH  17  18
ENDBRANCH  16  17
ENDBRANCH  15  16
ENDBRANCH  14  15
ENDBRANCH  13  14
ENDBRANCH  12  13
ENDBRANCH  11  12
ENDBRANCH   1  11
TORSDOF 15
ENDMDL
MODEL 6
REMARK VINA RESULT:    -7.072      1.667      2.675
REMARK INTER + INTRA:         -13.940
REMARK INTER:                 -13.207
REMARK INTRA:                  -0.732
REMARK UNBOUND:                -0.666
REMARK SMILES O=C([O-])CCCCCCCCCCCCCCC(=O)[O-]
REMARK SMILES IDX 10 1 9 2 8 3 7 4 6 5 5 6 4 7 2 8 1 9 3 10 11 11 12 12 13 13
REMARK SMILES IDX 14 14 15 15 16 16 17 17 18 18 19 19 20 20
REMARK H PARENT
REMARK Flexibility Score: inf
ROOT
ATOM      1  C   UNL     1     -22.241 -23.595  29.505  1.00  0.00     0.000 C 
ENDROOT
BRANCH   1   2
ATOM      2  C   UNL     1     -23.105 -24.636  28.771  1.00  0.00     0.000 C 
BRANCH   2   3
ATOM      3  C   UNL     1     -24.120 -25.319  29.713  1.00  0.00     0.000 C 
BRANCH   3   4
ATOM      4  C   UNL     1     -24.268 -26.830  29.466  1.00  0.00     0.000 C 
BRANCH   4   5
ATOM      5  C   UNL     1     -25.687 -27.229  29.037  1.00  0.00     0.000 C 
BRANCH   5   6
ATOM      6  C   UNL     1     -25.676 -27.918  27.668  1.00  0.00     0.006 C 
BRANCH   6   7
ATOM      7  C   UNL     1     -27.101 -28.142  27.154  1.00  0.00     0.053 C 
BRANCH   7   8
ATOM      8  C   UNL     1     -27.078 -28.630  25.741  1.00  0.00     0.041 C 
ATOM      9  O   UNL     1     -25.985 -28.924  25.190  1.00  0.00    -0.550 OA
ATOM     10  O   UNL     1     -28.268 -28.804  25.046  1.00  0.00    -0.550 OA
ENDBRANCH   7   8
ENDBRANCH   6   7
ENDBRANCH   5   6
ENDBRANCH   4   5
ENDBRANCH   3   4
ENDBRANCH   2   3
ENDBRANCH   1   2
BRANCH   1  11
ATOM     11  C   UNL     1     -22.619 -23.440  30.988  1.00  0.00     0.000 C 
BRANCH  11  12
ATOM     12  C   UNL     1     -22.261 -22.079  31.611  1.00  0.00     0.000 C 
BRANCH  12  13
ATOM     13  C   UNL     1     -22.537 -20.896  30.665  1.00  0.00     0.000 C 
BRANCH  13  14
ATOM     14  C   UNL     1     -21.259 -20.085  30.356  1.00  0.00     0.000 C 
BRANCH  14  15
ATOM     15  C   UNL     1     -21.312 -19.334  29.014  1.00  0.00     0.000 C 
BRANCH  15  16
ATOM     16  C   UNL     1     -20.495 -18.033  29.027  1.00  0.00     0.006 C 
BRANCH  16  17
ATOM     17  C   UNL     1     -19.106 -18.225  29.649  1.00  0.00     0.053 C 
BRANCH  17  18
ATOM     18  C   UNL     1     -18.822 -17.200  30.705  1.00  0.00     0.041 C 
ATOM     19  O   UNL     1     -18.446 -16.044  30.379  1.00  0.00    -0.550 OA
ATOM     20  O   UNL     1     -18.943 -17.531  32.049  1.00  0.00    -0.550 OA
ENDBRANCH  17  18
ENDBRANCH  16  17
ENDBRANCH  15  16
ENDBRANCH  14  15
ENDBRANCH  13  14
ENDBRANCH  12  13
ENDBRANCH  11  12
ENDBRANCH   1  11
TORSDOF 15
ENDMDL
MODEL 7
REMARK VINA RESULT:    -7.063      0.985     10.838
REMARK INTER + INTRA:         -13.922
REMARK INTER:                 -13.224
REMARK INTRA:                  -0.698
REMARK UNBOUND:                -0.666
REMARK SMILES O=C([O-])CCCCCCCCCCCCCCC(=O)[O-]
REMARK SMILES IDX 10 1 9 2 8 3 7 4 6 5 5 6 4 7 2 8 1 9 3 10 11 11 12 12 13 13
REMARK SMILES IDX 14 14 15 15 16 16 17 17 18 18 19 19 20 20
REMARK H PARENT
REMARK Flexibility Score: inf
ROOT
ATOM      1  C   UNL     1     -22.361 -21.725  28.615  1.00  0.00     0.000 C 
ENDROOT
BRANCH   1   2
ATOM      2  C   UNL     1     -22.347 -20.741  29.798  1.00  0.00     0.000 C 
BRANCH   2   3
ATOM      3  C   UNL     1     -21.222 -19.691  29.673  1.00  0.00     0.000 C 
BRANCH   3   4
ATOM      4  C   UNL     1     -20.823 -19.054  31.014  1.00  0.00     0.000 C 
BRANCH   4   5
ATOM      5  C   UNL     1     -19.503 -18.274  30.936  1.00  0.00     0.000 C 
BRANCH   5   6
ATOM      6  C   UNL     1     -19.011 -18.167  29.488  1.00  0.00     0.006 C 
BRANCH   6   7
ATOM      7  C   UNL     1     -19.326 -16.787  28.902  1.00  0.00     0.053 C 
BRANCH   7   8
ATOM      8  C   UNL     1     -18.069 -16.102  28.471  1.00  0.00     0.041 C 
ATOM      9  O   UNL     1     -17.555 -16.366  27.352  1.00  0.00    -0.550 OA
ATOM     10  O   UNL     1     -17.489 -15.136  29.283  1.00  0.00    -0.550 OA
ENDBRANCH   7   8
ENDBRANCH   6   7
ENDBRANCH   5   6
ENDBRANCH   4   5
ENDBRANCH   3   4
ENDBRANCH   2   3
ENDBRANCH   1   2
BRANCH   1  11
ATOM     11  C   UNL     1     -22.355 -23.197  29.061  1.00  0.00     0.000 C 
BRANCH  11  12
ATOM     12  C   UNL     1     -21.995 -23.426  30.540  1.00  0.00     0.000 C 
BRANCH  12  13
ATOM     13  C   UNL     1     -23.098 -24.165  31.318  1.00  0.00     0.000 C 
BRANCH  13  14
ATOM     14  C   UNL     1     -23.637 -25.389  30.546  1.00  0.00     0.000 C 
BRANCH  14  15
ATOM     15  C   UNL     1     -25.035 -25.843  31.002  1.00  0.00     0.000 C 
BRANCH  15  16
ATOM     16  C   UNL     1     -25.444 -27.201  30.411  1.00  0.00     0.006 C 
BRANCH  16  17
ATOM     17  C   UNL     1     -25.604 -27.146  28.887  1.00  0.00     0.053 C 
BRANCH  17  18
ATOM     18  C   UNL     1     -26.481 -28.250  28.379  1.00  0.00     0.041 C 
ATOM     19  O   UNL     1     -27.014 -29.057  29.185  1.00  0.00    -0.550 OA
ATOM     20  O   UNL     1     -26.686 -28.405  27.014  1.00  0.00    -0.550 OA
ENDBRANCH  17  18
ENDBRANCH  16  17
ENDBRANCH  15  16
ENDBRANCH  14  15
ENDBRANCH  13  14
ENDBRANCH  12  13
ENDBRANCH  11  12
ENDBRANCH   1  11
TORSDOF 15
ENDMDL
MODEL 8
REMARK VINA RESULT:    -7.059      1.167     10.542
REMARK INTER + INTRA:         -13.916
REMARK INTER:                 -13.066
REMARK INTRA:                  -0.850
REMARK UNBOUND:                -0.666
REMARK SMILES O=C([O-])CCCCCCCCCCCCCCC(=O)[O-]
REMARK SMILES IDX 10 1 9 2 8 3 7 4 6 5 5 6 4 7 2 8 1 9 3 10 11 11 12 12 13 13
REMARK SMILES IDX 14 14 15 15 16 16 17 17 18 18 19 19 20 20
REMARK H PARENT
REMARK Flexibility Score: inf
ROOT
ATOM      1  C   UNL     1     -22.005 -23.083  29.546  1.00  0.00     0.000 C 
ENDROOT
BRANCH   1   2
ATOM      2  C   UNL     1     -21.989 -21.867  28.603  1.00  0.00     0.000 C 
BRANCH   2   3
ATOM      3  C   UNL     1     -22.419 -20.568  29.318  1.00  0.00     0.000 C 
BRANCH   3   4
ATOM      4  C   UNL     1     -21.322 -19.491  29.351  1.00  0.00     0.000 C 
BRANCH   4   5
ATOM      5  C   UNL     1     -20.849 -19.164  30.775  1.00  0.00     0.000 C 
BRANCH   5   6
ATOM      6  C   UNL     1     -19.413 -18.626  30.769  1.00  0.00     0.006 C 
BRANCH   6   7
ATOM      7  C   UNL     1     -19.013 -18.144  29.371  1.00  0.00     0.053 C 
BRANCH   7   8
ATOM      8  C   UNL     1     -18.544 -16.725  29.420  1.00  0.00     0.041 C 
ATOM      9  O   UNL     1     -18.510 -16.107  30.516  1.00  0.00    -0.550 OA
ATOM     10  O   UNL     1     -18.099 -16.099  28.263  1.00  0.00    -0.550 OA
ENDBRANCH   7   8
ENDBRANCH   6   7
ENDBRANCH   5   6
ENDBRANCH   4   5
ENDBRANCH   3   4
ENDBRANCH   2   3
ENDBRANCH   1   2
BRANCH   1  11
ATOM     11  C   UNL     1     -22.279 -22.701  31.011  1.00  0.00     0.000 C 
BRANCH  11  12
ATOM     12  C   UNL     1     -23.149 -23.703  31.791  1.00  0.00     0.000 C 
BRANCH  12  13
ATOM     13  C   UNL     1     -23.510 -24.951  30.966  1.00  0.00     0.000 C 
BRANCH  13  14
ATOM     14  C   UNL     1     -24.428 -25.919  31.745  1.00  0.00     0.000 C 
BRANCH  14  15
ATOM     15  C   UNL     1     -25.226 -26.876  30.842  1.00  0.00     0.000 C 
BRANCH  15  16
ATOM     16  C   UNL     1     -25.502 -26.292  29.448  1.00  0.00     0.006 C 
BRANCH  16  17
ATOM     17  C   UNL     1     -25.225 -27.303  28.329  1.00  0.00     0.053 C 
BRANCH  17  18
ATOM     18  C   UNL     1     -26.434 -28.129  28.011  1.00  0.00     0.041 C 
ATOM     19  O   UNL     1     -27.051 -28.727  28.932  1.00  0.00    -0.550 OA
ATOM     20  O   UNL     1     -26.862 -28.262  26.697  1.00  0.00    -0.550 OA
ENDBRANCH  17  18
ENDBRANCH  16  17
ENDBRANCH  15  16
ENDBRANCH  14  15
ENDBRANCH  13  14
ENDBRANCH  12  13
ENDBRANCH  11  12
ENDBRANCH   1  11
TORSDOF 15
ENDMDL
MODEL 9
REMARK VINA RESULT:    -6.996      1.523      2.425
REMARK INTER + INTRA:         -13.797
REMARK INTER:                 -12.971
REMARK INTRA:                  -0.826
REMARK UNBOUND:                -0.666
REMARK SMILES O=C([O-])CCCCCCCCCCCCCCC(=O)[O-]
REMARK SMILES IDX 10 1 9 2 8 3 7 4 6 5 5 6 4 7 2 8 1 9 3 10 11 11 12 12 13 13
REMARK SMILES IDX 14 14 15 15 16 16 17 17 18 18 19 19 20 20
REMARK H PARENT
REMARK Flexibility Score: inf
ROOT
ATOM      1  C   UNL     1     -22.205 -21.018  29.788  1.00  0.00     0.000 C 
ENDROOT
BRANCH   1   2
ATOM      2  C   UNL     1     -22.076 -21.823  31.094  1.00  0.00     0.000 C 
BRANCH   2   3
ATOM      3  C   UNL     1     -22.270 -23.338  30.867  1.00  0.00     0.000 C 
BRANCH   3   4
ATOM      4  C   UNL     1     -22.199 -23.753  29.388  1.00  0.00     0.000 C 
BRANCH   4   5
ATOM      5  C   UNL     1     -23.232 -24.827  29.018  1.00  0.00     0.000 C 
BRANCH   5   6
ATOM      6  C   UNL     1     -23.942 -25.362  30.267  1.00  0.00     0.006 C 
BRANCH   6   7
ATOM      7  C   UNL     1     -25.405 -25.698  29.964  1.00  0.00     0.053 C 
BRANCH   7   8
ATOM      8  C   UNL     1     -25.560 -27.159  29.683  1.00  0.00     0.041 C 
ATOM      9  O   UNL     1     -25.866 -27.954  30.610  1.00  0.00    -0.550 OA
ATOM     10  O   UNL     1     -25.411 -27.637  28.388  1.00  0.00    -0.550 OA
ENDBRANCH   7   8
ENDBRANCH   6   7
ENDBRANCH   5   6
ENDBRANCH   4   5
ENDBRANCH   3   4
ENDBRANCH   2   3
ENDBRANCH   1   2
BRANCH   1  11
ATOM     11  C   UNL     1     -21.409 -19.702  29.816  1.00  0.00     0.000 C 
BRANCH  11  12
ATOM     12  C   UNL     1     -20.813 -19.333  31.186  1.00  0.00     0.000 C 
BRANCH  12  13
ATOM     13  C   UNL     1     -19.507 -18.526  31.074  1.00  0.00     0.000 C 
BRANCH  13  14
ATOM     14  C   UNL     1     -19.125 -18.233  29.607  1.00  0.00     0.000 C 
BRANCH  14  15
ATOM     15  C   UNL     1     -18.677 -16.782  29.361  1.00  0.00     0.000 C 
BRANCH  15  16
ATOM     16  C   UNL     1     -18.646 -16.412  27.870  1.00  0.00     0.006 C 
BRANCH  16  17
ATOM     17  C   UNL     1     -17.386 -15.621  27.495  1.00  0.00     0.053 C 
BRANCH  17  18
ATOM     18  C   UNL     1     -17.335 -15.318  26.028  1.00  0.00     0.041 C 
ATOM     19  O   UNL     1     -16.234 -15.058  25.474  1.00  0.00    -0.550 OA
ATOM     20  O   UNL     1     -18.504 -15.294  25.279  1.00  0.00    -0.550 OA
ENDBRANCH  17  18
ENDBRANCH  16  17
ENDBRANCH  15  16
ENDBRANCH  14  15
ENDBRANCH  13  14
ENDBRANCH  12  13
ENDBRANCH  11  12
ENDBRANCH   1  11
TORSDOF 15
ENDMDL
