MODEL 1
REMARK VINA RESULT:    -4.574      0.000      0.000
REMARK INTER + INTRA:          -5.025
REMARK INTER:                  -4.975
REMARK INTRA:                  -0.050
REMARK UNBOUND:                -0.050
REMARK SMILES CCc1cccc(O)c1
REMARK SMILES IDX 3 1 9 2 7 3 6 4 5 5 4 6 2 7 1 8 8 9
REMARK H PARENT 8 10
REMARK Flexibility Score: inf
ROOT
ATOM      1  C   UNL     1      24.235   7.612  23.030  1.00  0.00    -0.045 A 
ATOM      2  C   UNL     1      23.116   8.441  22.844  1.00  0.00     0.049 A 
ATOM      3  C   UNL     1      23.254   9.686  22.221  1.00  0.00     0.115 A 
ATOM      4  C   UNL     1      24.515  10.105  21.774  1.00  0.00     0.046 A 
ATOM      5  C   UNL     1      25.629   9.279  21.944  1.00  0.00     0.004 A 
ATOM      6  C   UNL     1      25.491   8.035  22.565  1.00  0.00     0.004 A 
ENDROOT
BRANCH   1   7
ATOM      7  C   UNL     1      24.079   6.258  23.670  1.00  0.00     0.032 C 
ATOM      8  C   UNL     1      24.300   6.345  25.177  1.00  0.00     0.009 C 
ENDBRANCH   1   7
BRANCH   3   9
ATOM      9  O   UNL     1      22.135  10.498  22.050  1.00  0.00    -0.508 OA
ATOM     10  H   UNL     1      21.701  10.973  22.834  1.00  0.00     0.293 HD
ENDBRANCH   3   9
TORSDOF 2
ENDMDL
MODEL 2
REMARK VINA RESULT:    -4.569      4.099      4.775
REMARK INTER + INTRA:          -5.020
REMARK INTER:                  -4.945
REMARK INTRA:                  -0.074
REMARK UNBOUND:                -0.050
REMARK SMILES CCc1cccc(O)c1
REMARK SMILES IDX 3 1 9 2 7 3 6 4 5 5 4 6 2 7 1 8 8 9
REMARK H PARENT 8 10
REMARK Flexibility Score: inf
ROOT
ATOM      1  C   UNL     1      24.848   7.351  18.535  1.00  0.00    -0.045 A 
ATOM      2  C   UNL     1      23.806   7.538  17.610  1.00  0.00     0.049 A 
ATOM      3  C   UNL     1      22.616   8.160  18.002  1.00  0.00     0.115 A 
ATOM      4  C   UNL     1      22.465   8.606  19.322  1.00  0.00     0.046 A 
ATOM      5  C   UNL     1      23.503   8.436  20.242  1.00  0.00     0.004 A 
ATOM      6  C   UNL     1      24.692   7.815  19.851  1.00  0.00     0.004 A 
ENDROOT
BRANCH   1   7
ATOM      7  C   UNL     1      26.140   6.711  18.103  1.00  0.00     0.032 C 
ATOM      8  C   UNL     1      26.965   6.290  19.314  1.00  0.00     0.009 C 
ENDBRANCH   1   7
BRANCH   3   9
ATOM      9  O   UNL     1      21.592   8.331  17.074  1.00  0.00    -0.508 OA
ATOM     10  H   UNL     1      20.751   8.850  17.302  1.00  0.00     0.293 HD
ENDBRANCH   3   9
TORSDOF 2
ENDMDL
MODEL 3
REMARK VINA RESULT:    -4.561      3.665      4.443
REMARK INTER + INTRA:          -5.011
REMARK INTER:                  -4.964
REMARK INTRA:                  -0.047
REMARK UNBOUND:                -0.050
REMARK SMILES CCc1cccc(O)c1
REMARK SMILES IDX 3 1 9 2 7 3 6 4 5 5 4 6 2 7 1 8 8 9
REMARK H PARENT 8 10
REMARK Flexibility Score: inf
ROOT
ATOM      1  C   UNL     1      24.818   4.925  22.962  1.00  0.00    -0.045 A 
ATOM      2  C   UNL     1      23.593   4.505  23.508  1.00  0.00     0.049 A 
ATOM      3  C   UNL     1      23.091   5.109  24.666  1.00  0.00     0.115 A 
ATOM      4  C   UNL     1      23.810   6.143  25.280  1.00  0.00     0.046 A 
ATOM      5  C   UNL     1      25.021   6.575  24.733  1.00  0.00     0.004 A 
ATOM      6  C   UNL     1      25.523   5.973  23.576  1.00  0.00     0.004 A 
ENDROOT
BRANCH   1   7
ATOM      7  C   UNL     1      25.340   4.298  21.697  1.00  0.00     0.032 C 
ATOM      8  C   UNL     1      25.938   2.924  21.983  1.00  0.00     0.009 C 
ENDBRANCH   1   7
BRANCH   3   9
ATOM      9  O   UNL     1      21.879   4.675  25.197  1.00  0.00    -0.508 OA
ATOM     10  H   UNL     1      21.806   3.801  25.706  1.00  0.00     0.293 HD
ENDBRANCH   3   9
TORSDOF 2
ENDMDL
MODEL 4
REMARK VINA RESULT:    -4.556      3.985      5.029
REMARK INTER + INTRA:          -5.006
REMARK INTER:                  -4.931
REMARK INTRA:                  -0.075
REMARK UNBOUND:                -0.050
REMARK SMILES CCc1cccc(O)c1
REMARK SMILES IDX 3 1 9 2 7 3 6 4 5 5 4 6 2 7 1 8 8 9
REMARK H PARENT 8 10
REMARK Flexibility Score: inf
ROOT
ATOM      1  C   UNL     1      23.463   5.115  24.248  1.00  0.00    -0.045 A 
ATOM      2  C   UNL     1      22.196   4.524  24.393  1.00  0.00     0.049 A 
ATOM      3  C   UNL     1      21.722   3.624  23.432  1.00  0.00     0.115 A 
ATOM      4  C   UNL     1      22.519   3.305  22.323  1.00  0.00     0.046 A 
ATOM      5  C   UNL     1      23.784   3.879  22.182  1.00  0.00     0.004 A 
ATOM      6  C   UNL     1      24.259   4.777  23.141  1.00  0.00     0.004 A 
ENDROOT
BRANCH   1   7
ATOM      7  C   UNL     1      23.986   6.058  25.299  1.00  0.00     0.032 C 
ATOM      8  C   UNL     1      25.282   6.716  24.839  1.00  0.00     0.009 C 
ENDBRANCH   1   7
BRANCH   3   9
ATOM      9  O   UNL     1      20.462   3.053  23.588  1.00  0.00    -0.508 OA
ATOM     10  H   UNL     1      19.857   2.879  22.794  1.00  0.00     0.293 HD
ENDBRANCH   3   9
TORSDOF 2
ENDMDL
MODEL 5
REMARK VINA RESULT:    -4.532      3.605      4.360
REMARK INTER + INTRA:          -4.979
REMARK INTER:                  -4.928
REMARK INTRA:                  -0.051
REMARK UNBOUND:                -0.050
REMARK SMILES CCc1cccc(O)c1
REMARK SMILES IDX 3 1 9 2 7 3 6 4 5 5 4 6 2 7 1 8 8 9
REMARK H PARENT 8 10
REMARK Flexibility Score: inf
ROOT
ATOM      1  C   UNL     1      24.938   7.851  20.503  1.00  0.00    -0.045 A 
ATOM      2  C   UNL     1      24.424   7.913  19.197  1.00  0.00     0.049 A 
ATOM      3  C   UNL     1      25.045   7.210  18.159  1.00  0.00     0.115 A 
ATOM      4  C   UNL     1      26.182   6.434  18.425  1.00  0.00     0.046 A 
ATOM      5  C   UNL     1      26.689   6.357  19.725  1.00  0.00     0.004 A 
ATOM      6  C   UNL     1      26.068   7.058  20.763  1.00  0.00     0.004 A 
ENDROOT
BRANCH   1   7
ATOM      7  C   UNL     1      24.249   8.581  21.626  1.00  0.00     0.032 C 
ATOM      8  C   UNL     1      24.926   9.921  21.893  1.00  0.00     0.009 C 
ENDBRANCH   1   7
BRANCH   3   9
ATOM      9  O   UNL     1      24.526   7.288  16.869  1.00  0.00    -0.508 OA
ATOM     10  H   UNL     1      24.668   8.108  16.289  1.00  0.00     0.293 HD
ENDBRANCH   3   9
TORSDOF 2
ENDMDL
MODEL 6
REMARK VINA RESULT:    -4.505      3.944      4.686
REMARK INTER + INTRA:          -4.950
REMARK INTER:                  -4.888
REMARK INTRA:                  -0.062
REMARK UNBOUND:                -0.050
REMARK SMILES CCc1cccc(O)c1
REMARK SMILES IDX 3 1 9 2 7 3 6 4 5 5 4 6 2 7 1 8 8 9
REMARK H PARENT 8 10
REMARK Flexibility Score: inf
ROOT
ATOM      1  C   UNL     1      24.086   8.158  20.250  1.00  0.00    -0.045 A 
ATOM      2  C   UNL     1      25.148   7.496  19.610  1.00  0.00     0.049 A 
ATOM      3  C   UNL     1      25.072   7.190  18.247  1.00  0.00     0.115 A 
ATOM      4  C   UNL     1      23.933   7.553  17.514  1.00  0.00     0.046 A 
ATOM      5  C   UNL     1      22.880   8.223  18.142  1.00  0.00     0.004 A 
ATOM      6  C   UNL     1      22.956   8.530  19.504  1.00  0.00     0.004 A 
ENDROOT
BRANCH   1   7
ATOM      7  C   UNL     1      24.183   8.516  21.709  1.00  0.00     0.032 C 
ATOM      8  C   UNL     1      24.259  10.028  21.890  1.00  0.00     0.009 C 
ENDBRANCH   1   7
BRANCH   3   9
ATOM      9  O   UNL     1      26.131   6.529  17.631  1.00  0.00    -0.508 OA
ATOM     10  H   UNL     1      26.190   6.448  16.622  1.00  0.00     0.293 HD
ENDBRANCH   3   9
TORSDOF 2
ENDMDL
MODEL 7
REMARK VINA RESULT:    -4.499      4.854      6.212
REMARK INTER + INTRA:          -4.943
REMARK INTER:                  -4.897
REMARK INTRA:                  -0.046
REMARK UNBOUND:                -0.050
REMARK SMILES CCc1cccc(O)c1
REMARK SMILES IDX 3 1 9 2 7 3 6 4 5 5 4 6 2 7 1 8 8 9
REMARK H PARENT 8 10
REMARK Flexibility Score: inf
ROOT
ATOM      1  C   UNL     1      25.502   5.132  20.460  1.00  0.00    -0.045 A 
ATOM      2  C   UNL     1      24.777   4.055  19.923  1.00  0.00     0.049 A 
ATOM      3  C   UNL     1      24.816   2.800  20.539  1.00  0.00     0.115 A 
ATOM      4  C   UNL     1      25.576   2.618  21.703  1.00  0.00     0.046 A 
ATOM      5  C   UNL     1      26.287   3.689  22.249  1.00  0.00     0.004 A 
ATOM      6  C   UNL     1      26.249   4.943  21.635  1.00  0.00     0.004 A 
ENDROOT
BRANCH   1   7
ATOM      7  C   UNL     1      25.433   6.491  19.815  1.00  0.00     0.032 C 
ATOM      8  C   UNL     1      26.209   6.505  18.502  1.00  0.00     0.009 C 
ENDBRANCH   1   7
BRANCH   3   9
ATOM      9  O   UNL     1      24.096   1.742  19.989  1.00  0.00    -0.508 OA
ATOM     10  H   UNL     1      23.496   1.872  19.182  1.00  0.00     0.293 HD
ENDBRANCH   3   9
TORSDOF 2
ENDMDL
MODEL 8
REMARK VINA RESULT:    -4.482      4.536      5.405
REMARK INTER + INTRA:          -4.924
REMARK INTER:                  -4.849
REMARK INTRA:                  -0.075
REMARK UNBOUND:                -0.050
REMARK SMILES CCc1cccc(O)c1
REMARK SMILES IDX 3 1 9 2 7 3 6 4 5 5 4 6 2 7 1 8 8 9
REMARK H PARENT 8 10
REMARK Flexibility Score: inf
ROOT
ATOM      1  C   UNL     1      23.525   4.252  23.117  1.00  0.00    -0.045 A 
ATOM      2  C   UNL     1      22.820   3.424  22.228  1.00  0.00     0.049 A 
ATOM      3  C   UNL     1      23.490   2.776  21.183  1.00  0.00     0.115 A 
ATOM      4  C   UNL     1      24.872   2.949  21.029  1.00  0.00     0.046 A 
ATOM      5  C   UNL     1      25.580   3.761  21.919  1.00  0.00     0.004 A 
ATOM      6  C   UNL     1      24.912   4.407  22.963  1.00  0.00     0.004 A 
ENDROOT
BRANCH   1   7
ATOM      7  C   UNL     1      22.809   4.921  24.260  1.00  0.00     0.032 C 
ATOM      8  C   UNL     1      23.731   5.906  24.972  1.00  0.00     0.009 C 
ENDBRANCH   1   7
BRANCH   3   9
ATOM      9  O   UNL     1      22.774   1.964  20.307  1.00  0.00    -0.508 OA
ATOM     10  H   UNL     1      22.965   1.962  19.311  1.00  0.00     0.293 HD
ENDBRANCH   3   9
TORSDOF 2
ENDMDL
MODEL 9
REMARK VINA RESULT:    -4.469      1.264      2.311
REMARK INTER + INTRA:          -4.911
REMARK INTER:                  -4.856
REMARK INTRA:                  -0.055
REMARK UNBOUND:                -0.050
REMARK SMILES CCc1cccc(O)c1
REMARK SMILES IDX 3 1 9 2 7 3 6 4 5 5 4 6 2 7 1 8 8 9
REMARK H PARENT 8 10
REMARK Flexibility Score: inf
ROOT
ATOM      1  C   UNL     1      23.187   7.434  23.072  1.00  0.00    -0.045 A 
ATOM      2  C   UNL     1      23.957   8.528  22.642  1.00  0.00     0.049 A 
ATOM      3  C   UNL     1      23.335   9.703  22.205  1.00  0.00     0.115 A 
ATOM      4  C   UNL     1      21.936   9.791  22.204  1.00  0.00     0.046 A 
ATOM      5  C   UNL     1      21.165   8.712  22.644  1.00  0.00     0.004 A 
ATOM      6  C   UNL     1      21.786   7.539  23.081  1.00  0.00     0.004 A 
ENDROOT
BRANCH   1   7
ATOM      7  C   UNL     1      23.858   6.183  23.573  1.00  0.00     0.032 C 
ATOM      8  C   UNL     1      23.988   6.212  25.092  1.00  0.00     0.009 C 
ENDBRANCH   1   7
BRANCH   3   9
ATOM      9  O   UNL     1      24.114  10.775  21.776  1.00  0.00    -0.508 OA
ATOM     10  H   UNL     1      24.908  11.102  22.316  1.00  0.00     0.293 HD
ENDBRANCH   3   9
TORSDOF 2
ENDMDL
