MODEL 1
REMARK VINA RESULT:    -3.572      0.000      0.000
REMARK INTER + INTRA:          -4.798
REMARK INTER:                  -4.617
REMARK INTRA:                  -0.181
REMARK UNBOUND:                -0.181
REMARK SMILES CCCCCCC(=O)[O-]
REMARK SMILES IDX 5 1 6 2 7 3 8 4 9 5 4 6 3 7 2 8 1 9
REMARK H PARENT
REMARK Flexibility Score: inf
ROOT
ATOM      1  C   UNL     1      -3.811   9.027  -9.320  1.00  0.00     0.006 C 
ENDROOT
BRANCH   1   2
ATOM      2  C   UNL     1      -4.873   9.800 -10.113  1.00  0.00     0.053 C 
BRANCH   2   3
ATOM      3  C   UNL     1      -5.972   8.902 -10.588  1.00  0.00     0.041 C 
ATOM      4  O   UNL     1      -6.005   7.694 -10.230  1.00  0.00    -0.550 OA
ATOM      5  O   UNL     1      -6.981   9.406 -11.400  1.00  0.00    -0.550 OA
ENDBRANCH   2   3
ENDBRANCH   1   2
BRANCH   1   6
ATOM      6  C   UNL     1      -2.837   9.966  -8.585  1.00  0.00     0.000 C 
BRANCH   6   7
ATOM      7  C   UNL     1      -1.393   9.442  -8.592  1.00  0.00    -0.000 C 
BRANCH   7   8
ATOM      8  C   UNL     1      -1.222   8.191  -9.467  1.00  0.00    -0.003 C 
ATOM      9  C   UNL     1      -0.758   6.999  -8.636  1.00  0.00     0.004 C 
ENDBRANCH   7   8
ENDBRANCH   6   7
ENDBRANCH   1   6
TORSDOF 5
ENDMDL
MODEL 2
REMARK VINA RESULT:    -3.527     16.298     18.972
REMARK INTER + INTRA:          -4.739
REMARK INTER:                  -4.639
REMARK INTRA:                  -0.099
REMARK UNBOUND:                -0.181
REMARK SMILES CCCCCCC(=O)[O-]
REMARK SMILES IDX 5 1 6 2 7 3 8 4 9 5 4 6 3 7 2 8 1 9
REMARK H PARENT
REMARK Flexibility Score: inf
ROOT
ATOM      1  C   UNL     1     -15.258  16.082 -21.387  1.00  0.00     0.006 C 
ENDROOT
BRANCH   1   2
ATOM      2  C   UNL     1     -14.216  15.694 -20.330  1.00  0.00     0.053 C 
BRANCH   2   3
ATOM      3  C   UNL     1     -13.009  16.577 -20.392  1.00  0.00     0.041 C 
ATOM      4  O   UNL     1     -12.734  17.345 -19.432  1.00  0.00    -0.550 OA
ATOM      5  O   UNL     1     -12.167  16.528 -21.496  1.00  0.00    -0.550 OA
ENDBRANCH   2   3
ENDBRANCH   1   2
BRANCH   1   6
ATOM      6  C   UNL     1     -16.442  16.854 -20.778  1.00  0.00     0.000 C 
BRANCH   6   7
ATOM      7  C   UNL     1     -17.321  17.526 -21.845  1.00  0.00    -0.000 C 
BRANCH   7   8
ATOM      8  C   UNL     1     -18.808  17.546 -21.458  1.00  0.00    -0.003 C 
ATOM      9  C   UNL     1     -19.696  17.343 -22.682  1.00  0.00     0.004 C 
ENDBRANCH   7   8
ENDBRANCH   6   7
ENDBRANCH   1   6
TORSDOF 5
ENDMDL
MODEL 3
REMARK VINA RESULT:    -3.477      2.730      5.092
REMARK INTER + INTRA:          -4.675
REMARK INTER:                  -4.528
REMARK INTRA:                  -0.146
REMARK UNBOUND:                -0.181
REMARK SMILES CCCCCCC(=O)[O-]
REMARK SMILES IDX 5 1 6 2 7 3 8 4 9 5 4 6 3 7 2 8 1 9
REMARK H PARENT
REMARK Flexibility Score: inf
ROOT
ATOM      1  C   UNL     1      -4.018   8.531  -9.252  1.00  0.00     0.006 C 
ENDROOT
BRANCH   1   2
ATOM      2  C   UNL     1      -2.626   9.163  -9.126  1.00  0.00     0.053 C 
BRANCH   2   3
ATOM      3  C   UNL     1      -1.547   8.125  -9.099  1.00  0.00     0.041 C 
ATOM      4  O   UNL     1      -1.789   6.970  -8.661  1.00  0.00    -0.550 OA
ATOM      5  O   UNL     1      -0.282   8.424  -9.589  1.00  0.00    -0.550 OA
ENDBRANCH   2   3
ENDBRANCH   1   2
BRANCH   1   6
ATOM      6  C   UNL     1      -4.941   9.339 -10.181  1.00  0.00     0.000 C 
BRANCH   6   7
ATOM      7  C   UNL     1      -6.227   8.580 -10.545  1.00  0.00    -0.000 C 
BRANCH   7   8
ATOM      8  C   UNL     1      -7.474   9.475 -10.499  1.00  0.00    -0.003 C 
ATOM      9  C   UNL     1      -7.141  10.852  -9.934  1.00  0.00     0.004 C 
ENDBRANCH   7   8
ENDBRANCH   6   7
ENDBRANCH   1   6
TORSDOF 5
ENDMDL
MODEL 4
REMARK VINA RESULT:    -3.430     16.071     16.662
REMARK INTER + INTRA:          -4.614
REMARK INTER:                  -4.455
REMARK INTRA:                  -0.159
REMARK UNBOUND:                -0.181
REMARK SMILES CCCCCCC(=O)[O-]
REMARK SMILES IDX 5 1 6 2 7 3 8 4 9 5 4 6 3 7 2 8 1 9
REMARK H PARENT
REMARK Flexibility Score: inf
ROOT
ATOM      1  C   UNL     1     -12.968  18.056 -19.103  1.00  0.00     0.006 C 
ENDROOT
BRANCH   1   2
ATOM      2  C   UNL     1     -13.355  18.656 -17.745  1.00  0.00     0.053 C 
BRANCH   2   3
ATOM      3  C   UNL     1     -12.540  19.869 -17.423  1.00  0.00     0.041 C 
ATOM      4  O   UNL     1     -12.549  20.864 -18.197  1.00  0.00    -0.550 OA
ATOM      5  O   UNL     1     -11.795  19.916 -16.251  1.00  0.00    -0.550 OA
ENDBRANCH   2   3
ENDBRANCH   1   2
BRANCH   1   6
ATOM      6  C   UNL     1     -14.081  17.164 -19.682  1.00  0.00     0.000 C 
BRANCH   6   7
ATOM      7  C   UNL     1     -13.570  16.220 -20.783  1.00  0.00    -0.000 C 
BRANCH   7   8
ATOM      8  C   UNL     1     -12.141  16.558 -21.233  1.00  0.00    -0.003 C 
ATOM      9  C   UNL     1     -11.956  16.286 -22.723  1.00  0.00     0.004 C 
ENDBRANCH   7   8
ENDBRANCH   6   7
ENDBRANCH   1   6
TORSDOF 5
ENDMDL
MODEL 5
REMARK VINA RESULT:    -3.419      1.407      1.870
REMARK INTER + INTRA:          -4.600
REMARK INTER:                  -4.495
REMARK INTRA:                  -0.105
REMARK UNBOUND:                -0.181
REMARK SMILES CCCCCCC(=O)[O-]
REMARK SMILES IDX 5 1 6 2 7 3 8 4 9 5 4 6 3 7 2 8 1 9
REMARK H PARENT
REMARK Flexibility Score: inf
ROOT
ATOM      1  C   UNL     1      -4.979   9.494 -10.264  1.00  0.00     0.006 C 
ENDROOT
BRANCH   1   2
ATOM      2  C   UNL     1      -6.332   8.947 -10.737  1.00  0.00     0.053 C 
BRANCH   2   3
ATOM      3  C   UNL     1      -7.474   9.757 -10.206  1.00  0.00     0.041 C 
ATOM      4  O   UNL     1      -8.630   9.262 -10.147  1.00  0.00    -0.550 OA
ATOM      5  O   UNL     1      -7.254  11.048  -9.743  1.00  0.00    -0.550 OA
ENDBRANCH   2   3
ENDBRANCH   1   2
BRANCH   1   6
ATOM      6  C   UNL     1      -4.201   8.469  -9.421  1.00  0.00     0.000 C 
BRANCH   6   7
ATOM      7  C   UNL     1      -2.887   9.038  -8.861  1.00  0.00    -0.000 C 
BRANCH   7   8
ATOM      8  C   UNL     1      -1.646   8.411  -9.514  1.00  0.00    -0.003 C 
ATOM      9  C   UNL     1      -1.213   7.152  -8.771  1.00  0.00     0.004 C 
ENDBRANCH   7   8
ENDBRANCH   6   7
ENDBRANCH   1   6
TORSDOF 5
ENDMDL
MODEL 6
REMARK VINA RESULT:    -3.372      6.052      7.148
REMARK INTER + INTRA:          -4.538
REMARK INTER:                  -4.127
REMARK INTRA:                  -0.412
REMARK UNBOUND:                -0.181
REMARK SMILES CCCCCCC(=O)[O-]
REMARK SMILES IDX 5 1 6 2 7 3 8 4 9 5 4 6 3 7 2 8 1 9
REMARK H PARENT
REMARK Flexibility Score: inf
ROOT
ATOM      1  C   UNL     1      -2.108  10.072 -15.089  1.00  0.00     0.006 C 
ENDROOT
BRANCH   1   2
ATOM      2  C   UNL     1      -2.161  10.452 -16.575  1.00  0.00     0.053 C 
BRANCH   2   3
ATOM      3  C   UNL     1      -3.330   9.823 -17.266  1.00  0.00     0.041 C 
ATOM      4  O   UNL     1      -3.174   8.783 -17.960  1.00  0.00    -0.550 OA
ATOM      5  O   UNL     1      -4.601  10.364 -17.116  1.00  0.00    -0.550 OA
ENDBRANCH   2   3
ENDBRANCH   1   2
BRANCH   1   6
ATOM      6  C   UNL     1      -2.581  11.220 -14.179  1.00  0.00     0.000 C 
BRANCH   6   7
ATOM      7  C   UNL     1      -4.050  11.070 -13.754  1.00  0.00    -0.000 C 
BRANCH   7   8
ATOM      8  C   UNL     1      -4.893  12.307 -14.098  1.00  0.00    -0.003 C 
ATOM      9  C   UNL     1      -4.130  13.253 -15.020  1.00  0.00     0.004 C 
ENDBRANCH   7   8
ENDBRANCH   6   7
ENDBRANCH   1   6
TORSDOF 5
ENDMDL
MODEL 7
REMARK VINA RESULT:    -3.367      2.719      4.656
REMARK INTER + INTRA:          -4.532
REMARK INTER:                  -4.274
REMARK INTRA:                  -0.258
REMARK UNBOUND:                -0.181
REMARK SMILES CCCCCCC(=O)[O-]
REMARK SMILES IDX 5 1 6 2 7 3 8 4 9 5 4 6 3 7 2 8 1 9
REMARK H PARENT
REMARK Flexibility Score: inf
ROOT
ATOM      1  C   UNL     1      -1.580   9.485  -9.835  1.00  0.00     0.006 C 
ENDROOT
BRANCH   1   2
ATOM      2  C   UNL     1      -0.473   8.762  -9.056  1.00  0.00     0.053 C 
BRANCH   2   3
ATOM      3  C   UNL     1      -0.857   7.352  -8.729  1.00  0.00     0.041 C 
ATOM      4  O   UNL     1      -2.067   7.004  -8.745  1.00  0.00    -0.550 OA
ATOM      5  O   UNL     1       0.125   6.414  -8.438  1.00  0.00    -0.550 OA
ENDBRANCH   2   3
ENDBRANCH   1   2
BRANCH   1   6
ATOM      6  C   UNL     1      -2.303  10.537  -8.975  1.00  0.00     0.000 C 
BRANCH   6   7
ATOM      7  C   UNL     1      -3.831  10.476  -9.129  1.00  0.00    -0.000 C 
BRANCH   7   8
ATOM      8  C   UNL     1      -4.267   9.803 -10.439  1.00  0.00    -0.003 C 
ATOM      9  C   UNL     1      -5.504   8.936 -10.226  1.00  0.00     0.004 C 
ENDBRANCH   7   8
ENDBRANCH   6   7
ENDBRANCH   1   6
TORSDOF 5
ENDMDL
MODEL 8
REMARK VINA RESULT:    -3.365     17.432     19.143
REMARK INTER + INTRA:          -4.530
REMARK INTER:                  -4.297
REMARK INTRA:                  -0.233
REMARK UNBOUND:                -0.181
REMARK SMILES CCCCCCC(=O)[O-]
REMARK SMILES IDX 5 1 6 2 7 3 8 4 9 5 4 6 3 7 2 8 1 9
REMARK H PARENT
REMARK Flexibility Score: inf
ROOT
ATOM      1  C   UNL     1     -16.926  18.166 -20.329  1.00  0.00     0.006 C 
ENDROOT
BRANCH   1   2
ATOM      2  C   UNL     1     -17.368  17.458 -21.617  1.00  0.00     0.053 C 
BRANCH   2   3
ATOM      3  C   UNL     1     -18.848  17.559 -21.823  1.00  0.00     0.041 C 
ATOM      4  O   UNL     1     -19.602  17.876 -20.866  1.00  0.00    -0.550 OA
ATOM      5  O   UNL     1     -19.391  17.336 -23.082  1.00  0.00    -0.550 OA
ENDBRANCH   2   3
ENDBRANCH   1   2
BRANCH   1   6
ATOM      6  C   UNL     1     -15.696  17.494 -19.691  1.00  0.00     0.000 C 
BRANCH   6   7
ATOM      7  C   UNL     1     -15.227  16.256 -20.471  1.00  0.00    -0.000 C 
BRANCH   7   8
ATOM      8  C   UNL     1     -13.701  16.209 -20.639  1.00  0.00    -0.003 C 
ATOM      9  C   UNL     1     -13.027  17.329 -19.853  1.00  0.00     0.004 C 
ENDBRANCH   7   8
ENDBRANCH   6   7
ENDBRANCH   1   6
TORSDOF 5
ENDMDL
