MODEL 1
REMARK VINA RESULT:    -5.141      0.000      0.000
REMARK INTER + INTRA:          -6.712
REMARK INTER:                  -6.343
REMARK INTRA:                  -0.369
REMARK UNBOUND:                -0.369
REMARK SMILES COc1cc(-c2oc3cc(O)cc(O)c3c(=O)c2O)ccc1O
REMARK SMILES IDX 6 1 18 2 16 3 17 4 15 5 13 6 12 7 10 8 9 9 8 10 7 11 5 12
REMARK SMILES IDX 3 13 22 14 4 15 21 16 20 17 2 18 1 19 23 20 19 22 14 24
REMARK SMILES IDX 11 26
REMARK H PARENT 23 21 19 23 14 25 11 27
REMARK Flexibility Score: inf
ROOT
ATOM      1  C   UNL     1     -15.137  15.443  11.301  1.00  0.00     0.180 A 
ATOM      2  C   UNL     1     -16.231  16.148  10.761  1.00  0.00     0.208 A 
ATOM      3  C   UNL     1     -16.327  16.288   9.368  1.00  0.00     0.238 A 
ATOM      4  O   UNL     1     -17.297  16.925   8.874  1.00  0.00    -0.285 OA
ATOM      5  C   UNL     1     -15.345  15.708   8.540  1.00  0.00     0.111 A 
ATOM      6  C   UNL     1     -15.370  15.800   7.127  1.00  0.00     0.134 A 
ATOM      7  C   UNL     1     -14.359  15.188   6.372  1.00  0.00     0.093 A 
ATOM      8  C   UNL     1     -13.325  14.485   7.002  1.00  0.00     0.123 A 
ATOM      9  C   UNL     1     -13.296  14.392   8.395  1.00  0.00     0.094 A 
ATOM     10  C   UNL     1     -14.294  14.997   9.165  1.00  0.00     0.146 A 
ATOM     11  O   UNL     1     -14.238  14.897  10.488  1.00  0.00    -0.452 OA
ENDROOT
BRANCH   1  12
ATOM     12  C   UNL     1     -14.957  15.269  12.760  1.00  0.00     0.025 A 
ATOM     13  C   UNL     1     -13.903  15.896  14.876  1.00  0.00     0.161 A 
ATOM     14  C   UNL     1     -14.602  14.866  15.521  1.00  0.00     0.157 A 
ATOM     15  C   UNL     1     -14.077  16.089  13.491  1.00  0.00     0.062 A 
ATOM     16  C   UNL     1     -15.461  14.035  14.790  1.00  0.00     0.051 A 
ATOM     17  C   UNL     1     -15.631  14.231  13.418  1.00  0.00     0.016 A 
BRANCH  13  18
ATOM     18  O   UNL     1     -13.042  16.700  15.641  1.00  0.00    -0.493 OA
ATOM     19  C   UNL     1     -11.966  17.463  15.108  1.00  0.00     0.278 C 
ENDBRANCH  13  18
BRANCH  14  20
ATOM     20  O   UNL     1     -14.435  14.672  16.892  1.00  0.00    -0.504 OA
ATOM     21  H   UNL     1     -13.563  14.896  17.356  1.00  0.00     0.293 HD
ENDBRANCH  14  20
ENDBRANCH   1  12
BRANCH   2  22
ATOM     22  O   UNL     1     -17.219  16.670  11.602  1.00  0.00    -0.502 OA
ATOM     23  H   UNL     1     -17.073  17.504  12.158  1.00  0.00     0.293 HD
ENDBRANCH   2  22
BRANCH   6  24
ATOM     24  O   UNL     1     -16.388  16.492   6.471  1.00  0.00    -0.507 OA
ATOM     25  H   UNL     1     -16.555  17.478   6.636  1.00  0.00     0.293 HD
ENDBRANCH   6  24
BRANCH   8  26
ATOM     26  O   UNL     1     -12.322  13.875   6.252  1.00  0.00    -0.508 OA
ATOM     27  H   UNL     1     -12.427  13.714   5.258  1.00  0.00     0.293 HD
ENDBRANCH   8  26
TORSDOF 6
ENDMDL
MODEL 2
REMARK VINA RESULT:    -3.895      1.217      1.960
REMARK INTER + INTRA:          -5.174
REMARK INTER:                  -5.129
REMARK INTRA:                  -0.045
REMARK UNBOUND:                -0.369
REMARK SMILES COc1cc(-c2oc3cc(O)cc(O)c3c(=O)c2O)ccc1O
REMARK SMILES IDX 6 1 18 2 16 3 17 4 15 5 13 6 12 7 10 8 9 9 8 10 7 11 5 12
REMARK SMILES IDX 3 13 22 14 4 15 21 16 20 17 2 18 1 19 23 20 19 22 14 24
REMARK SMILES IDX 11 26
REMARK H PARENT 23 21 19 23 14 25 11 27
REMARK Flexibility Score: inf
ROOT
ATOM      1  C   UNL     1     -14.548  15.370  11.576  1.00  0.00     0.180 A 
ATOM      2  C   UNL     1     -15.774  16.048  11.429  1.00  0.00     0.208 A 
ATOM      3  C   UNL     1     -16.323  16.187  10.145  1.00  0.00     0.238 A 
ATOM      4  O   UNL     1     -17.415  16.801  10.001  1.00  0.00    -0.285 OA
ATOM      5  C   UNL     1     -15.652  15.632   9.036  1.00  0.00     0.111 A 
ATOM      6  C   UNL     1     -16.140  15.724   7.710  1.00  0.00     0.134 A 
ATOM      7  C   UNL     1     -15.418  15.137   6.661  1.00  0.00     0.093 A 
ATOM      8  C   UNL     1     -14.219  14.460   6.913  1.00  0.00     0.123 A 
ATOM      9  C   UNL     1     -13.734  14.367   8.219  1.00  0.00     0.094 A 
ATOM     10  C   UNL     1     -14.438  14.947   9.278  1.00  0.00     0.146 A 
ATOM     11  O   UNL     1     -13.951  14.847  10.509  1.00  0.00    -0.452 OA
ENDROOT
BRANCH   1  12
ATOM     12  C   UNL     1     -13.896  15.199  12.894  1.00  0.00     0.025 A 
ATOM     13  C   UNL     1     -13.947  14.470  15.228  1.00  0.00     0.161 A 
ATOM     14  C   UNL     1     -12.640  14.946  15.398  1.00  0.00     0.157 A 
ATOM     15  C   UNL     1     -14.576  14.607  13.974  1.00  0.00     0.062 A 
ATOM     16  C   UNL     1     -11.970  15.556  14.330  1.00  0.00     0.051 A 
ATOM     17  C   UNL     1     -12.596  15.689  13.089  1.00  0.00     0.016 A 
BRANCH  13  18
ATOM     18  O   UNL     1     -14.590  13.875  16.326  1.00  0.00    -0.493 OA
ATOM     19  C   UNL     1     -15.241  14.594  17.367  1.00  0.00     0.278 C 
ENDBRANCH  13  18
BRANCH  14  20
ATOM     20  O   UNL     1     -12.012  14.811  16.635  1.00  0.00    -0.504 OA
ATOM     21  H   UNL     1     -11.508  15.580  17.060  1.00  0.00     0.293 HD
ENDBRANCH  14  20
ENDBRANCH   1  12
BRANCH   2  22
ATOM     22  O   UNL     1     -16.444  16.545  12.551  1.00  0.00    -0.502 OA
ATOM     23  H   UNL     1     -17.168  17.251  12.482  1.00  0.00     0.293 HD
ENDBRANCH   2  22
BRANCH   6  24
ATOM     24  O   UNL     1     -17.333  16.392   7.429  1.00  0.00    -0.507 OA
ATOM     25  H   UNL     1     -17.893  16.813   8.160  1.00  0.00     0.293 HD
ENDBRANCH   6  24
BRANCH   8  26
ATOM     26  O   UNL     1     -13.502  13.875   5.871  1.00  0.00    -0.508 OA
ATOM     27  H   UNL     1     -13.753  14.031   4.902  1.00  0.00     0.293 HD
ENDBRANCH   8  26
TORSDOF 6
ENDMDL
MODEL 3
REMARK VINA RESULT:    -2.690     12.361     15.358
REMARK INTER + INTRA:          -3.688
REMARK INTER:                  -4.334
REMARK INTRA:                   0.647
REMARK UNBOUND:                -0.369
REMARK SMILES COc1cc(-c2oc3cc(O)cc(O)c3c(=O)c2O)ccc1O
REMARK SMILES IDX 6 1 18 2 16 3 17 4 15 5 13 6 12 7 10 8 9 9 8 10 7 11 5 12
REMARK SMILES IDX 3 13 22 14 4 15 21 16 20 17 2 18 1 19 23 20 19 22 14 24
REMARK SMILES IDX 11 26
REMARK H PARENT 23 21 19 23 14 25 11 27
REMARK Flexibility Score: inf
ROOT
ATOM      1  C   UNL     1     -26.236  15.643  18.902  1.00  0.00     0.180 A 
ATOM      2  C   UNL     1     -25.163  15.000  18.254  1.00  0.00     0.208 A 
ATOM      3  C   UNL     1     -23.862  15.489  18.449  1.00  0.00     0.238 A 
ATOM      4  O   UNL     1     -22.894  14.928  17.867  1.00  0.00    -0.285 OA
ATOM      5  C   UNL     1     -23.653  16.594  19.301  1.00  0.00     0.111 A 
ATOM      6  C   UNL     1     -22.373  17.146  19.554  1.00  0.00     0.134 A 
ATOM      7  C   UNL     1     -22.247  18.240  20.420  1.00  0.00     0.093 A 
ATOM      8  C   UNL     1     -23.374  18.793  21.039  1.00  0.00     0.123 A 
ATOM      9  C   UNL     1     -24.638  18.253  20.792  1.00  0.00     0.094 A 
ATOM     10  C   UNL     1     -24.785  17.163  19.930  1.00  0.00     0.146 A 
ATOM     11  O   UNL     1     -25.999  16.672  19.709  1.00  0.00    -0.452 OA
ENDROOT
BRANCH   1  12
ATOM     12  C   UNL     1     -27.638  15.197  18.732  1.00  0.00     0.025 A 
ATOM     13  C   UNL     1     -29.729  14.315  19.642  1.00  0.00     0.161 A 
ATOM     14  C   UNL     1     -30.278  14.307  18.353  1.00  0.00     0.157 A 
ATOM     15  C   UNL     1     -28.402  14.754  19.826  1.00  0.00     0.062 A 
ATOM     16  C   UNL     1     -29.511  14.727  17.260  1.00  0.00     0.051 A 
ATOM     17  C   UNL     1     -28.197  15.162  17.446  1.00  0.00     0.016 A 
BRANCH  13  18
ATOM     18  O   UNL     1     -30.526  13.875  20.712  1.00  0.00    -0.493 OA
ATOM     19  C   UNL     1     -31.941  14.014  20.773  1.00  0.00     0.278 C 
ENDBRANCH  13  18
BRANCH  14  20
ATOM     20  O   UNL     1     -31.591  13.876  18.166  1.00  0.00    -0.504 OA
ATOM     21  H   UNL     1     -31.965  13.705  17.240  1.00  0.00     0.293 HD
ENDBRANCH  14  20
ENDBRANCH   1  12
BRANCH   2  22
ATOM     22  O   UNL     1     -25.391  13.876  17.456  1.00  0.00    -0.502 OA
ATOM     23  H   UNL     1     -25.252  12.932  17.795  1.00  0.00     0.293 HD
ENDBRANCH   2  22
BRANCH   6  24
ATOM     24  O   UNL     1     -21.231  16.615  18.953  1.00  0.00    -0.507 OA
ATOM     25  H   UNL     1     -21.252  15.734  18.453  1.00  0.00     0.293 HD
ENDBRANCH   6  24
BRANCH   8  26
ATOM     26  O   UNL     1     -23.249  19.880  21.902  1.00  0.00    -0.508 OA
ATOM     27  H   UNL     1     -22.398  20.427  21.945  1.00  0.00     0.293 HD
ENDBRANCH   8  26
TORSDOF 6
ENDMDL
