MODEL 1
REMARK VINA RESULT:    -4.210      0.000      0.000
REMARK INTER + INTRA:          -5.474
REMARK INTER:                  -5.195
REMARK INTRA:                  -0.279
REMARK UNBOUND:                -0.279
REMARK SMILES CCCCC=CC(C)=O
REMARK SMILES IDX 4 1 3 2 2 3 1 4 5 5 6 6 7 7 9 8 8 9
REMARK H PARENT
REMARK Flexibility Score: inf
ROOT
ATOM      1  C   UNL     1      -3.057 -14.001  -8.296  1.00  0.00     0.027 C 
ENDROOT
BRANCH   1   2
ATOM      2  C   UNL     1      -3.687 -12.694  -7.782  1.00  0.00     0.004 C 
BRANCH   2   3
ATOM      3  C   UNL     1      -4.802 -12.137  -8.685  1.00  0.00    -0.003 C 
ATOM      4  C   UNL     1      -5.977 -13.101  -8.841  1.00  0.00     0.004 C 
ENDBRANCH   2   3
ENDBRANCH   1   2
BRANCH   1   5
ATOM      5  C   UNL     1      -3.066 -15.091  -7.261  1.00  0.00    -0.023 C 
ATOM      6  C   UNL     1      -4.106 -15.265  -6.437  1.00  0.00     0.042 C 
BRANCH   6   7
ATOM      7  C   UNL     1      -4.157 -16.323  -5.407  1.00  0.00     0.152 C 
ATOM      8  O   UNL     1      -4.588 -16.028  -4.261  1.00  0.00    -0.295 OA
ATOM      9  C   UNL     1      -3.714 -17.729  -5.676  1.00  0.00     0.093 C 
ENDBRANCH   6   7
ENDBRANCH   1   5
TORSDOF 4
ENDMDL
MODEL 2
REMARK VINA RESULT:    -4.173      1.289      1.826
REMARK INTER + INTRA:          -5.428
REMARK INTER:                  -5.135
REMARK INTRA:                  -0.293
REMARK UNBOUND:                -0.279
REMARK SMILES CCCCC=CC(C)=O
REMARK SMILES IDX 4 1 3 2 2 3 1 4 5 5 6 6 7 7 9 8 8 9
REMARK H PARENT
REMARK Flexibility Score: inf
ROOT
ATOM      1  C   UNL     1      -5.604 -14.375  -8.952  1.00  0.00     0.027 C 
ENDROOT
BRANCH   1   2
ATOM      2  C   UNL     1      -5.699 -12.889  -8.562  1.00  0.00     0.004 C 
BRANCH   2   3
ATOM      3  C   UNL     1      -4.563 -12.017  -9.125  1.00  0.00    -0.003 C 
ATOM      4  C   UNL     1      -3.489 -11.698  -8.085  1.00  0.00     0.004 C 
ENDBRANCH   2   3
ENDBRANCH   1   2
BRANCH   1   5
ATOM      5  C   UNL     1      -4.811 -15.182  -7.963  1.00  0.00    -0.023 C 
ATOM      6  C   UNL     1      -4.905 -14.962  -6.646  1.00  0.00     0.042 C 
BRANCH   6   7
ATOM      7  C   UNL     1      -4.146 -15.731  -5.639  1.00  0.00     0.152 C 
ATOM      8  O   UNL     1      -4.768 -16.224  -4.662  1.00  0.00    -0.295 OA
ATOM      9  C   UNL     1      -2.665 -15.943  -5.738  1.00  0.00     0.093 C 
ENDBRANCH   6   7
ENDBRANCH   1   5
TORSDOF 4
ENDMDL
MODEL 3
REMARK VINA RESULT:    -3.814      1.436      1.638
REMARK INTER + INTRA:          -4.985
REMARK INTER:                  -4.720
REMARK INTRA:                  -0.265
REMARK UNBOUND:                -0.279
REMARK SMILES CCCCC=CC(C)=O
REMARK SMILES IDX 4 1 3 2 2 3 1 4 5 5 6 6 7 7 9 8 8 9
REMARK H PARENT
REMARK Flexibility Score: inf
ROOT
ATOM      1  C   UNL     1      -3.042 -12.339  -7.653  1.00  0.00     0.027 C 
ENDROOT
BRANCH   1   2
ATOM      2  C   UNL     1      -4.526 -11.931  -7.632  1.00  0.00     0.004 C 
BRANCH   2   3
ATOM      3  C   UNL     1      -5.294 -12.291  -8.917  1.00  0.00    -0.003 C 
ATOM      4  C   UNL     1      -6.085 -13.592  -8.789  1.00  0.00     0.004 C 
ENDBRANCH   2   3
ENDBRANCH   1   2
BRANCH   1   5
ATOM      5  C   UNL     1      -2.733 -13.445  -6.683  1.00  0.00    -0.023 C 
ATOM      6  C   UNL     1      -2.961 -14.728  -6.989  1.00  0.00     0.042 C 
BRANCH   6   7
ATOM      7  C   UNL     1      -2.672 -15.845  -6.068  1.00  0.00     0.152 C 
ATOM      8  O   UNL     1      -1.572 -15.852  -5.455  1.00  0.00    -0.295 OA
ATOM      9  C   UNL     1      -3.637 -16.969  -5.839  1.00  0.00     0.093 C 
ENDBRANCH   6   7
ENDBRANCH   1   5
TORSDOF 4
ENDMDL
MODEL 4
REMARK VINA RESULT:    -3.780      2.378      4.566
REMARK INTER + INTRA:          -4.942
REMARK INTER:                  -4.670
REMARK INTRA:                  -0.272
REMARK UNBOUND:                -0.279
REMARK SMILES CCCCC=CC(C)=O
REMARK SMILES IDX 4 1 3 2 2 3 1 4 5 5 6 6 7 7 9 8 8 9
REMARK H PARENT
REMARK Flexibility Score: inf
ROOT
ATOM      1  C   UNL     1      -4.465 -15.821  -5.831  1.00  0.00     0.027 C 
ENDROOT
BRANCH   1   2
ATOM      2  C   UNL     1      -3.257 -15.136  -5.166  1.00  0.00     0.004 C 
BRANCH   2   3
ATOM      3  C   UNL     1      -1.900 -15.511  -5.789  1.00  0.00    -0.003 C 
ATOM      4  C   UNL     1      -1.303 -14.383  -6.630  1.00  0.00     0.004 C 
ENDBRANCH   2   3
ENDBRANCH   1   2
BRANCH   1   5
ATOM      5  C   UNL     1      -4.904 -15.121  -7.087  1.00  0.00    -0.023 C 
ATOM      6  C   UNL     1      -5.116 -13.800  -7.114  1.00  0.00     0.042 C 
BRANCH   6   7
ATOM      7  C   UNL     1      -5.547 -13.072  -8.324  1.00  0.00     0.152 C 
ATOM      8  O   UNL     1      -6.472 -13.562  -9.025  1.00  0.00    -0.295 OA
ATOM      9  C   UNL     1      -4.923 -11.777  -8.750  1.00  0.00     0.093 C 
ENDBRANCH   6   7
ENDBRANCH   1   5
TORSDOF 4
ENDMDL
MODEL 5
REMARK VINA RESULT:    -3.753      2.388      4.588
REMARK INTER + INTRA:          -4.909
REMARK INTER:                  -4.719
REMARK INTRA:                  -0.190
REMARK UNBOUND:                -0.279
REMARK SMILES CCCCC=CC(C)=O
REMARK SMILES IDX 4 1 3 2 2 3 1 4 5 5 6 6 7 7 9 8 8 9
REMARK H PARENT
REMARK Flexibility Score: inf
ROOT
ATOM      1  C   UNL     1      -1.904 -14.465  -6.875  1.00  0.00     0.027 C 
ENDROOT
BRANCH   1   2
ATOM      2  C   UNL     1      -2.366 -15.511  -5.845  1.00  0.00     0.004 C 
BRANCH   2   3
ATOM      3  C   UNL     1      -3.696 -16.201  -6.202  1.00  0.00    -0.003 C 
ATOM      4  C   UNL     1      -3.747 -17.659  -5.748  1.00  0.00     0.004 C 
ENDBRANCH   2   3
ENDBRANCH   1   2
BRANCH   1   5
ATOM      5  C   UNL     1      -2.999 -14.070  -7.826  1.00  0.00    -0.023 C 
ATOM      6  C   UNL     1      -3.684 -12.930  -7.670  1.00  0.00     0.042 C 
BRANCH   6   7
ATOM      7  C   UNL     1      -4.765 -12.503  -8.581  1.00  0.00     0.152 C 
ATOM      8  O   UNL     1      -4.682 -11.370  -9.125  1.00  0.00    -0.295 OA
ATOM      9  C   UNL     1      -5.955 -13.365  -8.877  1.00  0.00     0.093 C 
ENDBRANCH   6   7
ENDBRANCH   1   5
TORSDOF 4
ENDMDL
MODEL 6
REMARK VINA RESULT:    -3.605      1.742      2.465
REMARK INTER + INTRA:          -4.727
REMARK INTER:                  -4.481
REMARK INTRA:                  -0.246
REMARK UNBOUND:                -0.279
REMARK SMILES CCCCC=CC(C)=O
REMARK SMILES IDX 4 1 3 2 2 3 1 4 5 5 6 6 7 7 9 8 8 9
REMARK H PARENT
REMARK Flexibility Score: inf
ROOT
ATOM      1  C   UNL     1      -5.674 -14.482  -8.031  1.00  0.00     0.027 C 
ENDROOT
BRANCH   1   2
ATOM      2  C   UNL     1      -5.130 -13.545  -9.125  1.00  0.00     0.004 C 
BRANCH   2   3
ATOM      3  C   UNL     1      -5.176 -12.052  -8.753  1.00  0.00    -0.003 C 
ATOM      4  C   UNL     1      -3.831 -11.352  -8.945  1.00  0.00     0.004 C 
ENDBRANCH   2   3
ENDBRANCH   1   2
BRANCH   1   5
ATOM      5  C   UNL     1      -4.617 -14.893  -7.045  1.00  0.00    -0.023 C 
ATOM      6  C   UNL     1      -3.315 -14.835  -7.350  1.00  0.00     0.042 C 
BRANCH   6   7
ATOM      7  C   UNL     1      -2.244 -15.227  -6.412  1.00  0.00     0.152 C 
ATOM      8  O   UNL     1      -2.446 -16.202  -5.640  1.00  0.00    -0.295 OA
ATOM      9  C   UNL     1      -0.931 -14.508  -6.344  1.00  0.00     0.093 C 
ENDBRANCH   6   7
ENDBRANCH   1   5
TORSDOF 4
ENDMDL
MODEL 7
REMARK VINA RESULT:    -3.542      2.200      4.815
REMARK INTER + INTRA:          -4.649
REMARK INTER:                  -4.494
REMARK INTRA:                  -0.156
REMARK UNBOUND:                -0.279
REMARK SMILES CCCCC=CC(C)=O
REMARK SMILES IDX 4 1 3 2 2 3 1 4 5 5 6 6 7 7 9 8 8 9
REMARK H PARENT
REMARK Flexibility Score: inf
ROOT
ATOM      1  C   UNL     1      -3.212 -14.842  -5.504  1.00  0.00     0.027 C 
ENDROOT
BRANCH   1   2
ATOM      2  C   UNL     1      -3.071 -16.270  -6.059  1.00  0.00     0.004 C 
BRANCH   2   3
ATOM      3  C   UNL     1      -4.127 -17.257  -5.530  1.00  0.00    -0.003 C 
ATOM      4  C   UNL     1      -3.648 -18.708  -5.556  1.00  0.00     0.004 C 
ENDBRANCH   2   3
ENDBRANCH   1   2
BRANCH   1   5
ATOM      5  C   UNL     1      -3.711 -13.869  -6.536  1.00  0.00    -0.023 C 
ATOM      6  C   UNL     1      -4.882 -14.051  -7.160  1.00  0.00     0.042 C 
BRANCH   6   7
ATOM      7  C   UNL     1      -5.411 -13.121  -8.177  1.00  0.00     0.152 C 
ATOM      8  O   UNL     1      -6.409 -13.476  -8.858  1.00  0.00    -0.295 OA
ATOM      9  C   UNL     1      -4.802 -11.774  -8.431  1.00  0.00     0.093 C 
ENDBRANCH   6   7
ENDBRANCH   1   5
TORSDOF 4
ENDMDL
MODEL 8
REMARK VINA RESULT:    -3.037      3.096      5.008
REMARK INTER + INTRA:          -4.026
REMARK INTER:                  -3.871
REMARK INTRA:                  -0.155
REMARK UNBOUND:                -0.279
REMARK SMILES CCCCC=CC(C)=O
REMARK SMILES IDX 4 1 3 2 2 3 1 4 5 5 6 6 7 7 9 8 8 9
REMARK H PARENT
REMARK Flexibility Score: inf
ROOT
ATOM      1  C   UNL     1      -0.366 -14.784  -6.212  1.00  0.00     0.027 C 
ENDROOT
BRANCH   1   2
ATOM      2  C   UNL     1       0.556 -15.019  -5.003  1.00  0.00     0.004 C 
BRANCH   2   3
ATOM      3  C   UNL     1       0.309 -16.353  -4.274  1.00  0.00    -0.003 C 
ATOM      4  C   UNL     1       0.970 -16.406  -2.897  1.00  0.00     0.004 C 
ENDBRANCH   2   3
ENDBRANCH   1   2
BRANCH   1   5
ATOM      5  C   UNL     1      -1.820 -14.953  -5.870  1.00  0.00    -0.023 C 
ATOM      6  C   UNL     1      -2.762 -14.995  -6.820  1.00  0.00     0.042 C 
BRANCH   6   7
ATOM      7  C   UNL     1      -4.200 -15.161  -6.529  1.00  0.00     0.152 C 
ATOM      8  O   UNL     1      -4.537 -15.714  -5.449  1.00  0.00    -0.295 OA
ATOM      9  C   UNL     1      -5.270 -14.698  -7.472  1.00  0.00     0.093 C 
ENDBRANCH   6   7
ENDBRANCH   1   5
TORSDOF 4
ENDMDL
MODEL 9
REMARK VINA RESULT:    -3.002      3.481      5.339
REMARK INTER + INTRA:          -3.983
REMARK INTER:                  -3.884
REMARK INTRA:                  -0.098
REMARK UNBOUND:                -0.279
REMARK SMILES CCCCC=CC(C)=O
REMARK SMILES IDX 4 1 3 2 2 3 1 4 5 5 6 6 7 7 9 8 8 9
REMARK H PARENT
REMARK Flexibility Score: inf
ROOT
ATOM      1  C   UNL     1      -0.736 -14.994  -6.077  1.00  0.00     0.027 C 
ENDROOT
BRANCH   1   2
ATOM      2  C   UNL     1      -0.492 -15.961  -4.905  1.00  0.00     0.004 C 
BRANCH   2   3
ATOM      3  C   UNL     1       0.874 -15.785  -4.218  1.00  0.00    -0.003 C 
ATOM      4  C   UNL     1       0.931 -16.434  -2.836  1.00  0.00     0.004 C 
ENDBRANCH   2   3
ENDBRANCH   1   2
BRANCH   1   5
ATOM      5  C   UNL     1      -2.197 -14.752  -6.331  1.00  0.00    -0.023 C 
ATOM      6  C   UNL     1      -2.661 -14.499  -7.561  1.00  0.00     0.042 C 
BRANCH   6   7
ATOM      7  C   UNL     1      -4.088 -14.257  -7.856  1.00  0.00     0.152 C 
ATOM      8  O   UNL     1      -4.386 -13.566  -8.865  1.00  0.00    -0.295 OA
ATOM      9  C   UNL     1      -5.190 -14.802  -6.998  1.00  0.00     0.093 C 
ENDBRANCH   6   7
ENDBRANCH   1   5
TORSDOF 4
ENDMDL
