MODEL 1
REMARK VINA RESULT:    -4.429      0.000      0.000
REMARK INTER + INTRA:          -8.740
REMARK INTER:                  -6.759
REMARK INTRA:                  -1.981
REMARK UNBOUND:                -1.981
REMARK SMILES CC(=O)CCC=C(C)CCC=C(C)CCC=C(C)C
REMARK SMILES IDX 10 1 11 2 12 3 13 4 14 5 15 6 16 7 18 8 17 9 19 10 9 11 7 12
REMARK SMILES IDX 6 13 8 14 5 15 4 16 2 17 3 18 1 19
REMARK H PARENT
REMARK Flexibility Score: inf
ROOT
ATOM      1  C   UNL     1     -21.666  -8.202   8.819  1.00  0.00     0.032 C 
ENDROOT
BRANCH   1   2
ATOM      2  C   UNL     1     -20.394  -7.392   8.838  1.00  0.00    -0.028 C 
ATOM      3  C   UNL     1     -20.334  -6.057   9.049  1.00  0.00    -0.077 C 
ATOM      4  C   UNL     1     -21.572  -5.233   9.317  1.00  0.00     0.039 C 
BRANCH   3   5
ATOM      5  C   UNL     1     -18.985  -5.370   9.030  1.00  0.00     0.034 C 
BRANCH   5   6
ATOM      6  C   UNL     1     -19.140  -3.866   8.776  1.00  0.00     0.032 C 
BRANCH   6   7
ATOM      7  C   UNL     1     -18.025  -3.083   9.425  1.00  0.00    -0.028 C 
ATOM      8  C   UNL     1     -17.038  -1.513  11.041  1.00  0.00     0.039 C 
ATOM      9  C   UNL     1     -18.222  -2.247  10.467  1.00  0.00    -0.080 C 
ATOM     10  C   UNL     1     -19.594  -2.036  11.063  1.00  0.00     0.039 C 
ENDBRANCH   6   7
ENDBRANCH   5   6
ENDBRANCH   3   5
ENDBRANCH   1   2
BRANCH   1  11
ATOM     11  C   UNL     1     -22.000  -8.670   7.399  1.00  0.00     0.034 C 
BRANCH  11  12
ATOM     12  C   UNL     1     -21.133  -9.850   7.003  1.00  0.00    -0.077 C 
ATOM     13  C   UNL     1     -20.356  -9.855   5.896  1.00  0.00    -0.028 C 
ATOM     14  C   UNL     1     -21.179 -11.096   7.850  1.00  0.00     0.039 C 
BRANCH  13  15
ATOM     15  C   UNL     1     -20.187  -8.688   4.955  1.00  0.00     0.035 C 
BRANCH  15  16
ATOM     16  C   UNL     1     -18.826  -8.014   5.161  1.00  0.00     0.079 C 
BRANCH  16  17
ATOM     17  C   UNL     1     -18.995  -6.545   5.436  1.00  0.00     0.130 C 
ATOM     18  O   UNL     1     -18.019  -5.863   5.712  1.00  0.00    -0.300 OA
ATOM     19  C   UNL     1     -20.350  -5.909   5.359  1.00  0.00     0.087 C 
ENDBRANCH  16  17
ENDBRANCH  15  16
ENDBRANCH  13  15
ENDBRANCH  11  12
ENDBRANCH   1  11
TORSDOF 9
ENDMDL
MODEL 2
REMARK VINA RESULT:    -4.413      3.723      6.170
REMARK INTER + INTRA:          -8.716
REMARK INTER:                  -6.244
REMARK INTRA:                  -2.472
REMARK UNBOUND:                -1.981
REMARK SMILES CC(=O)CCC=C(C)CCC=C(C)CCC=C(C)C
REMARK SMILES IDX 10 1 11 2 12 3 13 4 14 5 15 6 16 7 18 8 17 9 19 10 9 11 7 12
REMARK SMILES IDX 6 13 8 14 5 15 4 16 2 17 3 18 1 19
REMARK H PARENT
REMARK Flexibility Score: inf
ROOT
ATOM      1  C   UNL     1     -20.952  -4.869   8.672  1.00  0.00     0.032 C 
ENDROOT
BRANCH   1   2
ATOM      2  C   UNL     1     -21.423  -3.462   8.941  1.00  0.00    -0.028 C 
ATOM      3  C   UNL     1     -21.521  -2.490   8.004  1.00  0.00    -0.077 C 
ATOM      4  C   UNL     1     -21.181  -2.741   6.553  1.00  0.00     0.039 C 
BRANCH   3   5
ATOM      5  C   UNL     1     -21.999  -1.115   8.419  1.00  0.00     0.034 C 
BRANCH   5   6
ATOM      6  C   UNL     1     -22.922  -1.204   9.641  1.00  0.00     0.032 C 
BRANCH   6   7
ATOM      7  C   UNL     1     -22.610  -0.119  10.643  1.00  0.00    -0.028 C 
ATOM      8  C   UNL     1     -21.749   0.793  12.759  1.00  0.00     0.039 C 
ATOM      9  C   UNL     1     -22.017  -0.363  11.831  1.00  0.00    -0.080 C 
ATOM     10  C   UNL     1     -21.620  -1.762  12.244  1.00  0.00     0.039 C 
ENDBRANCH   6   7
ENDBRANCH   5   6
ENDBRANCH   3   5
ENDBRANCH   1   2
BRANCH   1  11
ATOM     11  C   UNL     1     -19.576  -5.119   9.298  1.00  0.00     0.034 C 
BRANCH  11  12
ATOM     12  C   UNL     1     -18.484  -4.468   8.471  1.00  0.00    -0.077 C 
ATOM     13  C   UNL     1     -17.760  -3.411   8.908  1.00  0.00    -0.028 C 
ATOM     14  C   UNL     1     -18.226  -4.983   7.078  1.00  0.00     0.039 C 
BRANCH  13  15
ATOM     15  C   UNL     1     -17.882  -2.788  10.276  1.00  0.00     0.035 C 
BRANCH  15  16
ATOM     16  C   UNL     1     -18.613  -1.443  10.201  1.00  0.00     0.079 C 
BRANCH  16  17
ATOM     17  C   UNL     1     -18.079  -0.488  11.232  1.00  0.00     0.130 C 
ATOM     18  O   UNL     1     -18.556   0.633  11.326  1.00  0.00    -0.300 OA
ATOM     19  C   UNL     1     -16.978  -0.908  12.158  1.00  0.00     0.087 C 
ENDBRANCH  16  17
ENDBRANCH  15  16
ENDBRANCH  13  15
ENDBRANCH  11  12
ENDBRANCH   1  11
TORSDOF 9
ENDMDL
MODEL 3
REMARK VINA RESULT:    -4.406      2.605      7.789
REMARK INTER + INTRA:          -8.705
REMARK INTER:                  -7.269
REMARK INTRA:                  -1.435
REMARK UNBOUND:                -1.981
REMARK SMILES CC(=O)CCC=C(C)CCC=C(C)CCC=C(C)C
REMARK SMILES IDX 10 1 11 2 12 3 13 4 14 5 15 6 16 7 18 8 17 9 19 10 9 11 7 12
REMARK SMILES IDX 6 13 8 14 5 15 4 16 2 17 3 18 1 19
REMARK H PARENT
REMARK Flexibility Score: inf
ROOT
ATOM      1  C   UNL     1     -18.000  -3.133  10.120  1.00  0.00     0.032 C 
ENDROOT
BRANCH   1   2
ATOM      2  C   UNL     1     -18.079  -3.880   8.813  1.00  0.00    -0.028 C 
ATOM      3  C   UNL     1     -19.155  -4.586   8.393  1.00  0.00    -0.077 C 
ATOM      4  C   UNL     1     -20.423  -4.673   9.210  1.00  0.00     0.039 C 
BRANCH   3   5
ATOM      5  C   UNL     1     -19.091  -5.298   7.058  1.00  0.00     0.034 C 
BRANCH   5   6
ATOM      6  C   UNL     1     -20.338  -6.162   6.839  1.00  0.00     0.032 C 
BRANCH   6   7
ATOM      7  C   UNL     1     -19.968  -7.602   6.582  1.00  0.00    -0.028 C 
ATOM      8  C   UNL     1     -19.880 -10.012   7.068  1.00  0.00     0.039 C 
ATOM      9  C   UNL     1     -20.299  -8.608   7.420  1.00  0.00    -0.080 C 
ATOM     10  C   UNL     1     -21.074  -8.354   8.692  1.00  0.00     0.039 C 
ENDBRANCH   6   7
ENDBRANCH   5   6
ENDBRANCH   3   5
ENDBRANCH   1   2
BRANCH   1  11
ATOM     11  C   UNL     1     -17.366  -1.751   9.927  1.00  0.00     0.034 C 
BRANCH  11  12
ATOM     12  C   UNL     1     -17.758  -0.817  11.056  1.00  0.00    -0.077 C 
ATOM     13  C   UNL     1     -18.775   0.069  10.960  1.00  0.00    -0.028 C 
ATOM     14  C   UNL     1     -16.945  -0.837  12.326  1.00  0.00     0.039 C 
BRANCH  13  15
ATOM     15  C   UNL     1     -19.692   0.204   9.769  1.00  0.00     0.035 C 
BRANCH  15  16
ATOM     16  C   UNL     1     -20.730  -0.923   9.750  1.00  0.00     0.079 C 
BRANCH  16  17
ATOM     17  C   UNL     1     -21.482  -0.978  11.051  1.00  0.00     0.130 C 
ATOM     18  O   UNL     1     -22.341  -0.143  11.291  1.00  0.00    -0.300 OA
ATOM     19  C   UNL     1     -21.197  -2.060  12.048  1.00  0.00     0.087 C 
ENDBRANCH  16  17
ENDBRANCH  15  16
ENDBRANCH  13  15
ENDBRANCH  11  12
ENDBRANCH   1  11
TORSDOF 9
ENDMDL
MODEL 4
REMARK VINA RESULT:    -4.386      3.462      8.072
REMARK INTER + INTRA:          -8.674
REMARK INTER:                  -6.500
REMARK INTRA:                  -2.174
REMARK UNBOUND:                -1.981
REMARK SMILES CC(=O)CCC=C(C)CCC=C(C)CCC=C(C)C
REMARK SMILES IDX 10 1 11 2 12 3 13 4 14 5 15 6 16 7 18 8 17 9 19 10 9 11 7 12
REMARK SMILES IDX 6 13 8 14 5 15 4 16 2 17 3 18 1 19
REMARK H PARENT
REMARK Flexibility Score: inf
ROOT
ATOM      1  C   UNL     1     -18.096  -2.984  10.157  1.00  0.00     0.032 C 
ENDROOT
BRANCH   1   2
ATOM      2  C   UNL     1     -19.444  -3.051   9.485  1.00  0.00    -0.028 C 
ATOM      3  C   UNL     1     -20.629  -2.882  10.115  1.00  0.00    -0.077 C 
ATOM      4  C   UNL     1     -20.713  -2.576  11.593  1.00  0.00     0.039 C 
BRANCH   3   5
ATOM      5  C   UNL     1     -21.909  -2.988   9.314  1.00  0.00     0.034 C 
BRANCH   5   6
ATOM      6  C   UNL     1     -21.868  -4.201   8.377  1.00  0.00     0.032 C 
BRANCH   6   7
ATOM      7  C   UNL     1     -22.553  -5.394   8.997  1.00  0.00    -0.028 C 
ATOM      8  C   UNL     1     -22.674  -7.655   9.959  1.00  0.00     0.039 C 
ATOM      9  C   UNL     1     -21.895  -6.521   9.347  1.00  0.00    -0.080 C 
ATOM     10  C   UNL     1     -20.405  -6.663   9.139  1.00  0.00     0.039 C 
ENDBRANCH   6   7
ENDBRANCH   5   6
ENDBRANCH   3   5
ENDBRANCH   1   2
BRANCH   1  11
ATOM     11  C   UNL     1     -17.430  -1.623   9.922  1.00  0.00     0.034 C 
BRANCH  11  12
ATOM     12  C   UNL     1     -17.681  -0.692  11.093  1.00  0.00    -0.077 C 
ATOM     13  C   UNL     1     -18.566   0.330  11.045  1.00  0.00    -0.028 C 
ATOM     14  C   UNL     1     -16.871  -0.877  12.350  1.00  0.00     0.039 C 
BRANCH  13  15
ATOM     15  C   UNL     1     -19.462   0.640   9.872  1.00  0.00     0.035 C 
BRANCH  15  16
ATOM     16  C   UNL     1     -20.551   1.644  10.267  1.00  0.00     0.079 C 
BRANCH  16  17
ATOM     17  C   UNL     1     -21.685   0.951  10.969  1.00  0.00     0.130 C 
ATOM     18  O   UNL     1     -22.507   0.322  10.320  1.00  0.00    -0.300 OA
ATOM     19  C   UNL     1     -21.807   1.015  12.462  1.00  0.00     0.087 C 
ENDBRANCH  16  17
ENDBRANCH  15  16
ENDBRANCH  13  15
ENDBRANCH  11  12
ENDBRANCH   1  11
TORSDOF 9
ENDMDL
MODEL 5
REMARK VINA RESULT:    -4.364      3.218      6.745
REMARK INTER + INTRA:          -8.640
REMARK INTER:                  -6.041
REMARK INTRA:                  -2.600
REMARK UNBOUND:                -1.981
REMARK SMILES CC(=O)CCC=C(C)CCC=C(C)CCC=C(C)C
REMARK SMILES IDX 10 1 11 2 12 3 13 4 14 5 15 6 16 7 18 8 17 9 19 10 9 11 7 12
REMARK SMILES IDX 6 13 8 14 5 15 4 16 2 17 3 18 1 19
REMARK H PARENT
REMARK Flexibility Score: inf
ROOT
ATOM      1  C   UNL     1     -19.428   0.185  11.444  1.00  0.00     0.032 C 
ENDROOT
BRANCH   1   2
ATOM      2  C   UNL     1     -20.883  -0.134  11.210  1.00  0.00    -0.028 C 
ATOM      3  C   UNL     1     -21.491  -1.282  11.589  1.00  0.00    -0.077 C 
ATOM      4  C   UNL     1     -20.751  -2.374  12.327  1.00  0.00     0.039 C 
BRANCH   3   5
ATOM      5  C   UNL     1     -22.960  -1.472  11.278  1.00  0.00     0.034 C 
BRANCH   5   6
ATOM      6  C   UNL     1     -23.282  -1.004   9.853  1.00  0.00     0.032 C 
BRANCH   6   7
ATOM      7  C   UNL     1     -22.765  -1.981   8.826  1.00  0.00    -0.028 C 
ATOM      8  C   UNL     1     -21.493  -2.676   6.839  1.00  0.00     0.039 C 
ATOM      9  C   UNL     1     -21.951  -1.621   7.810  1.00  0.00    -0.080 C 
ATOM     10  C   UNL     1     -21.496  -0.191   7.633  1.00  0.00     0.039 C 
ENDBRANCH   6   7
ENDBRANCH   5   6
ENDBRANCH   3   5
ENDBRANCH   1   2
BRANCH   1  11
ATOM     11  C   UNL     1     -18.567  -0.266  10.259  1.00  0.00     0.034 C 
BRANCH  11  12
ATOM     12  C   UNL     1     -17.652  -1.406  10.661  1.00  0.00    -0.077 C 
ATOM     13  C   UNL     1     -17.765  -2.656  10.154  1.00  0.00    -0.028 C 
ATOM     14  C   UNL     1     -16.603  -1.155  11.714  1.00  0.00     0.039 C 
BRANCH  13  15
ATOM     15  C   UNL     1     -18.748  -3.067   9.086  1.00  0.00     0.035 C 
BRANCH  15  16
ATOM     16  C   UNL     1     -19.435  -4.387   9.455  1.00  0.00     0.079 C 
BRANCH  16  17
ATOM     17  C   UNL     1     -19.315  -5.381   8.334  1.00  0.00     0.130 C 
ATOM     18  O   UNL     1     -19.872  -6.465   8.422  1.00  0.00    -0.300 OA
ATOM     19  C   UNL     1     -18.531  -5.046   7.102  1.00  0.00     0.087 C 
ENDBRANCH  16  17
ENDBRANCH  15  16
ENDBRANCH  13  15
ENDBRANCH  11  12
ENDBRANCH   1  11
TORSDOF 9
ENDMDL
MODEL 6
REMARK VINA RESULT:    -4.361      2.329      6.930
REMARK INTER + INTRA:          -8.636
REMARK INTER:                  -6.059
REMARK INTRA:                  -2.577
REMARK UNBOUND:                -1.981
REMARK SMILES CC(=O)CCC=C(C)CCC=C(C)CCC=C(C)C
REMARK SMILES IDX 10 1 11 2 12 3 13 4 14 5 15 6 16 7 18 8 17 9 19 10 9 11 7 12
REMARK SMILES IDX 6 13 8 14 5 15 4 16 2 17 3 18 1 19
REMARK H PARENT
REMARK Flexibility Score: inf
ROOT
ATOM      1  C   UNL     1     -19.904  -1.619  11.571  1.00  0.00     0.032 C 
ENDROOT
BRANCH   1   2
ATOM      2  C   UNL     1     -19.334  -2.547  10.528  1.00  0.00    -0.028 C 
ATOM      3  C   UNL     1     -18.060  -2.505  10.073  1.00  0.00    -0.077 C 
ATOM      4  C   UNL     1     -17.054  -1.509  10.601  1.00  0.00     0.039 C 
BRANCH   3   5
ATOM      5  C   UNL     1     -17.627  -3.495   9.013  1.00  0.00     0.034 C 
BRANCH   5   6
ATOM      6  C   UNL     1     -18.718  -4.543   8.765  1.00  0.00     0.032 C 
BRANCH   6   7
ATOM      7  C   UNL     1     -18.791  -4.922   7.306  1.00  0.00    -0.028 C 
ATOM      8  C   UNL     1     -19.532  -6.252   5.373  1.00  0.00     0.039 C 
ATOM      9  C   UNL     1     -19.528  -5.959   6.850  1.00  0.00    -0.080 C 
ATOM     10  C   UNL     1     -20.342  -6.821   7.787  1.00  0.00     0.039 C 
ENDBRANCH   6   7
ENDBRANCH   5   6
ENDBRANCH   3   5
ENDBRANCH   1   2
BRANCH   1  11
ATOM     11  C   UNL     1     -21.081  -0.814  11.008  1.00  0.00     0.034 C 
BRANCH  11  12
ATOM     12  C   UNL     1     -20.621   0.099   9.887  1.00  0.00    -0.077 C 
ATOM     13  C   UNL     1     -21.055  -0.024   8.612  1.00  0.00    -0.028 C 
ATOM     14  C   UNL     1     -19.592   1.157  10.193  1.00  0.00     0.039 C 
BRANCH  13  15
ATOM     15  C   UNL     1     -22.090  -1.017   8.145  1.00  0.00     0.035 C 
BRANCH  15  16
ATOM     16  C   UNL     1     -21.423  -2.242   7.508  1.00  0.00     0.079 C 
BRANCH  16  17
ATOM     17  C   UNL     1     -22.202  -3.491   7.813  1.00  0.00     0.130 C 
ATOM     18  O   UNL     1     -22.612  -4.190   6.898  1.00  0.00    -0.300 OA
ATOM     19  C   UNL     1     -22.465  -3.895   9.232  1.00  0.00     0.087 C 
ENDBRANCH  16  17
ENDBRANCH  15  16
ENDBRANCH  13  15
ENDBRANCH  11  12
ENDBRANCH   1  11
TORSDOF 9
ENDMDL
MODEL 7
REMARK VINA RESULT:    -4.332      2.901      4.554
REMARK INTER + INTRA:          -8.592
REMARK INTER:                  -6.182
REMARK INTRA:                  -2.410
REMARK UNBOUND:                -1.981
REMARK SMILES CC(=O)CCC=C(C)CCC=C(C)CCC=C(C)C
REMARK SMILES IDX 10 1 11 2 12 3 13 4 14 5 15 6 16 7 18 8 17 9 19 10 9 11 7 12
REMARK SMILES IDX 6 13 8 14 5 15 4 16 2 17 3 18 1 19
REMARK H PARENT
REMARK Flexibility Score: inf
ROOT
ATOM      1  C   UNL     1     -18.912  -5.477   6.277  1.00  0.00     0.032 C 
ENDROOT
BRANCH   1   2
ATOM      2  C   UNL     1     -18.493  -4.736   7.522  1.00  0.00    -0.028 C 
ATOM      3  C   UNL     1     -18.987  -4.969   8.760  1.00  0.00    -0.077 C 
ATOM      4  C   UNL     1     -20.017  -6.043   9.022  1.00  0.00     0.039 C 
BRANCH   3   5
ATOM      5  C   UNL     1     -18.482  -4.138   9.921  1.00  0.00     0.034 C 
BRANCH   5   6
ATOM      6  C   UNL     1     -17.956  -2.783   9.434  1.00  0.00     0.032 C 
BRANCH   6   7
ATOM      7  C   UNL     1     -17.221  -2.054  10.532  1.00  0.00    -0.028 C 
ATOM      8  C   UNL     1     -16.977  -0.449  12.381  1.00  0.00     0.039 C 
ATOM      9  C   UNL     1     -17.802  -1.116  11.311  1.00  0.00    -0.080 C 
ATOM     10  C   UNL     1     -19.251  -0.728  11.132  1.00  0.00     0.039 C 
ENDBRANCH   6   7
ENDBRANCH   5   6
ENDBRANCH   3   5
ENDBRANCH   1   2
BRANCH   1  11
ATOM     11  C   UNL     1     -19.861  -4.630   5.424  1.00  0.00     0.034 C 
BRANCH  11  12
ATOM     12  C   UNL     1     -21.304  -4.866   5.829  1.00  0.00    -0.077 C 
ATOM     13  C   UNL     1     -22.101  -3.888   6.318  1.00  0.00    -0.028 C 
ATOM     14  C   UNL     1     -21.861  -6.263   5.736  1.00  0.00     0.039 C 
BRANCH  13  15
ATOM     15  C   UNL     1     -21.703  -2.440   6.459  1.00  0.00     0.035 C 
BRANCH  15  16
ATOM     16  C   UNL     1     -21.147  -2.161   7.860  1.00  0.00     0.079 C 
BRANCH  16  17
ATOM     17  C   UNL     1     -22.239  -2.228   8.890  1.00  0.00     0.130 C 
ATOM     18  O   UNL     1     -23.297  -1.650   8.692  1.00  0.00    -0.300 OA
ATOM     19  C   UNL     1     -22.045  -3.013  10.152  1.00  0.00     0.087 C 
ENDBRANCH  16  17
ENDBRANCH  15  16
ENDBRANCH  13  15
ENDBRANCH  11  12
ENDBRANCH   1  11
TORSDOF 9
ENDMDL
MODEL 8
REMARK VINA RESULT:    -4.320      1.879      3.066
REMARK INTER + INTRA:          -8.575
REMARK INTER:                  -6.483
REMARK INTRA:                  -2.091
REMARK UNBOUND:                -1.981
REMARK SMILES CC(=O)CCC=C(C)CCC=C(C)CCC=C(C)C
REMARK SMILES IDX 10 1 11 2 12 3 13 4 14 5 15 6 16 7 18 8 17 9 19 10 9 11 7 12
REMARK SMILES IDX 6 13 8 14 5 15 4 16 2 17 3 18 1 19
REMARK H PARENT
REMARK Flexibility Score: inf
ROOT
ATOM      1  C   UNL     1     -21.594  -5.752   9.347  1.00  0.00     0.032 C 
ENDROOT
BRANCH   1   2
ATOM      2  C   UNL     1     -20.162  -5.284   9.274  1.00  0.00    -0.028 C 
ATOM      3  C   UNL     1     -19.720  -4.278   8.485  1.00  0.00    -0.077 C 
ATOM      4  C   UNL     1     -20.652  -3.489   7.595  1.00  0.00     0.039 C 
BRANCH   3   5
ATOM      5  C   UNL     1     -18.248  -3.922   8.505  1.00  0.00     0.034 C 
BRANCH   5   6
ATOM      6  C   UNL     1     -17.833  -3.389   9.882  1.00  0.00     0.032 C 
BRANCH   6   7
ATOM      7  C   UNL     1     -17.891  -1.882   9.926  1.00  0.00    -0.028 C 
ATOM      8  C   UNL     1     -18.825   0.305  10.556  1.00  0.00     0.039 C 
ATOM      9  C   UNL     1     -18.860  -1.201  10.575  1.00  0.00    -0.080 C 
ATOM     10  C   UNL     1     -19.969  -1.915  11.312  1.00  0.00     0.039 C 
ENDBRANCH   6   7
ENDBRANCH   5   6
ENDBRANCH   3   5
ENDBRANCH   1   2
BRANCH   1  11
ATOM     11  C   UNL     1     -21.778  -7.082   8.608  1.00  0.00     0.034 C 
BRANCH  11  12
ATOM     12  C   UNL     1     -22.096  -6.843   7.144  1.00  0.00    -0.077 C 
ATOM     13  C   UNL     1     -21.288  -7.250   6.139  1.00  0.00    -0.028 C 
ATOM     14  C   UNL     1     -23.342  -6.071   6.792  1.00  0.00     0.039 C 
BRANCH  13  15
ATOM     15  C   UNL     1     -20.018  -8.044   6.321  1.00  0.00     0.035 C 
BRANCH  15  16
ATOM     16  C   UNL     1     -20.235  -9.514   5.945  1.00  0.00     0.079 C 
BRANCH  16  17
ATOM     17  C   UNL     1     -20.582 -10.329   7.160  1.00  0.00     0.130 C 
ATOM     18  O   UNL     1     -19.698 -10.688   7.923  1.00  0.00    -0.300 OA
ATOM     19  C   UNL     1     -22.007 -10.691   7.450  1.00  0.00     0.087 C 
ENDBRANCH  16  17
ENDBRANCH  15  16
ENDBRANCH  13  15
ENDBRANCH  11  12
ENDBRANCH   1  11
TORSDOF 9
ENDMDL
MODEL 9
REMARK VINA RESULT:    -4.318      2.033      6.613
REMARK INTER + INTRA:          -8.571
REMARK INTER:                  -6.701
REMARK INTRA:                  -1.870
REMARK UNBOUND:                -1.981
REMARK SMILES CC(=O)CCC=C(C)CCC=C(C)CCC=C(C)C
REMARK SMILES IDX 10 1 11 2 12 3 13 4 14 5 15 6 16 7 18 8 17 9 19 10 9 11 7 12
REMARK SMILES IDX 6 13 8 14 5 15 4 16 2 17 3 18 1 19
REMARK H PARENT
REMARK Flexibility Score: inf
ROOT
ATOM      1  C   UNL     1     -21.314  -6.308   9.355  1.00  0.00     0.032 C 
ENDROOT
BRANCH   1   2
ATOM      2  C   UNL     1     -22.116  -7.503   8.903  1.00  0.00    -0.028 C 
ATOM      3  C   UNL     1     -22.973  -7.503   7.856  1.00  0.00    -0.077 C 
ATOM      4  C   UNL     1     -23.196  -6.275   7.003  1.00  0.00     0.039 C 
BRANCH   3   5
ATOM      5  C   UNL     1     -23.722  -8.775   7.521  1.00  0.00     0.034 C 
BRANCH   5   6
ATOM      6  C   UNL     1     -22.749  -9.900   7.147  1.00  0.00     0.032 C 
BRANCH   6   7
ATOM      7  C   UNL     1     -21.852  -9.490   6.004  1.00  0.00    -0.028 C 
ATOM      8  C   UNL     1     -19.701  -9.086   4.881  1.00  0.00     0.039 C 
ATOM      9  C   UNL     1     -20.504  -9.516   6.081  1.00  0.00    -0.080 C 
ATOM     10  C   UNL     1     -19.792  -9.963   7.336  1.00  0.00     0.039 C 
ENDBRANCH   6   7
ENDBRANCH   5   6
ENDBRANCH   3   5
ENDBRANCH   1   2
BRANCH   1  11
ATOM     11  C   UNL     1     -19.829  -6.482   9.019  1.00  0.00     0.034 C 
BRANCH  11  12
ATOM     12  C   UNL     1     -19.382  -5.446   8.006  1.00  0.00    -0.077 C 
ATOM     13  C   UNL     1     -18.827  -4.263   8.357  1.00  0.00    -0.028 C 
ATOM     14  C   UNL     1     -19.616  -5.718   6.542  1.00  0.00     0.039 C 
BRANCH  13  15
ATOM     15  C   UNL     1     -18.512  -3.845   9.772  1.00  0.00     0.035 C 
BRANCH  15  16
ATOM     16  C   UNL     1     -17.748  -2.516   9.791  1.00  0.00     0.079 C 
BRANCH  16  17
ATOM     17  C   UNL     1     -18.187  -1.665  10.951  1.00  0.00     0.130 C 
ATOM     18  O   UNL     1     -19.369  -1.620  11.257  1.00  0.00    -0.300 OA
ATOM     19  C   UNL     1     -17.183  -0.885  11.743  1.00  0.00     0.087 C 
ENDBRANCH  16  17
ENDBRANCH  15  16
ENDBRANCH  13  15
ENDBRANCH  11  12
ENDBRANCH   1  11
TORSDOF 9
ENDMDL
