MODEL 1
REMARK VINA RESULT:    -2.767      0.000      0.000
REMARK INTER + INTRA:          -3.149
REMARK INTER:                  -3.090
REMARK INTRA:                  -0.058
REMARK UNBOUND:                -0.058
REMARK SMILES CCCC(=O)[O-]
REMARK SMILES IDX 3 1 4 2 5 3 6 4 2 5 1 6
REMARK H PARENT
REMARK Flexibility Score: inf
ROOT
ATOM      1  C   UNL     1     162.265 159.513 165.268  1.00  0.00     0.052 C 
ENDROOT
BRANCH   1   2
ATOM      2  C   UNL     1     162.874 158.232 165.744  1.00  0.00     0.041 C 
ATOM      3  O   UNL     1     162.673 157.834 166.921  1.00  0.00    -0.550 OA
ATOM      4  O   UNL     1     163.705 157.503 164.903  1.00  0.00    -0.550 OA
ENDBRANCH   1   2
BRANCH   1   5
ATOM      5  C   UNL     1     160.740 159.397 165.223  1.00  0.00     0.003 C 
ATOM      6  C   UNL     1     160.302 158.217 164.360  1.00  0.00     0.004 C 
ENDBRANCH   1   5
TORSDOF 2
ENDMDL
MODEL 2
REMARK VINA RESULT:    -2.756      1.405      1.849
REMARK INTER + INTRA:          -3.136
REMARK INTER:                  -3.066
REMARK INTRA:                  -0.070
REMARK UNBOUND:                -0.058
REMARK SMILES CCCC(=O)[O-]
REMARK SMILES IDX 3 1 4 2 5 3 6 4 2 5 1 6
REMARK H PARENT
REMARK Flexibility Score: inf
ROOT
ATOM      1  C   UNL     1     163.234 157.812 165.194  1.00  0.00     0.052 C 
ENDROOT
BRANCH   1   2
ATOM      2  C   UNL     1     162.652 156.956 166.274  1.00  0.00     0.041 C 
ATOM      3  O   UNL     1     162.931 157.181 167.481  1.00  0.00    -0.550 OA
ATOM      4  O   UNL     1     161.840 155.878 165.944  1.00  0.00    -0.550 OA
ENDBRANCH   1   2
BRANCH   1   5
ATOM      5  C   UNL     1     162.727 159.251 165.320  1.00  0.00     0.003 C 
ATOM      6  C   UNL     1     161.207 159.313 165.198  1.00  0.00     0.004 C 
ENDBRANCH   1   5
TORSDOF 2
ENDMDL
MODEL 3
REMARK VINA RESULT:    -2.737      1.464      2.115
REMARK INTER + INTRA:          -3.115
REMARK INTER:                  -3.053
REMARK INTRA:                  -0.063
REMARK UNBOUND:                -0.058
REMARK SMILES CCCC(=O)[O-]
REMARK SMILES IDX 3 1 4 2 5 3 6 4 2 5 1 6
REMARK H PARENT
REMARK Flexibility Score: inf
ROOT
ATOM      1  C   UNL     1     163.211 157.701 165.068  1.00  0.00     0.052 C 
ENDROOT
BRANCH   1   2
ATOM      2  C   UNL     1     162.610 156.887 166.170  1.00  0.00     0.041 C 
ATOM      3  O   UNL     1     161.785 155.974 165.907  1.00  0.00    -0.550 OA
ATOM      4  O   UNL     1     162.926 157.170 167.493  1.00  0.00    -0.550 OA
ENDBRANCH   1   2
BRANCH   1   5
ATOM      5  C   UNL     1     162.867 159.182 165.246  1.00  0.00     0.003 C 
ATOM      6  C   UNL     1     161.358 159.403 165.233  1.00  0.00     0.004 C 
ENDBRANCH   1   5
TORSDOF 2
ENDMDL
MODEL 4
REMARK VINA RESULT:    -2.602      1.842      2.274
REMARK INTER + INTRA:          -2.964
REMARK INTER:                  -2.935
REMARK INTRA:                  -0.029
REMARK UNBOUND:                -0.058
REMARK SMILES CCCC(=O)[O-]
REMARK SMILES IDX 3 1 4 2 5 3 6 4 2 5 1 6
REMARK H PARENT
REMARK Flexibility Score: inf
ROOT
ATOM      1  C   UNL     1     161.798 156.049 165.639  1.00  0.00     0.052 C 
ENDROOT
BRANCH   1   2
ATOM      2  C   UNL     1     162.904 156.464 166.557  1.00  0.00     0.041 C 
ATOM      3  O   UNL     1     162.868 157.585 167.127  1.00  0.00    -0.550 OA
ATOM      4  O   UNL     1     164.000 155.631 166.745  1.00  0.00    -0.550 OA
ENDBRANCH   1   2
BRANCH   1   5
ATOM      5  C   UNL     1     161.748 156.964 164.413  1.00  0.00     0.003 C 
ATOM      6  C   UNL     1     160.578 157.939 164.500  1.00  0.00     0.004 C 
ENDBRANCH   1   5
TORSDOF 2
ENDMDL
MODEL 5
REMARK VINA RESULT:    -2.583      2.897      3.731
REMARK INTER + INTRA:          -2.943
REMARK INTER:                  -2.937
REMARK INTRA:                  -0.006
REMARK UNBOUND:                -0.058
REMARK SMILES CCCC(=O)[O-]
REMARK SMILES IDX 3 1 4 2 5 3 6 4 2 5 1 6
REMARK H PARENT
REMARK Flexibility Score: inf
ROOT
ATOM      1  C   UNL     1     160.793 158.566 164.868  1.00  0.00     0.052 C 
ENDROOT
BRANCH   1   2
ATOM      2  C   UNL     1     159.516 159.344 164.826  1.00  0.00     0.041 C 
ATOM      3  O   UNL     1     158.816 159.358 163.780  1.00  0.00    -0.550 OA
ATOM      4  O   UNL     1     159.124 160.094 165.928  1.00  0.00    -0.550 OA
ENDBRANCH   1   2
BRANCH   1   5
ATOM      5  C   UNL     1     161.945 159.452 165.348  1.00  0.00     0.003 C 
ATOM      6  C   UNL     1     163.286 158.940 164.831  1.00  0.00     0.004 C 
ENDBRANCH   1   5
TORSDOF 2
ENDMDL
MODEL 6
REMARK VINA RESULT:    -2.578     14.421     15.143
REMARK INTER + INTRA:          -2.937
REMARK INTER:                  -2.921
REMARK INTRA:                  -0.016
REMARK UNBOUND:                -0.058
REMARK SMILES CCCC(=O)[O-]
REMARK SMILES IDX 3 1 4 2 5 3 6 4 2 5 1 6
REMARK H PARENT
REMARK Flexibility Score: inf
ROOT
ATOM      1  C   UNL     1     162.216 158.697 149.897  1.00  0.00     0.052 C 
ENDROOT
BRANCH   1   2
ATOM      2  C   UNL     1     160.789 158.401 150.237  1.00  0.00     0.041 C 
ATOM      3  O   UNL     1     159.875 159.187 149.875  1.00  0.00    -0.550 OA
ATOM      4  O   UNL     1     160.474 157.281 150.996  1.00  0.00    -0.550 OA
ENDBRANCH   1   2
BRANCH   1   5
ATOM      5  C   UNL     1     162.846 159.595 150.964  1.00  0.00     0.003 C 
ATOM      6  C   UNL     1     164.173 159.024 151.453  1.00  0.00     0.004 C 
ENDBRANCH   1   5
TORSDOF 2
ENDMDL
MODEL 7
REMARK VINA RESULT:    -2.532      2.107      2.618
REMARK INTER + INTRA:          -2.886
REMARK INTER:                  -2.873
REMARK INTRA:                  -0.013
REMARK UNBOUND:                -0.058
REMARK SMILES CCCC(=O)[O-]
REMARK SMILES IDX 3 1 4 2 5 3 6 4 2 5 1 6
REMARK H PARENT
REMARK Flexibility Score: inf
ROOT
ATOM      1  C   UNL     1     161.970 157.113 165.240  1.00  0.00     0.052 C 
ENDROOT
BRANCH   1   2
ATOM      2  C   UNL     1     162.581 157.801 166.420  1.00  0.00     0.041 C 
ATOM      3  O   UNL     1     162.850 157.151 167.463  1.00  0.00    -0.550 OA
ATOM      4  O   UNL     1     162.808 159.171 166.384  1.00  0.00    -0.550 OA
ENDBRANCH   1   2
BRANCH   1   5
ATOM      5  C   UNL     1     161.763 155.626 165.535  1.00  0.00     0.003 C 
ATOM      6  C   UNL     1     161.434 154.852 164.263  1.00  0.00     0.004 C 
ENDBRANCH   1   5
TORSDOF 2
ENDMDL
MODEL 8
REMARK VINA RESULT:    -2.529     14.367     15.292
REMARK INTER + INTRA:          -2.883
REMARK INTER:                  -2.812
REMARK INTRA:                  -0.071
REMARK UNBOUND:                -0.058
REMARK SMILES CCCC(=O)[O-]
REMARK SMILES IDX 3 1 4 2 5 3 6 4 2 5 1 6
REMARK H PARENT
REMARK Flexibility Score: inf
ROOT
ATOM      1  C   UNL     1     158.101 157.330 149.961  1.00  0.00     0.052 C 
ENDROOT
BRANCH   1   2
ATOM      2  C   UNL     1     159.437 157.987 150.109  1.00  0.00     0.041 C 
ATOM      3  O   UNL     1     160.474 157.288 150.249  1.00  0.00    -0.550 OA
ATOM      4  O   UNL     1     159.530 159.373 150.140  1.00  0.00    -0.550 OA
ENDBRANCH   1   2
BRANCH   1   5
ATOM      5  C   UNL     1     157.130 157.845 151.027  1.00  0.00     0.003 C 
ATOM      6  C   UNL     1     157.510 157.332 152.413  1.00  0.00     0.004 C 
ENDBRANCH   1   5
TORSDOF 2
ENDMDL
MODEL 9
REMARK VINA RESULT:    -2.498      2.069      2.917
REMARK INTER + INTRA:          -2.848
REMARK INTER:                  -2.796
REMARK INTRA:                  -0.052
REMARK UNBOUND:                -0.058
REMARK SMILES CCCC(=O)[O-]
REMARK SMILES IDX 3 1 4 2 5 3 6 4 2 5 1 6
REMARK H PARENT
REMARK Flexibility Score: inf
ROOT
ATOM      1  C   UNL     1     162.832 158.585 165.365  1.00  0.00     0.052 C 
ENDROOT
BRANCH   1   2
ATOM      2  C   UNL     1     161.391 158.704 164.981  1.00  0.00     0.041 C 
ATOM      3  O   UNL     1     160.742 159.744 165.269  1.00  0.00    -0.550 OA
ATOM      4  O   UNL     1     160.751 157.646 164.349  1.00  0.00    -0.550 OA
ENDBRANCH   1   2
BRANCH   1   5
ATOM      5  C   UNL     1     163.167 157.142 165.748  1.00  0.00     0.003 C 
ATOM      6  C   UNL     1     162.846 156.872 167.215  1.00  0.00     0.004 C 
ENDBRANCH   1   5
TORSDOF 2
ENDMDL
