MODEL 1
REMARK VINA RESULT:    -4.339      0.000      0.000
REMARK INTER + INTRA:          -5.696
REMARK INTER:                  -5.353
REMARK INTRA:                  -0.342
REMARK UNBOUND:                -0.342
REMARK SMILES Oc1cc(O)c2cc(O)c(-c3cc(O)c(O)c(O)c3)[o+]c2c1
REMARK SMILES IDX 10 1 20 2 21 3 22 4 2 5 3 6 4 7 6 8 7 9 8 10 11 11 12 12
REMARK SMILES IDX 13 13 19 14 15 15 17 16 14 17 16 19 18 21 9 23 1 25 5 27
REMARK H PARENT 14 18 16 20 18 22 9 24 1 26 5 28
REMARK Flexibility Score: inf
ROOT
ATOM      1  C   UNL     1       9.424  37.616  22.507  1.00  0.00     0.402 A 
ATOM      2  O   UNL     1       9.708  36.892  23.586  1.00  0.00    -0.202 OA
ATOM      3  C   UNL     1      10.092  37.425  24.742  1.00  0.00     0.368 A 
ATOM      4  C   UNL     1      10.372  36.581  25.820  1.00  0.00     0.162 A 
ATOM      5  C   UNL     1      10.781  37.114  27.046  1.00  0.00     0.128 A 
ATOM      6  C   UNL     1      10.913  38.497  27.192  1.00  0.00     0.093 A 
ATOM      7  C   UNL     1      10.639  39.363  26.127  1.00  0.00     0.136 A 
ATOM      8  C   UNL     1      10.221  38.828  24.882  1.00  0.00     0.125 A 
ATOM      9  C   UNL     1       9.912  39.620  23.764  1.00  0.00     0.078 A 
ATOM     10  C   UNL     1       9.501  39.020  22.571  1.00  0.00     0.223 A 
ENDROOT
BRANCH   1  11
ATOM     11  C   UNL     1       9.015  36.904  21.274  1.00  0.00     0.091 A 
ATOM     12  C   UNL     1       7.664  36.806  20.901  1.00  0.00     0.068 A 
ATOM     13  C   UNL     1       7.296  36.150  19.721  1.00  0.00     0.162 A 
ATOM     14  C   UNL     1       9.997  36.364  20.431  1.00  0.00     0.068 A 
ATOM     15  C   UNL     1       8.284  35.590  18.892  1.00  0.00     0.200 A 
ATOM     16  C   UNL     1       9.639  35.702  19.248  1.00  0.00     0.162 A 
BRANCH  13  17
ATOM     17  O   UNL     1       5.945  36.067  19.387  1.00  0.00    -0.504 OA
ATOM     18  H   UNL     1       5.575  35.317  18.817  1.00  0.00     0.293 HD
ENDBRANCH  13  17
BRANCH  15  19
ATOM     19  O   UNL     1       7.908  34.933  17.719  1.00  0.00    -0.502 OA
ATOM     20  H   UNL     1       7.063  34.377  17.659  1.00  0.00     0.293 HD
ENDBRANCH  15  19
BRANCH  16  21
ATOM     21  O   UNL     1      10.624  35.158  18.426  1.00  0.00    -0.504 OA
ATOM     22  H   UNL     1      11.470  34.752  18.808  1.00  0.00     0.293 HD
ENDBRANCH  16  21
ENDBRANCH   1  11
BRANCH  10  23
ATOM     23  O   UNL     1       9.147  39.808  21.476  1.00  0.00    -0.500 OA
ATOM     24  H   UNL     1       8.720  39.410  20.648  1.00  0.00     0.294 HD
ENDBRANCH  10  23
BRANCH   5  25
ATOM     25  O   UNL     1      11.061  36.280  28.125  1.00  0.00    -0.507 OA
ATOM     26  H   UNL     1      10.493  35.464  28.326  1.00  0.00     0.293 HD
ENDBRANCH   5  25
BRANCH   7  27
ATOM     27  O   UNL     1      10.799  40.733  26.355  1.00  0.00    -0.507 OA
ATOM     28  H   UNL     1      10.732  41.173  27.262  1.00  0.00     0.293 HD
ENDBRANCH   7  27
TORSDOF 7
ENDMDL
MODEL 2
REMARK VINA RESULT:    -4.078      1.090      2.620
REMARK INTER + INTRA:          -5.374
REMARK INTER:                  -5.000
REMARK INTRA:                  -0.374
REMARK UNBOUND:                -0.342
REMARK SMILES Oc1cc(O)c2cc(O)c(-c3cc(O)c(O)c(O)c3)[o+]c2c1
REMARK SMILES IDX 10 1 20 2 21 3 22 4 2 5 3 6 4 7 6 8 7 9 8 10 11 11 12 12
REMARK SMILES IDX 13 13 19 14 15 15 17 16 14 17 16 19 18 21 9 23 1 25 5 27
REMARK H PARENT 14 18 16 20 18 22 9 24 1 26 5 28
REMARK Flexibility Score: inf
ROOT
ATOM      1  C   UNL     1       9.552  37.065  22.765  1.00  0.00     0.402 A 
ATOM      2  O   UNL     1       9.813  38.367  22.842  1.00  0.00    -0.202 OA
ATOM      3  C   UNL     1      10.211  38.967  23.959  1.00  0.00     0.368 A 
ATOM      4  C   UNL     1      10.459  40.342  23.942  1.00  0.00     0.162 A 
ATOM      5  C   UNL     1      10.875  40.998  25.104  1.00  0.00     0.128 A 
ATOM      6  C   UNL     1      11.042  40.276  26.288  1.00  0.00     0.093 A 
ATOM      7  C   UNL     1      10.800  38.898  26.331  1.00  0.00     0.136 A 
ATOM      8  C   UNL     1      10.380  38.226  25.155  1.00  0.00     0.125 A 
ATOM      9  C   UNL     1      10.128  36.846  25.101  1.00  0.00     0.078 A 
ATOM     10  C   UNL     1       9.721  36.253  23.902  1.00  0.00     0.223 A 
ENDROOT
BRANCH   1  11
ATOM     11  C   UNL     1       9.106  36.516  21.463  1.00  0.00     0.091 A 
ATOM     12  C   UNL     1       7.755  36.553  21.078  1.00  0.00     0.068 A 
ATOM     13  C   UNL     1       7.354  36.052  19.835  1.00  0.00     0.162 A 
ATOM     14  C   UNL     1      10.057  36.000  20.570  1.00  0.00     0.068 A 
ATOM     15  C   UNL     1       8.308  35.514  18.954  1.00  0.00     0.200 A 
ATOM     16  C   UNL     1       9.664  35.492  19.324  1.00  0.00     0.162 A 
BRANCH  13  17
ATOM     17  O   UNL     1       6.004  36.100  19.491  1.00  0.00    -0.504 OA
ATOM     18  H   UNL     1       5.520  36.973  19.325  1.00  0.00     0.293 HD
ENDBRANCH  13  17
BRANCH  15  19
ATOM     19  O   UNL     1       7.899  35.010  17.718  1.00  0.00    -0.502 OA
ATOM     20  H   UNL     1       7.491  34.089  17.619  1.00  0.00     0.293 HD
ENDBRANCH  15  19
BRANCH  16  21
ATOM     21  O   UNL     1      10.617  34.968  18.452  1.00  0.00    -0.504 OA
ATOM     22  H   UNL     1      10.360  34.593  17.546  1.00  0.00     0.293 HD
ENDBRANCH  16  21
ENDBRANCH   1  11
BRANCH  10  23
ATOM     23  O   UNL     1       9.517  34.875  23.836  1.00  0.00    -0.500 OA
ATOM     24  H   UNL     1       8.751  34.425  24.324  1.00  0.00     0.294 HD
ENDBRANCH  10  23
BRANCH   5  25
ATOM     25  O   UNL     1      11.124  42.368  25.094  1.00  0.00    -0.507 OA
ATOM     26  H   UNL     1      10.783  42.975  25.832  1.00  0.00     0.293 HD
ENDBRANCH   5  25
BRANCH   7  27
ATOM     27  O   UNL     1      10.988  38.250  27.555  1.00  0.00    -0.507 OA
ATOM     28  H   UNL     1      10.241  37.983  28.181  1.00  0.00     0.293 HD
ENDBRANCH   7  27
TORSDOF 7
ENDMDL
MODEL 3
REMARK VINA RESULT:    -4.013      1.077      3.149
REMARK INTER + INTRA:          -5.293
REMARK INTER:                  -4.916
REMARK INTRA:                  -0.377
REMARK UNBOUND:                -0.342
REMARK SMILES Oc1cc(O)c2cc(O)c(-c3cc(O)c(O)c(O)c3)[o+]c2c1
REMARK SMILES IDX 10 1 20 2 21 3 22 4 2 5 3 6 4 7 6 8 7 9 8 10 11 11 12 12
REMARK SMILES IDX 13 13 19 14 15 15 17 16 14 17 16 19 18 21 9 23 1 25 5 27
REMARK H PARENT 14 18 16 20 18 22 9 24 1 26 5 28
REMARK Flexibility Score: inf
ROOT
ATOM      1  C   UNL     1       9.338  37.067  22.742  1.00  0.00     0.402 A 
ATOM      2  O   UNL     1       9.674  38.350  22.841  1.00  0.00    -0.202 OA
ATOM      3  C   UNL     1      10.058  38.919  23.979  1.00  0.00     0.368 A 
ATOM      4  C   UNL     1      10.388  40.277  23.983  1.00  0.00     0.162 A 
ATOM      5  C   UNL     1      10.791  40.901  25.168  1.00  0.00     0.128 A 
ATOM      6  C   UNL     1      10.861  40.164  26.352  1.00  0.00     0.093 A 
ATOM      7  C   UNL     1      10.535  38.803  26.374  1.00  0.00     0.136 A 
ATOM      8  C   UNL     1      10.129  38.164  25.175  1.00  0.00     0.125 A 
ATOM      9  C   UNL     1       9.796  36.801  25.099  1.00  0.00     0.078 A 
ATOM     10  C   UNL     1       9.408  36.241  23.879  1.00  0.00     0.223 A 
ENDROOT
BRANCH   1  11
ATOM     11  C   UNL     1       8.919  36.553  21.418  1.00  0.00     0.091 A 
ATOM     12  C   UNL     1       9.843  35.970  20.533  1.00  0.00     0.068 A 
ATOM     13  C   UNL     1       9.426  35.469  19.295  1.00  0.00     0.162 A 
ATOM     14  C   UNL     1       7.563  36.595  21.059  1.00  0.00     0.068 A 
ATOM     15  C   UNL     1       8.069  35.535  18.932  1.00  0.00     0.200 A 
ATOM     16  C   UNL     1       7.136  36.098  19.820  1.00  0.00     0.162 A 
BRANCH  13  17
ATOM     17  O   UNL     1      10.373  34.904  18.442  1.00  0.00    -0.504 OA
ATOM     18  H   UNL     1      10.596  33.917  18.462  1.00  0.00     0.293 HD
ENDBRANCH  13  17
BRANCH  15  19
ATOM     19  O   UNL     1       7.663  35.037  17.693  1.00  0.00    -0.502 OA
ATOM     20  H   UNL     1       6.893  34.385  17.600  1.00  0.00     0.293 HD
ENDBRANCH  15  19
BRANCH  16  21
ATOM     21  O   UNL     1       5.789  36.159  19.470  1.00  0.00    -0.504 OA
ATOM     22  H   UNL     1       5.088  35.612  19.955  1.00  0.00     0.293 HD
ENDBRANCH  16  21
ENDBRANCH   1  11
BRANCH  10  23
ATOM     23  O   UNL     1       9.125  34.878  23.794  1.00  0.00    -0.500 OA
ATOM     24  H   UNL     1       8.994  34.307  24.621  1.00  0.00     0.294 HD
ENDBRANCH  10  23
BRANCH   5  25
ATOM     25  O   UNL     1      11.123  42.253  25.180  1.00  0.00    -0.507 OA
ATOM     26  H   UNL     1      10.426  42.972  25.014  1.00  0.00     0.293 HD
ENDBRANCH   5  25
BRANCH   7  27
ATOM     27  O   UNL     1      10.629  38.138  27.600  1.00  0.00    -0.507 OA
ATOM     28  H   UNL     1      11.053  37.230  27.727  1.00  0.00     0.293 HD
ENDBRANCH   7  27
TORSDOF 7
ENDMDL
MODEL 4
REMARK VINA RESULT:    -3.823     16.257     20.653
REMARK INTER + INTRA:          -5.059
REMARK INTER:                  -4.714
REMARK INTRA:                  -0.345
REMARK UNBOUND:                -0.342
REMARK SMILES Oc1cc(O)c2cc(O)c(-c3cc(O)c(O)c(O)c3)[o+]c2c1
REMARK SMILES IDX 10 1 20 2 21 3 22 4 2 5 3 6 4 7 6 8 7 9 8 10 11 11 12 12
REMARK SMILES IDX 13 13 19 14 15 15 17 16 14 17 16 19 18 21 9 23 1 25 5 27
REMARK H PARENT 14 18 16 20 18 22 9 24 1 26 5 28
REMARK Flexibility Score: inf
ROOT
ATOM      1  C   UNL     1      -7.459  37.120  13.295  1.00  0.00     0.402 A 
ATOM      2  O   UNL     1      -7.730  36.277  12.302  1.00  0.00    -0.202 OA
ATOM      3  C   UNL     1      -8.152  36.671  11.105  1.00  0.00     0.368 A 
ATOM      4  C   UNL     1      -8.414  35.710  10.126  1.00  0.00     0.162 A 
ATOM      5  C   UNL     1      -8.863  36.097   8.859  1.00  0.00     0.128 A 
ATOM      6  C   UNL     1      -9.052  37.450   8.573  1.00  0.00     0.093 A 
ATOM      7  C   UNL     1      -8.798  38.433   9.537  1.00  0.00     0.136 A 
ATOM      8  C   UNL     1      -8.340  38.047  10.823  1.00  0.00     0.125 A 
ATOM      9  C   UNL     1      -8.046  38.962  11.847  1.00  0.00     0.078 A 
ATOM     10  C   UNL     1      -7.594  38.505  13.088  1.00  0.00     0.223 A 
ENDROOT
BRANCH   1  11
ATOM     11  C   UNL     1      -7.003  36.556  14.587  1.00  0.00     0.091 A 
ATOM     12  C   UNL     1      -7.910  35.980  15.494  1.00  0.00     0.068 A 
ATOM     13  C   UNL     1      -7.460  35.431  16.700  1.00  0.00     0.162 A 
ATOM     14  C   UNL     1      -5.634  36.543  14.890  1.00  0.00     0.068 A 
ATOM     15  C   UNL     1      -6.088  35.443  17.008  1.00  0.00     0.200 A 
ATOM     16  C   UNL     1      -5.174  35.998  16.096  1.00  0.00     0.162 A 
BRANCH  13  17
ATOM     17  O   UNL     1      -8.390  34.875  17.577  1.00  0.00    -0.504 OA
ATOM     18  H   UNL     1      -8.263  33.960  17.989  1.00  0.00     0.293 HD
ENDBRANCH  13  17
BRANCH  15  19
ATOM     19  O   UNL     1      -5.649  34.898  18.215  1.00  0.00    -0.502 OA
ATOM     20  H   UNL     1      -4.674  34.914  18.491  1.00  0.00     0.293 HD
ENDBRANCH  15  19
BRANCH  16  21
ATOM     21  O   UNL     1      -3.812  36.005  16.392  1.00  0.00    -0.504 OA
ATOM     22  H   UNL     1      -3.130  35.592  15.766  1.00  0.00     0.293 HD
ENDBRANCH  16  21
ENDBRANCH   1  11
BRANCH  10  23
ATOM     23  O   UNL     1      -7.256  39.416  14.088  1.00  0.00    -0.500 OA
ATOM     24  H   UNL     1      -6.388  39.342  14.606  1.00  0.00     0.294 HD
ENDBRANCH  10  23
BRANCH   5  25
ATOM     25  O   UNL     1      -9.125  35.144   7.878  1.00  0.00    -0.507 OA
ATOM     26  H   UNL     1      -9.862  34.456   7.990  1.00  0.00     0.293 HD
ENDBRANCH   5  25
BRANCH   7  27
ATOM     27  O   UNL     1      -9.015  39.765   9.172  1.00  0.00    -0.507 OA
ATOM     28  H   UNL     1      -8.981  40.109   8.224  1.00  0.00     0.293 HD
ENDBRANCH   7  27
TORSDOF 7
ENDMDL
MODEL 5
REMARK VINA RESULT:    -2.924      1.184      7.120
REMARK INTER + INTRA:          -3.950
REMARK INTER:                  -3.576
REMARK INTRA:                  -0.374
REMARK UNBOUND:                -0.342
REMARK SMILES Oc1cc(O)c2cc(O)c(-c3cc(O)c(O)c(O)c3)[o+]c2c1
REMARK SMILES IDX 10 1 20 2 21 3 22 4 2 5 3 6 4 7 6 8 7 9 8 10 11 11 12 12
REMARK SMILES IDX 13 13 19 14 15 15 17 16 14 17 16 19 18 21 9 23 1 25 5 27
REMARK H PARENT 14 18 16 20 18 22 9 24 1 26 5 28
REMARK Flexibility Score: inf
ROOT
ATOM      1  C   UNL     1       9.029  37.788  23.040  1.00  0.00     0.402 A 
ATOM      2  O   UNL     1       9.842  37.167  22.190  1.00  0.00    -0.202 OA
ATOM      3  C   UNL     1       9.442  36.679  21.020  1.00  0.00     0.368 A 
ATOM      4  C   UNL     1      10.371  36.039  20.196  1.00  0.00     0.162 A 
ATOM      5  C   UNL     1       9.975  35.514  18.962  1.00  0.00     0.128 A 
ATOM      6  C   UNL     1       8.645  35.629  18.553  1.00  0.00     0.093 A 
ATOM      7  C   UNL     1       7.695  36.265  19.360  1.00  0.00     0.136 A 
ATOM      8  C   UNL     1       8.091  36.802  20.612  1.00  0.00     0.125 A 
ATOM      9  C   UNL     1       7.211  37.468  21.481  1.00  0.00     0.078 A 
ATOM     10  C   UNL     1       7.677  37.975  22.698  1.00  0.00     0.223 A 
ENDROOT
BRANCH   1  11
ATOM     11  C   UNL     1       9.595  38.279  24.318  1.00  0.00     0.091 A 
ATOM     12  C   UNL     1      10.059  39.598  24.453  1.00  0.00     0.068 A 
ATOM     13  C   UNL     1      10.569  40.053  25.674  1.00  0.00     0.162 A 
ATOM     14  C   UNL     1       9.616  37.429  25.434  1.00  0.00     0.068 A 
ATOM     15  C   UNL     1      10.610  39.189  26.783  1.00  0.00     0.200 A 
ATOM     16  C   UNL     1      10.128  37.875  26.661  1.00  0.00     0.162 A 
BRANCH  13  17
ATOM     17  O   UNL     1      11.027  41.366  25.768  1.00  0.00    -0.504 OA
ATOM     18  H   UNL     1      10.494  42.091  26.231  1.00  0.00     0.293 HD
ENDBRANCH  13  17
BRANCH  15  19
ATOM     19  O   UNL     1      11.125  39.649  27.996  1.00  0.00    -0.502 OA
ATOM     20  H   UNL     1      12.102  39.889  28.111  1.00  0.00     0.293 HD
ENDBRANCH  15  19
BRANCH  16  21
ATOM     21  O   UNL     1      10.157  37.016  27.759  1.00  0.00    -0.504 OA
ATOM     22  H   UNL     1       9.935  36.031  27.670  1.00  0.00     0.293 HD
ENDBRANCH  16  21
ENDBRANCH   1  11
BRANCH  10  23
ATOM     23  O   UNL     1       6.815  38.679  23.538  1.00  0.00    -0.500 OA
ATOM     24  H   UNL     1       7.125  39.489  24.062  1.00  0.00     0.294 HD
ENDBRANCH  10  23
BRANCH   5  25
ATOM     25  O   UNL     1      10.895  34.875  18.135  1.00  0.00    -0.507 OA
ATOM     26  H   UNL     1      10.868  34.983  17.127  1.00  0.00     0.293 HD
ENDBRANCH   5  25
BRANCH   7  27
ATOM     27  O   UNL     1       6.385  36.336  18.879  1.00  0.00    -0.507 OA
ATOM     28  H   UNL     1       5.964  35.652  18.266  1.00  0.00     0.293 HD
ENDBRANCH   7  27
TORSDOF 7
ENDMDL
