MODEL 1
REMARK VINA RESULT:    -4.705      0.000      0.000
REMARK INTER + INTRA:          -5.074
REMARK INTER:                  -4.980
REMARK INTRA:                  -0.094
REMARK UNBOUND:                -0.094
REMARK SMILES C=C(C)[C@H]1CC=C(C)C(=O)C1
REMARK SMILES IDX 8 1 7 2 6 3 5 4 4 5 11 6 9 7 10 8 2 9 1 10 3 11
REMARK H PARENT
REMARK Flexibility Score: inf
ROOT
ATOM      1  C   UNL     1      61.069  64.600  47.021  1.00  0.00     0.048 C 
ATOM      2  C   UNL     1      60.654  64.800  45.590  1.00  0.00    -0.012 C 
ATOM      3  C   UNL     1      60.606  66.040  45.074  1.00  0.00    -0.019 C 
ATOM      4  C   UNL     1      60.180  66.299  43.653  1.00  0.00     0.036 C 
ATOM      5  C   UNL     1      60.593  65.135  42.730  1.00  0.00     0.025 C 
ATOM      6  C   UNL     1      60.042  63.803  43.272  1.00  0.00     0.089 C 
ATOM      7  C   UNL     1      60.419  63.622  44.716  1.00  0.00     0.158 C 
ATOM      8  O   UNL     1      60.499  62.456  45.188  1.00  0.00    -0.295 OA
ENDROOT
BRANCH   5   9
ATOM      9  C   UNL     1      60.160  65.379  41.290  1.00  0.00    -0.077 C 
ATOM     10  C   UNL     1      60.376  66.561  40.686  1.00  0.00     0.008 C 
ATOM     11  C   UNL     1      59.476  64.286  40.511  1.00  0.00     0.039 C 
ENDBRANCH   5   9
TORSDOF 1
ENDMDL
MODEL 2
REMARK VINA RESULT:    -4.611     19.767     21.550
REMARK INTER + INTRA:          -4.975
REMARK INTER:                  -4.881
REMARK INTRA:                  -0.094
REMARK UNBOUND:                -0.094
REMARK SMILES C=C(C)[C@H]1CC=C(C)C(=O)C1
REMARK SMILES IDX 8 1 7 2 6 3 5 4 4 5 11 6 9 7 10 8 2 9 1 10 3 11
REMARK H PARENT
REMARK Flexibility Score: inf
ROOT
ATOM      1  C   UNL     1      44.564  62.330  32.070  1.00  0.00     0.048 C 
ATOM      2  C   UNL     1      44.587  61.311  30.964  1.00  0.00    -0.012 C 
ATOM      3  C   UNL     1      43.757  61.443  29.914  1.00  0.00    -0.019 C 
ATOM      4  C   UNL     1      43.726  60.443  28.789  1.00  0.00     0.036 C 
ATOM      5  C   UNL     1      45.123  59.835  28.549  1.00  0.00     0.025 C 
ATOM      6  C   UNL     1      45.671  59.229  29.855  1.00  0.00     0.089 C 
ATOM      7  C   UNL     1      45.609  60.233  30.972  1.00  0.00     0.158 C 
ATOM      8  O   UNL     1      46.412  60.128  31.938  1.00  0.00    -0.295 OA
ENDROOT
BRANCH   5   9
ATOM      9  C   UNL     1      45.104  58.814  27.419  1.00  0.00    -0.077 C 
ATOM     10  C   UNL     1      46.244  58.350  26.877  1.00  0.00     0.008 C 
ATOM     11  C   UNL     1      43.792  58.301  26.886  1.00  0.00     0.039 C 
ENDBRANCH   5   9
TORSDOF 1
ENDMDL
MODEL 3
REMARK VINA RESULT:    -4.602     19.670     22.158
REMARK INTER + INTRA:          -4.965
REMARK INTER:                  -4.870
REMARK INTRA:                  -0.094
REMARK UNBOUND:                -0.094
REMARK SMILES C=C(C)[C@H]1CC=C(C)C(=O)C1
REMARK SMILES IDX 8 1 7 2 6 3 5 4 4 5 11 6 9 7 10 8 2 9 1 10 3 11
REMARK H PARENT
REMARK Flexibility Score: inf
ROOT
ATOM      1  C   UNL     1      41.899  58.154  27.985  1.00  0.00     0.048 C 
ATOM      2  C   UNL     1      42.819  58.909  28.904  1.00  0.00    -0.012 C 
ATOM      3  C   UNL     1      43.391  60.052  28.489  1.00  0.00    -0.019 C 
ATOM      4  C   UNL     1      44.333  60.837  29.362  1.00  0.00     0.036 C 
ATOM      5  C   UNL     1      43.951  60.706  30.849  1.00  0.00     0.025 C 
ATOM      6  C   UNL     1      43.882  59.221  31.252  1.00  0.00     0.089 C 
ATOM      7  C   UNL     1      42.996  58.457  30.308  1.00  0.00     0.158 C 
ATOM      8  O   UNL     1      42.432  57.404  30.711  1.00  0.00    -0.295 OA
ENDROOT
BRANCH   5   9
ATOM      9  C   UNL     1      44.903  61.488  31.745  1.00  0.00    -0.077 C 
ATOM     10  C   UNL     1      46.010  60.919  32.255  1.00  0.00     0.008 C 
ATOM     11  C   UNL     1      44.615  62.929  32.077  1.00  0.00     0.039 C 
ENDBRANCH   5   9
TORSDOF 1
ENDMDL
MODEL 4
REMARK VINA RESULT:    -4.583     13.157     14.002
REMARK INTER + INTRA:          -4.945
REMARK INTER:                  -4.854
REMARK INTRA:                  -0.091
REMARK UNBOUND:                -0.094
REMARK SMILES C=C(C)[C@H]1CC=C(C)C(=O)C1
REMARK SMILES IDX 8 1 7 2 6 3 5 4 4 5 11 6 9 7 10 8 2 9 1 10 3 11
REMARK H PARENT
REMARK Flexibility Score: inf
ROOT
ATOM      1  C   UNL     1      54.714  69.446  31.388  1.00  0.00     0.048 C 
ATOM      2  C   UNL     1      56.213  69.554  31.350  1.00  0.00    -0.012 C 
ATOM      3  C   UNL     1      56.909  68.892  30.409  1.00  0.00    -0.019 C 
ATOM      4  C   UNL     1      58.412  68.951  30.337  1.00  0.00     0.036 C 
ATOM      5  C   UNL     1      58.937  70.321  30.811  1.00  0.00     0.025 C 
ATOM      6  C   UNL     1      58.407  70.635  32.222  1.00  0.00     0.089 C 
ATOM      7  C   UNL     1      56.912  70.485  32.273  1.00  0.00     0.158 C 
ATOM      8  O   UNL     1      56.258  71.135  33.133  1.00  0.00    -0.295 OA
ENDROOT
BRANCH   5   9
ATOM      9  C   UNL     1      60.457  70.391  30.752  1.00  0.00    -0.077 C 
ATOM     10  C   UNL     1      61.090  71.499  30.328  1.00  0.00     0.008 C 
ATOM     11  C   UNL     1      61.285  69.205  31.173  1.00  0.00     0.039 C 
ENDBRANCH   5   9
TORSDOF 1
ENDMDL
MODEL 5
REMARK VINA RESULT:    -4.577     15.953     16.933
REMARK INTER + INTRA:          -4.939
REMARK INTER:                  -4.849
REMARK INTRA:                  -0.090
REMARK UNBOUND:                -0.094
REMARK SMILES C=C(C)[C@H]1CC=C(C)C(=O)C1
REMARK SMILES IDX 8 1 7 2 6 3 5 4 4 5 11 6 9 7 10 8 2 9 1 10 3 11
REMARK H PARENT
REMARK Flexibility Score: inf
ROOT
ATOM      1  C   UNL     1      44.843  53.395  46.751  1.00  0.00     0.048 C 
ATOM      2  C   UNL     1      46.036  53.715  45.894  1.00  0.00    -0.012 C 
ATOM      3  C   UNL     1      46.682  52.728  45.250  1.00  0.00    -0.019 C 
ATOM      4  C   UNL     1      47.893  52.991  44.395  1.00  0.00     0.036 C 
ATOM      5  C   UNL     1      47.806  54.374  43.719  1.00  0.00     0.025 C 
ATOM      6  C   UNL     1      47.589  55.471  44.778  1.00  0.00     0.089 C 
ATOM      7  C   UNL     1      46.423  55.130  45.663  1.00  0.00     0.158 C 
ATOM      8  O   UNL     1      45.795  56.061  46.238  1.00  0.00    -0.295 OA
ENDROOT
BRANCH   5   9
ATOM      9  C   UNL     1      49.029  54.657  42.858  1.00  0.00    -0.077 C 
ATOM     10  C   UNL     1      49.158  54.125  41.629  1.00  0.00     0.008 C 
ATOM     11  C   UNL     1      50.128  55.549  43.375  1.00  0.00     0.039 C 
ENDBRANCH   5   9
TORSDOF 1
ENDMDL
MODEL 6
REMARK VINA RESULT:    -4.562     18.619     19.680
REMARK INTER + INTRA:          -4.923
REMARK INTER:                  -4.825
REMARK INTRA:                  -0.098
REMARK UNBOUND:                -0.094
REMARK SMILES C=C(C)[C@H]1CC=C(C)C(=O)C1
REMARK SMILES IDX 8 1 7 2 6 3 5 4 4 5 11 6 9 7 10 8 2 9 1 10 3 11
REMARK H PARENT
REMARK Flexibility Score: inf
ROOT
ATOM      1  C   UNL     1      42.650  55.270  39.986  1.00  0.00     0.048 C 
ATOM      2  C   UNL     1      42.379  56.528  40.763  1.00  0.00    -0.012 C 
ATOM      3  C   UNL     1      42.169  56.464  42.090  1.00  0.00    -0.019 C 
ATOM      4  C   UNL     1      41.876  57.691  42.912  1.00  0.00     0.036 C 
ATOM      5  C   UNL     1      42.599  58.927  42.342  1.00  0.00     0.025 C 
ATOM      6  C   UNL     1      42.237  59.119  40.858  1.00  0.00     0.089 C 
ATOM      7  C   UNL     1      42.466  57.848  40.088  1.00  0.00     0.158 C 
ATOM      8  O   UNL     1      42.699  57.913  38.850  1.00  0.00    -0.295 OA
ENDROOT
BRANCH   5   9
ATOM      9  C   UNL     1      42.304  60.178  43.159  1.00  0.00    -0.077 C 
ATOM     10  C   UNL     1      42.354  61.403  42.607  1.00  0.00     0.008 C 
ATOM     11  C   UNL     1      41.946  60.060  44.618  1.00  0.00     0.039 C 
ENDBRANCH   5   9
TORSDOF 1
ENDMDL
MODEL 7
REMARK VINA RESULT:    -4.502      1.771      4.238
REMARK INTER + INTRA:          -4.860
REMARK INTER:                  -4.764
REMARK INTRA:                  -0.096
REMARK UNBOUND:                -0.094
REMARK SMILES C=C(C)[C@H]1CC=C(C)C(=O)C1
REMARK SMILES IDX 8 1 7 2 6 3 5 4 4 5 11 6 9 7 10 8 2 9 1 10 3 11
REMARK H PARENT
REMARK Flexibility Score: inf
ROOT
ATOM      1  C   UNL     1      59.496  67.631  41.381  1.00  0.00     0.048 C 
ATOM      2  C   UNL     1      59.968  66.725  42.484  1.00  0.00    -0.012 C 
ATOM      3  C   UNL     1      60.168  67.221  43.718  1.00  0.00    -0.019 C 
ATOM      4  C   UNL     1      60.657  66.362  44.854  1.00  0.00     0.036 C 
ATOM      5  C   UNL     1      60.142  64.916  44.718  1.00  0.00     0.025 C 
ATOM      6  C   UNL     1      60.528  64.340  43.343  1.00  0.00     0.089 C 
ATOM      7  C   UNL     1      60.095  65.266  42.241  1.00  0.00     0.158 C 
ATOM      8  O   UNL     1      59.873  64.793  41.093  1.00  0.00    -0.295 OA
ENDROOT
BRANCH   5   9
ATOM      9  C   UNL     1      60.638  64.034  45.857  1.00  0.00    -0.077 C 
ATOM     10  C   UNL     1      61.003  64.558  47.040  1.00  0.00     0.008 C 
ATOM     11  C   UNL     1      60.726  62.541  45.672  1.00  0.00     0.039 C 
ENDBRANCH   5   9
TORSDOF 1
ENDMDL
MODEL 8
REMARK VINA RESULT:    -4.486      2.518      4.597
REMARK INTER + INTRA:          -4.842
REMARK INTER:                  -4.751
REMARK INTRA:                  -0.091
REMARK UNBOUND:                -0.094
REMARK SMILES C=C(C)[C@H]1CC=C(C)C(=O)C1
REMARK SMILES IDX 8 1 7 2 6 3 5 4 4 5 11 6 9 7 10 8 2 9 1 10 3 11
REMARK H PARENT
REMARK Flexibility Score: inf
ROOT
ATOM      1  C   UNL     1      60.598  66.082  44.623  1.00  0.00     0.048 C 
ATOM      2  C   UNL     1      60.390  64.605  44.816  1.00  0.00    -0.012 C 
ATOM      3  C   UNL     1      60.083  63.829  43.762  1.00  0.00    -0.019 C 
ATOM      4  C   UNL     1      59.847  62.349  43.902  1.00  0.00     0.036 C 
ATOM      5  C   UNL     1      60.719  61.752  45.025  1.00  0.00     0.025 C 
ATOM      6  C   UNL     1      60.480  62.509  46.344  1.00  0.00     0.089 C 
ATOM      7  C   UNL     1      60.645  63.990  46.143  1.00  0.00     0.158 C 
ATOM      8  O   UNL     1      60.968  64.711  47.125  1.00  0.00    -0.295 OA
ENDROOT
BRANCH   5   9
ATOM      9  C   UNL     1      60.483  60.256  45.184  1.00  0.00    -0.077 C 
ATOM     10  C   UNL     1      60.928  59.376  44.269  1.00  0.00     0.008 C 
ATOM     11  C   UNL     1      59.738  59.731  46.384  1.00  0.00     0.039 C 
ENDBRANCH   5   9
TORSDOF 1
ENDMDL
MODEL 9
REMARK VINA RESULT:    -4.435      1.428      2.434
REMARK INTER + INTRA:          -4.789
REMARK INTER:                  -4.694
REMARK INTRA:                  -0.095
REMARK UNBOUND:                -0.094
REMARK SMILES C=C(C)[C@H]1CC=C(C)C(=O)C1
REMARK SMILES IDX 8 1 7 2 6 3 5 4 4 5 11 6 9 7 10 8 2 9 1 10 3 11
REMARK H PARENT
REMARK Flexibility Score: inf
ROOT
ATOM      1  C   UNL     1      60.563  61.908  46.268  1.00  0.00     0.048 C 
ATOM      2  C   UNL     1      60.521  63.092  45.342  1.00  0.00    -0.012 C 
ATOM      3  C   UNL     1      60.270  62.910  44.034  1.00  0.00    -0.019 C 
ATOM      4  C   UNL     1      60.235  64.057  43.060  1.00  0.00     0.036 C 
ATOM      5  C   UNL     1      59.716  65.342  43.735  1.00  0.00     0.025 C 
ATOM      6  C   UNL     1      60.556  65.663  44.986  1.00  0.00     0.089 C 
ATOM      7  C   UNL     1      60.635  64.466  45.892  1.00  0.00     0.158 C 
ATOM      8  O   UNL     1      60.834  64.641  47.125  1.00  0.00    -0.295 OA
ENDROOT
BRANCH   5   9
ATOM      9  C   UNL     1      59.684  66.514  42.763  1.00  0.00    -0.077 C 
ATOM     10  C   UNL     1      59.055  67.662  43.072  1.00  0.00     0.008 C 
ATOM     11  C   UNL     1      60.365  66.404  41.424  1.00  0.00     0.039 C 
ENDBRANCH   5   9
TORSDOF 1
ENDMDL
