MODEL 1
REMARK VINA RESULT:    -2.718      0.000      0.000
REMARK INTER + INTRA:          -8.644
REMARK INTER:                  -5.261
REMARK INTRA:                  -3.384
REMARK UNBOUND:                -3.384
REMARK SMILES CCCCCC=CCC=CCCCCCCCCOC(C)=O
REMARK SMILES IDX 12 1 11 2 10 3 9 4 8 5 7 6 6 7 5 8 4 9 3 10 2 11 1 12 13 13
REMARK SMILES IDX 14 14 15 15 16 16 17 17 18 18 19 19 20 20 22 21 21 22
REMARK H PARENT
REMARK Flexibility Score: inf
ROOT
ATOM      1  C   UNL     1      -0.165   3.975  -5.120  1.00  0.00     0.004 C 
ENDROOT
BRANCH   1   2
ATOM      2  C   UNL     1      -0.372   2.528  -4.646  1.00  0.00     0.027 C 
BRANCH   2   3
ATOM      3  C   UNL     1       0.484   2.200  -3.447  1.00  0.00    -0.031 C 
ATOM      4  C   UNL     1       0.007   1.798  -2.253  1.00  0.00    -0.027 C 
BRANCH   4   5
ATOM      5  C   UNL     1      -1.455   1.709  -1.900  1.00  0.00     0.054 C 
BRANCH   5   6
ATOM      6  C   UNL     1      -1.906   2.999  -1.258  1.00  0.00    -0.027 C 
ATOM      7  C   UNL     1      -2.877   3.806  -1.724  1.00  0.00    -0.031 C 
BRANCH   7   8
ATOM      8  C   UNL     1      -3.679   3.564  -2.977  1.00  0.00     0.027 C 
BRANCH   8   9
ATOM      9  C   UNL     1      -5.070   3.005  -2.653  1.00  0.00     0.004 C 
BRANCH   9  10
ATOM     10  C   UNL     1      -5.224   1.573  -3.187  1.00  0.00     0.000 C 
BRANCH  10  11
ATOM     11  C   UNL     1      -4.375   1.317  -4.442  1.00  0.00    -0.003 C 
ATOM     12  C   UNL     1      -3.569   0.020  -4.355  1.00  0.00     0.004 C 
ENDBRANCH  10  11
ENDBRANCH   9  10
ENDBRANCH   8   9
ENDBRANCH   7   8
ENDBRANCH   5   6
ENDBRANCH   4   5
ENDBRANCH   2   3
ENDBRANCH   1   2
BRANCH   1  13
ATOM     13  C   UNL     1      -0.304   5.026  -4.002  1.00  0.00     0.000 C 
BRANCH  13  14
ATOM     14  C   UNL     1       0.955   5.902  -3.822  1.00  0.00     0.000 C 
BRANCH  14  15
ATOM     15  C   UNL     1       1.800   5.464  -2.612  1.00  0.00     0.000 C 
BRANCH  15  16
ATOM     16  C   UNL     1       0.955   5.241  -1.348  1.00  0.00     0.003 C 
BRANCH  16  17
ATOM     17  C   UNL     1       0.493   6.558  -0.705  1.00  0.00     0.042 C 
BRANCH  17  18
ATOM     18  C   UNL     1      -0.896   6.419  -0.070  1.00  0.00     0.233 C 
BRANCH  18  19
ATOM     19  O   UNL     1      -0.811   5.920   1.265  1.00  0.00    -0.466 OA
BRANCH  19  20
ATOM     20  C   UNL     1      -1.653   4.925   1.772  1.00  0.00     0.302 C 
ATOM     21  O   UNL     1      -2.899   5.108   1.849  1.00  0.00    -0.253 OA
ATOM     22  C   UNL     1      -1.063   3.651   2.273  1.00  0.00     0.139 C 
ENDBRANCH  19  20
ENDBRANCH  18  19
ENDBRANCH  17  18
ENDBRANCH  16  17
ENDBRANCH  15  16
ENDBRANCH  14  15
ENDBRANCH  13  14
ENDBRANCH   1  13
TORSDOF 16
ENDMDL
MODEL 2
REMARK VINA RESULT:    -2.692      3.053      5.053
REMARK INTER + INTRA:          -8.593
REMARK INTER:                  -5.924
REMARK INTRA:                  -2.669
REMARK UNBOUND:                -3.384
REMARK SMILES CCCCCC=CCC=CCCCCCCCCOC(C)=O
REMARK SMILES IDX 12 1 11 2 10 3 9 4 8 5 7 6 6 7 5 8 4 9 3 10 2 11 1 12 13 13
REMARK SMILES IDX 14 14 15 15 16 16 17 17 18 18 19 19 20 20 22 21 21 22
REMARK H PARENT
REMARK Flexibility Score: inf
ROOT
ATOM      1  C   UNL     1      -0.973   3.268  -1.009  1.00  0.00     0.004 C 
ENDROOT
BRANCH   1   2
ATOM      2  C   UNL     1      -2.363   3.797  -1.394  1.00  0.00     0.027 C 
BRANCH   2   3
ATOM      3  C   UNL     1      -2.395   4.316  -2.811  1.00  0.00    -0.031 C 
ATOM      4  C   UNL     1      -3.519   4.559  -3.512  1.00  0.00    -0.027 C 
BRANCH   4   5
ATOM      5  C   UNL     1      -4.914   4.254  -3.028  1.00  0.00     0.054 C 
BRANCH   5   6
ATOM      6  C   UNL     1      -5.559   3.234  -3.934  1.00  0.00    -0.027 C 
ATOM      7  C   UNL     1      -5.638   1.912  -3.690  1.00  0.00    -0.031 C 
BRANCH   7   8
ATOM      8  C   UNL     1      -5.086   1.220  -2.470  1.00  0.00     0.027 C 
BRANCH   8   9
ATOM      9  C   UNL     1      -3.683   0.658  -2.732  1.00  0.00     0.004 C 
BRANCH   9  10
ATOM     10  C   UNL     1      -3.486   0.346  -4.223  1.00  0.00     0.000 C 
BRANCH  10  11
ATOM     11  C   UNL     1      -2.300   1.109  -4.833  1.00  0.00    -0.003 C 
ATOM     12  C   UNL     1      -2.696   1.936  -6.057  1.00  0.00     0.004 C 
ENDBRANCH  10  11
ENDBRANCH   9  10
ENDBRANCH   8   9
ENDBRANCH   7   8
ENDBRANCH   5   6
ENDBRANCH   4   5
ENDBRANCH   2   3
ENDBRANCH   1   2
BRANCH   1  13
ATOM     13  C   UNL     1      -0.523   2.039  -1.822  1.00  0.00     0.000 C 
BRANCH  13  14
ATOM     14  C   UNL     1       0.949   2.113  -2.286  1.00  0.00     0.000 C 
BRANCH  14  15
ATOM     15  C   UNL     1       1.165   3.195  -3.359  1.00  0.00     0.000 C 
BRANCH  15  16
ATOM     16  C   UNL     1       2.402   4.065  -3.084  1.00  0.00     0.003 C 
BRANCH  16  17
ATOM     17  C   UNL     1       3.537   3.813  -4.090  1.00  0.00     0.042 C 
BRANCH  17  18
ATOM     18  C   UNL     1       4.789   4.629  -3.743  1.00  0.00     0.233 C 
BRANCH  18  19
ATOM     19  O   UNL     1       4.492   5.666  -2.809  1.00  0.00    -0.466 OA
BRANCH  19  20
ATOM     20  C   UNL     1       5.470   6.363  -2.092  1.00  0.00     0.302 C 
ATOM     21  O   UNL     1       5.202   6.898  -0.981  1.00  0.00    -0.253 OA
ATOM     22  C   UNL     1       6.835   6.515  -2.673  1.00  0.00     0.139 C 
ENDBRANCH  19  20
ENDBRANCH  18  19
ENDBRANCH  17  18
ENDBRANCH  16  17
ENDBRANCH  15  16
ENDBRANCH  14  15
ENDBRANCH  13  14
ENDBRANCH   1  13
TORSDOF 16
ENDMDL
MODEL 3
REMARK VINA RESULT:    -2.678      1.784      3.398
REMARK INTER + INTRA:          -8.567
REMARK INTER:                  -5.503
REMARK INTRA:                  -3.064
REMARK UNBOUND:                -3.384
REMARK SMILES CCCCCC=CCC=CCCCCCCCCOC(C)=O
REMARK SMILES IDX 12 1 11 2 10 3 9 4 8 5 7 6 6 7 5 8 4 9 3 10 2 11 1 12 13 13
REMARK SMILES IDX 14 14 15 15 16 16 17 17 18 18 19 19 20 20 22 21 21 22
REMARK H PARENT
REMARK Flexibility Score: inf
ROOT
ATOM      1  C   UNL     1       1.669   3.530  -2.867  1.00  0.00     0.004 C 
ENDROOT
BRANCH   1   2
ATOM      2  C   UNL     1       1.497   4.760  -1.961  1.00  0.00     0.027 C 
BRANCH   2   3
ATOM      3  C   UNL     1       1.349   6.032  -2.761  1.00  0.00    -0.031 C 
ATOM      4  C   UNL     1       0.187   6.682  -2.958  1.00  0.00    -0.027 C 
BRANCH   4   5
ATOM      5  C   UNL     1      -1.161   6.187  -2.497  1.00  0.00     0.054 C 
BRANCH   5   6
ATOM      6  C   UNL     1      -1.875   5.508  -3.640  1.00  0.00    -0.027 C 
ATOM      7  C   UNL     1      -3.145   5.061  -3.612  1.00  0.00    -0.031 C 
BRANCH   7   8
ATOM      8  C   UNL     1      -4.073   5.156  -2.427  1.00  0.00     0.027 C 
BRANCH   8   9
ATOM      9  C   UNL     1      -4.820   3.837  -2.195  1.00  0.00     0.004 C 
BRANCH   9  10
ATOM     10  C   UNL     1      -4.334   2.752  -3.168  1.00  0.00     0.000 C 
BRANCH  10  11
ATOM     11  C   UNL     1      -4.632   1.331  -2.663  1.00  0.00    -0.003 C 
ATOM     12  C   UNL     1      -3.672   0.287  -3.237  1.00  0.00     0.004 C 
ENDBRANCH  10  11
ENDBRANCH   9  10
ENDBRANCH   8   9
ENDBRANCH   7   8
ENDBRANCH   5   6
ENDBRANCH   4   5
ENDBRANCH   2   3
ENDBRANCH   1   2
BRANCH   1  13
ATOM     13  C   UNL     1       0.971   2.262  -2.340  1.00  0.00     0.000 C 
BRANCH  13  14
ATOM     14  C   UNL     1      -0.569   2.312  -2.461  1.00  0.00     0.000 C 
BRANCH  14  15
ATOM     15  C   UNL     1      -1.265   2.059  -1.113  1.00  0.00     0.000 C 
BRANCH  15  16
ATOM     16  C   UNL     1      -1.640   3.359  -0.385  1.00  0.00     0.003 C 
BRANCH  16  17
ATOM     17  C   UNL     1      -0.681   3.687   0.770  1.00  0.00     0.042 C 
BRANCH  17  18
ATOM     18  C   UNL     1      -1.433   3.866   2.095  1.00  0.00     0.233 C 
BRANCH  18  19
ATOM     19  O   UNL     1      -0.531   3.974   3.195  1.00  0.00    -0.466 OA
BRANCH  19  20
ATOM     20  C   UNL     1       0.208   2.897   3.696  1.00  0.00     0.302 C 
ATOM     21  O   UNL     1       1.446   2.799   3.470  1.00  0.00    -0.253 OA
ATOM     22  C   UNL     1      -0.487   1.827   4.467  1.00  0.00     0.139 C 
ENDBRANCH  19  20
ENDBRANCH  18  19
ENDBRANCH  17  18
ENDBRANCH  16  17
ENDBRANCH  15  16
ENDBRANCH  14  15
ENDBRANCH  13  14
ENDBRANCH   1  13
TORSDOF 16
ENDMDL
MODEL 4
REMARK VINA RESULT:    -2.598      4.072      7.244
REMARK INTER + INTRA:          -8.412
REMARK INTER:                  -5.196
REMARK INTRA:                  -3.216
REMARK UNBOUND:                -3.384
REMARK SMILES CCCCCC=CCC=CCCCCCCCCOC(C)=O
REMARK SMILES IDX 12 1 11 2 10 3 9 4 8 5 7 6 6 7 5 8 4 9 3 10 2 11 1 12 13 13
REMARK SMILES IDX 14 14 15 15 16 16 17 17 18 18 19 19 20 20 22 21 21 22
REMARK H PARENT
REMARK Flexibility Score: inf
ROOT
ATOM      1  C   UNL     1      -3.344   1.391  -2.270  1.00  0.00     0.004 C 
ENDROOT
BRANCH   1   2
ATOM      2  C   UNL     1      -1.991   1.224  -1.560  1.00  0.00     0.027 C 
BRANCH   2   3
ATOM      3  C   UNL     1      -1.421   2.549  -1.115  1.00  0.00    -0.031 C 
ATOM      4  C   UNL     1      -0.177   2.980  -1.395  1.00  0.00    -0.027 C 
BRANCH   4   5
ATOM      5  C   UNL     1       0.872   2.166  -2.108  1.00  0.00     0.054 C 
BRANCH   5   6
ATOM      6  C   UNL     1       1.323   2.888  -3.354  1.00  0.00    -0.027 C 
ATOM      7  C   UNL     1       0.761   2.769  -4.571  1.00  0.00    -0.031 C 
BRANCH   7   8
ATOM      8  C   UNL     1      -0.414   1.885  -4.903  1.00  0.00     0.027 C 
BRANCH   8   9
ATOM      9  C   UNL     1      -1.550   2.684  -5.554  1.00  0.00     0.004 C 
BRANCH   9  10
ATOM     10  C   UNL     1      -2.040   3.801  -4.620  1.00  0.00     0.000 C 
BRANCH  10  11
ATOM     11  C   UNL     1      -3.368   4.419  -5.086  1.00  0.00    -0.003 C 
ATOM     12  C   UNL     1      -3.756   3.987  -6.500  1.00  0.00     0.004 C 
ENDBRANCH  10  11
ENDBRANCH   9  10
ENDBRANCH   8   9
ENDBRANCH   7   8
ENDBRANCH   5   6
ENDBRANCH   4   5
ENDBRANCH   2   3
ENDBRANCH   1   2
BRANCH   1  13
ATOM     13  C   UNL     1      -3.601   0.353  -3.380  1.00  0.00     0.000 C 
BRANCH  13  14
ATOM     14  C   UNL     1      -4.502   0.880  -4.518  1.00  0.00     0.000 C 
BRANCH  14  15
ATOM     15  C   UNL     1      -4.236   0.158  -5.851  1.00  0.00     0.000 C 
BRANCH  15  16
ATOM     16  C   UNL     1      -3.269  -1.027  -5.701  1.00  0.00     0.003 C 
BRANCH  16  17
ATOM     17  C   UNL     1      -2.679  -1.483  -7.045  1.00  0.00     0.042 C 
BRANCH  17  18
ATOM     18  C   UNL     1      -1.782  -0.403  -7.662  1.00  0.00     0.233 C 
BRANCH  18  19
ATOM     19  O   UNL     1      -0.512  -0.935  -8.040  1.00  0.00    -0.466 OA
BRANCH  19  20
ATOM     20  C   UNL     1       0.355  -1.573  -7.147  1.00  0.00     0.302 C 
ATOM     21  O   UNL     1       1.080  -0.905  -6.358  1.00  0.00    -0.253 OA
ATOM     22  C   UNL     1       0.457  -3.060  -7.161  1.00  0.00     0.139 C 
ENDBRANCH  19  20
ENDBRANCH  18  19
ENDBRANCH  17  18
ENDBRANCH  16  17
ENDBRANCH  15  16
ENDBRANCH  14  15
ENDBRANCH  13  14
ENDBRANCH   1  13
TORSDOF 16
ENDMDL
MODEL 5
REMARK VINA RESULT:    -2.587      2.971      4.866
REMARK INTER + INTRA:          -8.391
REMARK INTER:                  -5.094
REMARK INTRA:                  -3.297
REMARK UNBOUND:                -3.384
REMARK SMILES CCCCCC=CCC=CCCCCCCCCOC(C)=O
REMARK SMILES IDX 12 1 11 2 10 3 9 4 8 5 7 6 6 7 5 8 4 9 3 10 2 11 1 12 13 13
REMARK SMILES IDX 14 14 15 15 16 16 17 17 18 18 19 19 20 20 22 21 21 22
REMARK H PARENT
REMARK Flexibility Score: inf
ROOT
ATOM      1  C   UNL     1      -0.262   6.975  -2.671  1.00  0.00     0.004 C 
ENDROOT
BRANCH   1   2
ATOM      2  C   UNL     1      -1.668   6.385  -2.854  1.00  0.00     0.027 C 
BRANCH   2   3
ATOM      3  C   UNL     1      -1.654   5.156  -3.730  1.00  0.00    -0.031 C 
ATOM      4  C   UNL     1      -2.075   3.936  -3.346  1.00  0.00    -0.027 C 
BRANCH   4   5
ATOM      5  C   UNL     1      -2.530   3.586  -1.953  1.00  0.00     0.054 C 
BRANCH   5   6
ATOM      6  C   UNL     1      -1.800   2.356  -1.470  1.00  0.00    -0.027 C 
ATOM      7  C   UNL     1      -2.237   1.089  -1.596  1.00  0.00    -0.031 C 
BRANCH   7   8
ATOM      8  C   UNL     1      -3.539   0.679  -2.237  1.00  0.00     0.027 C 
BRANCH   8   9
ATOM      9  C   UNL     1      -3.370   0.438  -3.742  1.00  0.00     0.004 C 
BRANCH   9  10
ATOM     10  C   UNL     1      -4.530   1.063  -4.532  1.00  0.00     0.000 C 
BRANCH  10  11
ATOM     11  C   UNL     1      -5.464   1.900  -3.644  1.00  0.00    -0.003 C 
ATOM     12  C   UNL     1      -5.673   3.318  -4.178  1.00  0.00     0.004 C 
ENDBRANCH  10  11
ENDBRANCH   9  10
ENDBRANCH   8   9
ENDBRANCH   7   8
ENDBRANCH   5   6
ENDBRANCH   4   5
ENDBRANCH   2   3
ENDBRANCH   1   2
BRANCH   1  13
ATOM     13  C   UNL     1       0.535   6.348  -1.511  1.00  0.00     0.000 C 
BRANCH  13  14
ATOM     14  C   UNL     1       1.649   5.385  -1.979  1.00  0.00     0.000 C 
BRANCH  14  15
ATOM     15  C   UNL     1       1.333   3.920  -1.631  1.00  0.00     0.000 C 
BRANCH  15  16
ATOM     16  C   UNL     1       1.492   2.976  -2.834  1.00  0.00     0.003 C 
BRANCH  16  17
ATOM     17  C   UNL     1       1.859   3.723  -4.127  1.00  0.00     0.042 C 
BRANCH  17  18
ATOM     18  C   UNL     1       1.140   3.129  -5.345  1.00  0.00     0.233 C 
BRANCH  18  19
ATOM     19  O   UNL     1       0.348   1.998  -4.982  1.00  0.00    -0.466 OA
BRANCH  19  20
ATOM     20  C   UNL     1       0.079   0.934  -5.849  1.00  0.00     0.302 C 
ATOM     21  O   UNL     1       0.915   0.003  -6.012  1.00  0.00    -0.253 OA
ATOM     22  C   UNL     1      -1.194   0.926  -6.625  1.00  0.00     0.139 C 
ENDBRANCH  19  20
ENDBRANCH  18  19
ENDBRANCH  17  18
ENDBRANCH  16  17
ENDBRANCH  15  16
ENDBRANCH  14  15
ENDBRANCH  13  14
ENDBRANCH   1  13
TORSDOF 16
ENDMDL
MODEL 6
REMARK VINA RESULT:    -2.578      2.595      4.993
REMARK INTER + INTRA:          -8.374
REMARK INTER:                  -4.652
REMARK INTRA:                  -3.722
REMARK UNBOUND:                -3.384
REMARK SMILES CCCCCC=CCC=CCCCCCCCCOC(C)=O
REMARK SMILES IDX 12 1 11 2 10 3 9 4 8 5 7 6 6 7 5 8 4 9 3 10 2 11 1 12 13 13
REMARK SMILES IDX 14 14 15 15 16 16 17 17 18 18 19 19 20 20 22 21 21 22
REMARK H PARENT
REMARK Flexibility Score: inf
ROOT
ATOM      1  C   UNL     1      -2.981   2.594  -7.043  1.00  0.00     0.004 C 
ENDROOT
BRANCH   1   2
ATOM      2  C   UNL     1      -3.293   1.259  -7.736  1.00  0.00     0.027 C 
BRANCH   2   3
ATOM      3  C   UNL     1      -2.362   0.160  -7.287  1.00  0.00    -0.031 C 
ATOM      4  C   UNL     1      -2.651  -0.748  -6.335  1.00  0.00    -0.027 C 
BRANCH   4   5
ATOM      5  C   UNL     1      -3.907  -0.745  -5.502  1.00  0.00     0.054 C 
BRANCH   5   6
ATOM      6  C   UNL     1      -3.601  -0.231  -4.116  1.00  0.00    -0.027 C 
ATOM      7  C   UNL     1      -4.103   0.893  -3.572  1.00  0.00    -0.031 C 
BRANCH   7   8
ATOM      8  C   UNL     1      -5.054   1.840  -4.258  1.00  0.00     0.027 C 
BRANCH   8   9
ATOM      9  C   UNL     1      -4.938   3.260  -3.689  1.00  0.00     0.004 C 
BRANCH   9  10
ATOM     10  C   UNL     1      -4.227   3.249  -2.327  1.00  0.00     0.000 C 
BRANCH  10  11
ATOM     11  C   UNL     1      -3.158   4.347  -2.210  1.00  0.00    -0.003 C 
ATOM     12  C   UNL     1      -2.415   4.308  -0.874  1.00  0.00     0.004 C 
ENDBRANCH  10  11
ENDBRANCH   9  10
ENDBRANCH   8   9
ENDBRANCH   7   8
ENDBRANCH   5   6
ENDBRANCH   4   5
ENDBRANCH   2   3
ENDBRANCH   1   2
BRANCH   1  13
ATOM     13  C   UNL     1      -1.512   2.743  -6.603  1.00  0.00     0.000 C 
BRANCH  13  14
ATOM     14  C   UNL     1      -1.342   2.929  -5.078  1.00  0.00     0.000 C 
BRANCH  14  15
ATOM     15  C   UNL     1      -0.576   1.761  -4.433  1.00  0.00     0.000 C 
BRANCH  15  16
ATOM     16  C   UNL     1      -0.475   1.889  -2.906  1.00  0.00     0.003 C 
BRANCH  16  17
ATOM     17  C   UNL     1       0.963   2.146  -2.428  1.00  0.00     0.042 C 
BRANCH  17  18
ATOM     18  C   UNL     1       1.189   3.625  -2.088  1.00  0.00     0.233 C 
BRANCH  18  19
ATOM     19  O   UNL     1       1.609   4.364  -3.234  1.00  0.00    -0.466 OA
BRANCH  19  20
ATOM     20  C   UNL     1       2.609   3.929  -4.110  1.00  0.00     0.302 C 
ATOM     21  O   UNL     1       3.793   3.757  -3.708  1.00  0.00    -0.253 OA
ATOM     22  C   UNL     1       2.280   3.711  -5.548  1.00  0.00     0.139 C 
ENDBRANCH  19  20
ENDBRANCH  18  19
ENDBRANCH  17  18
ENDBRANCH  16  17
ENDBRANCH  15  16
ENDBRANCH  14  15
ENDBRANCH  13  14
ENDBRANCH   1  13
TORSDOF 16
ENDMDL
MODEL 7
REMARK VINA RESULT:    -2.573      3.195      5.412
REMARK INTER + INTRA:          -8.363
REMARK INTER:                  -5.461
REMARK INTRA:                  -2.901
REMARK UNBOUND:                -3.384
REMARK SMILES CCCCCC=CCC=CCCCCCCCCOC(C)=O
REMARK SMILES IDX 12 1 11 2 10 3 9 4 8 5 7 6 6 7 5 8 4 9 3 10 2 11 1 12 13 13
REMARK SMILES IDX 14 14 15 15 16 16 17 17 18 18 19 19 20 20 22 21 21 22
REMARK H PARENT
REMARK Flexibility Score: inf
ROOT
ATOM      1  C   UNL     1      -2.317   3.621  -1.125  1.00  0.00     0.004 C 
ENDROOT
BRANCH   1   2
ATOM      2  C   UNL     1      -2.280   4.560  -2.341  1.00  0.00     0.027 C 
BRANCH   2   3
ATOM      3  C   UNL     1      -3.602   5.256  -2.556  1.00  0.00    -0.031 C 
ATOM      4  C   UNL     1      -4.660   4.712  -3.187  1.00  0.00    -0.027 C 
BRANCH   4   5
ATOM      5  C   UNL     1      -4.655   3.366  -3.865  1.00  0.00     0.054 C 
BRANCH   5   6
ATOM      6  C   UNL     1      -5.367   2.354  -2.999  1.00  0.00    -0.027 C 
ATOM      7  C   UNL     1      -4.858   1.174  -2.599  1.00  0.00    -0.031 C 
BRANCH   7   8
ATOM      8  C   UNL     1      -3.489   0.653  -2.954  1.00  0.00     0.027 C 
BRANCH   8   9
ATOM      9  C   UNL     1      -3.502  -0.089  -4.296  1.00  0.00     0.004 C 
BRANCH   9  10
ATOM     10  C   UNL     1      -2.642   0.645  -5.337  1.00  0.00     0.000 C 
BRANCH  10  11
ATOM     11  C   UNL     1      -1.531   1.489  -4.695  1.00  0.00    -0.003 C 
ATOM     12  C   UNL     1      -1.339   2.839  -5.388  1.00  0.00     0.004 C 
ENDBRANCH  10  11
ENDBRANCH   9  10
ENDBRANCH   8   9
ENDBRANCH   7   8
ENDBRANCH   5   6
ENDBRANCH   4   5
ENDBRANCH   2   3
ENDBRANCH   1   2
BRANCH   1  13
ATOM     13  C   UNL     1      -1.124   2.649  -1.048  1.00  0.00     0.000 C 
BRANCH  13  14
ATOM     14  C   UNL     1       0.245   3.360  -0.970  1.00  0.00     0.000 C 
BRANCH  14  15
ATOM     15  C   UNL     1       1.128   3.058  -2.193  1.00  0.00     0.000 C 
BRANCH  15  16
ATOM     16  C   UNL     1       1.897   4.291  -2.691  1.00  0.00     0.003 C 
BRANCH  16  17
ATOM     17  C   UNL     1       1.717   4.532  -4.198  1.00  0.00     0.042 C 
BRANCH  17  18
ATOM     18  C   UNL     1       3.067   4.688  -4.910  1.00  0.00     0.233 C 
BRANCH  18  19
ATOM     19  O   UNL     1       4.005   3.708  -4.466  1.00  0.00    -0.466 OA
BRANCH  19  20
ATOM     20  C   UNL     1       5.330   4.004  -4.128  1.00  0.00     0.302 C 
ATOM     21  O   UNL     1       6.277   3.260  -4.505  1.00  0.00    -0.253 OA
ATOM     22  C   UNL     1       5.620   5.189  -3.271  1.00  0.00     0.139 C 
ENDBRANCH  19  20
ENDBRANCH  18  19
ENDBRANCH  17  18
ENDBRANCH  16  17
ENDBRANCH  15  16
ENDBRANCH  14  15
ENDBRANCH  13  14
ENDBRANCH   1  13
TORSDOF 16
ENDMDL
MODEL 8
REMARK VINA RESULT:    -2.560      3.207      5.399
REMARK INTER + INTRA:          -8.338
REMARK INTER:                  -5.543
REMARK INTRA:                  -2.795
REMARK UNBOUND:                -3.384
REMARK SMILES CCCCCC=CCC=CCCCCCCCCOC(C)=O
REMARK SMILES IDX 12 1 11 2 10 3 9 4 8 5 7 6 6 7 5 8 4 9 3 10 2 11 1 12 13 13
REMARK SMILES IDX 14 14 15 15 16 16 17 17 18 18 19 19 20 20 22 21 21 22
REMARK H PARENT
REMARK Flexibility Score: inf
ROOT
ATOM      1  C   UNL     1      -1.371   3.061  -2.218  1.00  0.00     0.004 C 
ENDROOT
BRANCH   1   2
ATOM      2  C   UNL     1      -2.857   2.671  -2.265  1.00  0.00     0.027 C 
BRANCH   2   3
ATOM      3  C   UNL     1      -3.045   1.174  -2.283  1.00  0.00    -0.031 C 
ATOM      4  C   UNL     1      -3.841   0.512  -3.146  1.00  0.00    -0.027 C 
BRANCH   4   5
ATOM      5  C   UNL     1      -4.742   1.171  -4.158  1.00  0.00     0.054 C 
BRANCH   5   6
ATOM      6  C   UNL     1      -4.326   0.769  -5.553  1.00  0.00    -0.027 C 
ATOM      7  C   UNL     1      -3.460   1.441  -6.334  1.00  0.00    -0.031 C 
BRANCH   7   8
ATOM      8  C   UNL     1      -2.759   2.720  -5.953  1.00  0.00     0.027 C 
BRANCH   8   9
ATOM      9  C   UNL     1      -1.235   2.543  -5.951  1.00  0.00     0.004 C 
BRANCH   9  10
ATOM     10  C   UNL     1      -0.848   1.125  -5.506  1.00  0.00     0.000 C 
BRANCH  10  11
ATOM     11  C   UNL     1       0.547   0.712  -6.002  1.00  0.00    -0.003 C 
ATOM     12  C   UNL     1       1.310   1.869  -6.649  1.00  0.00     0.004 C 
ENDBRANCH  10  11
ENDBRANCH   9  10
ENDBRANCH   8   9
ENDBRANCH   7   8
ENDBRANCH   5   6
ENDBRANCH   4   5
ENDBRANCH   2   3
ENDBRANCH   1   2
BRANCH   1  13
ATOM     13  C   UNL     1      -0.418   1.872  -1.990  1.00  0.00     0.000 C 
BRANCH  13  14
ATOM     14  C   UNL     1       1.063   2.207  -2.272  1.00  0.00     0.000 C 
BRANCH  14  15
ATOM     15  C   UNL     1       1.216   3.356  -3.283  1.00  0.00     0.000 C 
BRANCH  15  16
ATOM     16  C   UNL     1       2.496   4.177  -3.062  1.00  0.00     0.003 C 
BRANCH  16  17
ATOM     17  C   UNL     1       3.491   4.046  -4.225  1.00  0.00     0.042 C 
BRANCH  17  18
ATOM     18  C   UNL     1       4.645   5.048  -4.097  1.00  0.00     0.233 C 
BRANCH  18  19
ATOM     19  O   UNL     1       4.359   6.048  -3.120  1.00  0.00    -0.466 OA
BRANCH  19  20
ATOM     20  C   UNL     1       5.281   6.473  -2.157  1.00  0.00     0.302 C 
ATOM     21  O   UNL     1       4.893   6.973  -1.065  1.00  0.00    -0.253 OA
ATOM     22  C   UNL     1       6.739   6.375  -2.446  1.00  0.00     0.139 C 
ENDBRANCH  19  20
ENDBRANCH  18  19
ENDBRANCH  17  18
ENDBRANCH  16  17
ENDBRANCH  15  16
ENDBRANCH  14  15
ENDBRANCH  13  14
ENDBRANCH   1  13
TORSDOF 16
ENDMDL
MODEL 9
REMARK VINA RESULT:    -2.526      3.895      5.462
REMARK INTER + INTRA:          -8.272
REMARK INTER:                  -5.160
REMARK INTRA:                  -3.112
REMARK UNBOUND:                -3.384
REMARK SMILES CCCCCC=CCC=CCCCCCCCCOC(C)=O
REMARK SMILES IDX 12 1 11 2 10 3 9 4 8 5 7 6 6 7 5 8 4 9 3 10 2 11 1 12 13 13
REMARK SMILES IDX 14 14 15 15 16 16 17 17 18 18 19 19 20 20 22 21 21 22
REMARK H PARENT
REMARK Flexibility Score: inf
ROOT
ATOM      1  C   UNL     1       0.414   1.989  -4.710  1.00  0.00     0.004 C 
ENDROOT
BRANCH   1   2
ATOM      2  C   UNL     1      -0.061   1.780  -3.263  1.00  0.00     0.027 C 
BRANCH   2   3
ATOM      3  C   UNL     1       0.955   2.269  -2.260  1.00  0.00    -0.031 C 
ATOM      4  C   UNL     1       0.906   3.463  -1.640  1.00  0.00    -0.027 C 
BRANCH   4   5
ATOM      5  C   UNL     1      -0.114   4.535  -1.926  1.00  0.00     0.054 C 
BRANCH   5   6
ATOM      6  C   UNL     1      -1.334   4.326  -1.062  1.00  0.00    -0.027 C 
ATOM      7  C   UNL     1      -2.576   4.070  -1.514  1.00  0.00    -0.031 C 
BRANCH   7   8
ATOM      8  C   UNL     1      -2.966   3.955  -2.965  1.00  0.00     0.027 C 
BRANCH   8   9
ATOM      9  C   UNL     1      -3.989   2.834  -3.184  1.00  0.00     0.004 C 
BRANCH   9  10
ATOM     10  C   UNL     1      -3.566   1.554  -2.448  1.00  0.00     0.000 C 
BRANCH  10  11
ATOM     11  C   UNL     1      -3.495   0.334  -3.381  1.00  0.00    -0.003 C 
ATOM     12  C   UNL     1      -3.513   0.721  -4.861  1.00  0.00     0.004 C 
ENDBRANCH  10  11
ENDBRANCH   9  10
ENDBRANCH   8   9
ENDBRANCH   7   8
ENDBRANCH   5   6
ENDBRANCH   4   5
ENDBRANCH   2   3
ENDBRANCH   1   2
BRANCH   1  13
ATOM     13  C   UNL     1      -0.215   3.212  -5.405  1.00  0.00     0.000 C 
BRANCH  13  14
ATOM     14  C   UNL     1       0.826   4.222  -5.935  1.00  0.00     0.000 C 
BRANCH  14  15
ATOM     15  C   UNL     1       2.269   3.785  -5.625  1.00  0.00     0.000 C 
BRANCH  15  16
ATOM     16  C   UNL     1       3.029   4.810  -4.769  1.00  0.00     0.003 C 
BRANCH  16  17
ATOM     17  C   UNL     1       3.896   4.149  -3.686  1.00  0.00     0.042 C 
BRANCH  17  18
ATOM     18  C   UNL     1       5.383   4.471  -3.878  1.00  0.00     0.233 C 
BRANCH  18  19
ATOM     19  O   UNL     1       6.113   3.323  -4.308  1.00  0.00    -0.466 OA
BRANCH  19  20
ATOM     20  C   UNL     1       6.238   2.944  -5.649  1.00  0.00     0.302 C 
ATOM     21  O   UNL     1       5.536   2.010  -6.126  1.00  0.00    -0.253 OA
ATOM     22  C   UNL     1       7.247   3.622  -6.511  1.00  0.00     0.139 C 
ENDBRANCH  19  20
ENDBRANCH  18  19
ENDBRANCH  17  18
ENDBRANCH  16  17
ENDBRANCH  15  16
ENDBRANCH  14  15
ENDBRANCH  13  14
ENDBRANCH   1  13
TORSDOF 16
ENDMDL
