MODEL 1
REMARK VINA RESULT:    -5.880      0.000      0.000
REMARK INTER + INTRA:         -12.071
REMARK INTER:                 -10.692
REMARK INTRA:                  -1.380
REMARK UNBOUND:                -1.380
REMARK SMILES CCCCCCCCCCCCCC[C@@H](C)C(=O)[O-]
REMARK SMILES IDX 9 1 10 2 11 3 12 4 13 5 14 6 15 7 16 8 17 9 18 10 19 11 8 12
REMARK SMILES IDX 7 13 6 14 5 15 4 16 3 17 2 18 1 19
REMARK H PARENT
REMARK Flexibility Score: inf
ROOT
ATOM      1  C   UNL     1      40.431  53.937  60.876  1.00  0.00     0.000 C 
ENDROOT
BRANCH   1   2
ATOM      2  C   UNL     1      41.433  54.633  59.937  1.00  0.00     0.000 C 
BRANCH   2   3
ATOM      3  C   UNL     1      42.765  54.963  60.630  1.00  0.00     0.000 C 
BRANCH   3   4
ATOM      4  C   UNL     1      43.610  55.972  59.834  1.00  0.00     0.000 C 
BRANCH   4   5
ATOM      5  C   UNL     1      43.619  57.370  60.473  1.00  0.00     0.001 C 
BRANCH   5   6
ATOM      6  C   UNL     1      42.363  58.192  60.122  1.00  0.00     0.009 C 
BRANCH   6   7
ATOM      7  C   UNL     1      42.172  58.441  58.608  1.00  0.00     0.032 C 
ATOM      8  C   UNL     1      40.717  58.243  58.155  1.00  0.00     0.014 C 
BRANCH   7   9
ATOM      9  C   UNL     1      42.715  59.783  58.191  1.00  0.00     0.044 C 
ATOM     10  O   UNL     1      43.953  60.017  58.211  1.00  0.00    -0.550 OA
ATOM     11  O   UNL     1      41.844  60.762  57.728  1.00  0.00    -0.550 OA
ENDBRANCH   7   9
ENDBRANCH   6   7
ENDBRANCH   5   6
ENDBRANCH   4   5
ENDBRANCH   3   4
ENDBRANCH   2   3
ENDBRANCH   1   2
BRANCH   1  12
ATOM     12  C   UNL     1      38.994  54.454  60.697  1.00  0.00     0.000 C 
BRANCH  12  13
ATOM     13  C   UNL     1      38.917  55.991  60.697  1.00  0.00    -0.000 C 
BRANCH  13  14
ATOM     14  C   UNL     1      37.990  56.533  59.598  1.00  0.00    -0.000 C 
BRANCH  14  15
ATOM     15  C   UNL     1      36.508  56.207  59.857  1.00  0.00    -0.000 C 
BRANCH  15  16
ATOM     16  C   UNL     1      35.886  55.334  58.751  1.00  0.00    -0.000 C 
BRANCH  16  17
ATOM     17  C   UNL     1      35.793  53.835  59.087  1.00  0.00    -0.000 C 
BRANCH  17  18
ATOM     18  C   UNL     1      34.931  53.050  58.087  1.00  0.00    -0.003 C 
ATOM     19  C   UNL     1      35.573  51.711  57.738  1.00  0.00     0.004 C 
ENDBRANCH  17  18
ENDBRANCH  16  17
ENDBRANCH  15  16
ENDBRANCH  14  15
ENDBRANCH  13  14
ENDBRANCH  12  13
ENDBRANCH   1  12
TORSDOF 14
ENDMDL
MODEL 2
REMARK VINA RESULT:    -5.822      1.090      2.444
REMARK INTER + INTRA:         -11.966
REMARK INTER:                 -10.878
REMARK INTRA:                  -1.088
REMARK UNBOUND:                -1.380
REMARK SMILES CCCCCCCCCCCCCC[C@@H](C)C(=O)[O-]
REMARK SMILES IDX 9 1 10 2 11 3 12 4 13 5 14 6 15 7 16 8 17 9 18 10 19 11 8 12
REMARK SMILES IDX 7 13 6 14 5 15 4 16 3 17 2 18 1 19
REMARK H PARENT
REMARK Flexibility Score: inf
ROOT
ATOM      1  C   UNL     1      39.542  56.242  60.432  1.00  0.00     0.000 C 
ENDROOT
BRANCH   1   2
ATOM      2  C   UNL     1      39.431  54.778  60.895  1.00  0.00     0.000 C 
BRANCH   2   3
ATOM      3  C   UNL     1      40.681  53.951  60.553  1.00  0.00     0.000 C 
BRANCH   3   4
ATOM      4  C   UNL     1      41.715  54.753  59.745  1.00  0.00     0.000 C 
BRANCH   4   5
ATOM      5  C   UNL     1      42.940  55.155  60.584  1.00  0.00     0.001 C 
BRANCH   5   6
ATOM      6  C   UNL     1      43.698  56.358  59.988  1.00  0.00     0.009 C 
BRANCH   6   7
ATOM      7  C   UNL     1      43.112  57.733  60.379  1.00  0.00     0.032 C 
ATOM      8  C   UNL     1      44.112  58.602  61.158  1.00  0.00     0.014 C 
BRANCH   7   9
ATOM      9  C   UNL     1      42.546  58.458  59.186  1.00  0.00     0.044 C 
ATOM     10  O   UNL     1      42.430  59.713  59.183  1.00  0.00    -0.550 OA
ATOM     11  O   UNL     1      42.193  57.739  58.050  1.00  0.00    -0.550 OA
ENDBRANCH   7   9
ENDBRANCH   6   7
ENDBRANCH   5   6
ENDBRANCH   4   5
ENDBRANCH   3   4
ENDBRANCH   2   3
ENDBRANCH   1   2
BRANCH   1  12
ATOM     12  C   UNL     1      38.405  56.651  59.482  1.00  0.00     0.000 C 
BRANCH  12  13
ATOM     13  C   UNL     1      37.023  56.204  59.991  1.00  0.00    -0.000 C 
BRANCH  13  14
ATOM     14  C   UNL     1      36.173  55.551  58.889  1.00  0.00    -0.000 C 
BRANCH  14  15
ATOM     15  C   UNL     1      35.954  54.046  59.123  1.00  0.00    -0.000 C 
BRANCH  15  16
ATOM     16  C   UNL     1      34.941  53.429  58.141  1.00  0.00    -0.000 C 
BRANCH  16  17
ATOM     17  C   UNL     1      34.822  51.896  58.212  1.00  0.00    -0.000 C 
BRANCH  17  18
ATOM     18  C   UNL     1      35.972  51.173  57.497  1.00  0.00    -0.003 C 
ATOM     19  C   UNL     1      35.566  49.759  57.090  1.00  0.00     0.004 C 
ENDBRANCH  17  18
ENDBRANCH  16  17
ENDBRANCH  15  16
ENDBRANCH  14  15
ENDBRANCH  13  14
ENDBRANCH  12  13
ENDBRANCH   1  12
TORSDOF 14
ENDMDL
MODEL 3
REMARK VINA RESULT:    -5.623      1.630      3.095
REMARK INTER + INTRA:         -11.604
REMARK INTER:                 -10.619
REMARK INTRA:                  -0.984
REMARK UNBOUND:                -1.380
REMARK SMILES CCCCCCCCCCCCCC[C@@H](C)C(=O)[O-]
REMARK SMILES IDX 9 1 10 2 11 3 12 4 13 5 14 6 15 7 16 8 17 9 18 10 19 11 8 12
REMARK SMILES IDX 7 13 6 14 5 15 4 16 3 17 2 18 1 19
REMARK H PARENT
REMARK Flexibility Score: inf
ROOT
ATOM      1  C   UNL     1      38.466  56.650  59.644  1.00  0.00     0.000 C 
ENDROOT
BRANCH   1   2
ATOM      2  C   UNL     1      39.478  56.027  60.622  1.00  0.00     0.000 C 
BRANCH   2   3
ATOM      3  C   UNL     1      39.815  54.568  60.278  1.00  0.00     0.000 C 
BRANCH   3   4
ATOM      4  C   UNL     1      41.281  54.214  60.580  1.00  0.00     0.000 C 
BRANCH   4   5
ATOM      5  C   UNL     1      42.233  54.615  59.441  1.00  0.00     0.001 C 
BRANCH   5   6
ATOM      6  C   UNL     1      43.309  55.622  59.895  1.00  0.00     0.009 C 
BRANCH   6   7
ATOM      7  C   UNL     1      43.557  56.777  58.899  1.00  0.00     0.032 C 
ATOM      8  C   UNL     1      42.268  57.530  58.534  1.00  0.00     0.014 C 
BRANCH   7   9
ATOM      9  C   UNL     1      44.638  57.709  59.382  1.00  0.00     0.044 C 
ATOM     10  O   UNL     1      45.677  57.909  58.697  1.00  0.00    -0.550 OA
ATOM     11  O   UNL     1      44.466  58.398  60.576  1.00  0.00    -0.550 OA
ENDBRANCH   7   9
ENDBRANCH   6   7
ENDBRANCH   5   6
ENDBRANCH   4   5
ENDBRANCH   3   4
ENDBRANCH   2   3
ENDBRANCH   1   2
BRANCH   1  12
ATOM     12  C   UNL     1      37.028  56.632  60.187  1.00  0.00     0.000 C 
BRANCH  12  13
ATOM     13  C   UNL     1      36.075  55.810  59.302  1.00  0.00    -0.000 C 
BRANCH  13  14
ATOM     14  C   UNL     1      36.242  54.296  59.506  1.00  0.00    -0.000 C 
BRANCH  14  15
ATOM     15  C   UNL     1      35.467  53.469  58.465  1.00  0.00    -0.000 C 
BRANCH  15  16
ATOM     16  C   UNL     1      35.629  51.951  58.666  1.00  0.00    -0.000 C 
BRANCH  16  17
ATOM     17  C   UNL     1      34.803  51.079  57.702  1.00  0.00    -0.000 C 
BRANCH  17  18
ATOM     18  C   UNL     1      35.607  49.912  57.112  1.00  0.00    -0.003 C 
ATOM     19  C   UNL     1      34.699  48.733  56.773  1.00  0.00     0.004 C 
ENDBRANCH  17  18
ENDBRANCH  16  17
ENDBRANCH  15  16
ENDBRANCH  14  15
ENDBRANCH  13  14
ENDBRANCH  12  13
ENDBRANCH   1  12
TORSDOF 14
ENDMDL
MODEL 4
REMARK VINA RESULT:    -5.597      1.080      2.157
REMARK INTER + INTRA:         -11.558
REMARK INTER:                 -10.330
REMARK INTRA:                  -1.228
REMARK UNBOUND:                -1.380
REMARK SMILES CCCCCCCCCCCCCC[C@@H](C)C(=O)[O-]
REMARK SMILES IDX 9 1 10 2 11 3 12 4 13 5 14 6 15 7 16 8 17 9 18 10 19 11 8 12
REMARK SMILES IDX 7 13 6 14 5 15 4 16 3 17 2 18 1 19
REMARK H PARENT
REMARK Flexibility Score: inf
ROOT
ATOM      1  C   UNL     1      38.390  54.039  60.905  1.00  0.00     0.000 C 
ENDROOT
BRANCH   1   2
ATOM      2  C   UNL     1      39.892  53.799  61.141  1.00  0.00     0.000 C 
BRANCH   2   3
ATOM      3  C   UNL     1      40.772  54.429  60.050  1.00  0.00     0.000 C 
BRANCH   3   4
ATOM      4  C   UNL     1      42.213  54.678  60.525  1.00  0.00     0.000 C 
BRANCH   4   5
ATOM      5  C   UNL     1      42.772  56.026  60.042  1.00  0.00     0.001 C 
BRANCH   5   6
ATOM      6  C   UNL     1      41.718  57.151  60.075  1.00  0.00     0.009 C 
BRANCH   6   7
ATOM      7  C   UNL     1      41.471  57.828  58.708  1.00  0.00     0.032 C 
ATOM      8  C   UNL     1      39.977  58.038  58.413  1.00  0.00     0.014 C 
BRANCH   7   9
ATOM      9  C   UNL     1      42.258  59.105  58.567  1.00  0.00     0.044 C 
ATOM     10  O   UNL     1      43.180  59.392  59.378  1.00  0.00    -0.550 OA
ATOM     11  O   UNL     1      42.002  59.955  57.498  1.00  0.00    -0.550 OA
ENDBRANCH   7   9
ENDBRANCH   6   7
ENDBRANCH   5   6
ENDBRANCH   4   5
ENDBRANCH   3   4
ENDBRANCH   2   3
ENDBRANCH   1   2
BRANCH   1  12
ATOM     12  C   UNL     1      38.100  55.413  60.280  1.00  0.00     0.000 C 
BRANCH  12  13
ATOM     13  C   UNL     1      36.815  55.416  59.434  1.00  0.00    -0.000 C 
BRANCH  13  14
ATOM     14  C   UNL     1      36.084  54.064  59.469  1.00  0.00    -0.000 C 
BRANCH  14  15
ATOM     15  C   UNL     1      35.171  53.852  58.249  1.00  0.00    -0.000 C 
BRANCH  15  16
ATOM     16  C   UNL     1      34.775  52.378  58.047  1.00  0.00    -0.000 C 
BRANCH  16  17
ATOM     17  C   UNL     1      35.943  51.378  58.127  1.00  0.00    -0.000 C 
BRANCH  17  18
ATOM     18  C   UNL     1      35.904  50.321  57.015  1.00  0.00    -0.003 C 
ATOM     19  C   UNL     1      34.713  49.382  57.189  1.00  0.00     0.004 C 
ENDBRANCH  17  18
ENDBRANCH  16  17
ENDBRANCH  15  16
ENDBRANCH  14  15
ENDBRANCH  13  14
ENDBRANCH  12  13
ENDBRANCH   1  12
TORSDOF 14
ENDMDL
MODEL 5
REMARK VINA RESULT:    -5.568      1.007      2.435
REMARK INTER + INTRA:         -11.504
REMARK INTER:                  -9.919
REMARK INTRA:                  -1.585
REMARK UNBOUND:                -1.380
REMARK SMILES CCCCCCCCCCCCCC[C@@H](C)C(=O)[O-]
REMARK SMILES IDX 9 1 10 2 11 3 12 4 13 5 14 6 15 7 16 8 17 9 18 10 19 11 8 12
REMARK SMILES IDX 7 13 6 14 5 15 4 16 3 17 2 18 1 19
REMARK H PARENT
REMARK Flexibility Score: inf
ROOT
ATOM      1  C   UNL     1      42.665  54.865  60.624  1.00  0.00     0.000 C 
ENDROOT
BRANCH   1   2
ATOM      2  C   UNL     1      43.183  55.990  59.710  1.00  0.00     0.000 C 
BRANCH   2   3
ATOM      3  C   UNL     1      42.823  57.391  60.230  1.00  0.00     0.000 C 
BRANCH   3   4
ATOM      4  C   UNL     1      41.333  57.725  60.041  1.00  0.00     0.000 C 
BRANCH   4   5
ATOM      5  C   UNL     1      40.966  57.980  58.570  1.00  0.00     0.001 C 
BRANCH   5   6
ATOM      6  C   UNL     1      42.096  58.681  57.790  1.00  0.00     0.009 C 
BRANCH   6   7
ATOM      7  C   UNL     1      41.784  60.145  57.402  1.00  0.00     0.032 C 
ATOM      8  C   UNL     1      40.282  60.394  57.191  1.00  0.00     0.014 C 
BRANCH   7   9
ATOM      9  C   UNL     1      42.387  61.121  58.378  1.00  0.00     0.044 C 
ATOM     10  O   UNL     1      43.398  60.813  59.064  1.00  0.00    -0.550 OA
ATOM     11  O   UNL     1      41.853  62.399  58.488  1.00  0.00    -0.550 OA
ENDBRANCH   7   9
ENDBRANCH   6   7
ENDBRANCH   5   6
ENDBRANCH   4   5
ENDBRANCH   3   4
ENDBRANCH   2   3
ENDBRANCH   1   2
BRANCH   1  12
ATOM     12  C   UNL     1      41.464  54.118  60.023  1.00  0.00     0.000 C 
BRANCH  12  13
ATOM     13  C   UNL     1      40.362  53.842  61.061  1.00  0.00    -0.000 C 
BRANCH  13  14
ATOM     14  C   UNL     1      38.965  54.230  60.554  1.00  0.00    -0.000 C 
BRANCH  14  15
ATOM     15  C   UNL     1      38.553  55.650  60.980  1.00  0.00    -0.000 C 
BRANCH  15  16
ATOM     16  C   UNL     1      37.866  56.438  59.849  1.00  0.00    -0.000 C 
BRANCH  16  17
ATOM     17  C   UNL     1      36.333  56.298  59.803  1.00  0.00    -0.000 C 
BRANCH  17  18
ATOM     18  C   UNL     1      35.840  55.527  58.570  1.00  0.00    -0.003 C 
ATOM     19  C   UNL     1      35.696  54.039  58.872  1.00  0.00     0.004 C 
ENDBRANCH  17  18
ENDBRANCH  16  17
ENDBRANCH  15  16
ENDBRANCH  14  15
ENDBRANCH  13  14
ENDBRANCH  12  13
ENDBRANCH   1  12
TORSDOF 14
ENDMDL
MODEL 6
REMARK VINA RESULT:    -5.464      1.512      2.585
REMARK INTER + INTRA:         -11.315
REMARK INTER:                 -10.778
REMARK INTRA:                  -0.538
REMARK UNBOUND:                -1.380
REMARK SMILES CCCCCCCCCCCCCC[C@@H](C)C(=O)[O-]
REMARK SMILES IDX 9 1 10 2 11 3 12 4 13 5 14 6 15 7 16 8 17 9 18 10 19 11 8 12
REMARK SMILES IDX 7 13 6 14 5 15 4 16 3 17 2 18 1 19
REMARK H PARENT
REMARK Flexibility Score: inf
ROOT
ATOM      1  C   UNL     1      38.615  55.047  60.345  1.00  0.00     0.000 C 
ENDROOT
BRANCH   1   2
ATOM      2  C   UNL     1      40.076  55.527  60.285  1.00  0.00     0.000 C 
BRANCH   2   3
ATOM      3  C   UNL     1      41.076  54.369  60.151  1.00  0.00     0.000 C 
BRANCH   3   4
ATOM      4  C   UNL     1      42.485  54.748  60.637  1.00  0.00     0.000 C 
BRANCH   4   5
ATOM      5  C   UNL     1      43.163  55.791  59.733  1.00  0.00     0.001 C 
BRANCH   5   6
ATOM      6  C   UNL     1      43.225  57.188  60.382  1.00  0.00     0.009 C 
BRANCH   6   7
ATOM      7  C   UNL     1      43.706  58.308  59.432  1.00  0.00     0.032 C 
ATOM      8  C   UNL     1      44.951  57.905  58.627  1.00  0.00     0.014 C 
BRANCH   7   9
ATOM      9  C   UNL     1      42.594  58.800  58.543  1.00  0.00     0.044 C 
ATOM     10  O   UNL     1      42.753  59.809  57.803  1.00  0.00    -0.550 OA
ATOM     11  O   UNL     1      41.392  58.104  58.496  1.00  0.00    -0.550 OA
ENDBRANCH   7   9
ENDBRANCH   6   7
ENDBRANCH   5   6
ENDBRANCH   4   5
ENDBRANCH   3   4
ENDBRANCH   2   3
ENDBRANCH   1   2
BRANCH   1  12
ATOM     12  C   UNL     1      37.608  56.168  60.039  1.00  0.00     0.000 C 
BRANCH  12  13
ATOM     13  C   UNL     1      36.368  55.657  59.285  1.00  0.00    -0.000 C 
BRANCH  13  14
ATOM     14  C   UNL     1      36.145  54.148  59.473  1.00  0.00    -0.000 C 
BRANCH  14  15
ATOM     15  C   UNL     1      35.264  53.537  58.369  1.00  0.00    -0.000 C 
BRANCH  15  16
ATOM     16  C   UNL     1      35.578  52.053  58.106  1.00  0.00    -0.000 C 
BRANCH  16  17
ATOM     17  C   UNL     1      34.343  51.142  57.986  1.00  0.00    -0.000 C 
BRANCH  17  18
ATOM     18  C   UNL     1      33.026  51.880  58.265  1.00  0.00    -0.003 C 
ATOM     19  C   UNL     1      31.932  50.910  58.701  1.00  0.00     0.004 C 
ENDBRANCH  17  18
ENDBRANCH  16  17
ENDBRANCH  15  16
ENDBRANCH  14  15
ENDBRANCH  13  14
ENDBRANCH  12  13
ENDBRANCH   1  12
TORSDOF 14
ENDMDL
MODEL 7
REMARK VINA RESULT:    -5.440      1.558      3.146
REMARK INTER + INTRA:         -11.271
REMARK INTER:                  -9.952
REMARK INTRA:                  -1.319
REMARK UNBOUND:                -1.380
REMARK SMILES CCCCCCCCCCCCCC[C@@H](C)C(=O)[O-]
REMARK SMILES IDX 9 1 10 2 11 3 12 4 13 5 14 6 15 7 16 8 17 9 18 10 19 11 8 12
REMARK SMILES IDX 7 13 6 14 5 15 4 16 3 17 2 18 1 19
REMARK H PARENT
REMARK Flexibility Score: inf
ROOT
ATOM      1  C   UNL     1      43.338  55.945  59.503  1.00  0.00     0.000 C 
ENDROOT
BRANCH   1   2
ATOM      2  C   UNL     1      44.095  57.083  60.212  1.00  0.00     0.000 C 
BRANCH   2   3
ATOM      3  C   UNL     1      45.147  57.747  59.310  1.00  0.00     0.000 C 
BRANCH   3   4
ATOM      4  C   UNL     1      44.610  59.003  58.604  1.00  0.00     0.000 C 
BRANCH   4   5
ATOM      5  C   UNL     1      43.539  59.734  59.430  1.00  0.00     0.001 C 
BRANCH   5   6
ATOM      6  C   UNL     1      42.620  60.616  58.562  1.00  0.00     0.009 C 
BRANCH   6   7
ATOM      7  C   UNL     1      41.689  59.823  57.617  1.00  0.00     0.032 C 
ATOM      8  C   UNL     1      41.093  58.574  58.285  1.00  0.00     0.014 C 
BRANCH   7   9
ATOM      9  C   UNL     1      40.624  60.703  57.015  1.00  0.00     0.044 C 
ATOM     10  O   UNL     1      39.504  60.231  56.681  1.00  0.00    -0.550 OA
ATOM     11  O   UNL     1      40.859  62.065  56.873  1.00  0.00    -0.550 OA
ENDBRANCH   7   9
ENDBRANCH   6   7
ENDBRANCH   5   6
ENDBRANCH   4   5
ENDBRANCH   3   4
ENDBRANCH   2   3
ENDBRANCH   1   2
BRANCH   1  12
ATOM     12  C   UNL     1      42.717  54.942  60.489  1.00  0.00     0.000 C 
BRANCH  12  13
ATOM     13  C   UNL     1      41.540  54.164  59.875  1.00  0.00    -0.000 C 
BRANCH  13  14
ATOM     14  C   UNL     1      40.227  54.382  60.642  1.00  0.00    -0.000 C 
BRANCH  14  15
ATOM     15  C   UNL     1      39.591  55.753  60.351  1.00  0.00    -0.000 C 
BRANCH  15  16
ATOM     16  C   UNL     1      38.097  55.810  60.721  1.00  0.00    -0.000 C 
BRANCH  16  17
ATOM     17  C   UNL     1      37.202  56.522  59.690  1.00  0.00    -0.000 C 
BRANCH  17  18
ATOM     18  C   UNL     1      36.235  55.567  58.976  1.00  0.00    -0.003 C 
ATOM     19  C   UNL     1      36.326  54.158  59.555  1.00  0.00     0.004 C 
ENDBRANCH  17  18
ENDBRANCH  16  17
ENDBRANCH  15  16
ENDBRANCH  14  15
ENDBRANCH  13  14
ENDBRANCH  12  13
ENDBRANCH   1  12
TORSDOF 14
ENDMDL
MODEL 8
REMARK VINA RESULT:    -5.408      1.290      2.080
REMARK INTER + INTRA:         -11.213
REMARK INTER:                  -9.704
REMARK INTRA:                  -1.509
REMARK UNBOUND:                -1.380
REMARK SMILES CCCCCCCCCCCCCC[C@@H](C)C(=O)[O-]
REMARK SMILES IDX 9 1 10 2 11 3 12 4 13 5 14 6 15 7 16 8 17 9 18 10 19 11 8 12
REMARK SMILES IDX 7 13 6 14 5 15 4 16 3 17 2 18 1 19
REMARK H PARENT
REMARK Flexibility Score: inf
ROOT
ATOM      1  C   UNL     1      41.208  54.509  59.927  1.00  0.00     0.000 C 
ENDROOT
BRANCH   1   2
ATOM      2  C   UNL     1      42.584  54.860  60.522  1.00  0.00     0.000 C 
BRANCH   2   3
ATOM      3  C   UNL     1      43.167  56.160  59.945  1.00  0.00     0.000 C 
BRANCH   3   4
ATOM      4  C   UNL     1      42.313  56.731  58.800  1.00  0.00     0.000 C 
BRANCH   4   5
ATOM      5  C   UNL     1      41.897  58.191  59.043  1.00  0.00     0.001 C 
BRANCH   5   6
ATOM      6  C   UNL     1      42.640  59.180  58.123  1.00  0.00     0.009 C 
BRANCH   6   7
ATOM      7  C   UNL     1      43.786  59.951  58.815  1.00  0.00     0.032 C 
ATOM      8  C   UNL     1      43.700  59.888  60.349  1.00  0.00     0.014 C 
BRANCH   7   9
ATOM      9  C   UNL     1      45.137  59.518  58.308  1.00  0.00     0.044 C 
ATOM     10  O   UNL     1      45.438  58.297  58.226  1.00  0.00    -0.550 OA
ATOM     11  O   UNL     1      46.047  60.474  57.875  1.00  0.00    -0.550 OA
ENDBRANCH   7   9
ENDBRANCH   6   7
ENDBRANCH   5   6
ENDBRANCH   4   5
ENDBRANCH   3   4
ENDBRANCH   2   3
ENDBRANCH   1   2
BRANCH   1  12
ATOM     12  C   UNL     1      40.227  53.970  60.980  1.00  0.00     0.000 C 
BRANCH  12  13
ATOM     13  C   UNL     1      38.859  54.672  60.924  1.00  0.00    -0.000 C 
BRANCH  13  14
ATOM     14  C   UNL     1      38.947  56.088  60.335  1.00  0.00    -0.000 C 
BRANCH  14  15
ATOM     15  C   UNL     1      37.713  56.459  59.493  1.00  0.00    -0.000 C 
BRANCH  15  16
ATOM     16  C   UNL     1      36.461  55.651  59.880  1.00  0.00    -0.000 C 
BRANCH  16  17
ATOM     17  C   UNL     1      35.887  54.770  58.756  1.00  0.00    -0.000 C 
BRANCH  17  18
ATOM     18  C   UNL     1      35.912  53.273  59.097  1.00  0.00    -0.003 C 
ATOM     19  C   UNL     1      35.373  52.435  57.941  1.00  0.00     0.004 C 
ENDBRANCH  17  18
ENDBRANCH  16  17
ENDBRANCH  15  16
ENDBRANCH  14  15
ENDBRANCH  13  14
ENDBRANCH  12  13
ENDBRANCH   1  12
TORSDOF 14
ENDMDL
MODEL 9
REMARK VINA RESULT:    -5.407      2.404      5.502
REMARK INTER + INTRA:         -11.211
REMARK INTER:                  -9.422
REMARK INTRA:                  -1.789
REMARK UNBOUND:                -1.380
REMARK SMILES CCCCCCCCCCCCCC[C@@H](C)C(=O)[O-]
REMARK SMILES IDX 9 1 10 2 11 3 12 4 13 5 14 6 15 7 16 8 17 9 18 10 19 11 8 12
REMARK SMILES IDX 7 13 6 14 5 15 4 16 3 17 2 18 1 19
REMARK H PARENT
REMARK Flexibility Score: inf
ROOT
ATOM      1  C   UNL     1      38.551  54.872  60.296  1.00  0.00     0.000 C 
ENDROOT
BRANCH   1   2
ATOM      2  C   UNL     1      38.578  56.289  60.896  1.00  0.00     0.000 C 
BRANCH   2   3
ATOM      3  C   UNL     1      39.645  57.187  60.250  1.00  0.00     0.000 C 
BRANCH   3   4
ATOM      4  C   UNL     1      39.289  57.580  58.807  1.00  0.00     0.000 C 
BRANCH   4   5
ATOM      5  C   UNL     1      40.413  58.366  58.113  1.00  0.00     0.001 C 
BRANCH   5   6
ATOM      6  C   UNL     1      39.887  59.581  57.322  1.00  0.00     0.009 C 
BRANCH   6   7
ATOM      7  C   UNL     1      40.792  60.831  57.405  1.00  0.00     0.032 C 
ATOM      8  C   UNL     1      42.218  60.498  57.872  1.00  0.00     0.014 C 
BRANCH   7   9
ATOM      9  C   UNL     1      40.788  61.609  56.116  1.00  0.00     0.044 C 
ATOM     10  O   UNL     1      40.075  61.248  55.141  1.00  0.00    -0.550 OA
ATOM     11  O   UNL     1      41.540  62.773  56.014  1.00  0.00    -0.550 OA
ENDBRANCH   7   9
ENDBRANCH   6   7
ENDBRANCH   5   6
ENDBRANCH   4   5
ENDBRANCH   3   4
ENDBRANCH   2   3
ENDBRANCH   1   2
BRANCH   1  12
ATOM     12  C   UNL     1      39.359  53.861  61.125  1.00  0.00     0.000 C 
BRANCH  12  13
ATOM     13  C   UNL     1      40.876  54.001  60.910  1.00  0.00    -0.000 C 
BRANCH  13  14
ATOM     14  C   UNL     1      41.245  54.203  59.432  1.00  0.00    -0.000 C 
BRANCH  14  15
ATOM     15  C   UNL     1      42.612  54.885  59.250  1.00  0.00    -0.000 C 
BRANCH  15  16
ATOM     16  C   UNL     1      43.088  55.620  60.517  1.00  0.00    -0.000 C 
BRANCH  16  17
ATOM     17  C   UNL     1      43.678  57.020  60.269  1.00  0.00    -0.000 C 
BRANCH  17  18
ATOM     18  C   UNL     1      43.960  57.296  58.786  1.00  0.00    -0.003 C 
ATOM     19  C   UNL     1      45.187  58.188  58.615  1.00  0.00     0.004 C 
ENDBRANCH  17  18
ENDBRANCH  16  17
ENDBRANCH  15  16
ENDBRANCH  14  15
ENDBRANCH  13  14
ENDBRANCH  12  13
ENDBRANCH   1  12
TORSDOF 14
ENDMDL
