MODEL 1
REMARK VINA RESULT:    -1.803      0.000      0.000
REMARK INTER + INTRA:          -1.990
REMARK INTER:                  -1.908
REMARK INTRA:                  -0.082
REMARK UNBOUND:                -0.082
REMARK SMILES C=C1CC[C@@]2(C(C)C)C[C@@H]12
REMARK SMILES IDX 5 1 4 2 3 3 2 4 1 5 10 6 9 7 6 8 7 9 8 10
REMARK H PARENT
REMARK Flexibility Score: inf
ROOT
ATOM      1  C   UNL     1     -15.087  -2.363  16.636  1.00  0.00    -0.020 C 
ATOM      2  C   UNL     1     -13.571  -2.510  16.386  1.00  0.00     0.012 C 
ATOM      3  C   UNL     1     -13.321  -3.880  15.755  1.00  0.00     0.031 C 
ATOM      4  C   UNL     1     -14.664  -4.512  15.671  1.00  0.00    -0.074 C 
ATOM      5  C   UNL     1     -14.873  -5.727  15.157  1.00  0.00     0.008 C 
ATOM      6  C   UNL     1     -15.760  -3.654  16.187  1.00  0.00     0.021 C 
ATOM      7  C   UNL     1     -15.997  -2.362  15.407  1.00  0.00     0.016 C 
ENDROOT
BRANCH   1   8
ATOM      8  C   UNL     1     -15.567  -1.704  17.969  1.00  0.00    -0.011 C 
ATOM      9  C   UNL     1     -14.553  -1.991  19.087  1.00  0.00     0.008 C 
ATOM     10  C   UNL     1     -15.831  -0.185  17.920  1.00  0.00     0.008 C 
ENDBRANCH   1   8
TORSDOF 1
ENDMDL
MODEL 2
REMARK VINA RESULT:    -1.673      0.413      1.185
REMARK INTER + INTRA:          -1.853
REMARK INTER:                  -2.307
REMARK INTRA:                   0.454
REMARK UNBOUND:                -0.082
REMARK SMILES C=C1CC[C@@]2(C(C)C)C[C@@H]12
REMARK SMILES IDX 5 1 4 2 3 3 2 4 1 5 10 6 9 7 6 8 7 9 8 10
REMARK H PARENT
REMARK Flexibility Score: inf
ROOT
ATOM      1  C   UNL     1     -14.847  -2.272  16.543  1.00  0.00    -0.020 C 
ATOM      2  C   UNL     1     -13.399  -2.511  16.066  1.00  0.00     0.012 C 
ATOM      3  C   UNL     1     -13.304  -3.937  15.521  1.00  0.00     0.031 C 
ATOM      4  C   UNL     1     -14.663  -4.508  15.708  1.00  0.00    -0.074 C 
ATOM      5  C   UNL     1     -14.997  -5.748  15.339  1.00  0.00     0.008 C 
ATOM      6  C   UNL     1     -15.630  -3.561  16.319  1.00  0.00     0.021 C 
ATOM      7  C   UNL     1     -15.946  -2.324  15.480  1.00  0.00     0.016 C 
ENDROOT
BRANCH   1   8
ATOM      8  C   UNL     1     -15.079  -1.490  17.875  1.00  0.00    -0.011 C 
ATOM      9  C   UNL     1     -16.266  -0.527  17.715  1.00  0.00     0.008 C 
ATOM     10  C   UNL     1     -15.307  -2.347  19.137  1.00  0.00     0.008 C 
ENDBRANCH   1   8
TORSDOF 1
ENDMDL
MODEL 3
REMARK VINA RESULT:    -1.437      1.300      3.778
REMARK INTER + INTRA:          -1.603
REMARK INTER:                  -1.318
REMARK INTRA:                  -0.285
REMARK UNBOUND:                -0.082
REMARK SMILES C=C1CC[C@@]2(C(C)C)C[C@@H]12
REMARK SMILES IDX 5 1 4 2 3 3 2 4 1 5 10 6 9 7 6 8 7 9 8 10
REMARK H PARENT
REMARK Flexibility Score: inf
ROOT
ATOM      1  C   UNL     1     -14.555  -2.848  16.571  1.00  0.00    -0.020 C 
ATOM      2  C   UNL     1     -14.459  -2.642  18.098  1.00  0.00     0.012 C 
ATOM      3  C   UNL     1     -15.396  -1.498  18.486  1.00  0.00     0.031 C 
ATOM      4  C   UNL     1     -15.993  -1.043  17.203  1.00  0.00    -0.074 C 
ATOM      5  C   UNL     1     -16.888  -0.054  17.119  1.00  0.00     0.008 C 
ATOM      6  C   UNL     1     -15.526  -1.810  16.021  1.00  0.00     0.021 C 
ATOM      7  C   UNL     1     -15.909  -3.288  16.012  1.00  0.00     0.016 C 
ENDROOT
BRANCH   1   8
ATOM      8  C   UNL     1     -13.244  -3.132  15.769  1.00  0.00    -0.011 C 
ATOM      9  C   UNL     1     -12.778  -1.850  15.061  1.00  0.00     0.008 C 
ATOM     10  C   UNL     1     -12.063  -3.705  16.577  1.00  0.00     0.008 C 
ENDBRANCH   1   8
TORSDOF 1
ENDMDL
MODEL 4
REMARK VINA RESULT:    -1.184      0.957      1.376
REMARK INTER + INTRA:          -1.335
REMARK INTER:                  -1.315
REMARK INTRA:                  -0.020
REMARK UNBOUND:                -0.082
REMARK SMILES C=C1CC[C@@]2(C(C)C)C[C@@H]12
REMARK SMILES IDX 5 1 4 2 3 3 2 4 1 5 10 6 9 7 6 8 7 9 8 10
REMARK H PARENT
REMARK Flexibility Score: inf
ROOT
ATOM      1  C   UNL     1     -14.601  -2.331  17.302  1.00  0.00    -0.020 C 
ATOM      2  C   UNL     1     -13.177  -2.568  16.754  1.00  0.00     0.012 C 
ATOM      3  C   UNL     1     -13.215  -3.791  15.837  1.00  0.00     0.031 C 
ATOM      4  C   UNL     1     -14.626  -4.258  15.882  1.00  0.00    -0.074 C 
ATOM      5  C   UNL     1     -15.074  -5.310  15.191  1.00  0.00     0.008 C 
ATOM      6  C   UNL     1     -15.502  -3.426  16.744  1.00  0.00     0.021 C 
ATOM      7  C   UNL     1     -15.687  -1.982  16.283  1.00  0.00     0.016 C 
ENDROOT
BRANCH   1   8
ATOM      8  C   UNL     1     -14.770  -1.927  18.801  1.00  0.00    -0.011 C 
ATOM      9  C   UNL     1     -15.955  -2.688  19.416  1.00  0.00     0.008 C 
ATOM     10  C   UNL     1     -13.535  -2.126  19.703  1.00  0.00     0.008 C 
ENDBRANCH   1   8
TORSDOF 1
ENDMDL
MODEL 5
REMARK VINA RESULT:    -1.072      1.389      2.712
REMARK INTER + INTRA:          -1.216
REMARK INTER:                  -0.897
REMARK INTRA:                  -0.319
REMARK UNBOUND:                -0.082
REMARK SMILES C=C1CC[C@@]2(C(C)C)C[C@@H]12
REMARK SMILES IDX 5 1 4 2 3 3 2 4 1 5 10 6 9 7 6 8 7 9 8 10
REMARK H PARENT
REMARK Flexibility Score: inf
ROOT
ATOM      1  C   UNL     1     -15.904  -1.344  17.518  1.00  0.00    -0.020 C 
ATOM      2  C   UNL     1     -16.352  -1.990  16.189  1.00  0.00     0.012 C 
ATOM      3  C   UNL     1     -15.173  -2.779  15.620  1.00  0.00     0.031 C 
ATOM      4  C   UNL     1     -14.067  -2.565  16.590  1.00  0.00    -0.074 C 
ATOM      5  C   UNL     1     -12.854  -3.109  16.454  1.00  0.00     0.008 C 
ATOM      6  C   UNL     1     -14.443  -1.712  17.745  1.00  0.00     0.021 C 
ATOM      7  C   UNL     1     -15.523  -2.291  18.657  1.00  0.00     0.016 C 
ENDROOT
BRANCH   1   8
ATOM      8  C   UNL     1     -16.355   0.119  17.830  1.00  0.00    -0.011 C 
ATOM      9  C   UNL     1     -15.324   1.113  17.272  1.00  0.00     0.008 C 
ATOM     10  C   UNL     1     -17.754   0.523  17.321  1.00  0.00     0.008 C 
ENDBRANCH   1   8
TORSDOF 1
ENDMDL
MODEL 6
REMARK VINA RESULT:    -0.511      0.982      3.823
REMARK INTER + INTRA:          -0.623
REMARK INTER:                  -0.603
REMARK INTRA:                  -0.020
REMARK UNBOUND:                -0.082
REMARK SMILES C=C1CC[C@@]2(C(C)C)C[C@@H]12
REMARK SMILES IDX 5 1 4 2 3 3 2 4 1 5 10 6 9 7 6 8 7 9 8 10
REMARK H PARENT
REMARK Flexibility Score: inf
ROOT
ATOM      1  C   UNL     1     -14.763  -3.115  15.993  1.00  0.00    -0.020 C 
ATOM      2  C   UNL     1     -15.815  -1.989  16.081  1.00  0.00     0.012 C 
ATOM      3  C   UNL     1     -15.788  -1.420  17.500  1.00  0.00     0.031 C 
ATOM      4  C   UNL     1     -14.761  -2.222  18.214  1.00  0.00    -0.074 C 
ATOM      5  C   UNL     1     -14.427  -2.019  19.491  1.00  0.00     0.008 C 
ATOM      6  C   UNL     1     -14.115  -3.255  17.365  1.00  0.00     0.021 C 
ATOM      7  C   UNL     1     -13.300  -2.716  16.191  1.00  0.00     0.016 C 
ENDROOT
BRANCH   1   8
ATOM      8  C   UNL     1     -15.122  -4.419  15.210  1.00  0.00    -0.011 C 
ATOM      9  C   UNL     1     -14.621  -5.648  15.985  1.00  0.00     0.008 C 
ATOM     10  C   UNL     1     -16.614  -4.621  14.875  1.00  0.00     0.008 C 
ENDBRANCH   1   8
TORSDOF 1
ENDMDL
MODEL 7
REMARK VINA RESULT:    -0.228      2.556      5.440
REMARK INTER + INTRA:          -0.324
REMARK INTER:                  -0.632
REMARK INTRA:                   0.308
REMARK UNBOUND:                -0.082
REMARK SMILES C=C1CC[C@@]2(C(C)C)C[C@@H]12
REMARK SMILES IDX 5 1 4 2 3 3 2 4 1 5 10 6 9 7 6 8 7 9 8 10
REMARK H PARENT
REMARK Flexibility Score: inf
ROOT
ATOM      1  C   UNL     1     -14.285  -2.266  20.185  1.00  0.00    -0.020 C 
ATOM      2  C   UNL     1     -12.904  -2.604  20.784  1.00  0.00     0.012 C 
ATOM      3  C   UNL     1     -12.863  -2.078  22.219  1.00  0.00     0.031 C 
ATOM      4  C   UNL     1     -14.184  -1.429  22.425  1.00  0.00    -0.074 C 
ATOM      5  C   UNL     1     -14.548  -0.852  23.573  1.00  0.00     0.008 C 
ATOM      6  C   UNL     1     -15.077  -1.505  21.242  1.00  0.00     0.021 C 
ATOM      7  C   UNL     1     -15.505  -2.915  20.840  1.00  0.00     0.016 C 
ENDROOT
BRANCH   1   8
ATOM      8  C   UNL     1     -14.360  -1.768  18.706  1.00  0.00    -0.011 C 
ATOM      9  C   UNL     1     -13.637  -2.762  17.784  1.00  0.00     0.008 C 
ATOM     10  C   UNL     1     -15.774  -1.514  18.144  1.00  0.00     0.008 C 
ENDBRANCH   1   8
TORSDOF 1
ENDMDL
MODEL 8
REMARK VINA RESULT:     0.218      1.938      3.591
REMARK INTER + INTRA:           0.149
REMARK INTER:                  -0.141
REMARK INTRA:                   0.290
REMARK UNBOUND:                -0.082
REMARK SMILES C=C1CC[C@@]2(C(C)C)C[C@@H]12
REMARK SMILES IDX 5 1 4 2 3 3 2 4 1 5 10 6 9 7 6 8 7 9 8 10
REMARK H PARENT
REMARK Flexibility Score: inf
ROOT
ATOM      1  C   UNL     1     -15.298  -2.030  17.747  1.00  0.00    -0.020 C 
ATOM      2  C   UNL     1     -13.924  -2.625  17.371  1.00  0.00     0.012 C 
ATOM      3  C   UNL     1     -13.068  -2.689  18.636  1.00  0.00     0.031 C 
ATOM      4  C   UNL     1     -13.926  -2.118  19.707  1.00  0.00    -0.074 C 
ATOM      5  C   UNL     1     -13.539  -2.012  20.981  1.00  0.00     0.008 C 
ATOM      6  C   UNL     1     -15.271  -1.702  19.235  1.00  0.00     0.021 C 
ATOM      7  C   UNL     1     -16.160  -2.834  18.723  1.00  0.00     0.016 C 
ENDROOT
BRANCH   1   8
ATOM      8  C   UNL     1     -15.962  -1.001  16.776  1.00  0.00    -0.011 C 
ATOM      9  C   UNL     1     -16.691  -1.746  15.647  1.00  0.00     0.008 C 
ATOM     10  C   UNL     1     -16.941   0.004  17.416  1.00  0.00     0.008 C 
ENDBRANCH   1   8
TORSDOF 1
ENDMDL
MODEL 9
REMARK VINA RESULT:     0.869      1.210      4.166
REMARK INTER + INTRA:           0.838
REMARK INTER:                   1.007
REMARK INTRA:                  -0.169
REMARK UNBOUND:                -0.082
REMARK SMILES C=C1CC[C@@]2(C(C)C)C[C@@H]12
REMARK SMILES IDX 5 1 4 2 3 3 2 4 1 5 10 6 9 7 6 8 7 9 8 10
REMARK H PARENT
REMARK Flexibility Score: inf
ROOT
ATOM      1  C   UNL     1     -15.021  -2.240  17.691  1.00  0.00    -0.020 C 
ATOM      2  C   UNL     1     -15.972  -3.038  18.607  1.00  0.00     0.012 C 
ATOM      3  C   UNL     1     -15.495  -2.875  20.050  1.00  0.00     0.031 C 
ATOM      4  C   UNL     1     -14.281  -2.023  19.956  1.00  0.00    -0.074 C 
ATOM      5  C   UNL     1     -13.570  -1.636  21.019  1.00  0.00     0.008 C 
ATOM      6  C   UNL     1     -13.944  -1.614  18.569  1.00  0.00     0.021 C 
ATOM      7  C   UNL     1     -14.979  -0.724  17.884  1.00  0.00     0.016 C 
ENDROOT
BRANCH   1   8
ATOM      8  C   UNL     1     -14.588  -2.870  16.328  1.00  0.00    -0.011 C 
ATOM      9  C   UNL     1     -13.057  -2.998  16.275  1.00  0.00     0.008 C 
ATOM     10  C   UNL     1     -15.209  -4.240  15.984  1.00  0.00     0.008 C 
ENDBRANCH   1   8
TORSDOF 1
ENDMDL
