MODEL 1
REMARK VINA RESULT:    -5.341      0.000      0.000
REMARK INTER + INTRA:         -11.178
REMARK INTER:                  -9.400
REMARK INTRA:                  -1.778
REMARK UNBOUND:                -1.778
REMARK SMILES CCCCCCCCCCCCCCC(=O)[O-]
REMARK SMILES IDX 9 1 10 2 11 3 12 4 13 5 14 6 15 7 16 8 17 9 8 10 7 11 6 12
REMARK SMILES IDX 5 13 4 14 3 15 2 16 1 17
REMARK H PARENT
REMARK Flexibility Score: inf
ROOT
ATOM      1  C   UNL     1      14.758  -3.119  13.855  1.00  0.00     0.000 C 
ENDROOT
BRANCH   1   2
ATOM      2  C   UNL     1      14.327  -4.499  14.387  1.00  0.00     0.000 C 
BRANCH   2   3
ATOM      3  C   UNL     1      14.669  -4.722  15.878  1.00  0.00     0.000 C 
BRANCH   3   4
ATOM      4  C   UNL     1      14.382  -3.478  16.736  1.00  0.00     0.000 C 
BRANCH   4   5
ATOM      5  C   UNL     1      15.659  -2.860  17.328  1.00  0.00     0.006 C 
BRANCH   5   6
ATOM      6  C   UNL     1      16.930  -3.607  16.903  1.00  0.00     0.053 C 
BRANCH   6   7
ATOM      7  C   UNL     1      18.105  -3.134  17.700  1.00  0.00     0.041 C 
ATOM      8  O   UNL     1      18.007  -2.989  18.946  1.00  0.00    -0.550 OA
ATOM      9  O   UNL     1      19.322  -2.902  17.072  1.00  0.00    -0.550 OA
ENDBRANCH   6   7
ENDBRANCH   5   6
ENDBRANCH   4   5
ENDBRANCH   3   4
ENDBRANCH   2   3
ENDBRANCH   1   2
BRANCH   1  10
ATOM     10  C   UNL     1      15.901  -3.153  12.825  1.00  0.00     0.000 C 
BRANCH  10  11
ATOM     11  C   UNL     1      17.136  -3.972  13.251  1.00  0.00    -0.000 C 
BRANCH  11  12
ATOM     12  C   UNL     1      17.591  -5.048  12.245  1.00  0.00    -0.000 C 
BRANCH  12  13
ATOM     13  C   UNL     1      16.456  -5.859  11.593  1.00  0.00    -0.000 C 
BRANCH  13  14
ATOM     14  C   UNL     1      16.279  -5.542  10.098  1.00  0.00    -0.000 C 
BRANCH  14  15
ATOM     15  C   UNL     1      14.805  -5.558   9.663  1.00  0.00    -0.000 C 
BRANCH  15  16
ATOM     16  C   UNL     1      13.834  -5.550  10.852  1.00  0.00    -0.003 C 
ATOM     17  C   UNL     1      12.822  -4.414  10.727  1.00  0.00     0.004 C 
ENDBRANCH  15  16
ENDBRANCH  14  15
ENDBRANCH  13  14
ENDBRANCH  12  13
ENDBRANCH  11  12
ENDBRANCH  10  11
ENDBRANCH   1  10
TORSDOF 13
ENDMDL
MODEL 2
REMARK VINA RESULT:    -5.287      2.506      5.041
REMARK INTER + INTRA:         -11.084
REMARK INTER:                  -9.037
REMARK INTRA:                  -2.047
REMARK UNBOUND:                -1.778
REMARK SMILES CCCCCCCCCCCCCCC(=O)[O-]
REMARK SMILES IDX 9 1 10 2 11 3 12 4 13 5 14 6 15 7 16 8 17 9 8 10 7 11 6 12
REMARK SMILES IDX 5 13 4 14 3 15 2 16 1 17
REMARK H PARENT
REMARK Flexibility Score: inf
ROOT
ATOM      1  C   UNL     1      13.777  -6.178  12.889  1.00  0.00     0.000 C 
ENDROOT
BRANCH   1   2
ATOM      2  C   UNL     1      14.038  -5.666  11.460  1.00  0.00     0.000 C 
BRANCH   2   3
ATOM      3  C   UNL     1      15.337  -4.840  11.325  1.00  0.00     0.000 C 
BRANCH   3   4
ATOM      4  C   UNL     1      16.471  -5.639  10.661  1.00  0.00     0.000 C 
BRANCH   4   5
ATOM      5  C   UNL     1      17.657  -5.883  11.608  1.00  0.00     0.006 C 
BRANCH   5   6
ATOM      6  C   UNL     1      17.797  -4.789  12.675  1.00  0.00     0.053 C 
BRANCH   6   7
ATOM      7  C   UNL     1      19.192  -4.249  12.688  1.00  0.00     0.041 C 
ATOM      8  O   UNL     1      20.175  -5.031  12.616  1.00  0.00    -0.550 OA
ATOM      9  O   UNL     1      19.405  -2.876  12.730  1.00  0.00    -0.550 OA
ENDBRANCH   6   7
ENDBRANCH   5   6
ENDBRANCH   4   5
ENDBRANCH   3   4
ENDBRANCH   2   3
ENDBRANCH   1   2
BRANCH   1  10
ATOM     10  C   UNL     1      14.837  -7.157  13.427  1.00  0.00     0.000 C 
BRANCH  10  11
ATOM     11  C   UNL     1      15.115  -7.048  14.939  1.00  0.00    -0.000 C 
BRANCH  11  12
ATOM     12  C   UNL     1      15.505  -5.641  15.437  1.00  0.00    -0.000 C 
BRANCH  12  13
ATOM     13  C   UNL     1      14.437  -4.929  16.288  1.00  0.00    -0.000 C 
BRANCH  13  14
ATOM     14  C   UNL     1      14.325  -3.428  15.970  1.00  0.00    -0.000 C 
BRANCH  14  15
ATOM     15  C   UNL     1      14.778  -3.094  14.539  1.00  0.00    -0.000 C 
BRANCH  15  16
ATOM     16  C   UNL     1      13.654  -2.487  13.687  1.00  0.00    -0.003 C 
ATOM     17  C   UNL     1      12.296  -2.669  14.359  1.00  0.00     0.004 C 
ENDBRANCH  15  16
ENDBRANCH  14  15
ENDBRANCH  13  14
ENDBRANCH  12  13
ENDBRANCH  11  12
ENDBRANCH  10  11
ENDBRANCH   1  10
TORSDOF 13
ENDMDL
MODEL 3
REMARK VINA RESULT:    -5.265      2.916      4.357
REMARK INTER + INTRA:         -11.044
REMARK INTER:                  -9.045
REMARK INTRA:                  -1.999
REMARK UNBOUND:                -1.778
REMARK SMILES CCCCCCCCCCCCCCC(=O)[O-]
REMARK SMILES IDX 9 1 10 2 11 3 12 4 13 5 14 6 15 7 16 8 17 9 8 10 7 11 6 12
REMARK SMILES IDX 5 13 4 14 3 15 2 16 1 17
REMARK H PARENT
REMARK Flexibility Score: inf
ROOT
ATOM      1  C   UNL     1      15.785  -3.129  16.515  1.00  0.00     0.000 C 
ENDROOT
BRANCH   1   2
ATOM      2  C   UNL     1      14.267  -3.387  16.501  1.00  0.00     0.000 C 
BRANCH   2   3
ATOM      3  C   UNL     1      13.703  -3.691  15.095  1.00  0.00     0.000 C 
BRANCH   3   4
ATOM      4  C   UNL     1      12.518  -2.781  14.731  1.00  0.00     0.000 C 
BRANCH   4   5
ATOM      5  C   UNL     1      12.838  -1.828  13.568  1.00  0.00     0.006 C 
BRANCH   5   6
ATOM      6  C   UNL     1      14.079  -2.258  12.776  1.00  0.00     0.053 C 
BRANCH   6   7
ATOM      7  C   UNL     1      14.897  -1.062  12.399  1.00  0.00     0.041 C 
ATOM      8  O   UNL     1      16.035  -0.887  12.908  1.00  0.00    -0.550 OA
ATOM      9  O   UNL     1      14.423  -0.168  11.448  1.00  0.00    -0.550 OA
ENDBRANCH   6   7
ENDBRANCH   5   6
ENDBRANCH   4   5
ENDBRANCH   3   4
ENDBRANCH   2   3
ENDBRANCH   1   2
BRANCH   1  10
ATOM     10  C   UNL     1      16.526  -3.570  15.240  1.00  0.00     0.000 C 
BRANCH  10  11
ATOM     11  C   UNL     1      17.543  -4.712  15.441  1.00  0.00    -0.000 C 
BRANCH  11  12
ATOM     12  C   UNL     1      16.941  -6.059  15.888  1.00  0.00    -0.000 C 
BRANCH  12  13
ATOM     13  C   UNL     1      15.730  -6.540  15.067  1.00  0.00    -0.000 C 
BRANCH  13  14
ATOM     14  C   UNL     1      16.095  -6.890  13.614  1.00  0.00    -0.000 C 
BRANCH  14  15
ATOM     15  C   UNL     1      15.387  -5.984  12.594  1.00  0.00    -0.000 C 
BRANCH  15  16
ATOM     16  C   UNL     1      16.369  -5.253  11.667  1.00  0.00    -0.003 C 
ATOM     17  C   UNL     1      17.742  -5.918  11.687  1.00  0.00     0.004 C 
ENDBRANCH  15  16
ENDBRANCH  14  15
ENDBRANCH  13  14
ENDBRANCH  12  13
ENDBRANCH  11  12
ENDBRANCH  10  11
ENDBRANCH   1  10
TORSDOF 13
ENDMDL
MODEL 4
REMARK VINA RESULT:    -5.206      3.554      6.095
REMARK INTER + INTRA:         -10.941
REMARK INTER:                  -8.952
REMARK INTRA:                  -1.989
REMARK UNBOUND:                -1.778
REMARK SMILES CCCCCCCCCCCCCCC(=O)[O-]
REMARK SMILES IDX 9 1 10 2 11 3 12 4 13 5 14 6 15 7 16 8 17 9 8 10 7 11 6 12
REMARK SMILES IDX 5 13 4 14 3 15 2 16 1 17
REMARK H PARENT
REMARK Flexibility Score: inf
ROOT
ATOM      1  C   UNL     1      19.043  -4.799  12.701  1.00  0.00     0.000 C 
ENDROOT
BRANCH   1   2
ATOM      2  C   UNL     1      17.855  -5.353  11.891  1.00  0.00     0.000 C 
BRANCH   2   3
ATOM      3  C   UNL     1      16.956  -6.320  12.693  1.00  0.00     0.000 C 
BRANCH   3   4
ATOM      4  C   UNL     1      15.532  -5.770  12.887  1.00  0.00     0.000 C 
BRANCH   4   5
ATOM      5  C   UNL     1      15.276  -4.492  12.073  1.00  0.00     0.006 C 
BRANCH   5   6
ATOM      6  C   UNL     1      13.998  -4.575  11.229  1.00  0.00     0.053 C 
BRANCH   6   7
ATOM      7  C   UNL     1      14.265  -5.299   9.947  1.00  0.00     0.041 C 
ATOM      8  O   UNL     1      13.335  -5.905   9.355  1.00  0.00    -0.550 OA
ATOM      9  O   UNL     1      15.534  -5.262   9.380  1.00  0.00    -0.550 OA
ENDBRANCH   6   7
ENDBRANCH   5   6
ENDBRANCH   4   5
ENDBRANCH   3   4
ENDBRANCH   2   3
ENDBRANCH   1   2
BRANCH   1  10
ATOM     10  C   UNL     1      19.022  -3.275  12.918  1.00  0.00     0.000 C 
BRANCH  10  11
ATOM     11  C   UNL     1      18.279  -2.810  14.187  1.00  0.00    -0.000 C 
BRANCH  11  12
ATOM     12  C   UNL     1      18.451  -3.718  15.421  1.00  0.00    -0.000 C 
BRANCH  12  13
ATOM     13  C   UNL     1      17.143  -4.282  16.007  1.00  0.00    -0.000 C 
BRANCH  13  14
ATOM     14  C   UNL     1      15.933  -3.368  15.750  1.00  0.00    -0.000 C 
BRANCH  14  15
ATOM     15  C   UNL     1      14.923  -3.388  16.908  1.00  0.00    -0.000 C 
BRANCH  15  16
ATOM     16  C   UNL     1      13.471  -3.527  16.427  1.00  0.00    -0.003 C 
ATOM     17  C   UNL     1      13.352  -3.211  14.939  1.00  0.00     0.004 C 
ENDBRANCH  15  16
ENDBRANCH  14  15
ENDBRANCH  13  14
ENDBRANCH  12  13
ENDBRANCH  11  12
ENDBRANCH  10  11
ENDBRANCH   1  10
TORSDOF 13
ENDMDL
MODEL 5
REMARK VINA RESULT:    -5.195      3.095      5.477
REMARK INTER + INTRA:         -10.921
REMARK INTER:                  -8.720
REMARK INTRA:                  -2.201
REMARK UNBOUND:                -1.778
REMARK SMILES CCCCCCCCCCCCCCC(=O)[O-]
REMARK SMILES IDX 9 1 10 2 11 3 12 4 13 5 14 6 15 7 16 8 17 9 8 10 7 11 6 12
REMARK SMILES IDX 5 13 4 14 3 15 2 16 1 17
REMARK H PARENT
REMARK Flexibility Score: inf
ROOT
ATOM      1  C   UNL     1      17.991  -5.700  11.776  1.00  0.00     0.000 C 
ENDROOT
BRANCH   1   2
ATOM      2  C   UNL     1      16.754  -6.048  12.625  1.00  0.00     0.000 C 
BRANCH   2   3
ATOM      3  C   UNL     1      15.414  -5.722  11.928  1.00  0.00     0.000 C 
BRANCH   3   4
ATOM      4  C   UNL     1      14.634  -4.610  12.651  1.00  0.00     0.000 C 
BRANCH   4   5
ATOM      5  C   UNL     1      14.943  -3.212  12.093  1.00  0.00     0.006 C 
BRANCH   5   6
ATOM      6  C   UNL     1      14.650  -2.094  13.103  1.00  0.00     0.053 C 
BRANCH   6   7
ATOM      7  C   UNL     1      13.258  -1.577  12.919  1.00  0.00     0.041 C 
ATOM      8  O   UNL     1      12.876  -1.174  11.790  1.00  0.00    -0.550 OA
ATOM      9  O   UNL     1      12.367  -1.586  13.986  1.00  0.00    -0.550 OA
ENDBRANCH   6   7
ENDBRANCH   5   6
ENDBRANCH   4   5
ENDBRANCH   3   4
ENDBRANCH   2   3
ENDBRANCH   1   2
BRANCH   1  10
ATOM     10  C   UNL     1      19.027  -4.805  12.481  1.00  0.00     0.000 C 
BRANCH  10  11
ATOM     11  C   UNL     1      18.474  -3.469  13.015  1.00  0.00    -0.000 C 
BRANCH  11  12
ATOM     12  C   UNL     1      18.907  -3.103  14.449  1.00  0.00    -0.000 C 
BRANCH  12  13
ATOM     13  C   UNL     1      17.771  -3.069  15.488  1.00  0.00    -0.000 C 
BRANCH  13  14
ATOM     14  C   UNL     1      17.377  -4.470  15.988  1.00  0.00    -0.000 C 
BRANCH  14  15
ATOM     15  C   UNL     1      15.854  -4.673  16.032  1.00  0.00    -0.000 C 
BRANCH  15  16
ATOM     16  C   UNL     1      15.105  -3.436  16.547  1.00  0.00    -0.003 C 
ATOM     17  C   UNL     1      13.596  -3.667  16.546  1.00  0.00     0.004 C 
ENDBRANCH  15  16
ENDBRANCH  14  15
ENDBRANCH  13  14
ENDBRANCH  12  13
ENDBRANCH  11  12
ENDBRANCH  10  11
ENDBRANCH   1  10
TORSDOF 13
ENDMDL
MODEL 6
REMARK VINA RESULT:    -5.160      2.516      4.956
REMARK INTER + INTRA:         -10.860
REMARK INTER:                  -8.914
REMARK INTRA:                  -1.946
REMARK UNBOUND:                -1.778
REMARK SMILES CCCCCCCCCCCCCCC(=O)[O-]
REMARK SMILES IDX 9 1 10 2 11 3 12 4 13 5 14 6 15 7 16 8 17 9 8 10 7 11 6 12
REMARK SMILES IDX 5 13 4 14 3 15 2 16 1 17
REMARK H PARENT
REMARK Flexibility Score: inf
ROOT
ATOM      1  C   UNL     1      16.854  -5.973  15.738  1.00  0.00     0.000 C 
ENDROOT
BRANCH   1   2
ATOM      2  C   UNL     1      15.576  -6.523  15.078  1.00  0.00     0.000 C 
BRANCH   2   3
ATOM      3  C   UNL     1      15.766  -6.921  13.597  1.00  0.00     0.000 C 
BRANCH   3   4
ATOM      4  C   UNL     1      15.166  -5.885  12.632  1.00  0.00     0.000 C 
BRANCH   4   5
ATOM      5  C   UNL     1      16.193  -5.354  11.620  1.00  0.00     0.006 C 
BRANCH   5   6
ATOM      6  C   UNL     1      17.614  -5.862  11.897  1.00  0.00     0.053 C 
BRANCH   6   7
ATOM      7  C   UNL     1      18.456  -4.769  12.476  1.00  0.00     0.041 C 
ATOM      8  O   UNL     1      19.705  -4.902  12.550  1.00  0.00    -0.550 OA
ATOM      9  O   UNL     1      17.863  -3.581  12.889  1.00  0.00    -0.550 OA
ENDBRANCH   6   7
ENDBRANCH   5   6
ENDBRANCH   4   5
ENDBRANCH   3   4
ENDBRANCH   2   3
ENDBRANCH   1   2
BRANCH   1  10
ATOM     10  C   UNL     1      16.750  -4.518  16.232  1.00  0.00     0.000 C 
BRANCH  10  11
ATOM     11  C   UNL     1      15.614  -3.695  15.593  1.00  0.00    -0.000 C 
BRANCH  11  12
ATOM     12  C   UNL     1      14.451  -3.334  16.539  1.00  0.00    -0.000 C 
BRANCH  12  13
ATOM     13  C   UNL     1      13.042  -3.537  15.952  1.00  0.00    -0.000 C 
BRANCH  13  14
ATOM     14  C   UNL     1      13.006  -3.384  14.421  1.00  0.00    -0.000 C 
BRANCH  14  15
ATOM     15  C   UNL     1      12.626  -1.961  13.981  1.00  0.00    -0.000 C 
BRANCH  15  16
ATOM     16  C   UNL     1      13.169  -1.606  12.588  1.00  0.00    -0.003 C 
ATOM     17  C   UNL     1      14.695  -1.621  12.573  1.00  0.00     0.004 C 
ENDBRANCH  15  16
ENDBRANCH  14  15
ENDBRANCH  13  14
ENDBRANCH  12  13
ENDBRANCH  11  12
ENDBRANCH  10  11
ENDBRANCH   1  10
TORSDOF 13
ENDMDL
MODEL 7
REMARK VINA RESULT:    -5.153      2.609      4.127
REMARK INTER + INTRA:         -10.847
REMARK INTER:                  -8.690
REMARK INTRA:                  -2.158
REMARK UNBOUND:                -1.778
REMARK SMILES CCCCCCCCCCCCCCC(=O)[O-]
REMARK SMILES IDX 9 1 10 2 11 3 12 4 13 5 14 6 15 7 16 8 17 9 8 10 7 11 6 12
REMARK SMILES IDX 5 13 4 14 3 15 2 16 1 17
REMARK H PARENT
REMARK Flexibility Score: inf
ROOT
ATOM      1  C   UNL     1      14.842  -3.729  16.854  1.00  0.00     0.000 C 
ENDROOT
BRANCH   1   2
ATOM      2  C   UNL     1      15.457  -2.634  17.745  1.00  0.00     0.000 C 
BRANCH   2   3
ATOM      3  C   UNL     1      16.998  -2.697  17.830  1.00  0.00     0.000 C 
BRANCH   3   4
ATOM      4  C   UNL     1      17.594  -3.742  16.871  1.00  0.00     0.000 C 
BRANCH   4   5
ATOM      5  C   UNL     1      18.391  -3.106  15.722  1.00  0.00     0.006 C 
BRANCH   5   6
ATOM      6  C   UNL     1      18.464  -4.007  14.482  1.00  0.00     0.053 C 
BRANCH   6   7
ATOM      7  C   UNL     1      18.796  -3.197  13.268  1.00  0.00     0.041 C 
ATOM      8  O   UNL     1      19.668  -3.601  12.456  1.00  0.00    -0.550 OA
ATOM      9  O   UNL     1      18.104  -2.020  13.007  1.00  0.00    -0.550 OA
ENDBRANCH   6   7
ENDBRANCH   5   6
ENDBRANCH   4   5
ENDBRANCH   3   4
ENDBRANCH   2   3
ENDBRANCH   1   2
BRANCH   1  10
ATOM     10  C   UNL     1      13.474  -3.372  16.244  1.00  0.00     0.000 C 
BRANCH  10  11
ATOM     11  C   UNL     1      13.452  -3.279  14.706  1.00  0.00    -0.000 C 
BRANCH  11  12
ATOM     12  C   UNL     1      14.828  -3.084  14.038  1.00  0.00    -0.000 C 
BRANCH  12  13
ATOM     13  C   UNL     1      15.147  -4.066  12.896  1.00  0.00    -0.000 C 
BRANCH  13  14
ATOM     14  C   UNL     1      14.614  -5.484  13.163  1.00  0.00    -0.000 C 
BRANCH  14  15
ATOM     15  C   UNL     1      15.738  -6.530  13.249  1.00  0.00    -0.000 C 
BRANCH  15  16
ATOM     16  C   UNL     1      16.082  -6.914  14.695  1.00  0.00    -0.003 C 
ATOM     17  C   UNL     1      14.819  -7.057  15.541  1.00  0.00     0.004 C 
ENDBRANCH  15  16
ENDBRANCH  14  15
ENDBRANCH  13  14
ENDBRANCH  12  13
ENDBRANCH  11  12
ENDBRANCH  10  11
ENDBRANCH   1  10
TORSDOF 13
ENDMDL
MODEL 8
REMARK VINA RESULT:    -5.151      2.962      5.548
REMARK INTER + INTRA:         -10.844
REMARK INTER:                  -8.783
REMARK INTRA:                  -2.062
REMARK UNBOUND:                -1.778
REMARK SMILES CCCCCCCCCCCCCCC(=O)[O-]
REMARK SMILES IDX 9 1 10 2 11 3 12 4 13 5 14 6 15 7 16 8 17 9 8 10 7 11 6 12
REMARK SMILES IDX 5 13 4 14 3 15 2 16 1 17
REMARK H PARENT
REMARK Flexibility Score: inf
ROOT
ATOM      1  C   UNL     1      15.131  -3.807  15.926  1.00  0.00     0.000 C 
ENDROOT
BRANCH   1   2
ATOM      2  C   UNL     1      14.335  -5.119  16.062  1.00  0.00     0.000 C 
BRANCH   2   3
ATOM      3  C   UNL     1      15.204  -6.388  15.918  1.00  0.00     0.000 C 
BRANCH   3   4
ATOM      4  C   UNL     1      16.315  -6.220  14.868  1.00  0.00     0.000 C 
BRANCH   4   5
ATOM      5  C   UNL     1      15.851  -6.593  13.451  1.00  0.00     0.006 C 
BRANCH   5   6
ATOM      6  C   UNL     1      15.926  -5.412  12.474  1.00  0.00     0.053 C 
BRANCH   6   7
ATOM      7  C   UNL     1      16.958  -5.670  11.422  1.00  0.00     0.041 C 
ATOM      8  O   UNL     1      18.158  -5.867  11.746  1.00  0.00    -0.550 OA
ATOM      9  O   UNL     1      16.584  -5.743  10.085  1.00  0.00    -0.550 OA
ENDBRANCH   6   7
ENDBRANCH   5   6
ENDBRANCH   4   5
ENDBRANCH   3   4
ENDBRANCH   2   3
ENDBRANCH   1   2
BRANCH   1  10
ATOM     10  C   UNL     1      15.230  -2.975  17.218  1.00  0.00     0.000 C 
BRANCH  10  11
ATOM     11  C   UNL     1      16.665  -2.731  17.725  1.00  0.00    -0.000 C 
BRANCH  11  12
ATOM     12  C   UNL     1      17.750  -3.625  17.091  1.00  0.00    -0.000 C 
BRANCH  12  13
ATOM     13  C   UNL     1      19.153  -2.996  17.011  1.00  0.00    -0.000 C 
BRANCH  13  14
ATOM     14  C   UNL     1      19.775  -3.102  15.607  1.00  0.00    -0.000 C 
BRANCH  14  15
ATOM     15  C   UNL     1      18.785  -3.645  14.564  1.00  0.00    -0.000 C 
BRANCH  15  16
ATOM     16  C   UNL     1      18.627  -2.713  13.354  1.00  0.00    -0.003 C 
ATOM     17  C   UNL     1      17.237  -2.084  13.323  1.00  0.00     0.004 C 
ENDBRANCH  15  16
ENDBRANCH  14  15
ENDBRANCH  13  14
ENDBRANCH  12  13
ENDBRANCH  11  12
ENDBRANCH  10  11
ENDBRANCH   1  10
TORSDOF 13
ENDMDL
MODEL 9
REMARK VINA RESULT:    -5.109      1.299      2.134
REMARK INTER + INTRA:         -10.770
REMARK INTER:                  -8.935
REMARK INTRA:                  -1.835
REMARK UNBOUND:                -1.778
REMARK SMILES CCCCCCCCCCCCCCC(=O)[O-]
REMARK SMILES IDX 9 1 10 2 11 3 12 4 13 5 14 6 15 7 16 8 17 9 8 10 7 11 6 12
REMARK SMILES IDX 5 13 4 14 3 15 2 16 1 17
REMARK H PARENT
REMARK Flexibility Score: inf
ROOT
ATOM      1  C   UNL     1      15.867  -1.599  12.561  1.00  0.00     0.000 C 
ENDROOT
BRANCH   1   2
ATOM      2  C   UNL     1      14.448  -1.839  13.111  1.00  0.00     0.000 C 
BRANCH   2   3
ATOM      3  C   UNL     1      14.282  -3.201  13.823  1.00  0.00     0.000 C 
BRANCH   3   4
ATOM      4  C   UNL     1      13.343  -3.114  15.038  1.00  0.00     0.000 C 
BRANCH   4   5
ATOM      5  C   UNL     1      14.065  -3.401  16.365  1.00  0.00     0.006 C 
BRANCH   5   6
ATOM      6  C   UNL     1      15.453  -4.023  16.161  1.00  0.00     0.053 C 
BRANCH   6   7
ATOM      7  C   UNL     1      16.481  -3.272  16.947  1.00  0.00     0.041 C 
ATOM      8  O   UNL     1      17.705  -3.520  16.789  1.00  0.00    -0.550 OA
ATOM      9  O   UNL     1      16.090  -2.262  17.818  1.00  0.00    -0.550 OA
ENDBRANCH   6   7
ENDBRANCH   5   6
ENDBRANCH   4   5
ENDBRANCH   3   4
ENDBRANCH   2   3
ENDBRANCH   1   2
BRANCH   1  10
ATOM     10  C   UNL     1      16.998  -1.796  13.587  1.00  0.00     0.000 C 
BRANCH  10  11
ATOM     11  C   UNL     1      18.122  -2.751  13.140  1.00  0.00    -0.000 C 
BRANCH  11  12
ATOM     12  C   UNL     1      17.798  -4.253  13.264  1.00  0.00    -0.000 C 
BRANCH  12  13
ATOM     13  C   UNL     1      18.488  -5.160  12.228  1.00  0.00    -0.000 C 
BRANCH  13  14
ATOM     14  C   UNL     1      17.488  -5.958  11.374  1.00  0.00    -0.000 C 
BRANCH  14  15
ATOM     15  C   UNL     1      16.059  -5.401  11.466  1.00  0.00    -0.000 C 
BRANCH  15  16
ATOM     16  C   UNL     1      15.394  -5.239  10.091  1.00  0.00    -0.003 C 
ATOM     17  C   UNL     1      13.877  -5.358  10.196  1.00  0.00     0.004 C 
ENDBRANCH  15  16
ENDBRANCH  14  15
ENDBRANCH  13  14
ENDBRANCH  12  13
ENDBRANCH  11  12
ENDBRANCH  10  11
ENDBRANCH   1  10
TORSDOF 13
ENDMDL
