MODEL 1
REMARK VINA RESULT:    -4.166      0.000      0.000
REMARK INTER + INTRA:          -7.501
REMARK INTER:                  -6.601
REMARK INTRA:                  -0.901
REMARK UNBOUND:                -0.901
REMARK SMILES CCCCCCCCCCCC(=O)[O-]
REMARK SMILES IDX 7 1 8 2 9 3 10 4 11 5 12 6 13 7 14 8 6 9 5 10 4 11 3 12 2 13
REMARK SMILES IDX 1 14
REMARK H PARENT
REMARK Flexibility Score: inf
ROOT
ATOM      1  C   UNL     1     162.913 176.228 181.114  1.00  0.00     0.000 C 
ENDROOT
BRANCH   1   2
ATOM      2  C   UNL     1     163.768 177.493 181.289  1.00  0.00     0.000 C 
BRANCH   2   3
ATOM      3  C   UNL     1     162.942 178.705 181.745  1.00  0.00     0.000 C 
BRANCH   3   4
ATOM      4  C   UNL     1     163.063 179.860 180.740  1.00  0.00     0.006 C 
BRANCH   4   5
ATOM      5  C   UNL     1     161.751 180.118 179.989  1.00  0.00     0.053 C 
BRANCH   5   6
ATOM      6  C   UNL     1     161.797 179.586 178.589  1.00  0.00     0.041 C 
ATOM      7  O   UNL     1     162.544 180.125 177.731  1.00  0.00    -0.550 OA
ATOM      8  O   UNL     1     161.040 178.474 178.242  1.00  0.00    -0.550 OA
ENDBRANCH   5   6
ENDBRANCH   4   5
ENDBRANCH   3   4
ENDBRANCH   2   3
ENDBRANCH   1   2
BRANCH   1   9
ATOM      9  C   UNL     1     161.405 176.528 181.111  1.00  0.00     0.000 C 
BRANCH   9  10
ATOM     10  C   UNL     1     160.547 175.252 181.108  1.00  0.00    -0.000 C 
BRANCH  10  11
ATOM     11  C   UNL     1     161.391 173.976 180.974  1.00  0.00    -0.000 C 
BRANCH  11  12
ATOM     12  C   UNL     1     160.994 172.943 182.036  1.00  0.00    -0.000 C 
BRANCH  12  13
ATOM     13  C   UNL     1     162.181 172.608 182.948  1.00  0.00    -0.003 C 
ATOM     14  C   UNL     1     163.471 172.465 182.144  1.00  0.00     0.004 C 
ENDBRANCH  12  13
ENDBRANCH  11  12
ENDBRANCH  10  11
ENDBRANCH   9  10
ENDBRANCH   1   9
TORSDOF 10
ENDMDL
MODEL 2
REMARK VINA RESULT:    -4.083      2.573      5.478
REMARK INTER + INTRA:          -7.370
REMARK INTER:                  -6.203
REMARK INTRA:                  -1.167
REMARK UNBOUND:                -0.901
REMARK SMILES CCCCCCCCCCCC(=O)[O-]
REMARK SMILES IDX 7 1 8 2 9 3 10 4 11 5 12 6 13 7 14 8 6 9 5 10 4 11 3 12 2 13
REMARK SMILES IDX 1 14
REMARK H PARENT
REMARK Flexibility Score: inf
ROOT
ATOM      1  C   UNL     1     164.257 177.929 180.987  1.00  0.00     0.000 C 
ENDROOT
BRANCH   1   2
ATOM      2  C   UNL     1     163.804 176.533 181.441  1.00  0.00     0.000 C 
BRANCH   2   3
ATOM      3  C   UNL     1     162.722 175.937 180.529  1.00  0.00     0.000 C 
BRANCH   3   4
ATOM      4  C   UNL     1     161.318 176.298 181.035  1.00  0.00     0.006 C 
BRANCH   4   5
ATOM      5  C   UNL     1     160.389 175.078 181.095  1.00  0.00     0.053 C 
BRANCH   5   6
ATOM      6  C   UNL     1     160.547 174.198 179.893  1.00  0.00     0.041 C 
ATOM      7  O   UNL     1     161.087 173.067 180.003  1.00  0.00    -0.550 OA
ATOM      8  O   UNL     1     160.066 174.614 178.658  1.00  0.00    -0.550 OA
ENDBRANCH   5   6
ENDBRANCH   4   5
ENDBRANCH   3   4
ENDBRANCH   2   3
ENDBRANCH   1   2
BRANCH   1   9
ATOM      9  C   UNL     1     163.689 179.053 181.870  1.00  0.00     0.000 C 
BRANCH   9  10
ATOM     10  C   UNL     1     162.403 179.667 181.293  1.00  0.00    -0.000 C 
BRANCH  10  11
ATOM     11  C   UNL     1     162.571 180.125 179.837  1.00  0.00    -0.000 C 
BRANCH  11  12
ATOM     12  C   UNL     1     161.382 179.673 178.979  1.00  0.00    -0.000 C 
BRANCH  12  13
ATOM     13  C   UNL     1     161.763 178.479 178.096  1.00  0.00    -0.003 C 
ATOM     14  C   UNL     1     162.838 178.862 177.084  1.00  0.00     0.004 C 
ENDBRANCH  12  13
ENDBRANCH  11  12
ENDBRANCH  10  11
ENDBRANCH   9  10
ENDBRANCH   1   9
TORSDOF 10
ENDMDL
MODEL 3
REMARK VINA RESULT:    -4.082     11.542     13.365
REMARK INTER + INTRA:          -7.368
REMARK INTER:                  -5.767
REMARK INTRA:                  -1.602
REMARK UNBOUND:                -0.901
REMARK SMILES CCCCCCCCCCCC(=O)[O-]
REMARK SMILES IDX 7 1 8 2 9 3 10 4 11 5 12 6 13 7 14 8 6 9 5 10 4 11 3 12 2 13
REMARK SMILES IDX 1 14
REMARK H PARENT
REMARK Flexibility Score: inf
ROOT
ATOM      1  C   UNL     1     176.341 178.902 177.913  1.00  0.00     0.000 C 
ENDROOT
BRANCH   1   2
ATOM      2  C   UNL     1     174.978 178.226 178.132  1.00  0.00     0.000 C 
BRANCH   2   3
ATOM      3  C   UNL     1     173.987 179.126 178.882  1.00  0.00     0.000 C 
BRANCH   3   4
ATOM      4  C   UNL     1     173.260 178.343 179.985  1.00  0.00     0.006 C 
BRANCH   4   5
ATOM      5  C   UNL     1     172.640 179.265 181.042  1.00  0.00     0.053 C 
BRANCH   5   6
ATOM      6  C   UNL     1     171.144 179.190 181.040  1.00  0.00     0.041 C 
ATOM      7  O   UNL     1     170.501 179.391 179.976  1.00  0.00    -0.550 OA
ATOM      8  O   UNL     1     170.461 178.865 182.206  1.00  0.00    -0.550 OA
ENDBRANCH   5   6
ENDBRANCH   4   5
ENDBRANCH   3   4
ENDBRANCH   2   3
ENDBRANCH   1   2
BRANCH   1   9
ATOM      9  C   UNL     1     176.548 180.125 178.823  1.00  0.00     0.000 C 
BRANCH   9  10
ATOM     10  C   UNL     1     177.510 179.841 179.987  1.00  0.00    -0.000 C 
BRANCH  10  11
ATOM     11  C   UNL     1     176.809 179.874 181.353  1.00  0.00    -0.000 C 
BRANCH  11  12
ATOM     12  C   UNL     1     176.437 178.459 181.812  1.00  0.00    -0.000 C 
BRANCH  12  13
ATOM     13  C   UNL     1     177.346 177.411 181.160  1.00  0.00    -0.003 C 
ATOM     14  C   UNL     1     176.551 176.182 180.728  1.00  0.00     0.004 C 
ENDBRANCH  12  13
ENDBRANCH  11  12
ENDBRANCH  10  11
ENDBRANCH   9  10
ENDBRANCH   1   9
TORSDOF 10
ENDMDL
MODEL 4
REMARK VINA RESULT:    -4.068      2.085      3.419
REMARK INTER + INTRA:          -7.347
REMARK INTER:                  -5.841
REMARK INTRA:                  -1.507
REMARK UNBOUND:                -0.901
REMARK SMILES CCCCCCCCCCCC(=O)[O-]
REMARK SMILES IDX 7 1 8 2 9 3 10 4 11 5 12 6 13 7 14 8 6 9 5 10 4 11 3 12 2 13
REMARK SMILES IDX 1 14
REMARK H PARENT
REMARK Flexibility Score: inf
ROOT
ATOM      1  C   UNL     1     163.044 179.380 181.866  1.00  0.00     0.000 C 
ENDROOT
BRANCH   1   2
ATOM      2  C   UNL     1     161.915 179.810 180.916  1.00  0.00     0.000 C 
BRANCH   2   3
ATOM      3  C   UNL     1     162.393 179.968 179.466  1.00  0.00     0.000 C 
BRANCH   3   4
ATOM      4  C   UNL     1     161.577 179.075 178.519  1.00  0.00     0.006 C 
BRANCH   4   5
ATOM      5  C   UNL     1     162.457 178.376 177.476  1.00  0.00     0.053 C 
BRANCH   5   6
ATOM      6  C   UNL     1     161.818 177.125 176.956  1.00  0.00     0.041 C 
ATOM      7  O   UNL     1     160.614 176.871 177.220  1.00  0.00    -0.550 OA
ATOM      8  O   UNL     1     162.543 176.256 176.150  1.00  0.00    -0.550 OA
ENDBRANCH   5   6
ENDBRANCH   4   5
ENDBRANCH   3   4
ENDBRANCH   2   3
ENDBRANCH   1   2
BRANCH   1   9
ATOM      9  C   UNL     1     164.075 178.465 181.184  1.00  0.00     0.000 C 
BRANCH   9  10
ATOM     10  C   UNL     1     163.833 176.976 181.482  1.00  0.00    -0.000 C 
BRANCH  10  11
ATOM     11  C   UNL     1     163.732 176.128 180.206  1.00  0.00    -0.000 C 
BRANCH  11  12
ATOM     12  C   UNL     1     162.389 175.390 180.143  1.00  0.00    -0.000 C 
BRANCH  12  13
ATOM     13  C   UNL     1     161.282 176.201 180.828  1.00  0.00    -0.003 C 
ATOM     14  C   UNL     1     160.181 175.290 181.363  1.00  0.00     0.004 C 
ENDBRANCH  12  13
ENDBRANCH  11  12
ENDBRANCH  10  11
ENDBRANCH   9  10
ENDBRANCH   1   9
TORSDOF 10
ENDMDL
MODEL 5
REMARK VINA RESULT:    -4.046     11.608     13.272
REMARK INTER + INTRA:          -7.311
REMARK INTER:                  -5.913
REMARK INTRA:                  -1.398
REMARK UNBOUND:                -0.901
REMARK SMILES CCCCCCCCCCCC(=O)[O-]
REMARK SMILES IDX 7 1 8 2 9 3 10 4 11 5 12 6 13 7 14 8 6 9 5 10 4 11 3 12 2 13
REMARK SMILES IDX 1 14
REMARK H PARENT
REMARK Flexibility Score: inf
ROOT
ATOM      1  C   UNL     1     177.195 179.505 179.342  1.00  0.00     0.000 C 
ENDROOT
BRANCH   1   2
ATOM      2  C   UNL     1     175.983 179.914 178.488  1.00  0.00     0.000 C 
BRANCH   2   3
ATOM      3  C   UNL     1     175.035 178.740 178.209  1.00  0.00     0.000 C 
BRANCH   3   4
ATOM      4  C   UNL     1     173.592 179.097 178.595  1.00  0.00     0.006 C 
BRANCH   4   5
ATOM      5  C   UNL     1     173.373 179.070 180.114  1.00  0.00     0.053 C 
BRANCH   5   6
ATOM      6  C   UNL     1     172.058 179.677 180.498  1.00  0.00     0.041 C 
ATOM      7  O   UNL     1     171.808 179.938 181.704  1.00  0.00    -0.550 OA
ATOM      8  O   UNL     1     171.121 179.986 179.519  1.00  0.00    -0.550 OA
ENDBRANCH   5   6
ENDBRANCH   4   5
ENDBRANCH   3   4
ENDBRANCH   2   3
ENDBRANCH   1   2
BRANCH   1   9
ATOM      9  C   UNL     1     177.163 180.125 180.749  1.00  0.00     0.000 C 
BRANCH   9  10
ATOM     10  C   UNL     1     176.731 179.119 181.828  1.00  0.00    -0.000 C 
BRANCH  10  11
ATOM     11  C   UNL     1     177.014 177.664 181.426  1.00  0.00    -0.000 C 
BRANCH  11  12
ATOM     12  C   UNL     1     175.733 176.822 181.481  1.00  0.00    -0.000 C 
BRANCH  12  13
ATOM     13  C   UNL     1     175.720 175.768 180.367  1.00  0.00    -0.003 C 
ATOM     14  C   UNL     1     174.355 175.092 180.265  1.00  0.00     0.004 C 
ENDBRANCH  12  13
ENDBRANCH  11  12
ENDBRANCH  10  11
ENDBRANCH   9  10
ENDBRANCH   1   9
TORSDOF 10
ENDMDL
MODEL 6
REMARK VINA RESULT:    -4.009      3.017      6.464
REMARK INTER + INTRA:          -7.253
REMARK INTER:                  -6.275
REMARK INTRA:                  -0.977
REMARK UNBOUND:                -0.901
REMARK SMILES CCCCCCCCCCCC(=O)[O-]
REMARK SMILES IDX 7 1 8 2 9 3 10 4 11 5 12 6 13 7 14 8 6 9 5 10 4 11 3 12 2 13
REMARK SMILES IDX 1 14
REMARK H PARENT
REMARK Flexibility Score: inf
ROOT
ATOM      1  C   UNL     1     162.880 176.207 180.578  1.00  0.00     0.000 C 
ENDROOT
BRANCH   1   2
ATOM      2  C   UNL     1     161.431 176.454 181.029  1.00  0.00     0.000 C 
BRANCH   2   3
ATOM      3  C   UNL     1     160.667 175.150 181.298  1.00  0.00     0.000 C 
BRANCH   3   4
ATOM      4  C   UNL     1     161.611 173.940 181.246  1.00  0.00     0.006 C 
BRANCH   4   5
ATOM      5  C   UNL     1     160.932 172.651 181.727  1.00  0.00     0.053 C 
BRANCH   5   6
ATOM      6  C   UNL     1     160.644 171.716 180.593  1.00  0.00     0.041 C 
ATOM      7  O   UNL     1     160.183 172.159 179.509  1.00  0.00    -0.550 OA
ATOM      8  O   UNL     1     160.916 170.360 180.722  1.00  0.00    -0.550 OA
ENDBRANCH   5   6
ENDBRANCH   4   5
ENDBRANCH   3   4
ENDBRANCH   2   3
ENDBRANCH   1   2
BRANCH   1   9
ATOM      9  C   UNL     1     163.908 176.924 181.471  1.00  0.00     0.000 C 
BRANCH   9  10
ATOM     10  C   UNL     1     163.518 178.381 181.768  1.00  0.00    -0.000 C 
BRANCH  10  11
ATOM     11  C   UNL     1     164.403 179.392 181.023  1.00  0.00    -0.000 C 
BRANCH  11  12
ATOM     12  C   UNL     1     163.800 179.747 179.659  1.00  0.00    -0.000 C 
BRANCH  12  13
ATOM     13  C   UNL     1     162.292 179.997 179.772  1.00  0.00    -0.003 C 
ATOM     14  C   UNL     1     161.534 179.324 178.632  1.00  0.00     0.004 C 
ENDBRANCH  12  13
ENDBRANCH  11  12
ENDBRANCH  10  11
ENDBRANCH   9  10
ENDBRANCH   1   9
TORSDOF 10
ENDMDL
MODEL 7
REMARK VINA RESULT:    -4.002     11.279     13.263
REMARK INTER + INTRA:          -7.243
REMARK INTER:                  -5.760
REMARK INTRA:                  -1.483
REMARK UNBOUND:                -0.901
REMARK SMILES CCCCCCCCCCCC(=O)[O-]
REMARK SMILES IDX 7 1 8 2 9 3 10 4 11 5 12 6 13 7 14 8 6 9 5 10 4 11 3 12 2 13
REMARK SMILES IDX 1 14
REMARK H PARENT
REMARK Flexibility Score: inf
ROOT
ATOM      1  C   UNL     1     176.309 177.465 181.260  1.00  0.00     0.000 C 
ENDROOT
BRANCH   1   2
ATOM      2  C   UNL     1     174.842 177.113 181.557  1.00  0.00     0.000 C 
BRANCH   2   3
ATOM      3  C   UNL     1     173.882 177.620 180.472  1.00  0.00     0.000 C 
BRANCH   3   4
ATOM      4  C   UNL     1     173.293 178.986 180.854  1.00  0.00     0.006 C 
BRANCH   4   5
ATOM      5  C   UNL     1     172.111 179.380 179.959  1.00  0.00     0.053 C 
BRANCH   5   6
ATOM      6  C   UNL     1     170.796 179.036 180.588  1.00  0.00     0.041 C 
ATOM      7  O   UNL     1     169.733 179.114 179.918  1.00  0.00    -0.550 OA
ATOM      8  O   UNL     1     170.749 178.594 181.905  1.00  0.00    -0.550 OA
ENDBRANCH   5   6
ENDBRANCH   4   5
ENDBRANCH   3   4
ENDBRANCH   2   3
ENDBRANCH   1   2
BRANCH   1   9
ATOM      9  C   UNL     1     176.749 178.779 181.929  1.00  0.00     0.000 C 
BRANCH   9  10
ATOM     10  C   UNL     1     177.152 179.856 180.909  1.00  0.00    -0.000 C 
BRANCH  10  11
ATOM     11  C   UNL     1     177.132 179.336 179.464  1.00  0.00    -0.000 C 
BRANCH  11  12
ATOM     12  C   UNL     1     176.064 180.061 178.635  1.00  0.00    -0.000 C 
BRANCH  12  13
ATOM     13  C   UNL     1     175.579 179.184 177.474  1.00  0.00    -0.003 C 
ATOM     14  C   UNL     1     176.255 177.817 177.496  1.00  0.00     0.004 C 
ENDBRANCH  12  13
ENDBRANCH  11  12
ENDBRANCH  10  11
ENDBRANCH   9  10
ENDBRANCH   1   9
TORSDOF 10
ENDMDL
MODEL 8
REMARK VINA RESULT:    -3.994      2.809      5.342
REMARK INTER + INTRA:          -7.230
REMARK INTER:                  -5.737
REMARK INTRA:                  -1.493
REMARK UNBOUND:                -0.901
REMARK SMILES CCCCCCCCCCCC(=O)[O-]
REMARK SMILES IDX 7 1 8 2 9 3 10 4 11 5 12 6 13 7 14 8 6 9 5 10 4 11 3 12 2 13
REMARK SMILES IDX 1 14
REMARK H PARENT
REMARK Flexibility Score: inf
ROOT
ATOM      1  C   UNL     1     162.560 179.185 181.458  1.00  0.00     0.000 C 
ENDROOT
BRANCH   1   2
ATOM      2  C   UNL     1     163.764 178.238 181.580  1.00  0.00     0.000 C 
BRANCH   2   3
ATOM      3  C   UNL     1     163.429 176.800 181.163  1.00  0.00     0.000 C 
BRANCH   3   4
ATOM      4  C   UNL     1     161.910 176.569 181.162  1.00  0.00     0.006 C 
BRANCH   4   5
ATOM      5  C   UNL     1     161.416 175.953 179.847  1.00  0.00     0.053 C 
BRANCH   5   6
ATOM      6  C   UNL     1     160.601 174.718 180.082  1.00  0.00     0.041 C 
ATOM      7  O   UNL     1     159.893 174.241 179.157  1.00  0.00    -0.550 OA
ATOM      8  O   UNL     1     160.651 174.074 181.312  1.00  0.00    -0.550 OA
ENDBRANCH   5   6
ENDBRANCH   4   5
ENDBRANCH   3   4
ENDBRANCH   2   3
ENDBRANCH   1   2
BRANCH   1   9
ATOM      9  C   UNL     1     162.639 180.088 180.215  1.00  0.00     0.000 C 
BRANCH   9  10
ATOM     10  C   UNL     1     161.665 179.656 179.107  1.00  0.00    -0.000 C 
BRANCH  10  11
ATOM     11  C   UNL     1     162.371 179.399 177.768  1.00  0.00    -0.000 C 
BRANCH  11  12
ATOM     12  C   UNL     1     163.846 179.040 177.986  1.00  0.00    -0.000 C 
BRANCH  12  13
ATOM     13  C   UNL     1     164.194 177.707 177.314  1.00  0.00    -0.003 C 
ATOM     14  C   UNL     1     162.972 177.099 176.631  1.00  0.00     0.004 C 
ENDBRANCH  12  13
ENDBRANCH  11  12
ENDBRANCH  10  11
ENDBRANCH   9  10
ENDBRANCH   1   9
TORSDOF 10
ENDMDL
MODEL 9
REMARK VINA RESULT:    -3.922     11.313     12.917
REMARK INTER + INTRA:          -7.116
REMARK INTER:                  -6.132
REMARK INTRA:                  -0.984
REMARK UNBOUND:                -0.901
REMARK SMILES CCCCCCCCCCCC(=O)[O-]
REMARK SMILES IDX 7 1 8 2 9 3 10 4 11 5 12 6 13 7 14 8 6 9 5 10 4 11 3 12 2 13
REMARK SMILES IDX 1 14
REMARK H PARENT
REMARK Flexibility Score: inf
ROOT
ATOM      1  C   UNL     1     174.879 177.806 181.259  1.00  0.00     0.000 C 
ENDROOT
BRANCH   1   2
ATOM      2  C   UNL     1     176.274 178.275 181.700  1.00  0.00     0.000 C 
BRANCH   2   3
ATOM      3  C   UNL     1     176.563 179.728 181.297  1.00  0.00     0.000 C 
BRANCH   3   4
ATOM      4  C   UNL     1     177.459 179.784 180.051  1.00  0.00     0.006 C 
BRANCH   4   5
ATOM      5  C   UNL     1     176.669 180.125 178.781  1.00  0.00     0.053 C 
BRANCH   5   6
ATOM      6  C   UNL     1     176.524 178.938 177.879  1.00  0.00     0.041 C 
ATOM      7  O   UNL     1     177.413 178.047 177.856  1.00  0.00    -0.550 OA
ATOM      8  O   UNL     1     175.390 178.798 177.088  1.00  0.00    -0.550 OA
ENDBRANCH   5   6
ENDBRANCH   4   5
ENDBRANCH   3   4
ENDBRANCH   2   3
ENDBRANCH   1   2
BRANCH   1   9
ATOM      9  C   UNL     1     173.893 178.972 181.076  1.00  0.00     0.000 C 
BRANCH   9  10
ATOM     10  C   UNL     1     172.963 178.776 179.868  1.00  0.00    -0.000 C 
BRANCH  10  11
ATOM     11  C   UNL     1     171.508 178.509 180.280  1.00  0.00    -0.000 C 
BRANCH  11  12
ATOM     12  C   UNL     1     171.153 179.272 181.563  1.00  0.00    -0.000 C 
BRANCH  12  13
ATOM     13  C   UNL     1     170.013 178.578 182.318  1.00  0.00    -0.003 C 
ATOM     14  C   UNL     1     170.366 177.128 182.637  1.00  0.00     0.004 C 
ENDBRANCH  12  13
ENDBRANCH  11  12
ENDBRANCH  10  11
ENDBRANCH   9  10
ENDBRANCH   1   9
TORSDOF 10
ENDMDL
