MODEL 1
REMARK VINA RESULT:    -5.200      0.000      0.000
REMARK INTER + INTRA:          -9.266
REMARK INTER:                  -8.240
REMARK INTRA:                  -1.026
REMARK UNBOUND:                -1.026
REMARK SMILES CCCCCCCCCCCC(=O)[O-]
REMARK SMILES IDX 7 1 8 2 9 3 10 4 11 5 12 6 13 7 14 8 6 9 5 10 4 11 3 12 2 13
REMARK SMILES IDX 1 14
REMARK H PARENT
REMARK Flexibility Score: inf
ROOT
ATOM      1  C   UNL     1       7.610  54.328  22.219  1.00  0.00     0.000 C 
ENDROOT
BRANCH   1   2
ATOM      2  C   UNL     1       6.553  55.428  22.024  1.00  0.00     0.000 C 
BRANCH   2   3
ATOM      3  C   UNL     1       7.103  56.647  21.264  1.00  0.00     0.000 C 
BRANCH   3   4
ATOM      4  C   UNL     1       8.105  56.258  20.161  1.00  0.00     0.006 C 
BRANCH   4   5
ATOM      5  C   UNL     1       7.599  56.493  18.729  1.00  0.00     0.053 C 
BRANCH   5   6
ATOM      6  C   UNL     1       7.270  55.209  18.032  1.00  0.00     0.041 C 
ATOM      7  O   UNL     1       7.334  55.134  16.777  1.00  0.00    -0.550 OA
ATOM      8  O   UNL     1       6.926  54.085  18.772  1.00  0.00    -0.550 OA
ENDBRANCH   5   6
ENDBRANCH   4   5
ENDBRANCH   3   4
ENDBRANCH   2   3
ENDBRANCH   1   2
BRANCH   1   9
ATOM      9  C   UNL     1       7.634  53.781  23.657  1.00  0.00     0.000 C 
BRANCH   9  10
ATOM     10  C   UNL     1       8.685  54.477  24.538  1.00  0.00    -0.000 C 
BRANCH  10  11
ATOM     11  C   UNL     1       9.825  55.102  23.715  1.00  0.00    -0.000 C 
BRANCH  11  12
ATOM     12  C   UNL     1      11.008  54.138  23.523  1.00  0.00    -0.000 C 
BRANCH  12  13
ATOM     13  C   UNL     1      10.987  53.438  22.157  1.00  0.00    -0.003 C 
ATOM     14  C   UNL     1      10.552  51.981  22.294  1.00  0.00     0.004 C 
ENDBRANCH  12  13
ENDBRANCH  11  12
ENDBRANCH  10  11
ENDBRANCH   9  10
ENDBRANCH   1   9
TORSDOF 10
ENDMDL
MODEL 2
REMARK VINA RESULT:    -4.915      3.105      5.885
REMARK INTER + INTRA:          -8.814
REMARK INTER:                  -7.864
REMARK INTRA:                  -0.950
REMARK UNBOUND:                -1.026
REMARK SMILES CCCCCCCCCCCC(=O)[O-]
REMARK SMILES IDX 7 1 8 2 9 3 10 4 11 5 12 6 13 7 14 8 6 9 5 10 4 11 3 12 2 13
REMARK SMILES IDX 1 14
REMARK H PARENT
REMARK Flexibility Score: inf
ROOT
ATOM      1  C   UNL     1       8.268  53.819  21.850  1.00  0.00     0.000 C 
ENDROOT
BRANCH   1   2
ATOM      2  C   UNL     1       9.495  54.005  20.940  1.00  0.00     0.000 C 
BRANCH   2   3
ATOM      3  C   UNL     1      10.813  53.641  21.645  1.00  0.00     0.000 C 
BRANCH   3   4
ATOM      4  C   UNL     1      10.625  53.357  23.147  1.00  0.00     0.006 C 
BRANCH   4   5
ATOM      5  C   UNL     1      11.142  54.469  24.074  1.00  0.00     0.053 C 
BRANCH   5   6
ATOM      6  C   UNL     1      10.292  54.620  25.298  1.00  0.00     0.041 C 
ATOM      7  O   UNL     1      10.827  54.730  26.433  1.00  0.00    -0.550 OA
ATOM      8  O   UNL     1       8.909  54.673  25.182  1.00  0.00    -0.550 OA
ENDBRANCH   5   6
ENDBRANCH   4   5
ENDBRANCH   3   4
ENDBRANCH   2   3
ENDBRANCH   1   2
BRANCH   1   9
ATOM      9  C   UNL     1       7.473  55.122  22.041  1.00  0.00     0.000 C 
BRANCH   9  10
ATOM     10  C   UNL     1       8.012  56.276  21.178  1.00  0.00    -0.000 C 
BRANCH  10  11
ATOM     11  C   UNL     1       7.068  56.636  20.017  1.00  0.00    -0.000 C 
BRANCH  11  12
ATOM     12  C   UNL     1       7.720  56.422  18.640  1.00  0.00    -0.000 C 
BRANCH  12  13
ATOM     13  C   UNL     1       7.540  54.991  18.115  1.00  0.00    -0.003 C 
ATOM     14  C   UNL     1       6.719  54.979  16.827  1.00  0.00     0.004 C 
ENDBRANCH  12  13
ENDBRANCH  11  12
ENDBRANCH  10  11
ENDBRANCH   9  10
ENDBRANCH   1   9
TORSDOF 10
ENDMDL
MODEL 3
REMARK VINA RESULT:    -4.898      2.097      5.143
REMARK INTER + INTRA:          -8.787
REMARK INTER:                  -8.025
REMARK INTRA:                  -0.762
REMARK UNBOUND:                -1.026
REMARK SMILES CCCCCCCCCCCC(=O)[O-]
REMARK SMILES IDX 7 1 8 2 9 3 10 4 11 5 12 6 13 7 14 8 6 9 5 10 4 11 3 12 2 13
REMARK SMILES IDX 1 14
REMARK H PARENT
REMARK Flexibility Score: inf
ROOT
ATOM      1  C   UNL     1       7.515  55.293  22.293  1.00  0.00     0.000 C 
ENDROOT
BRANCH   1   2
ATOM      2  C   UNL     1       7.271  54.014  23.111  1.00  0.00     0.000 C 
BRANCH   2   3
ATOM      3  C   UNL     1       8.325  53.808  24.214  1.00  0.00     0.000 C 
BRANCH   3   4
ATOM      4  C   UNL     1       9.540  54.742  24.056  1.00  0.00     0.006 C 
BRANCH   4   5
ATOM      5  C   UNL     1      10.845  54.026  23.674  1.00  0.00     0.053 C 
BRANCH   5   6
ATOM      6  C   UNL     1      10.671  53.141  22.478  1.00  0.00     0.041 C 
ATOM      7  O   UNL     1      10.561  53.642  21.328  1.00  0.00    -0.550 OA
ATOM      8  O   UNL     1      10.664  51.761  22.630  1.00  0.00    -0.550 OA
ENDBRANCH   5   6
ENDBRANCH   4   5
ENDBRANCH   3   4
ENDBRANCH   2   3
ENDBRANCH   1   2
BRANCH   1   9
ATOM      9  C   UNL     1       6.218  55.871  21.700  1.00  0.00     0.000 C 
BRANCH   9  10
ATOM     10  C   UNL     1       6.483  56.871  20.562  1.00  0.00    -0.000 C 
BRANCH  10  11
ATOM     11  C   UNL     1       7.804  56.591  19.824  1.00  0.00    -0.000 C 
BRANCH  11  12
ATOM     12  C   UNL     1       7.587  56.236  18.343  1.00  0.00    -0.000 C 
BRANCH  12  13
ATOM     13  C   UNL     1       7.379  54.732  18.117  1.00  0.00    -0.003 C 
ATOM     14  C   UNL     1       6.633  54.471  16.811  1.00  0.00     0.004 C 
ENDBRANCH  12  13
ENDBRANCH  11  12
ENDBRANCH  10  11
ENDBRANCH   9  10
ENDBRANCH   1   9
TORSDOF 10
ENDMDL
MODEL 4
REMARK VINA RESULT:    -4.862      1.075      2.343
REMARK INTER + INTRA:          -8.730
REMARK INTER:                  -7.749
REMARK INTRA:                  -0.981
REMARK UNBOUND:                -1.026
REMARK SMILES CCCCCCCCCCCC(=O)[O-]
REMARK SMILES IDX 7 1 8 2 9 3 10 4 11 5 12 6 13 7 14 8 6 9 5 10 4 11 3 12 2 13
REMARK SMILES IDX 1 14
REMARK H PARENT
REMARK Flexibility Score: inf
ROOT
ATOM      1  C   UNL     1       8.404  54.171  21.788  1.00  0.00     0.000 C 
ENDROOT
BRANCH   1   2
ATOM      2  C   UNL     1       8.028  55.659  21.879  1.00  0.00     0.000 C 
BRANCH   2   3
ATOM      3  C   UNL     1       6.659  55.962  21.246  1.00  0.00     0.000 C 
BRANCH   3   4
ATOM      4  C   UNL     1       6.758  56.916  20.041  1.00  0.00     0.006 C 
BRANCH   4   5
ATOM      5  C   UNL     1       7.846  56.541  19.022  1.00  0.00     0.053 C 
BRANCH   5   6
ATOM      6  C   UNL     1       7.363  55.525  18.032  1.00  0.00     0.041 C 
ATOM      7  O   UNL     1       7.242  54.318  18.370  1.00  0.00    -0.550 OA
ATOM      8  O   UNL     1       7.014  55.918  16.747  1.00  0.00    -0.550 OA
ENDBRANCH   5   6
ENDBRANCH   4   5
ENDBRANCH   3   4
ENDBRANCH   2   3
ENDBRANCH   1   2
BRANCH   1   9
ATOM      9  C   UNL     1       9.641  53.928  20.905  1.00  0.00     0.000 C 
BRANCH   9  10
ATOM     10  C   UNL     1      10.822  53.337  21.692  1.00  0.00    -0.000 C 
BRANCH  10  11
ATOM     11  C   UNL     1      10.568  53.314  23.210  1.00  0.00    -0.000 C 
BRANCH  11  12
ATOM     12  C   UNL     1      11.327  54.427  23.951  1.00  0.00    -0.000 C 
BRANCH  12  13
ATOM     13  C   UNL     1      10.725  54.740  25.328  1.00  0.00    -0.003 C 
ATOM     14  C   UNL     1       9.200  54.685  25.285  1.00  0.00     0.004 C 
ENDBRANCH  12  13
ENDBRANCH  11  12
ENDBRANCH  10  11
ENDBRANCH   9  10
ENDBRANCH   1   9
TORSDOF 10
ENDMDL
MODEL 5
REMARK VINA RESULT:    -4.581      3.243      5.922
REMARK INTER + INTRA:          -8.286
REMARK INTER:                  -7.603
REMARK INTRA:                  -0.683
REMARK UNBOUND:                -1.026
REMARK SMILES CCCCCCCCCCCC(=O)[O-]
REMARK SMILES IDX 7 1 8 2 9 3 10 4 11 5 12 6 13 7 14 8 6 9 5 10 4 11 3 12 2 13
REMARK SMILES IDX 1 14
REMARK H PARENT
REMARK Flexibility Score: inf
ROOT
ATOM      1  C   UNL     1       6.386  55.895  21.697  1.00  0.00     0.000 C 
ENDROOT
BRANCH   1   2
ATOM      2  C   UNL     1       6.844  54.596  22.380  1.00  0.00     0.000 C 
BRANCH   2   3
ATOM      3  C   UNL     1       8.251  54.160  21.936  1.00  0.00     0.000 C 
BRANCH   3   4
ATOM      4  C   UNL     1       9.027  53.431  23.049  1.00  0.00     0.006 C 
BRANCH   4   5
ATOM      5  C   UNL     1      10.415  54.021  23.348  1.00  0.00     0.053 C 
BRANCH   5   6
ATOM      6  C   UNL     1      10.502  54.575  24.738  1.00  0.00     0.041 C 
ATOM      7  O   UNL     1       9.457  54.919  25.350  1.00  0.00    -0.550 OA
ATOM      8  O   UNL     1      11.734  54.679  25.368  1.00  0.00    -0.550 OA
ENDBRANCH   5   6
ENDBRANCH   4   5
ENDBRANCH   3   4
ENDBRANCH   2   3
ENDBRANCH   1   2
BRANCH   1   9
ATOM      9  C   UNL     1       7.544  56.643  21.013  1.00  0.00     0.000 C 
BRANCH   9  10
ATOM     10  C   UNL     1       7.327  56.810  19.500  1.00  0.00    -0.000 C 
BRANCH  10  11
ATOM     11  C   UNL     1       8.017  55.706  18.678  1.00  0.00    -0.000 C 
BRANCH  11  12
ATOM     12  C   UNL     1       7.143  54.450  18.529  1.00  0.00    -0.000 C 
BRANCH  12  13
ATOM     13  C   UNL     1       6.572  54.290  17.112  1.00  0.00    -0.003 C 
ATOM     14  C   UNL     1       6.940  55.484  16.234  1.00  0.00     0.004 C 
ENDBRANCH  12  13
ENDBRANCH  11  12
ENDBRANCH  10  11
ENDBRANCH   9  10
ENDBRANCH   1   9
TORSDOF 10
ENDMDL
MODEL 6
REMARK VINA RESULT:    -4.553      1.131      1.846
REMARK INTER + INTRA:          -8.241
REMARK INTER:                  -7.140
REMARK INTRA:                  -1.102
REMARK UNBOUND:                -1.026
REMARK SMILES CCCCCCCCCCCC(=O)[O-]
REMARK SMILES IDX 7 1 8 2 9 3 10 4 11 5 12 6 13 7 14 8 6 9 5 10 4 11 3 12 2 13
REMARK SMILES IDX 1 14
REMARK H PARENT
REMARK Flexibility Score: inf
ROOT
ATOM      1  C   UNL     1       8.310  54.079  24.432  1.00  0.00     0.000 C 
ENDROOT
BRANCH   1   2
ATOM      2  C   UNL     1       7.471  53.638  23.221  1.00  0.00     0.000 C 
BRANCH   2   3
ATOM      3  C   UNL     1       6.923  54.831  22.418  1.00  0.00     0.000 C 
BRANCH   3   4
ATOM      4  C   UNL     1       7.740  55.116  21.144  1.00  0.00     0.006 C 
BRANCH   4   5
ATOM      5  C   UNL     1       7.199  54.436  19.876  1.00  0.00     0.053 C 
BRANCH   5   6
ATOM      6  C   UNL     1       7.420  55.272  18.652  1.00  0.00     0.041 C 
ATOM      7  O   UNL     1       7.390  54.745  17.509  1.00  0.00    -0.550 OA
ATOM      8  O   UNL     1       7.627  56.640  18.773  1.00  0.00    -0.550 OA
ENDBRANCH   5   6
ENDBRANCH   4   5
ENDBRANCH   3   4
ENDBRANCH   2   3
ENDBRANCH   1   2
BRANCH   1   9
ATOM      9  C   UNL     1       9.072  55.392  24.177  1.00  0.00     0.000 C 
BRANCH   9  10
ATOM     10  C   UNL     1      10.597  55.218  24.271  1.00  0.00    -0.000 C 
BRANCH  10  11
ATOM     11  C   UNL     1      11.081  53.894  23.653  1.00  0.00    -0.000 C 
BRANCH  11  12
ATOM     12  C   UNL     1      11.057  53.918  22.116  1.00  0.00    -0.000 C 
BRANCH  12  13
ATOM     13  C   UNL     1      10.421  52.658  21.513  1.00  0.00    -0.003 C 
ATOM     14  C   UNL     1      10.500  51.484  22.486  1.00  0.00     0.004 C 
ENDBRANCH  12  13
ENDBRANCH  11  12
ENDBRANCH  10  11
ENDBRANCH   9  10
ENDBRANCH   1   9
TORSDOF 10
ENDMDL
MODEL 7
REMARK VINA RESULT:    -4.442      3.858      6.957
REMARK INTER + INTRA:          -8.065
REMARK INTER:                  -7.722
REMARK INTRA:                  -0.343
REMARK UNBOUND:                -1.026
REMARK SMILES CCCCCCCCCCCC(=O)[O-]
REMARK SMILES IDX 7 1 8 2 9 3 10 4 11 5 12 6 13 7 14 8 6 9 5 10 4 11 3 12 2 13
REMARK SMILES IDX 1 14
REMARK H PARENT
REMARK Flexibility Score: inf
ROOT
ATOM      1  C   UNL     1       7.054  55.521  21.155  1.00  0.00     0.000 C 
ENDROOT
BRANCH   1   2
ATOM      2  C   UNL     1       8.541  55.388  20.785  1.00  0.00     0.000 C 
BRANCH   2   3
ATOM      3  C   UNL     1       9.084  53.969  21.025  1.00  0.00     0.000 C 
BRANCH   3   4
ATOM      4  C   UNL     1      10.507  53.968  21.614  1.00  0.00     0.006 C 
BRANCH   4   5
ATOM      5  C   UNL     1      10.601  53.422  23.048  1.00  0.00     0.053 C 
BRANCH   5   6
ATOM      6  C   UNL     1      10.676  54.521  24.064  1.00  0.00     0.041 C 
ATOM      7  O   UNL     1      11.707  54.661  24.773  1.00  0.00    -0.550 OA
ATOM      8  O   UNL     1       9.619  55.411  24.203  1.00  0.00    -0.550 OA
ENDBRANCH   5   6
ENDBRANCH   4   5
ENDBRANCH   3   4
ENDBRANCH   2   3
ENDBRANCH   1   2
BRANCH   1   9
ATOM      9  C   UNL     1       6.494  56.923  20.856  1.00  0.00     0.000 C 
BRANCH   9  10
ATOM     10  C   UNL     1       5.024  57.076  21.284  1.00  0.00    -0.000 C 
BRANCH  10  11
ATOM     11  C   UNL     1       4.380  58.362  20.737  1.00  0.00    -0.000 C 
BRANCH  11  12
ATOM     12  C   UNL     1       3.305  58.929  21.679  1.00  0.00    -0.000 C 
BRANCH  12  13
ATOM     13  C   UNL     1       3.083  60.436  21.486  1.00  0.00    -0.003 C 
ATOM     14  C   UNL     1       2.910  60.781  20.009  1.00  0.00     0.004 C 
ENDBRANCH  12  13
ENDBRANCH  11  12
ENDBRANCH  10  11
ENDBRANCH   9  10
ENDBRANCH   1   9
TORSDOF 10
ENDMDL
MODEL 8
REMARK VINA RESULT:    -4.305      3.373      4.268
REMARK INTER + INTRA:          -7.848
REMARK INTER:                  -7.390
REMARK INTRA:                  -0.458
REMARK UNBOUND:                -1.026
REMARK SMILES CCCCCCCCCCCC(=O)[O-]
REMARK SMILES IDX 7 1 8 2 9 3 10 4 11 5 12 6 13 7 14 8 6 9 5 10 4 11 3 12 2 13
REMARK SMILES IDX 1 14
REMARK H PARENT
REMARK Flexibility Score: inf
ROOT
ATOM      1  C   UNL     1       7.755  55.822  19.392  1.00  0.00     0.000 C 
ENDROOT
BRANCH   1   2
ATOM      2  C   UNL     1       7.063  56.809  20.348  1.00  0.00     0.000 C 
BRANCH   2   3
ATOM      3  C   UNL     1       5.942  56.148  21.169  1.00  0.00     0.000 C 
BRANCH   3   4
ATOM      4  C   UNL     1       4.869  57.154  21.627  1.00  0.00     0.006 C 
BRANCH   4   5
ATOM      5  C   UNL     1       4.477  58.194  20.565  1.00  0.00     0.053 C 
BRANCH   5   6
ATOM      6  C   UNL     1       3.311  59.028  21.000  1.00  0.00     0.041 C 
ATOM      7  O   UNL     1       2.217  58.483  21.299  1.00  0.00    -0.550 OA
ATOM      8  O   UNL     1       3.445  60.406  21.108  1.00  0.00    -0.550 OA
ENDBRANCH   5   6
ENDBRANCH   4   5
ENDBRANCH   3   4
ENDBRANCH   2   3
ENDBRANCH   1   2
BRANCH   1   9
ATOM      9  C   UNL     1       8.081  54.478  20.067  1.00  0.00     0.000 C 
BRANCH   9  10
ATOM     10  C   UNL     1       9.310  54.563  20.988  1.00  0.00    -0.000 C 
BRANCH  10  11
ATOM     11  C   UNL     1       9.252  53.550  22.146  1.00  0.00    -0.000 C 
BRANCH  11  12
ATOM     12  C   UNL     1      10.484  53.631  23.061  1.00  0.00    -0.000 C 
BRANCH  12  13
ATOM     13  C   UNL     1      10.488  54.889  23.942  1.00  0.00    -0.003 C 
ATOM     14  C   UNL     1      11.274  54.655  25.229  1.00  0.00     0.004 C 
ENDBRANCH  12  13
ENDBRANCH  11  12
ENDBRANCH  10  11
ENDBRANCH   9  10
ENDBRANCH   1   9
TORSDOF 10
ENDMDL
MODEL 9
REMARK VINA RESULT:    -4.277      2.887      5.635
REMARK INTER + INTRA:          -7.803
REMARK INTER:                  -7.158
REMARK INTRA:                  -0.645
REMARK UNBOUND:                -1.026
REMARK SMILES CCCCCCCCCCCC(=O)[O-]
REMARK SMILES IDX 7 1 8 2 9 3 10 4 11 5 12 6 13 7 14 8 6 9 5 10 4 11 3 12 2 13
REMARK SMILES IDX 1 14
REMARK H PARENT
REMARK Flexibility Score: inf
ROOT
ATOM      1  C   UNL     1       9.204  54.387  20.835  1.00  0.00     0.000 C 
ENDROOT
BRANCH   1   2
ATOM      2  C   UNL     1      10.201  53.288  21.238  1.00  0.00     0.000 C 
BRANCH   2   3
ATOM      3  C   UNL     1       9.945  52.749  22.656  1.00  0.00     0.000 C 
BRANCH   3   4
ATOM      4  C   UNL     1       8.617  53.253  23.253  1.00  0.00     0.006 C 
BRANCH   4   5
ATOM      5  C   UNL     1       8.770  54.058  24.553  1.00  0.00     0.053 C 
BRANCH   5   6
ATOM      6  C   UNL     1       9.972  54.953  24.521  1.00  0.00     0.041 C 
ATOM      7  O   UNL     1       9.966  55.999  23.820  1.00  0.00    -0.550 OA
ATOM      8  O   UNL     1      11.085  54.649  25.293  1.00  0.00    -0.550 OA
ENDBRANCH   5   6
ENDBRANCH   4   5
ENDBRANCH   3   4
ENDBRANCH   2   3
ENDBRANCH   1   2
BRANCH   1   9
ATOM      9  C   UNL     1       8.501  54.085  19.499  1.00  0.00     0.000 C 
BRANCH   9  10
ATOM     10  C   UNL     1       7.484  55.171  19.108  1.00  0.00    -0.000 C 
BRANCH  10  11
ATOM     11  C   UNL     1       7.922  56.578  19.550  1.00  0.00    -0.000 C 
BRANCH  11  12
ATOM     12  C   UNL     1       7.396  56.947  20.947  1.00  0.00    -0.000 C 
BRANCH  12  13
ATOM     13  C   UNL     1       5.940  56.512  21.167  1.00  0.00    -0.003 C 
ATOM     14  C   UNL     1       5.861  55.327  22.126  1.00  0.00     0.004 C 
ENDBRANCH  12  13
ENDBRANCH  11  12
ENDBRANCH  10  11
ENDBRANCH   9  10
ENDBRANCH   1   9
TORSDOF 10
ENDMDL
