MODEL 1
REMARK VINA RESULT:    -3.779      0.000      0.000
REMARK INTER + INTRA:          -5.620
REMARK INTER:                  -5.104
REMARK INTRA:                  -0.516
REMARK UNBOUND:                -0.516
REMARK SMILES [NH3+]CCCC[C@@H]([NH3+])C(=O)[O-]
REMARK SMILES IDX 4 1 3 2 2 3 1 4 5 8 6 9 7 10 8 14 9 15 10 16
REMARK H PARENT 1 5 1 6 1 7 7 11 7 12 7 13
REMARK Flexibility Score: inf
ROOT
ATOM      1  C   UNL     1     -33.982  37.702  -3.450  1.00  0.00     0.012 C 
ENDROOT
BRANCH   1   2
ATOM      2  C   UNL     1     -33.979  39.228  -3.654  1.00  0.00     0.061 C 
BRANCH   2   3
ATOM      3  C   UNL     1     -33.739  39.626  -5.120  1.00  0.00     0.258 C 
BRANCH   3   4
ATOM      4  N   UNL     1     -32.314  39.687  -5.449  1.00  0.00    -0.358 N 
ATOM      5  H   UNL     1     -31.936  38.728  -5.614  1.00  0.00     0.344 HD
ATOM      6  H   UNL     1     -32.159  40.283  -6.296  1.00  0.00     0.344 HD
ATOM      7  H   UNL     1     -31.798  40.110  -4.644  1.00  0.00     0.344 HD
ENDBRANCH   3   4
ENDBRANCH   2   3
ENDBRANCH   1   2
BRANCH   1   8
ATOM      8  C   UNL     1     -33.151  37.273  -2.220  1.00  0.00     0.072 C 
BRANCH   8   9
ATOM      9  C   UNL     1     -31.808  38.022  -2.041  1.00  0.00     0.227 C 
BRANCH   9  10
ATOM     10  N   UNL     1     -31.407  38.119  -0.631  1.00  0.00    -0.350 N 
ATOM     11  H   UNL     1     -31.588  39.089  -0.284  1.00  0.00     0.345 HD
ATOM     12  H   UNL     1     -30.391  37.904  -0.508  1.00  0.00     0.345 HD
ATOM     13  H   UNL     1     -31.976  37.457  -0.055  1.00  0.00     0.345 HD
ENDBRANCH   9  10
BRANCH   9  14
ATOM     14  C   UNL     1     -30.719  37.411  -2.889  1.00  0.00     0.099 C 
ATOM     15  O   UNL     1     -30.305  37.989  -3.930  1.00  0.00    -0.544 OA
ATOM     16  O   UNL     1     -30.131  36.216  -2.494  1.00  0.00    -0.544 OA
ENDBRANCH   9  14
ENDBRANCH   8   9
ENDBRANCH   1   8
TORSDOF 7
ENDMDL
MODEL 2
REMARK VINA RESULT:    -3.558     16.154     17.342
REMARK INTER + INTRA:          -5.322
REMARK INTER:                  -5.247
REMARK INTRA:                  -0.075
REMARK UNBOUND:                -0.516
REMARK SMILES [NH3+]CCCC[C@@H]([NH3+])C(=O)[O-]
REMARK SMILES IDX 4 1 3 2 2 3 1 4 5 8 6 9 7 10 8 14 9 15 10 16
REMARK H PARENT 1 5 1 6 1 7 7 11 7 12 7 13
REMARK Flexibility Score: inf
ROOT
ATOM      1  C   UNL     1     -33.745  51.086 -13.821  1.00  0.00     0.012 C 
ENDROOT
BRANCH   1   2
ATOM      2  C   UNL     1     -34.125  52.453 -14.417  1.00  0.00     0.061 C 
BRANCH   2   3
ATOM      3  C   UNL     1     -34.117  53.577 -13.366  1.00  0.00     0.258 C 
BRANCH   3   4
ATOM      4  N   UNL     1     -33.519  54.810 -13.881  1.00  0.00    -0.358 N 
ATOM      5  H   UNL     1     -32.516  54.654 -14.128  1.00  0.00     0.344 HD
ATOM      6  H   UNL     1     -34.045  55.150 -14.719  1.00  0.00     0.344 HD
ATOM      7  H   UNL     1     -33.564  55.544 -13.137  1.00  0.00     0.344 HD
ENDBRANCH   3   4
ENDBRANCH   2   3
ENDBRANCH   1   2
BRANCH   1   8
ATOM      8  C   UNL     1     -34.058  49.919 -14.786  1.00  0.00     0.072 C 
BRANCH   8   9
ATOM      9  C   UNL     1     -32.932  48.868 -14.930  1.00  0.00     0.227 C 
BRANCH   9  10
ATOM     10  N   UNL     1     -33.341  47.544 -14.442  1.00  0.00    -0.350 N 
ATOM     11  H   UNL     1     -32.763  46.806 -14.910  1.00  0.00     0.345 HD
ATOM     12  H   UNL     1     -34.349  47.357 -14.647  1.00  0.00     0.345 HD
ATOM     13  H   UNL     1     -33.176  47.479 -13.411  1.00  0.00     0.345 HD
ENDBRANCH   9  10
BRANCH   9  14
ATOM     14  C   UNL     1     -32.414  48.804 -16.346  1.00  0.00     0.099 C 
ATOM     15  O   UNL     1     -33.144  48.390 -17.287  1.00  0.00    -0.544 OA
ATOM     16  O   UNL     1     -31.129  49.249 -16.628  1.00  0.00    -0.544 OA
ENDBRANCH   9  14
ENDBRANCH   8   9
ENDBRANCH   1   8
TORSDOF 7
ENDMDL
MODEL 3
REMARK VINA RESULT:    -3.296      1.667      2.068
REMARK INTER + INTRA:          -4.968
REMARK INTER:                  -4.557
REMARK INTRA:                  -0.411
REMARK UNBOUND:                -0.516
REMARK SMILES [NH3+]CCCC[C@@H]([NH3+])C(=O)[O-]
REMARK SMILES IDX 4 1 3 2 2 3 1 4 5 8 6 9 7 10 8 14 9 15 10 16
REMARK H PARENT 1 5 1 6 1 7 7 11 7 12 7 13
REMARK Flexibility Score: inf
ROOT
ATOM      1  C   UNL     1     -33.438  39.308  -2.532  1.00  0.00     0.012 C 
ENDROOT
BRANCH   1   2
ATOM      2  C   UNL     1     -34.125  40.196  -3.586  1.00  0.00     0.061 C 
BRANCH   2   3
ATOM      3  C   UNL     1     -33.813  39.750  -5.025  1.00  0.00     0.258 C 
BRANCH   3   4
ATOM      4  N   UNL     1     -32.374  39.689  -5.285  1.00  0.00    -0.358 N 
ATOM      5  H   UNL     1     -32.118  40.324  -6.073  1.00  0.00     0.344 HD
ATOM      6  H   UNL     1     -31.836  39.951  -4.426  1.00  0.00     0.344 HD
ATOM      7  H   UNL     1     -32.119  38.712  -5.554  1.00  0.00     0.344 HD
ENDBRANCH   3   4
ENDBRANCH   2   3
ENDBRANCH   1   2
BRANCH   1   8
ATOM      8  C   UNL     1     -34.095  37.914  -2.423  1.00  0.00     0.072 C 
BRANCH   8   9
ATOM      9  C   UNL     1     -33.155  36.720  -2.720  1.00  0.00     0.227 C 
BRANCH   9  10
ATOM     10  N   UNL     1     -33.410  36.125  -4.038  1.00  0.00    -0.350 N 
ATOM     11  H   UNL     1     -33.293  35.086  -3.980  1.00  0.00     0.345 HD
ATOM     12  H   UNL     1     -32.748  36.496  -4.758  1.00  0.00     0.345 HD
ATOM     13  H   UNL     1     -34.394  36.324  -4.333  1.00  0.00     0.345 HD
ENDBRANCH   9  10
BRANCH   9  14
ATOM     14  C   UNL     1     -31.706  37.105  -2.553  1.00  0.00     0.099 C 
ATOM     15  O   UNL     1     -31.106  36.921  -1.460  1.00  0.00    -0.544 OA
ATOM     16  O   UNL     1     -31.006  37.629  -3.633  1.00  0.00    -0.544 OA
ENDBRANCH   9  14
ENDBRANCH   8   9
ENDBRANCH   1   8
TORSDOF 7
ENDMDL
MODEL 4
REMARK VINA RESULT:    -3.162      2.633      4.562
REMARK INTER + INTRA:          -4.787
REMARK INTER:                  -4.680
REMARK INTRA:                  -0.107
REMARK UNBOUND:                -0.516
REMARK SMILES [NH3+]CCCC[C@@H]([NH3+])C(=O)[O-]
REMARK SMILES IDX 4 1 3 2 2 3 1 4 5 8 6 9 7 10 8 14 9 15 10 16
REMARK H PARENT 1 5 1 6 1 7 7 11 7 12 7 13
REMARK Flexibility Score: inf
ROOT
ATOM      1  C   UNL     1     -32.456  38.206  -3.677  1.00  0.00     0.012 C 
ENDROOT
BRANCH   1   2
ATOM      2  C   UNL     1     -32.247  36.872  -2.937  1.00  0.00     0.061 C 
BRANCH   2   3
ATOM      3  C   UNL     1     -30.807  36.701  -2.426  1.00  0.00     0.258 C 
BRANCH   3   4
ATOM      4  N   UNL     1     -30.764  36.242  -1.036  1.00  0.00    -0.358 N 
ATOM      5  H   UNL     1     -31.730  36.080  -0.676  1.00  0.00     0.344 HD
ATOM      6  H   UNL     1     -30.202  35.363  -0.959  1.00  0.00     0.344 HD
ATOM      7  H   UNL     1     -30.313  36.981  -0.449  1.00  0.00     0.344 HD
ENDBRANCH   3   4
ENDBRANCH   2   3
ENDBRANCH   1   2
BRANCH   1   8
ATOM      8  C   UNL     1     -33.839  38.285  -4.362  1.00  0.00     0.072 C 
BRANCH   8   9
ATOM      9  C   UNL     1     -34.125  39.609  -5.112  1.00  0.00     0.227 C 
BRANCH   9  10
ATOM     10  N   UNL     1     -33.858  40.789  -4.279  1.00  0.00    -0.350 N 
ATOM     11  H   UNL     1     -34.476  40.767  -3.434  1.00  0.00     0.345 HD
ATOM     12  H   UNL     1     -34.043  41.675  -4.804  1.00  0.00     0.345 HD
ATOM     13  H   UNL     1     -32.864  40.777  -3.954  1.00  0.00     0.345 HD
ENDBRANCH   9  10
BRANCH   9  14
ATOM     14  C   UNL     1     -33.380  39.672  -6.422  1.00  0.00     0.099 C 
ATOM     15  O   UNL     1     -33.855  39.148  -7.466  1.00  0.00    -0.544 OA
ATOM     16  O   UNL     1     -32.173  40.356  -6.494  1.00  0.00    -0.544 OA
ENDBRANCH   9  14
ENDBRANCH   8   9
ENDBRANCH   1   8
TORSDOF 7
ENDMDL
MODEL 5
REMARK VINA RESULT:    -3.010      2.110      2.445
REMARK INTER + INTRA:          -4.581
REMARK INTER:                  -4.423
REMARK INTRA:                  -0.158
REMARK UNBOUND:                -0.516
REMARK SMILES [NH3+]CCCC[C@@H]([NH3+])C(=O)[O-]
REMARK SMILES IDX 4 1 3 2 2 3 1 4 5 8 6 9 7 10 8 14 9 15 10 16
REMARK H PARENT 1 5 1 6 1 7 7 11 7 12 7 13
REMARK Flexibility Score: inf
ROOT
ATOM      1  C   UNL     1     -33.322  39.143  -3.449  1.00  0.00     0.012 C 
ENDROOT
BRANCH   1   2
ATOM      2  C   UNL     1     -34.124  38.875  -4.736  1.00  0.00     0.061 C 
BRANCH   2   3
ATOM      3  C   UNL     1     -33.595  39.678  -5.937  1.00  0.00     0.258 C 
BRANCH   3   4
ATOM      4  N   UNL     1     -33.614  38.896  -7.175  1.00  0.00    -0.358 N 
ATOM      5  H   UNL     1     -34.401  39.202  -7.788  1.00  0.00     0.344 HD
ATOM      6  H   UNL     1     -32.705  38.995  -7.684  1.00  0.00     0.344 HD
ATOM      7  H   UNL     1     -33.756  37.888  -6.936  1.00  0.00     0.344 HD
ENDBRANCH   3   4
ENDBRANCH   2   3
ENDBRANCH   1   2
BRANCH   1   8
ATOM      8  C   UNL     1     -32.043  38.279  -3.365  1.00  0.00     0.072 C 
BRANCH   8   9
ATOM      9  C   UNL     1     -31.964  37.341  -2.136  1.00  0.00     0.227 C 
BRANCH   9  10
ATOM     10  N   UNL     1     -31.437  38.025  -0.948  1.00  0.00    -0.350 N 
ATOM     11  H   UNL     1     -31.873  38.974  -0.870  1.00  0.00     0.345 HD
ATOM     12  H   UNL     1     -30.399  38.138  -1.002  1.00  0.00     0.345 HD
ATOM     13  H   UNL     1     -31.685  37.483  -0.088  1.00  0.00     0.345 HD
ENDBRANCH   9  10
BRANCH   9  14
ATOM     14  C   UNL     1     -33.293  36.684  -1.857  1.00  0.00     0.099 C 
ATOM     15  O   UNL     1     -33.982  37.011  -0.853  1.00  0.00    -0.544 OA
ATOM     16  O   UNL     1     -33.789  35.734  -2.742  1.00  0.00    -0.544 OA
ENDBRANCH   9  14
ENDBRANCH   8   9
ENDBRANCH   1   8
TORSDOF 7
ENDMDL
MODEL 6
REMARK VINA RESULT:    -2.945      2.477      3.878
REMARK INTER + INTRA:          -4.494
REMARK INTER:                  -4.335
REMARK INTRA:                  -0.159
REMARK UNBOUND:                -0.516
REMARK SMILES [NH3+]CCCC[C@@H]([NH3+])C(=O)[O-]
REMARK SMILES IDX 4 1 3 2 2 3 1 4 5 8 6 9 7 10 8 14 9 15 10 16
REMARK H PARENT 1 5 1 6 1 7 7 11 7 12 7 13
REMARK Flexibility Score: inf
ROOT
ATOM      1  C   UNL     1     -31.868  38.470  -2.068  1.00  0.00     0.012 C 
ENDROOT
BRANCH   1   2
ATOM      2  C   UNL     1     -31.223  37.120  -1.705  1.00  0.00     0.061 C 
BRANCH   2   3
ATOM      3  C   UNL     1     -30.407  36.526  -2.866  1.00  0.00     0.258 C 
BRANCH   3   4
ATOM      4  N   UNL     1     -29.766  37.563  -3.677  1.00  0.00    -0.358 N 
ATOM      5  H   UNL     1     -28.755  37.343  -3.818  1.00  0.00     0.344 HD
ATOM      6  H   UNL     1     -30.245  37.652  -4.603  1.00  0.00     0.344 HD
ATOM      7  H   UNL     1     -29.836  38.477  -3.175  1.00  0.00     0.344 HD
ENDBRANCH   3   4
ENDBRANCH   2   3
ENDBRANCH   1   2
BRANCH   1   8
ATOM      8  C   UNL     1     -33.412  38.410  -2.035  1.00  0.00     0.072 C 
BRANCH   8   9
ATOM      9  C   UNL     1     -34.125  39.267  -3.109  1.00  0.00     0.227 C 
BRANCH   9  10
ATOM     10  N   UNL     1     -33.844  40.701  -2.953  1.00  0.00    -0.350 N 
ATOM     11  H   UNL     1     -32.909  40.825  -2.499  1.00  0.00     0.345 HD
ATOM     12  H   UNL     1     -34.568  41.168  -2.360  1.00  0.00     0.345 HD
ATOM     13  H   UNL     1     -33.812  41.160  -3.892  1.00  0.00     0.345 HD
ENDBRANCH   9  10
BRANCH   9  14
ATOM     14  C   UNL     1     -33.805  38.785  -4.502  1.00  0.00     0.099 C 
ATOM     15  O   UNL     1     -33.778  37.555  -4.774  1.00  0.00    -0.544 OA
ATOM     16  O   UNL     1     -33.579  39.711  -5.513  1.00  0.00    -0.544 OA
ENDBRANCH   9  14
ENDBRANCH   8   9
ENDBRANCH   1   8
TORSDOF 7
ENDMDL
MODEL 7
REMARK VINA RESULT:    -2.833     15.982     16.976
REMARK INTER + INTRA:          -4.342
REMARK INTER:                  -4.268
REMARK INTRA:                  -0.074
REMARK UNBOUND:                -0.516
REMARK SMILES [NH3+]CCCC[C@@H]([NH3+])C(=O)[O-]
REMARK SMILES IDX 4 1 3 2 2 3 1 4 5 8 6 9 7 10 8 14 9 15 10 16
REMARK H PARENT 1 5 1 6 1 7 7 11 7 12 7 13
REMARK Flexibility Score: inf
ROOT
ATOM      1  C   UNL     1     -33.123  48.414 -16.981  1.00  0.00     0.012 C 
ENDROOT
BRANCH   1   2
ATOM      2  C   UNL     1     -31.737  49.060 -17.157  1.00  0.00     0.061 C 
BRANCH   2   3
ATOM      3  C   UNL     1     -30.679  48.059 -17.651  1.00  0.00     0.258 C 
BRANCH   3   4
ATOM      4  N   UNL     1     -31.192  47.194 -18.715  1.00  0.00    -0.358 N 
ATOM      5  H   UNL     1     -32.078  47.583 -19.107  1.00  0.00     0.344 HD
ATOM      6  H   UNL     1     -30.480  47.088 -19.475  1.00  0.00     0.344 HD
ATOM      7  H   UNL     1     -31.396  46.250 -18.314  1.00  0.00     0.344 HD
ENDBRANCH   3   4
ENDBRANCH   2   3
ENDBRANCH   1   2
BRANCH   1   8
ATOM      8  C   UNL     1     -34.123  49.356 -16.274  1.00  0.00     0.072 C 
BRANCH   8   9
ATOM      9  C   UNL     1     -34.125  49.271 -14.728  1.00  0.00     0.227 C 
BRANCH   9  10
ATOM     10  N   UNL     1     -33.888  47.903 -14.246  1.00  0.00    -0.350 N 
ATOM     11  H   UNL     1     -33.946  47.235 -15.050  1.00  0.00     0.345 HD
ATOM     12  H   UNL     1     -34.596  47.625 -13.528  1.00  0.00     0.345 HD
ATOM     13  H   UNL     1     -32.928  47.833 -13.835  1.00  0.00     0.345 HD
ENDBRANCH   9  10
BRANCH   9  14
ATOM     14  C   UNL     1     -33.153  50.252 -14.120  1.00  0.00     0.099 C 
ATOM     15  O   UNL     1     -33.529  51.399 -13.757  1.00  0.00    -0.544 OA
ATOM     16  O   UNL     1     -31.833  49.872 -13.915  1.00  0.00    -0.544 OA
ENDBRANCH   9  14
ENDBRANCH   8   9
ENDBRANCH   1   8
TORSDOF 7
ENDMDL
