MODEL 1
REMARK VINA RESULT:    -4.674      0.000      0.000
REMARK INTER + INTRA:          -9.046
REMARK INTER:                  -7.270
REMARK INTRA:                  -1.777
REMARK UNBOUND:                -1.777
REMARK SMILES COc1cc(CNC(=O)CCCCC=CC(C)C)ccc1O
REMARK SMILES IDX 11 1 12 2 13 3 14 4 15 5 16 6 17 7 18 8 10 9 8 10 9 11 7 12
REMARK SMILES IDX 6 14 5 15 4 16 19 17 3 18 20 19 21 20 2 21 1 22 22 23
REMARK H PARENT 7 13 22 24
REMARK Flexibility Score: inf
ROOT
ATOM      1  C   UNL     1       0.488   8.625   6.113  1.00  0.00     0.010 C 
ENDROOT
BRANCH   1   2
ATOM      2  C   UNL     1       0.020   8.616   4.653  1.00  0.00     0.005 C 
BRANCH   2   3
ATOM      3  C   UNL     1       0.079   7.197   4.069  1.00  0.00     0.027 C 
BRANCH   3   4
ATOM      4  C   UNL     1       0.670   7.212   2.687  1.00  0.00    -0.031 C 
ATOM      5  C   UNL     1       1.493   6.237   2.268  1.00  0.00    -0.028 C 
BRANCH   5   6
ATOM      6  C   UNL     1       2.087   6.256   0.879  1.00  0.00     0.005 C 
ATOM      7  C   UNL     1       2.381   7.698   0.446  1.00  0.00     0.012 C 
ATOM      8  C   UNL     1       1.139   5.577  -0.118  1.00  0.00     0.012 C 
ENDBRANCH   5   6
ENDBRANCH   3   4
ENDBRANCH   2   3
ENDBRANCH   1   2
BRANCH   1   9
ATOM      9  C   UNL     1       1.699   7.707   6.308  1.00  0.00     0.100 C 
BRANCH   9  10
ATOM     10  C   UNL     1       2.937   8.377   5.797  1.00  0.00     0.220 C 
ATOM     11  O   UNL     1       3.225   9.539   6.201  1.00  0.00    -0.275 OA
ATOM     12  N   UNL     1       3.748   7.730   4.802  1.00  0.00    -0.352 N 
ATOM     13  H   UNL     1       3.567   6.726   4.569  1.00  0.00     0.163 HD
BRANCH  12  14
ATOM     14  C   UNL     1       4.682   8.473   3.960  1.00  0.00     0.151 C 
BRANCH  14  15
ATOM     15  C   UNL     1       5.148   7.600   2.829  1.00  0.00    -0.025 A 
ATOM     16  C   UNL     1       5.641   8.183   1.652  1.00  0.00     0.056 A 
ATOM     17  C   UNL     1       5.164   6.204   2.968  1.00  0.00     0.009 A 
ATOM     18  C   UNL     1       6.138   7.377   0.608  1.00  0.00     0.160 A 
ATOM     19  C   UNL     1       5.650   5.399   1.934  1.00  0.00     0.050 A 
ATOM     20  C   UNL     1       6.134   5.981   0.756  1.00  0.00     0.157 A 
BRANCH  18  21
ATOM     21  O   UNL     1       6.647   7.923  -0.583  1.00  0.00    -0.493 OA
ATOM     22  C   UNL     1       7.996   8.348  -0.766  1.00  0.00     0.278 C 
ENDBRANCH  18  21
BRANCH  20  23
ATOM     23  O   UNL     1       6.624   5.178  -0.275  1.00  0.00    -0.504 OA
ATOM     24  H   UNL     1       7.483   5.408  -0.763  1.00  0.00     0.293 HD
ENDBRANCH  20  23
ENDBRANCH  14  15
ENDBRANCH  12  14
ENDBRANCH   9  10
ENDBRANCH   1   9
TORSDOF 10
ENDMDL
MODEL 2
REMARK VINA RESULT:    -4.532      2.523      5.032
REMARK INTER + INTRA:          -8.826
REMARK INTER:                  -8.007
REMARK INTRA:                  -0.818
REMARK UNBOUND:                -1.777
REMARK SMILES COc1cc(CNC(=O)CCCCC=CC(C)C)ccc1O
REMARK SMILES IDX 11 1 12 2 13 3 14 4 15 5 16 6 17 7 18 8 10 9 8 10 9 11 7 12
REMARK SMILES IDX 6 14 5 15 4 16 19 17 3 18 20 19 21 20 2 21 1 22 22 23
REMARK H PARENT 7 13 22 24
REMARK Flexibility Score: inf
ROOT
ATOM      1  C   UNL     1       1.088   6.028   2.285  1.00  0.00     0.010 C 
ENDROOT
BRANCH   1   2
ATOM      2  C   UNL     1       1.019   7.423   2.917  1.00  0.00     0.005 C 
BRANCH   2   3
ATOM      3  C   UNL     1      -0.148   7.515   3.912  1.00  0.00     0.027 C 
BRANCH   3   4
ATOM      4  C   UNL     1       0.350   7.847   5.291  1.00  0.00    -0.031 C 
ATOM      5  C   UNL     1       1.552   7.432   5.720  1.00  0.00    -0.028 C 
BRANCH   5   6
ATOM      6  C   UNL     1       2.048   7.766   7.108  1.00  0.00     0.005 C 
ATOM      7  C   UNL     1       2.378   6.480   7.877  1.00  0.00     0.012 C 
ATOM      8  C   UNL     1       1.002   8.593   7.864  1.00  0.00     0.012 C 
ENDBRANCH   5   6
ENDBRANCH   3   4
ENDBRANCH   2   3
ENDBRANCH   1   2
BRANCH   1   9
ATOM      9  C   UNL     1       1.529   6.109   0.820  1.00  0.00     0.100 C 
BRANCH   9  10
ATOM     10  C   UNL     1       2.867   6.777   0.724  1.00  0.00     0.220 C 
ATOM     11  O   UNL     1       2.963   7.892   0.139  1.00  0.00    -0.275 OA
ATOM     12  N   UNL     1       4.039   6.118   1.232  1.00  0.00    -0.352 N 
ATOM     13  H   UNL     1       3.928   5.259   1.819  1.00  0.00     0.163 HD
BRANCH  12  14
ATOM     14  C   UNL     1       5.384   6.484   0.796  1.00  0.00     0.151 C 
BRANCH  14  15
ATOM     15  C   UNL     1       6.401   5.778   1.648  1.00  0.00    -0.025 A 
ATOM     16  C   UNL     1       5.986   5.029   2.759  1.00  0.00     0.056 A 
ATOM     17  C   UNL     1       7.760   5.799   1.297  1.00  0.00     0.009 A 
ATOM     18  C   UNL     1       6.923   4.312   3.529  1.00  0.00     0.160 A 
ATOM     19  C   UNL     1       8.694   5.095   2.061  1.00  0.00     0.050 A 
ATOM     20  C   UNL     1       8.281   4.355   3.175  1.00  0.00     0.157 A 
BRANCH  18  21
ATOM     21  O   UNL     1       6.546   3.545   4.646  1.00  0.00    -0.493 OA
ATOM     22  C   UNL     1       6.477   4.039   5.981  1.00  0.00     0.278 C 
ENDBRANCH  18  21
BRANCH  20  23
ATOM     23  O   UNL     1       9.213   3.648   3.935  1.00  0.00    -0.504 OA
ATOM     24  H   UNL     1      10.159   3.990   4.064  1.00  0.00     0.293 HD
ENDBRANCH  20  23
ENDBRANCH  14  15
ENDBRANCH  12  14
ENDBRANCH   9  10
ENDBRANCH   1   9
TORSDOF 10
ENDMDL
MODEL 3
REMARK VINA RESULT:    -4.521      3.848      6.077
REMARK INTER + INTRA:          -8.808
REMARK INTER:                  -7.943
REMARK INTRA:                  -0.865
REMARK UNBOUND:                -1.777
REMARK SMILES COc1cc(CNC(=O)CCCCC=CC(C)C)ccc1O
REMARK SMILES IDX 11 1 12 2 13 3 14 4 15 5 16 6 17 7 18 8 10 9 8 10 9 11 7 12
REMARK SMILES IDX 6 14 5 15 4 16 19 17 3 18 20 19 21 20 2 21 1 22 22 23
REMARK H PARENT 7 13 22 24
REMARK Flexibility Score: inf
ROOT
ATOM      1  C   UNL     1       6.215   4.906   2.809  1.00  0.00     0.010 C 
ENDROOT
BRANCH   1   2
ATOM      2  C   UNL     1       5.670   4.916   1.377  1.00  0.00     0.005 C 
BRANCH   2   3
ATOM      3  C   UNL     1       5.135   6.307   1.006  1.00  0.00     0.027 C 
BRANCH   3   4
ATOM      4  C   UNL     1       3.635   6.294   0.905  1.00  0.00    -0.031 C 
ATOM      5  C   UNL     1       2.866   6.863   1.847  1.00  0.00    -0.028 C 
BRANCH   5   6
ATOM      6  C   UNL     1       1.358   6.845   1.744  1.00  0.00     0.005 C 
ATOM      7  C   UNL     1       0.746   6.233   3.010  1.00  0.00     0.012 C 
ATOM      8  C   UNL     1       0.917   6.064   0.500  1.00  0.00     0.012 C 
ENDBRANCH   5   6
ENDBRANCH   3   4
ENDBRANCH   2   3
ENDBRANCH   1   2
BRANCH   1   9
ATOM      9  C   UNL     1       7.674   4.438   2.841  1.00  0.00     0.100 C 
BRANCH   9  10
ATOM     10  C   UNL     1       8.529   5.377   2.046  1.00  0.00     0.220 C 
ATOM     11  O   UNL     1       8.659   6.573   2.430  1.00  0.00    -0.275 OA
ATOM     12  N   UNL     1       9.135   4.936   0.819  1.00  0.00    -0.352 N 
ATOM     13  H   UNL     1       9.120   3.917   0.579  1.00  0.00     0.163 HD
BRANCH  12  14
ATOM     14  C   UNL     1       9.594   5.875  -0.200  1.00  0.00     0.151 C 
BRANCH  14  15
ATOM     15  C   UNL     1       9.189   5.383  -1.561  1.00  0.00    -0.025 A 
ATOM     16  C   UNL     1       9.839   4.276  -2.127  1.00  0.00     0.056 A 
ATOM     17  C   UNL     1       8.114   5.976  -2.241  1.00  0.00     0.009 A 
ATOM     18  C   UNL     1       9.428   3.767  -3.375  1.00  0.00     0.160 A 
ATOM     19  C   UNL     1       7.707   5.479  -3.482  1.00  0.00     0.050 A 
ATOM     20  C   UNL     1       8.361   4.379  -4.051  1.00  0.00     0.157 A 
BRANCH  18  21
ATOM     21  O   UNL     1      10.049   2.655  -3.972  1.00  0.00    -0.493 OA
ATOM     22  C   UNL     1       9.881   1.306  -3.540  1.00  0.00     0.278 C 
ENDBRANCH  18  21
BRANCH  20  23
ATOM     23  O   UNL     1       7.951   3.880  -5.287  1.00  0.00    -0.504 OA
ATOM     24  H   UNL     1       8.241   2.963  -5.610  1.00  0.00     0.293 HD
ENDBRANCH  20  23
ENDBRANCH  14  15
ENDBRANCH  12  14
ENDBRANCH   9  10
ENDBRANCH   1   9
TORSDOF 10
ENDMDL
MODEL 4
REMARK VINA RESULT:    -4.519      2.050      2.543
REMARK INTER + INTRA:          -8.805
REMARK INTER:                  -7.323
REMARK INTRA:                  -1.482
REMARK UNBOUND:                -1.777
REMARK SMILES COc1cc(CNC(=O)CCCCC=CC(C)C)ccc1O
REMARK SMILES IDX 11 1 12 2 13 3 14 4 15 5 16 6 17 7 18 8 10 9 8 10 9 11 7 12
REMARK SMILES IDX 6 14 5 15 4 16 19 17 3 18 20 19 21 20 2 21 1 22 22 23
REMARK H PARENT 7 13 22 24
REMARK Flexibility Score: inf
ROOT
ATOM      1  C   UNL     1       0.329   8.309   5.842  1.00  0.00     0.010 C 
ENDROOT
BRANCH   1   2
ATOM      2  C   UNL     1      -0.084   7.517   4.597  1.00  0.00     0.005 C 
BRANCH   2   3
ATOM      3  C   UNL     1      -0.276   8.453   3.394  1.00  0.00     0.027 C 
BRANCH   3   4
ATOM      4  C   UNL     1       0.558   8.002   2.227  1.00  0.00    -0.031 C 
ATOM      5  C   UNL     1       1.119   6.783   2.198  1.00  0.00    -0.028 C 
BRANCH   5   6
ATOM      6  C   UNL     1       1.959   6.334   1.025  1.00  0.00     0.005 C 
ATOM      7  C   UNL     1       2.677   7.534   0.395  1.00  0.00     0.012 C 
ATOM      8  C   UNL     1       1.087   5.621  -0.016  1.00  0.00     0.012 C 
ENDBRANCH   5   6
ENDBRANCH   3   4
ENDBRANCH   2   3
ENDBRANCH   1   2
BRANCH   1   9
ATOM      9  C   UNL     1       1.729   7.903   6.314  1.00  0.00     0.100 C 
BRANCH   9  10
ATOM     10  C   UNL     1       2.759   8.404   5.348  1.00  0.00     0.220 C 
ATOM     11  O   UNL     1       2.732   9.613   4.985  1.00  0.00    -0.275 OA
ATOM     12  N   UNL     1       3.723   7.497   4.788  1.00  0.00    -0.352 N 
ATOM     13  H   UNL     1       3.811   6.533   5.188  1.00  0.00     0.163 HD
BRANCH  12  14
ATOM     14  C   UNL     1       4.445   7.797   3.555  1.00  0.00     0.151 C 
BRANCH  14  15
ATOM     15  C   UNL     1       5.493   6.747   3.313  1.00  0.00    -0.025 A 
ATOM     16  C   UNL     1       6.580   6.627   4.192  1.00  0.00     0.056 A 
ATOM     17  C   UNL     1       5.355   5.834   2.256  1.00  0.00     0.009 A 
ATOM     18  C   UNL     1       7.536   5.608   4.011  1.00  0.00     0.160 A 
ATOM     19  C   UNL     1       6.303   4.826   2.069  1.00  0.00     0.050 A 
ATOM     20  C   UNL     1       7.393   4.711   2.941  1.00  0.00     0.157 A 
BRANCH  18  21
ATOM     21  O   UNL     1       8.636   5.451   4.874  1.00  0.00    -0.493 OA
ATOM     22  C   UNL     1       9.405   6.526   5.408  1.00  0.00     0.278 C 
ENDBRANCH  18  21
BRANCH  20  23
ATOM     23  O   UNL     1       8.337   3.701   2.757  1.00  0.00    -0.504 OA
ATOM     24  H   UNL     1       8.724   3.499   1.841  1.00  0.00     0.293 HD
ENDBRANCH  20  23
ENDBRANCH  14  15
ENDBRANCH  12  14
ENDBRANCH   9  10
ENDBRANCH   1   9
TORSDOF 10
ENDMDL
MODEL 5
REMARK VINA RESULT:    -4.515      2.242      4.419
REMARK INTER + INTRA:          -8.799
REMARK INTER:                  -7.130
REMARK INTRA:                  -1.669
REMARK UNBOUND:                -1.777
REMARK SMILES COc1cc(CNC(=O)CCCCC=CC(C)C)ccc1O
REMARK SMILES IDX 11 1 12 2 13 3 14 4 15 5 16 6 17 7 18 8 10 9 8 10 9 11 7 12
REMARK SMILES IDX 6 14 5 15 4 16 19 17 3 18 20 19 21 20 2 21 1 22 22 23
REMARK H PARENT 7 13 22 24
REMARK Flexibility Score: inf
ROOT
ATOM      1  C   UNL     1       4.415   7.482   6.346  1.00  0.00     0.010 C 
ENDROOT
BRANCH   1   2
ATOM      2  C   UNL     1       5.167   8.248   5.252  1.00  0.00     0.005 C 
BRANCH   2   3
ATOM      3  C   UNL     1       4.374   8.238   3.936  1.00  0.00     0.027 C 
BRANCH   3   4
ATOM      4  C   UNL     1       4.615   6.963   3.177  1.00  0.00    -0.031 C 
ATOM      5  C   UNL     1       5.723   6.231   3.372  1.00  0.00    -0.028 C 
BRANCH   5   6
ATOM      6  C   UNL     1       5.963   4.951   2.605  1.00  0.00     0.005 C 
ATOM      7  C   UNL     1       7.450   4.575   2.650  1.00  0.00     0.012 C 
ATOM      8  C   UNL     1       5.489   5.101   1.154  1.00  0.00     0.012 C 
ENDBRANCH   5   6
ENDBRANCH   3   4
ENDBRANCH   2   3
ENDBRANCH   1   2
BRANCH   1   9
ATOM      9  C   UNL     1       3.260   8.318   6.909  1.00  0.00     0.100 C 
BRANCH   9  10
ATOM     10  C   UNL     1       1.949   7.733   6.480  1.00  0.00     0.220 C 
ATOM     11  O   UNL     1       1.654   6.554   6.824  1.00  0.00    -0.275 OA
ATOM     12  N   UNL     1       1.071   8.484   5.625  1.00  0.00    -0.352 N 
ATOM     13  H   UNL     1       1.270   9.496   5.451  1.00  0.00     0.163 HD
BRANCH  12  14
ATOM     14  C   UNL     1       0.027   7.842   4.831  1.00  0.00     0.151 C 
BRANCH  14  15
ATOM     15  C   UNL     1       0.547   7.552   3.451  1.00  0.00    -0.025 A 
ATOM     16  C   UNL     1       0.958   8.607   2.622  1.00  0.00     0.056 A 
ATOM     17  C   UNL     1       0.694   6.228   3.010  1.00  0.00     0.009 A 
ATOM     18  C   UNL     1       1.504   8.345   1.350  1.00  0.00     0.160 A 
ATOM     19  C   UNL     1       1.228   5.963   1.747  1.00  0.00     0.050 A 
ATOM     20  C   UNL     1       1.632   7.016   0.916  1.00  0.00     0.157 A 
BRANCH  18  21
ATOM     21  O   UNL     1       1.935   9.374   0.493  1.00  0.00    -0.493 OA
ATOM     22  C   UNL     1       3.277   9.849   0.412  1.00  0.00     0.278 C 
ENDBRANCH  18  21
BRANCH  20  23
ATOM     23  O   UNL     1       2.171   6.751  -0.343  1.00  0.00    -0.504 OA
ATOM     24  H   UNL     1       1.938   7.322  -1.149  1.00  0.00     0.293 HD
ENDBRANCH  20  23
ENDBRANCH  14  15
ENDBRANCH  12  14
ENDBRANCH   9  10
ENDBRANCH   1   9
TORSDOF 10
ENDMDL
MODEL 6
REMARK VINA RESULT:    -4.458      2.492      5.194
REMARK INTER + INTRA:          -8.710
REMARK INTER:                  -7.099
REMARK INTRA:                  -1.612
REMARK UNBOUND:                -1.777
REMARK SMILES COc1cc(CNC(=O)CCCCC=CC(C)C)ccc1O
REMARK SMILES IDX 11 1 12 2 13 3 14 4 15 5 16 6 17 7 18 8 10 9 8 10 9 11 7 12
REMARK SMILES IDX 6 14 5 15 4 16 19 17 3 18 20 19 21 20 2 21 1 22 22 23
REMARK H PARENT 7 13 22 24
REMARK Flexibility Score: inf
ROOT
ATOM      1  C   UNL     1       0.809   7.931   2.092  1.00  0.00     0.010 C 
ENDROOT
BRANCH   1   2
ATOM      2  C   UNL     1       0.715   6.951   3.267  1.00  0.00     0.005 C 
BRANCH   2   3
ATOM      3  C   UNL     1      -0.187   7.513   4.376  1.00  0.00     0.027 C 
BRANCH   3   4
ATOM      4  C   UNL     1       0.629   7.948   5.561  1.00  0.00    -0.031 C 
ATOM      5  C   UNL     1       1.562   7.146   6.100  1.00  0.00    -0.028 C 
BRANCH   5   6
ATOM      6  C   UNL     1       2.378   7.585   7.294  1.00  0.00     0.005 C 
ATOM      7  C   UNL     1       3.110   6.385   7.908  1.00  0.00     0.012 C 
ATOM      8  C   UNL     1       1.479   8.259   8.337  1.00  0.00     0.012 C 
ENDBRANCH   5   6
ENDBRANCH   3   4
ENDBRANCH   2   3
ENDBRANCH   1   2
BRANCH   1   9
ATOM      9  C   UNL     1       0.713   7.194   0.752  1.00  0.00     0.100 C 
BRANCH   9  10
ATOM     10  C   UNL     1       1.972   6.422   0.501  1.00  0.00     0.220 C 
ATOM     11  O   UNL     1       1.902   5.268  -0.007  1.00  0.00    -0.275 OA
ATOM     12  N   UNL     1       3.242   6.964   0.903  1.00  0.00    -0.352 N 
ATOM     13  H   UNL     1       3.297   7.964   1.207  1.00  0.00     0.163 HD
BRANCH  12  14
ATOM     14  C   UNL     1       4.419   6.121   1.095  1.00  0.00     0.151 C 
BRANCH  14  15
ATOM     15  C   UNL     1       4.911   6.253   2.509  1.00  0.00    -0.025 A 
ATOM     16  C   UNL     1       5.871   5.357   3.002  1.00  0.00     0.056 A 
ATOM     17  C   UNL     1       4.473   7.312   3.319  1.00  0.00     0.009 A 
ATOM     18  C   UNL     1       6.386   5.506   4.305  1.00  0.00     0.160 A 
ATOM     19  C   UNL     1       4.975   7.461   4.614  1.00  0.00     0.050 A 
ATOM     20  C   UNL     1       5.927   6.562   5.109  1.00  0.00     0.157 A 
BRANCH  18  21
ATOM     21  O   UNL     1       7.354   4.634   4.834  1.00  0.00    -0.493 OA
ATOM     22  C   UNL     1       7.063   3.385   5.457  1.00  0.00     0.278 C 
ENDBRANCH  18  21
BRANCH  20  23
ATOM     23  O   UNL     1       6.432   6.714   6.401  1.00  0.00    -0.504 OA
ATOM     24  H   UNL     1       6.905   5.953   6.877  1.00  0.00     0.293 HD
ENDBRANCH  20  23
ENDBRANCH  14  15
ENDBRANCH  12  14
ENDBRANCH   9  10
ENDBRANCH   1   9
TORSDOF 10
ENDMDL
MODEL 7
REMARK VINA RESULT:    -4.457      4.839      7.278
REMARK INTER + INTRA:          -8.709
REMARK INTER:                  -7.928
REMARK INTRA:                  -0.781
REMARK UNBOUND:                -1.777
REMARK SMILES COc1cc(CNC(=O)CCCCC=CC(C)C)ccc1O
REMARK SMILES IDX 11 1 12 2 13 3 14 4 15 5 16 6 17 7 18 8 10 9 8 10 9 11 7 12
REMARK SMILES IDX 6 14 5 15 4 16 19 17 3 18 20 19 21 20 2 21 1 22 22 23
REMARK H PARENT 7 13 22 24
REMARK Flexibility Score: inf
ROOT
ATOM      1  C   UNL     1       6.723   5.413   0.187  1.00  0.00     0.010 C 
ENDROOT
BRANCH   1   2
ATOM      2  C   UNL     1       5.760   4.965   1.292  1.00  0.00     0.005 C 
BRANCH   2   3
ATOM      3  C   UNL     1       5.310   6.162   2.143  1.00  0.00     0.027 C 
BRANCH   3   4
ATOM      4  C   UNL     1       3.813   6.307   2.112  1.00  0.00    -0.031 C 
ATOM      5  C   UNL     1       3.135   6.313   0.953  1.00  0.00    -0.028 C 
BRANCH   5   6
ATOM      6  C   UNL     1       1.631   6.462   0.926  1.00  0.00     0.005 C 
ATOM      7  C   UNL     1       1.037   6.104   2.294  1.00  0.00     0.012 C 
ATOM      8  C   UNL     1       1.027   5.579  -0.172  1.00  0.00     0.012 C 
ENDBRANCH   5   6
ENDBRANCH   3   4
ENDBRANCH   2   3
ENDBRANCH   1   2
BRANCH   1   9
ATOM      9  C   UNL     1       7.920   6.169   0.774  1.00  0.00     0.100 C 
BRANCH   9  10
ATOM     10  C   UNL     1       9.125   5.971  -0.095  1.00  0.00     0.220 C 
ATOM     11  O   UNL     1      10.007   6.873  -0.147  1.00  0.00    -0.275 OA
ATOM     12  N   UNL     1       9.237   4.795  -0.914  1.00  0.00    -0.352 N 
ATOM     13  H   UNL     1       8.566   4.005  -0.769  1.00  0.00     0.163 HD
BRANCH  12  14
ATOM     14  C   UNL     1      10.123   4.740  -2.074  1.00  0.00     0.151 C 
BRANCH  14  15
ATOM     15  C   UNL     1       9.391   4.139  -3.241  1.00  0.00    -0.025 A 
ATOM     16  C   UNL     1       9.628   2.804  -3.603  1.00  0.00     0.056 A 
ATOM     17  C   UNL     1       8.418   4.879  -3.928  1.00  0.00     0.009 A 
ATOM     18  C   UNL     1       8.905   2.210  -4.657  1.00  0.00     0.160 A 
ATOM     19  C   UNL     1       7.702   4.298  -4.977  1.00  0.00     0.050 A 
ATOM     20  C   UNL     1       7.944   2.968  -5.344  1.00  0.00     0.157 A 
BRANCH  18  21
ATOM     21  O   UNL     1       9.107   0.874  -5.045  1.00  0.00    -0.493 OA
ATOM     22  C   UNL     1       9.990  -0.034  -4.388  1.00  0.00     0.278 C 
ENDBRANCH  18  21
BRANCH  20  23
ATOM     23  O   UNL     1       7.225   2.385  -6.389  1.00  0.00    -0.504 OA
ATOM     24  H   UNL     1       6.228   2.537  -6.494  1.00  0.00     0.293 HD
ENDBRANCH  20  23
ENDBRANCH  14  15
ENDBRANCH  12  14
ENDBRANCH   9  10
ENDBRANCH   1   9
TORSDOF 10
ENDMDL
MODEL 8
REMARK VINA RESULT:    -4.389      2.285      4.120
REMARK INTER + INTRA:          -8.602
REMARK INTER:                  -7.429
REMARK INTRA:                  -1.173
REMARK UNBOUND:                -1.777
REMARK SMILES COc1cc(CNC(=O)CCCCC=CC(C)C)ccc1O
REMARK SMILES IDX 11 1 12 2 13 3 14 4 15 5 16 6 17 7 18 8 10 9 8 10 9 11 7 12
REMARK SMILES IDX 6 14 5 15 4 16 19 17 3 18 20 19 21 20 2 21 1 22 22 23
REMARK H PARENT 7 13 22 24
REMARK Flexibility Score: inf
ROOT
ATOM      1  C   UNL     1       1.111   6.483   3.213  1.00  0.00     0.010 C 
ENDROOT
BRANCH   1   2
ATOM      2  C   UNL     1      -0.034   7.412   3.631  1.00  0.00     0.005 C 
BRANCH   2   3
ATOM      3  C   UNL     1       0.171   7.919   5.066  1.00  0.00     0.027 C 
BRANCH   3   4
ATOM      4  C   UNL     1       1.632   7.942   5.423  1.00  0.00    -0.031 C 
ATOM      5  C   UNL     1       2.070   7.482   6.605  1.00  0.00    -0.028 C 
BRANCH   5   6
ATOM      6  C   UNL     1       3.538   7.510   6.962  1.00  0.00     0.005 C 
ATOM      7  C   UNL     1       4.395   7.466   5.690  1.00  0.00     0.012 C 
ATOM      8  C   UNL     1       3.886   6.336   7.886  1.00  0.00     0.012 C 
ENDBRANCH   5   6
ENDBRANCH   3   4
ENDBRANCH   2   3
ENDBRANCH   1   2
BRANCH   1   9
ATOM      9  C   UNL     1       0.918   5.983   1.777  1.00  0.00     0.100 C 
BRANCH   9  10
ATOM     10  C   UNL     1       1.982   6.554   0.889  1.00  0.00     0.220 C 
ATOM     11  O   UNL     1       1.996   6.250  -0.336  1.00  0.00    -0.275 OA
ATOM     12  N   UNL     1       3.017   7.382   1.446  1.00  0.00    -0.352 N 
ATOM     13  H   UNL     1       2.924   7.723   2.431  1.00  0.00     0.163 HD
BRANCH  12  14
ATOM     14  C   UNL     1       4.287   7.600   0.760  1.00  0.00     0.151 C 
BRANCH  14  15
ATOM     15  C   UNL     1       5.302   6.602   1.244  1.00  0.00    -0.025 A 
ATOM     16  C   UNL     1       6.545   6.501   0.602  1.00  0.00     0.056 A 
ATOM     17  C   UNL     1       5.044   5.820   2.380  1.00  0.00     0.009 A 
ATOM     18  C   UNL     1       7.527   5.613   1.083  1.00  0.00     0.160 A 
ATOM     19  C   UNL     1       6.012   4.933   2.857  1.00  0.00     0.050 A 
ATOM     20  C   UNL     1       7.250   4.826   2.212  1.00  0.00     0.157 A 
BRANCH  18  21
ATOM     21  O   UNL     1       8.788   5.488   0.472  1.00  0.00    -0.493 OA
ATOM     22  C   UNL     1       9.100   5.946  -0.842  1.00  0.00     0.278 C 
ENDBRANCH  18  21
BRANCH  20  23
ATOM     23  O   UNL     1       8.219   3.944   2.691  1.00  0.00    -0.504 OA
ATOM     24  H   UNL     1       8.042   2.947   2.755  1.00  0.00     0.293 HD
ENDBRANCH  20  23
ENDBRANCH  14  15
ENDBRANCH  12  14
ENDBRANCH   9  10
ENDBRANCH   1   9
TORSDOF 10
ENDMDL
MODEL 9
REMARK VINA RESULT:    -4.346      4.656      6.727
REMARK INTER + INTRA:          -8.536
REMARK INTER:                  -7.759
REMARK INTRA:                  -0.777
REMARK UNBOUND:                -1.777
REMARK SMILES COc1cc(CNC(=O)CCCCC=CC(C)C)ccc1O
REMARK SMILES IDX 11 1 12 2 13 3 14 4 15 5 16 6 17 7 18 8 10 9 8 10 9 11 7 12
REMARK SMILES IDX 6 14 5 15 4 16 19 17 3 18 20 19 21 20 2 21 1 22 22 23
REMARK H PARENT 7 13 22 24
REMARK Flexibility Score: inf
ROOT
ATOM      1  C   UNL     1       5.820   6.704   1.155  1.00  0.00     0.010 C 
ENDROOT
BRANCH   1   2
ATOM      2  C   UNL     1       5.587   6.318   2.620  1.00  0.00     0.005 C 
BRANCH   2   3
ATOM      3  C   UNL     1       4.434   7.134   3.223  1.00  0.00     0.027 C 
BRANCH   3   4
ATOM      4  C   UNL     1       3.268   7.193   2.276  1.00  0.00    -0.031 C 
ATOM      5  C   UNL     1       2.299   6.265   2.302  1.00  0.00    -0.028 C 
BRANCH   5   6
ATOM      6  C   UNL     1       1.129   6.325   1.347  1.00  0.00     0.005 C 
ATOM      7  C   UNL     1       1.491   5.647   0.019  1.00  0.00     0.012 C 
ATOM      8  C   UNL     1       0.708   7.781   1.110  1.00  0.00     0.012 C 
ENDBRANCH   5   6
ENDBRANCH   3   4
ENDBRANCH   2   3
ENDBRANCH   1   2
BRANCH   1   9
ATOM      9  C   UNL     1       6.341   5.510   0.348  1.00  0.00     0.100 C 
BRANCH   9  10
ATOM     10  C   UNL     1       7.395   5.965  -0.615  1.00  0.00     0.220 C 
ATOM     11  O   UNL     1       7.157   6.942  -1.380  1.00  0.00    -0.275 OA
ATOM     12  N   UNL     1       8.638   5.249  -0.714  1.00  0.00    -0.352 N 
ATOM     13  H   UNL     1       8.869   4.524   0.005  1.00  0.00     0.163 HD
BRANCH  12  14
ATOM     14  C   UNL     1       9.499   5.350  -1.889  1.00  0.00     0.151 C 
BRANCH  14  15
ATOM     15  C   UNL     1       9.465   4.057  -2.654  1.00  0.00    -0.025 A 
ATOM     16  C   UNL     1       8.847   4.004  -3.912  1.00  0.00     0.056 A 
ATOM     17  C   UNL     1      10.113   2.917  -2.154  1.00  0.00     0.009 A 
ATOM     18  C   UNL     1       8.861   2.814  -4.667  1.00  0.00     0.160 A 
ATOM     19  C   UNL     1      10.125   1.733  -2.894  1.00  0.00     0.050 A 
ATOM     20  C   UNL     1       9.501   1.678  -4.147  1.00  0.00     0.157 A 
BRANCH  18  21
ATOM     21  O   UNL     1       8.259   2.723  -5.935  1.00  0.00    -0.493 OA
ATOM     22  C   UNL     1       6.865   2.519  -6.155  1.00  0.00     0.278 C 
ENDBRANCH  18  21
BRANCH  20  23
ATOM     23  O   UNL     1       9.517   0.496  -4.889  1.00  0.00    -0.504 OA
ATOM     24  H   UNL     1       9.965   0.448  -5.798  1.00  0.00     0.293 HD
ENDBRANCH  20  23
ENDBRANCH  14  15
ENDBRANCH  12  14
ENDBRANCH   9  10
ENDBRANCH   1   9
TORSDOF 10
ENDMDL
