MODEL 1
REMARK VINA RESULT:    -4.908      0.000      0.000
REMARK INTER + INTRA:          -9.860
REMARK INTER:                  -7.634
REMARK INTRA:                  -2.226
REMARK UNBOUND:                -2.226
REMARK SMILES COc1cc(CNC(=O)CCCCC=CC(C)C)ccc1O
REMARK SMILES IDX 11 1 12 2 13 3 14 4 15 5 16 6 17 7 18 8 10 9 8 10 9 11 7 12
REMARK SMILES IDX 6 14 5 15 4 16 19 17 3 18 20 19 21 20 2 21 1 22 22 23
REMARK H PARENT 7 13 22 24
REMARK Flexibility Score: inf
ROOT
ATOM      1  C   UNL     1     127.173 -42.669  32.377  1.00  0.00     0.010 C 
ENDROOT
BRANCH   1   2
ATOM      2  C   UNL     1     127.670 -42.545  33.828  1.00  0.00     0.005 C 
BRANCH   2   3
ATOM      3  C   UNL     1     129.095 -41.984  33.907  1.00  0.00     0.027 C 
BRANCH   3   4
ATOM      4  C   UNL     1     129.696 -41.802  32.532  1.00  0.00    -0.031 C 
ATOM      5  C   UNL     1     130.486 -40.778  32.155  1.00  0.00    -0.028 C 
BRANCH   5   6
ATOM      6  C   UNL     1     130.954 -39.663  33.068  1.00  0.00     0.005 C 
ATOM      7  C   UNL     1     129.894 -38.558  33.139  1.00  0.00     0.012 C 
ATOM      8  C   UNL     1     132.284 -39.087  32.565  1.00  0.00     0.012 C 
ENDBRANCH   5   6
ENDBRANCH   3   4
ENDBRANCH   2   3
ENDBRANCH   1   2
BRANCH   1   9
ATOM      9  C   UNL     1     125.962 -41.770  32.097  1.00  0.00     0.100 C 
BRANCH   9  10
ATOM     10  C   UNL     1     126.360 -40.462  31.473  1.00  0.00     0.220 C 
ATOM     11  O   UNL     1     126.659 -39.487  32.216  1.00  0.00    -0.275 OA
ATOM     12  N   UNL     1     126.386 -40.322  30.046  1.00  0.00    -0.352 N 
ATOM     13  H   UNL     1     126.063 -41.119  29.452  1.00  0.00     0.163 HD
BRANCH  12  14
ATOM     14  C   UNL     1     126.989 -39.175  29.370  1.00  0.00     0.151 C 
BRANCH  14  15
ATOM     15  C   UNL     1     128.456 -39.428  29.160  1.00  0.00    -0.025 A 
ATOM     16  C   UNL     1     128.889 -40.651  28.622  1.00  0.00     0.056 A 
ATOM     17  C   UNL     1     129.396 -38.426  29.436  1.00  0.00     0.009 A 
ATOM     18  C   UNL     1     130.258 -40.881  28.379  1.00  0.00     0.160 A 
ATOM     19  C   UNL     1     130.754 -38.650  29.204  1.00  0.00     0.050 A 
ATOM     20  C   UNL     1     131.187 -39.874  28.678  1.00  0.00     0.157 A 
BRANCH  18  21
ATOM     21  O   UNL     1     130.730 -42.088  27.841  1.00  0.00    -0.493 OA
ATOM     22  C   UNL     1     130.596 -42.468  26.476  1.00  0.00     0.278 C 
ENDBRANCH  18  21
BRANCH  20  23
ATOM     23  O   UNL     1     132.543 -40.097  28.445  1.00  0.00    -0.504 OA
ATOM     24  H   UNL     1     133.050 -40.830  28.927  1.00  0.00     0.293 HD
ENDBRANCH  20  23
ENDBRANCH  14  15
ENDBRANCH  12  14
ENDBRANCH   9  10
ENDBRANCH   1   9
TORSDOF 10
ENDMDL
MODEL 2
REMARK VINA RESULT:    -4.654      3.048      5.697
REMARK INTER + INTRA:          -9.465
REMARK INTER:                  -7.733
REMARK INTRA:                  -1.731
REMARK UNBOUND:                -2.226
REMARK SMILES COc1cc(CNC(=O)CCCCC=CC(C)C)ccc1O
REMARK SMILES IDX 11 1 12 2 13 3 14 4 15 5 16 6 17 7 18 8 10 9 8 10 9 11 7 12
REMARK SMILES IDX 6 14 5 15 4 16 19 17 3 18 20 19 21 20 2 21 1 22 22 23
REMARK H PARENT 7 13 22 24
REMARK Flexibility Score: inf
ROOT
ATOM      1  C   UNL     1     126.631 -39.518  30.082  1.00  0.00     0.010 C 
ENDROOT
BRANCH   1   2
ATOM      2  C   UNL     1     127.644 -39.034  29.030  1.00  0.00     0.005 C 
BRANCH   2   3
ATOM      3  C   UNL     1     129.068 -39.520  29.329  1.00  0.00     0.027 C 
BRANCH   3   4
ATOM      4  C   UNL     1     130.003 -38.364  29.600  1.00  0.00    -0.031 C 
ATOM      5  C   UNL     1     130.686 -38.166  30.744  1.00  0.00    -0.028 C 
BRANCH   5   6
ATOM      6  C   UNL     1     130.678 -39.104  31.933  1.00  0.00     0.005 C 
ATOM      7  C   UNL     1     129.739 -38.569  33.020  1.00  0.00     0.012 C 
ATOM      8  C   UNL     1     132.097 -39.266  32.493  1.00  0.00     0.012 C 
ENDBRANCH   5   6
ENDBRANCH   3   4
ENDBRANCH   2   3
ENDBRANCH   1   2
BRANCH   1   9
ATOM      9  C   UNL     1     126.858 -40.983  30.481  1.00  0.00     0.100 C 
BRANCH   9  10
ATOM     10  C   UNL     1     127.009 -41.148  31.967  1.00  0.00     0.220 C 
ATOM     11  O   UNL     1     126.059 -40.815  32.727  1.00  0.00    -0.275 OA
ATOM     12  N   UNL     1     128.230 -41.668  32.514  1.00  0.00    -0.352 N 
ATOM     13  H   UNL     1     129.030 -41.866  31.871  1.00  0.00     0.163 HD
BRANCH  12  14
ATOM     14  C   UNL     1     128.363 -42.082  33.909  1.00  0.00     0.151 C 
BRANCH  14  15
ATOM     15  C   UNL     1     129.815 -42.295  34.235  1.00  0.00    -0.025 A 
ATOM     16  C   UNL     1     130.263 -42.182  35.561  1.00  0.00     0.056 A 
ATOM     17  C   UNL     1     130.718 -42.671  33.232  1.00  0.00     0.009 A 
ATOM     18  C   UNL     1     131.612 -42.425  35.883  1.00  0.00     0.160 A 
ATOM     19  C   UNL     1     132.059 -42.906  33.544  1.00  0.00     0.050 A 
ATOM     20  C   UNL     1     132.508 -42.783  34.865  1.00  0.00     0.157 A 
BRANCH  18  21
ATOM     21  O   UNL     1     132.098 -42.325  37.196  1.00  0.00    -0.493 OA
ATOM     22  C   UNL     1     131.413 -41.676  38.261  1.00  0.00     0.278 C 
ENDBRANCH  18  21
BRANCH  20  23
ATOM     23  O   UNL     1     133.846 -43.020  35.176  1.00  0.00    -0.504 OA
ATOM     24  H   UNL     1     134.273 -43.926  35.026  1.00  0.00     0.293 HD
ENDBRANCH  20  23
ENDBRANCH  14  15
ENDBRANCH  12  14
ENDBRANCH   9  10
ENDBRANCH   1   9
TORSDOF 10
ENDMDL
MODEL 3
REMARK VINA RESULT:    -4.631      4.270      5.471
REMARK INTER + INTRA:          -9.429
REMARK INTER:                  -9.272
REMARK INTRA:                  -0.157
REMARK UNBOUND:                -2.226
REMARK SMILES COc1cc(CNC(=O)CCCCC=CC(C)C)ccc1O
REMARK SMILES IDX 11 1 12 2 13 3 14 4 15 5 16 6 17 7 18 8 10 9 8 10 9 11 7 12
REMARK SMILES IDX 6 14 5 15 4 16 19 17 3 18 20 19 21 20 2 21 1 22 22 23
REMARK H PARENT 7 13 22 24
REMARK Flexibility Score: inf
ROOT
ATOM      1  C   UNL     1     129.843 -41.968  35.907  1.00  0.00     0.010 C 
ENDROOT
BRANCH   1   2
ATOM      2  C   UNL     1     130.459 -42.473  37.224  1.00  0.00     0.005 C 
BRANCH   2   3
ATOM      3  C   UNL     1     131.863 -41.902  37.464  1.00  0.00     0.027 C 
BRANCH   3   4
ATOM      4  C   UNL     1     132.813 -42.961  37.973  1.00  0.00    -0.031 C 
ATOM      5  C   UNL     1     133.622 -42.834  39.042  1.00  0.00    -0.028 C 
BRANCH   5   6
ATOM      6  C   UNL     1     133.673 -41.624  39.952  1.00  0.00     0.005 C 
ATOM      7  C   UNL     1     134.332 -41.993  41.285  1.00  0.00     0.012 C 
ATOM      8  C   UNL     1     132.259 -41.080  40.193  1.00  0.00     0.012 C 
ENDBRANCH   5   6
ENDBRANCH   3   4
ENDBRANCH   2   3
ENDBRANCH   1   2
BRANCH   1   9
ATOM      9  C   UNL     1     130.789 -42.153  34.713  1.00  0.00     0.100 C 
BRANCH   9  10
ATOM     10  C   UNL     1     131.061 -40.858  34.000  1.00  0.00     0.220 C 
ATOM     11  O   UNL     1     132.149 -40.707  33.381  1.00  0.00    -0.275 OA
ATOM     12  N   UNL     1     130.093 -39.798  34.037  1.00  0.00    -0.352 N 
ATOM     13  H   UNL     1     129.233 -39.918  34.618  1.00  0.00     0.163 HD
BRANCH  12  14
ATOM     14  C   UNL     1     130.175 -38.618  33.179  1.00  0.00     0.151 C 
BRANCH  14  15
ATOM     15  C   UNL     1     129.535 -38.915  31.852  1.00  0.00    -0.025 A 
ATOM     16  C   UNL     1     128.319 -39.615  31.798  1.00  0.00     0.056 A 
ATOM     17  C   UNL     1     130.111 -38.441  30.665  1.00  0.00     0.009 A 
ATOM     18  C   UNL     1     127.688 -39.858  30.562  1.00  0.00     0.160 A 
ATOM     19  C   UNL     1     129.494 -38.686  29.437  1.00  0.00     0.050 A 
ATOM     20  C   UNL     1     128.287 -39.393  29.382  1.00  0.00     0.157 A 
BRANCH  18  21
ATOM     21  O   UNL     1     126.471 -40.552  30.466  1.00  0.00    -0.493 OA
ATOM     22  C   UNL     1     126.348 -41.969  30.497  1.00  0.00     0.278 C 
ENDBRANCH  18  21
BRANCH  20  23
ATOM     23  O   UNL     1     127.671 -39.636  28.155  1.00  0.00    -0.504 OA
ATOM     24  H   UNL     1     127.336 -40.558  27.903  1.00  0.00     0.293 HD
ENDBRANCH  20  23
ENDBRANCH  14  15
ENDBRANCH  12  14
ENDBRANCH   9  10
ENDBRANCH   1   9
TORSDOF 10
ENDMDL
MODEL 4
REMARK VINA RESULT:    -4.550      4.483      7.511
REMARK INTER + INTRA:          -9.303
REMARK INTER:                  -8.615
REMARK INTRA:                  -0.688
REMARK UNBOUND:                -2.226
REMARK SMILES COc1cc(CNC(=O)CCCCC=CC(C)C)ccc1O
REMARK SMILES IDX 11 1 12 2 13 3 14 4 15 5 16 6 17 7 18 8 10 9 8 10 9 11 7 12
REMARK SMILES IDX 6 14 5 15 4 16 19 17 3 18 20 19 21 20 2 21 1 22 22 23
REMARK H PARENT 7 13 22 24
REMARK Flexibility Score: inf
ROOT
ATOM      1  C   UNL     1     134.370 -40.910  27.034  1.00  0.00     0.010 C 
ENDROOT
BRANCH   1   2
ATOM      2  C   UNL     1     135.450 -41.049  25.947  1.00  0.00     0.005 C 
BRANCH   2   3
ATOM      3  C   UNL     1     136.630 -40.096  26.177  1.00  0.00     0.027 C 
BRANCH   3   4
ATOM      4  C   UNL     1     136.894 -39.886  27.650  1.00  0.00    -0.031 C 
ATOM      5  C   UNL     1     137.966 -40.348  28.323  1.00  0.00    -0.028 C 
BRANCH   5   6
ATOM      6  C   UNL     1     139.119 -41.107  27.701  1.00  0.00     0.005 C 
ATOM      7  C   UNL     1     139.816 -41.969  28.760  1.00  0.00     0.012 C 
ATOM      8  C   UNL     1     140.121 -40.131  27.071  1.00  0.00     0.012 C 
ENDBRANCH   5   6
ENDBRANCH   3   4
ENDBRANCH   2   3
ENDBRANCH   1   2
BRANCH   1   9
ATOM      9  C   UNL     1     133.004 -40.519  26.453  1.00  0.00     0.100 C 
BRANCH   9  10
ATOM     10  C   UNL     1     131.871 -41.214  27.154  1.00  0.00     0.220 C 
ATOM     11  O   UNL     1     131.273 -42.163  26.576  1.00  0.00    -0.275 OA
ATOM     12  N   UNL     1     131.466 -40.792  28.464  1.00  0.00    -0.352 N 
ATOM     13  H   UNL     1     131.926 -39.957  28.892  1.00  0.00     0.163 HD
BRANCH  12  14
ATOM     14  C   UNL     1     130.548 -41.563  29.300  1.00  0.00     0.151 C 
BRANCH  14  15
ATOM     15  C   UNL     1     129.293 -40.770  29.533  1.00  0.00    -0.025 A 
ATOM     16  C   UNL     1     128.581 -40.917  30.735  1.00  0.00     0.056 A 
ATOM     17  C   UNL     1     128.860 -39.833  28.586  1.00  0.00     0.009 A 
ATOM     18  C   UNL     1     127.429 -40.145  30.982  1.00  0.00     0.160 A 
ATOM     19  C   UNL     1     127.715 -39.070  28.822  1.00  0.00     0.050 A 
ATOM     20  C   UNL     1     126.998 -39.224  30.016  1.00  0.00     0.157 A 
BRANCH  18  21
ATOM     21  O   UNL     1     126.691 -40.261  32.171  1.00  0.00    -0.493 OA
ATOM     22  C   UNL     1     126.075 -41.461  32.623  1.00  0.00     0.278 C 
ENDBRANCH  18  21
BRANCH  20  23
ATOM     23  O   UNL     1     125.856 -38.461  30.252  1.00  0.00    -0.504 OA
ATOM     24  H   UNL     1     125.053 -38.503  29.635  1.00  0.00     0.293 HD
ENDBRANCH  20  23
ENDBRANCH  14  15
ENDBRANCH  12  14
ENDBRANCH   9  10
ENDBRANCH   1   9
TORSDOF 10
ENDMDL
MODEL 5
REMARK VINA RESULT:    -4.459      1.387      2.624
REMARK INTER + INTRA:          -9.161
REMARK INTER:                  -7.366
REMARK INTRA:                  -1.795
REMARK UNBOUND:                -2.226
REMARK SMILES COc1cc(CNC(=O)CCCCC=CC(C)C)ccc1O
REMARK SMILES IDX 11 1 12 2 13 3 14 4 15 5 16 6 17 7 18 8 10 9 8 10 9 11 7 12
REMARK SMILES IDX 6 14 5 15 4 16 19 17 3 18 20 19 21 20 2 21 1 22 22 23
REMARK H PARENT 7 13 22 24
REMARK Flexibility Score: inf
ROOT
ATOM      1  C   UNL     1     127.016 -42.047  33.104  1.00  0.00     0.010 C 
ENDROOT
BRANCH   1   2
ATOM      2  C   UNL     1     128.008 -42.429  31.991  1.00  0.00     0.005 C 
BRANCH   2   3
ATOM      3  C   UNL     1     129.467 -42.300  32.447  1.00  0.00     0.027 C 
BRANCH   3   4
ATOM      4  C   UNL     1     129.705 -41.002  33.184  1.00  0.00    -0.031 C 
ATOM      5  C   UNL     1     130.220 -40.893  34.424  1.00  0.00    -0.028 C 
BRANCH   5   6
ATOM      6  C   UNL     1     130.704 -42.055  35.267  1.00  0.00     0.005 C 
ATOM      7  C   UNL     1     130.515 -41.741  36.756  1.00  0.00     0.012 C 
ATOM      8  C   UNL     1     132.180 -42.349  34.972  1.00  0.00     0.012 C 
ENDBRANCH   5   6
ENDBRANCH   3   4
ENDBRANCH   2   3
ENDBRANCH   1   2
BRANCH   1   9
ATOM      9  C   UNL     1     125.896 -41.129  32.596  1.00  0.00     0.100 C 
BRANCH   9  10
ATOM     10  C   UNL     1     126.424 -40.000  31.757  1.00  0.00     0.220 C 
ATOM     11  O   UNL     1     126.959 -39.006  32.321  1.00  0.00    -0.275 OA
ATOM     12  N   UNL     1     126.309 -40.049  30.328  1.00  0.00    -0.352 N 
ATOM     13  H   UNL     1     125.796 -40.846  29.887  1.00  0.00     0.163 HD
BRANCH  12  14
ATOM     14  C   UNL     1     127.007 -39.119  29.441  1.00  0.00     0.151 C 
BRANCH  14  15
ATOM     15  C   UNL     1     128.420 -39.586  29.234  1.00  0.00    -0.025 A 
ATOM     16  C   UNL     1     129.482 -38.915  29.863  1.00  0.00     0.056 A 
ATOM     17  C   UNL     1     128.685 -40.730  28.469  1.00  0.00     0.009 A 
ATOM     18  C   UNL     1     130.806 -39.372  29.713  1.00  0.00     0.160 A 
ATOM     19  C   UNL     1     129.996 -41.183  28.310  1.00  0.00     0.050 A 
ATOM     20  C   UNL     1     131.056 -40.507  28.928  1.00  0.00     0.157 A 
BRANCH  18  21
ATOM     21  O   UNL     1     131.894 -38.731  30.326  1.00  0.00    -0.493 OA
ATOM     22  C   UNL     1     132.304 -38.950  31.671  1.00  0.00     0.278 C 
ENDBRANCH  18  21
BRANCH  20  23
ATOM     23  O   UNL     1     132.364 -40.962  28.771  1.00  0.00    -0.504 OA
ATOM     24  H   UNL     1     132.657 -41.866  29.124  1.00  0.00     0.293 HD
ENDBRANCH  20  23
ENDBRANCH  14  15
ENDBRANCH  12  14
ENDBRANCH   9  10
ENDBRANCH   1   9
TORSDOF 10
ENDMDL
MODEL 6
REMARK VINA RESULT:    -4.436      2.112      3.661
REMARK INTER + INTRA:          -9.126
REMARK INTER:                  -6.979
REMARK INTRA:                  -2.146
REMARK UNBOUND:                -2.226
REMARK SMILES COc1cc(CNC(=O)CCCCC=CC(C)C)ccc1O
REMARK SMILES IDX 11 1 12 2 13 3 14 4 15 5 16 6 17 7 18 8 10 9 8 10 9 11 7 12
REMARK SMILES IDX 6 14 5 15 4 16 19 17 3 18 20 19 21 20 2 21 1 22 22 23
REMARK H PARENT 7 13 22 24
REMARK Flexibility Score: inf
ROOT
ATOM      1  C   UNL     1     130.193 -41.496  35.223  1.00  0.00     0.010 C 
ENDROOT
BRANCH   1   2
ATOM      2  C   UNL     1     131.600 -42.011  34.874  1.00  0.00     0.005 C 
BRANCH   2   3
ATOM      3  C   UNL     1     132.206 -41.273  33.672  1.00  0.00     0.027 C 
BRANCH   3   4
ATOM      4  C   UNL     1     131.412 -41.525  32.411  1.00  0.00    -0.031 C 
ATOM      5  C   UNL     1     130.837 -40.574  31.649  1.00  0.00    -0.028 C 
BRANCH   5   6
ATOM      6  C   UNL     1     130.939 -39.084  31.898  1.00  0.00     0.005 C 
ATOM      7  C   UNL     1     129.895 -38.649  32.932  1.00  0.00     0.012 C 
ATOM      8  C   UNL     1     130.741 -38.311  30.588  1.00  0.00     0.012 C 
ENDBRANCH   5   6
ENDBRANCH   3   4
ENDBRANCH   2   3
ENDBRANCH   1   2
BRANCH   1   9
ATOM      9  C   UNL     1     129.278 -42.611  35.748  1.00  0.00     0.100 C 
BRANCH   9  10
ATOM     10  C   UNL     1     128.060 -42.796  34.887  1.00  0.00     0.220 C 
ATOM     11  O   UNL     1     126.916 -42.777  35.419  1.00  0.00    -0.275 OA
ATOM     12  N   UNL     1     128.200 -43.005  33.474  1.00  0.00    -0.352 N 
ATOM     13  H   UNL     1     129.159 -43.091  33.068  1.00  0.00     0.163 HD
BRANCH  12  14
ATOM     14  C   UNL     1     127.073 -42.950  32.546  1.00  0.00     0.151 C 
BRANCH  14  15
ATOM     15  C   UNL     1     127.193 -41.727  31.680  1.00  0.00    -0.025 A 
ATOM     16  C   UNL     1     127.846 -41.805  30.439  1.00  0.00     0.056 A 
ATOM     17  C   UNL     1     126.600 -40.519  32.072  1.00  0.00     0.009 A 
ATOM     18  C   UNL     1     127.925 -40.676  29.600  1.00  0.00     0.160 A 
ATOM     19  C   UNL     1     126.681 -39.395  31.248  1.00  0.00     0.050 A 
ATOM     20  C   UNL     1     127.342 -39.470  30.015  1.00  0.00     0.157 A 
BRANCH  18  21
ATOM     21  O   UNL     1     128.566 -40.714  28.352  1.00  0.00    -0.493 OA
ATOM     22  C   UNL     1     129.816 -41.349  28.109  1.00  0.00     0.278 C 
ENDBRANCH  18  21
BRANCH  20  23
ATOM     23  O   UNL     1     127.420 -38.348  29.191  1.00  0.00    -0.504 OA
ATOM     24  H   UNL     1     128.075 -38.302  28.419  1.00  0.00     0.293 HD
ENDBRANCH  20  23
ENDBRANCH  14  15
ENDBRANCH  12  14
ENDBRANCH   9  10
ENDBRANCH   1   9
TORSDOF 10
ENDMDL
MODEL 7
REMARK VINA RESULT:    -4.368      1.834      5.324
REMARK INTER + INTRA:          -9.020
REMARK INTER:                  -7.076
REMARK INTRA:                  -1.944
REMARK UNBOUND:                -2.226
REMARK SMILES COc1cc(CNC(=O)CCCCC=CC(C)C)ccc1O
REMARK SMILES IDX 11 1 12 2 13 3 14 4 15 5 16 6 17 7 18 8 10 9 8 10 9 11 7 12
REMARK SMILES IDX 6 14 5 15 4 16 19 17 3 18 20 19 21 20 2 21 1 22 22 23
REMARK H PARENT 7 13 22 24
REMARK Flexibility Score: inf
ROOT
ATOM      1  C   UNL     1     132.146 -41.339  28.590  1.00  0.00     0.010 C 
ENDROOT
BRANCH   1   2
ATOM      2  C   UNL     1     131.797 -39.848  28.436  1.00  0.00     0.005 C 
BRANCH   2   3
ATOM      3  C   UNL     1     132.251 -39.019  29.644  1.00  0.00     0.027 C 
BRANCH   3   4
ATOM      4  C   UNL     1     131.073 -38.523  30.451  1.00  0.00    -0.031 C 
ATOM      5  C   UNL     1     130.518 -39.167  31.496  1.00  0.00    -0.028 C 
BRANCH   5   6
ATOM      6  C   UNL     1     131.020 -40.472  32.077  1.00  0.00     0.005 C 
ATOM      7  C   UNL     1     129.887 -41.191  32.818  1.00  0.00     0.012 C 
ATOM      8  C   UNL     1     132.195 -40.214  33.029  1.00  0.00     0.012 C 
ENDBRANCH   5   6
ENDBRANCH   3   4
ENDBRANCH   2   3
ENDBRANCH   1   2
BRANCH   1   9
ATOM      9  C   UNL     1     131.425 -42.216  27.558  1.00  0.00     0.100 C 
BRANCH   9  10
ATOM     10  C   UNL     1     129.934 -42.204  27.746  1.00  0.00     0.220 C 
ATOM     11  O   UNL     1     129.186 -41.960  26.760  1.00  0.00    -0.275 OA
ATOM     12  N   UNL     1     129.370 -42.454  29.041  1.00  0.00    -0.352 N 
ATOM     13  H   UNL     1     130.010 -42.579  29.858  1.00  0.00     0.163 HD
BRANCH  12  14
ATOM     14  C   UNL     1     127.944 -42.698  29.254  1.00  0.00     0.151 C 
BRANCH  14  15
ATOM     15  C   UNL     1     127.369 -41.604  30.111  1.00  0.00    -0.025 A 
ATOM     16  C   UNL     1     126.719 -41.922  31.314  1.00  0.00     0.056 A 
ATOM     17  C   UNL     1     127.534 -40.260  29.750  1.00  0.00     0.009 A 
ATOM     18  C   UNL     1     126.217 -40.902  32.147  1.00  0.00     0.160 A 
ATOM     19  C   UNL     1     127.032 -39.246  30.567  1.00  0.00     0.050 A 
ATOM     20  C   UNL     1     126.374 -39.563  31.763  1.00  0.00     0.157 A 
BRANCH  18  21
ATOM     21  O   UNL     1     125.563 -41.178  33.358  1.00  0.00    -0.493 OA
ATOM     22  C   UNL     1     125.070 -42.459  33.733  1.00  0.00     0.278 C 
ENDBRANCH  18  21
BRANCH  20  23
ATOM     23  O   UNL     1     125.875 -38.549  32.579  1.00  0.00    -0.504 OA
ATOM     24  H   UNL     1     126.484 -37.853  32.992  1.00  0.00     0.293 HD
ENDBRANCH  20  23
ENDBRANCH  14  15
ENDBRANCH  12  14
ENDBRANCH   9  10
ENDBRANCH   1   9
TORSDOF 10
ENDMDL
MODEL 8
REMARK VINA RESULT:    -4.352      4.503      7.444
REMARK INTER + INTRA:          -8.995
REMARK INTER:                  -8.254
REMARK INTRA:                  -0.741
REMARK UNBOUND:                -2.226
REMARK SMILES COc1cc(CNC(=O)CCCCC=CC(C)C)ccc1O
REMARK SMILES IDX 11 1 12 2 13 3 14 4 15 5 16 6 17 7 18 8 10 9 8 10 9 11 7 12
REMARK SMILES IDX 6 14 5 15 4 16 19 17 3 18 20 19 21 20 2 21 1 22 22 23
REMARK H PARENT 7 13 22 24
REMARK Flexibility Score: inf
ROOT
ATOM      1  C   UNL     1     134.202 -40.726  27.381  1.00  0.00     0.010 C 
ENDROOT
BRANCH   1   2
ATOM      2  C   UNL     1     135.298 -41.122  26.377  1.00  0.00     0.005 C 
BRANCH   2   3
ATOM      3  C   UNL     1     136.474 -40.136  26.383  1.00  0.00     0.027 C 
BRANCH   3   4
ATOM      4  C   UNL     1     136.902 -39.793  27.792  1.00  0.00    -0.031 C 
ATOM      5  C   UNL     1     138.037 -40.211  28.385  1.00  0.00    -0.028 C 
BRANCH   5   6
ATOM      6  C   UNL     1     139.107 -41.049  27.716  1.00  0.00     0.005 C 
ATOM      7  C   UNL     1     139.813 -41.930  28.753  1.00  0.00     0.012 C 
ATOM      8  C   UNL     1     140.125 -40.146  27.008  1.00  0.00     0.012 C 
ENDBRANCH   5   6
ENDBRANCH   3   4
ENDBRANCH   2   3
ENDBRANCH   1   2
BRANCH   1   9
ATOM      9  C   UNL     1     132.795 -40.820  26.775  1.00  0.00     0.100 C 
BRANCH   9  10
ATOM     10  C   UNL     1     131.770 -41.246  27.789  1.00  0.00     0.220 C 
ATOM     11  O   UNL     1     130.640 -41.648  27.397  1.00  0.00    -0.275 OA
ATOM     12  N   UNL     1     132.072 -41.183  29.190  1.00  0.00    -0.352 N 
ATOM     13  H   UNL     1     132.985 -40.776  29.494  1.00  0.00     0.163 HD
BRANCH  12  14
ATOM     14  C   UNL     1     131.230 -41.800  30.214  1.00  0.00     0.151 C 
BRANCH  14  15
ATOM     15  C   UNL     1     130.687 -40.737  31.127  1.00  0.00    -0.025 A 
ATOM     16  C   UNL     1     129.300 -40.557  31.250  1.00  0.00     0.056 A 
ATOM     17  C   UNL     1     131.555 -39.964  31.910  1.00  0.00     0.009 A 
ATOM     18  C   UNL     1     128.780 -39.595  32.138  1.00  0.00     0.160 A 
ATOM     19  C   UNL     1     131.045 -39.003  32.786  1.00  0.00     0.050 A 
ATOM     20  C   UNL     1     129.662 -38.816  32.901  1.00  0.00     0.157 A 
BRANCH  18  21
ATOM     21  O   UNL     1     127.400 -39.386  32.291  1.00  0.00    -0.493 OA
ATOM     22  C   UNL     1     126.401 -40.354  31.991  1.00  0.00     0.278 C 
ENDBRANCH  18  21
BRANCH  20  23
ATOM     23  O   UNL     1     129.153 -37.859  33.777  1.00  0.00    -0.504 OA
ATOM     24  H   UNL     1     128.728 -38.119  34.659  1.00  0.00     0.293 HD
ENDBRANCH  20  23
ENDBRANCH  14  15
ENDBRANCH  12  14
ENDBRANCH   9  10
ENDBRANCH   1   9
TORSDOF 10
ENDMDL
MODEL 9
REMARK VINA RESULT:    -4.262      1.799      4.515
REMARK INTER + INTRA:          -8.855
REMARK INTER:                  -6.826
REMARK INTRA:                  -2.030
REMARK UNBOUND:                -2.226
REMARK SMILES COc1cc(CNC(=O)CCCCC=CC(C)C)ccc1O
REMARK SMILES IDX 11 1 12 2 13 3 14 4 15 5 16 6 17 7 18 8 10 9 8 10 9 11 7 12
REMARK SMILES IDX 6 14 5 15 4 16 19 17 3 18 20 19 21 20 2 21 1 22 22 23
REMARK H PARENT 7 13 22 24
REMARK Flexibility Score: inf
ROOT
ATOM      1  C   UNL     1     132.377 -43.107  31.096  1.00  0.00     0.010 C 
ENDROOT
BRANCH   1   2
ATOM      2  C   UNL     1     131.059 -42.717  31.787  1.00  0.00     0.005 C 
BRANCH   2   3
ATOM      3  C   UNL     1     131.294 -42.021  33.134  1.00  0.00     0.027 C 
BRANCH   3   4
ATOM      4  C   UNL     1     132.228 -40.842  32.993  1.00  0.00    -0.031 C 
ATOM      5  C   UNL     1     131.894 -39.638  32.490  1.00  0.00    -0.028 C 
BRANCH   5   6
ATOM      6  C   UNL     1     130.504 -39.244  32.033  1.00  0.00     0.005 C 
ATOM      7  C   UNL     1     130.592 -38.276  30.849  1.00  0.00     0.012 C 
ATOM      8  C   UNL     1     129.728 -38.599  33.188  1.00  0.00     0.012 C 
ENDBRANCH   5   6
ENDBRANCH   3   4
ENDBRANCH   2   3
ENDBRANCH   1   2
BRANCH   1   9
ATOM      9  C   UNL     1     132.263 -43.084  29.566  1.00  0.00     0.100 C 
BRANCH   9  10
ATOM     10  C   UNL     1     131.342 -42.000  29.083  1.00  0.00     0.220 C 
ATOM     11  O   UNL     1     131.778 -40.822  28.966  1.00  0.00    -0.275 OA
ATOM     12  N   UNL     1     129.974 -42.301  28.770  1.00  0.00    -0.352 N 
ATOM     13  H   UNL     1     129.615 -43.267  28.946  1.00  0.00     0.163 HD
BRANCH  12  14
ATOM     14  C   UNL     1     129.093 -41.367  28.072  1.00  0.00     0.151 C 
BRANCH  14  15
ATOM     15  C   UNL     1     128.222 -40.656  29.070  1.00  0.00    -0.025 A 
ATOM     16  C   UNL     1     127.975 -41.233  30.327  1.00  0.00     0.056 A 
ATOM     17  C   UNL     1     127.704 -39.386  28.781  1.00  0.00     0.009 A 
ATOM     18  C   UNL     1     127.199 -40.553  31.285  1.00  0.00     0.160 A 
ATOM     19  C   UNL     1     126.928 -38.711  29.725  1.00  0.00     0.050 A 
ATOM     20  C   UNL     1     126.673 -39.291  30.974  1.00  0.00     0.157 A 
BRANCH  18  21
ATOM     21  O   UNL     1     126.932 -41.095  32.553  1.00  0.00    -0.493 OA
ATOM     22  C   UNL     1     126.120 -42.241  32.783  1.00  0.00     0.278 C 
ENDBRANCH  18  21
BRANCH  20  23
ATOM     23  O   UNL     1     125.899 -38.616  31.917  1.00  0.00    -0.504 OA
ATOM     24  H   UNL     1     124.891 -38.720  31.948  1.00  0.00     0.293 HD
ENDBRANCH  20  23
ENDBRANCH  14  15
ENDBRANCH  12  14
ENDBRANCH   9  10
ENDBRANCH   1   9
TORSDOF 10
ENDMDL
