MODEL 1
REMARK VINA RESULT:    -4.748      0.000      0.000
REMARK INTER + INTRA:         -16.714
REMARK INTER:                 -11.964
REMARK INTRA:                  -4.750
REMARK UNBOUND:                -4.750
REMARK SMILES CCCCCCCCCCCCCCCCCCCCCCCCCCCC(=O)[O-]
REMARK SMILES IDX 15 1 16 2 17 3 18 4 19 5 20 6 21 7 22 8 23 9 24 10 25 11
REMARK SMILES IDX 26 12 27 13 28 14 29 15 30 16 14 17 13 18 12 19 11 20 10 21
REMARK SMILES IDX 9 22 8 23 7 24 6 25 5 26 4 27 3 28 2 29 1 30
REMARK H PARENT
REMARK Flexibility Score: inf
ROOT
ATOM      1  C   UNL     1      18.243  19.802  35.090  1.00  0.00     0.000 C 
ENDROOT
BRANCH   1   2
ATOM      2  C   UNL     1      19.147  20.076  36.302  1.00  0.00     0.000 C 
BRANCH   2   3
ATOM      3  C   UNL     1      20.616  19.705  36.040  1.00  0.00     0.000 C 
BRANCH   3   4
ATOM      4  C   UNL     1      20.994  18.333  36.627  1.00  0.00     0.000 C 
BRANCH   4   5
ATOM      5  C   UNL     1      21.004  17.221  35.566  1.00  0.00     0.000 C 
BRANCH   5   6
ATOM      6  C   UNL     1      19.690  16.420  35.538  1.00  0.00     0.000 C 
BRANCH   6   7
ATOM      7  C   UNL     1      19.820  15.097  34.769  1.00  0.00     0.000 C 
BRANCH   7   8
ATOM      8  C   UNL     1      19.482  15.248  33.276  1.00  0.00     0.000 C 
BRANCH   8   9
ATOM      9  C   UNL     1      18.347  14.313  32.828  1.00  0.00     0.000 C 
BRANCH   9  10
ATOM     10  C   UNL     1      16.997  15.011  32.576  1.00  0.00     0.000 C 
BRANCH  10  11
ATOM     11  C   UNL     1      15.992  14.860  33.738  1.00  0.00     0.000 C 
BRANCH  11  12
ATOM     12  C   UNL     1      16.133  15.983  34.780  1.00  0.00     0.006 C 
BRANCH  12  13
ATOM     13  C   UNL     1      15.946  15.470  36.214  1.00  0.00     0.053 C 
BRANCH  13  14
ATOM     14  C   UNL     1      15.598  16.583  37.156  1.00  0.00     0.041 C 
ATOM     15  O   UNL     1      14.499  16.571  37.772  1.00  0.00    -0.550 OA
ATOM     16  O   UNL     1      16.476  17.643  37.334  1.00  0.00    -0.550 OA
ENDBRANCH  13  14
ENDBRANCH  12  13
ENDBRANCH  11  12
ENDBRANCH  10  11
ENDBRANCH   9  10
ENDBRANCH   8   9
ENDBRANCH   7   8
ENDBRANCH   6   7
ENDBRANCH   5   6
ENDBRANCH   4   5
ENDBRANCH   3   4
ENDBRANCH   2   3
ENDBRANCH   1   2
BRANCH   1  17
ATOM     17  C   UNL     1      18.853  20.381  33.805  1.00  0.00     0.000 C 
BRANCH  17  18
ATOM     18  C   UNL     1      18.838  19.385  32.629  1.00  0.00     0.000 C 
BRANCH  18  19
ATOM     19  C   UNL     1      17.700  18.348  32.664  1.00  0.00     0.000 C 
BRANCH  19  20
ATOM     20  C   UNL     1      16.600  18.628  31.626  1.00  0.00     0.000 C 
BRANCH  20  21
ATOM     21  C   UNL     1      15.186  18.512  32.218  1.00  0.00     0.000 C 
BRANCH  21  22
ATOM     22  C   UNL     1      14.085  18.574  31.149  1.00  0.00    -0.000 C 
BRANCH  22  23
ATOM     23  C   UNL     1      12.935  17.617  31.491  1.00  0.00    -0.000 C 
BRANCH  23  24
ATOM     24  C   UNL     1      13.302  16.167  31.141  1.00  0.00    -0.000 C 
BRANCH  24  25
ATOM     25  C   UNL     1      13.671  15.983  29.658  1.00  0.00    -0.000 C 
BRANCH  25  26
ATOM     26  C   UNL     1      15.116  15.518  29.402  1.00  0.00    -0.000 C 
BRANCH  26  27
ATOM     27  C   UNL     1      15.663  15.989  28.046  1.00  0.00    -0.000 C 
BRANCH  27  28
ATOM     28  C   UNL     1      15.637  17.519  27.944  1.00  0.00    -0.000 C 
BRANCH  28  29
ATOM     29  C   UNL     1      17.043  18.103  28.118  1.00  0.00    -0.003 C 
ATOM     30  C   UNL     1      16.994  19.618  28.295  1.00  0.00     0.004 C 
ENDBRANCH  28  29
ENDBRANCH  27  28
ENDBRANCH  26  27
ENDBRANCH  25  26
ENDBRANCH  24  25
ENDBRANCH  23  24
ENDBRANCH  22  23
ENDBRANCH  21  22
ENDBRANCH  20  21
ENDBRANCH  19  20
ENDBRANCH  18  19
ENDBRANCH  17  18
ENDBRANCH   1  17
TORSDOF 26
ENDMDL
MODEL 2
REMARK VINA RESULT:    -4.555      1.568      2.444
REMARK INTER + INTRA:         -16.229
REMARK INTER:                 -12.209
REMARK INTRA:                  -4.020
REMARK UNBOUND:                -4.750
REMARK SMILES CCCCCCCCCCCCCCCCCCCCCCCCCCCC(=O)[O-]
REMARK SMILES IDX 15 1 16 2 17 3 18 4 19 5 20 6 21 7 22 8 23 9 24 10 25 11
REMARK SMILES IDX 26 12 27 13 28 14 29 15 30 16 14 17 13 18 12 19 11 20 10 21
REMARK SMILES IDX 9 22 8 23 7 24 6 25 5 26 4 27 3 28 2 29 1 30
REMARK H PARENT
REMARK Flexibility Score: inf
ROOT
ATOM      1  C   UNL     1      18.046  19.858  35.253  1.00  0.00     0.000 C 
ENDROOT
BRANCH   1   2
ATOM      2  C   UNL     1      18.901  19.876  36.530  1.00  0.00     0.000 C 
BRANCH   2   3
ATOM      3  C   UNL     1      20.408  19.817  36.234  1.00  0.00     0.000 C 
BRANCH   3   4
ATOM      4  C   UNL     1      21.025  18.448  36.571  1.00  0.00     0.000 C 
BRANCH   4   5
ATOM      5  C   UNL     1      20.892  17.441  35.418  1.00  0.00     0.000 C 
BRANCH   5   6
ATOM      6  C   UNL     1      19.688  16.499  35.593  1.00  0.00     0.000 C 
BRANCH   6   7
ATOM      7  C   UNL     1      19.872  15.162  34.858  1.00  0.00     0.000 C 
BRANCH   7   8
ATOM      8  C   UNL     1      19.474  15.248  33.374  1.00  0.00     0.000 C 
BRANCH   8   9
ATOM      9  C   UNL     1      18.375  14.241  32.997  1.00  0.00     0.000 C 
BRANCH   9  10
ATOM     10  C   UNL     1      17.008  14.870  32.665  1.00  0.00     0.000 C 
BRANCH  10  11
ATOM     11  C   UNL     1      15.949  14.675  33.771  1.00  0.00     0.000 C 
BRANCH  11  12
ATOM     12  C   UNL     1      15.869  15.882  34.721  1.00  0.00     0.006 C 
BRANCH  12  13
ATOM     13  C   UNL     1      16.105  15.486  36.184  1.00  0.00     0.053 C 
BRANCH  13  14
ATOM     14  C   UNL     1      15.646  16.558  37.127  1.00  0.00     0.041 C 
ATOM     15  O   UNL     1      16.420  17.499  37.440  1.00  0.00    -0.550 OA
ATOM     16  O   UNL     1      14.373  16.500  37.677  1.00  0.00    -0.550 OA
ENDBRANCH  13  14
ENDBRANCH  12  13
ENDBRANCH  11  12
ENDBRANCH  10  11
ENDBRANCH   9  10
ENDBRANCH   8   9
ENDBRANCH   7   8
ENDBRANCH   6   7
ENDBRANCH   5   6
ENDBRANCH   4   5
ENDBRANCH   3   4
ENDBRANCH   2   3
ENDBRANCH   1   2
BRANCH   1  17
ATOM     17  C   UNL     1      18.879  20.256  34.026  1.00  0.00     0.000 C 
BRANCH  17  18
ATOM     18  C   UNL     1      18.799  19.225  32.885  1.00  0.00     0.000 C 
BRANCH  18  19
ATOM     19  C   UNL     1      17.581  18.285  32.934  1.00  0.00     0.000 C 
BRANCH  19  20
ATOM     20  C   UNL     1      16.696  18.383  31.680  1.00  0.00     0.000 C 
BRANCH  20  21
ATOM     21  C   UNL     1      15.264  18.842  32.002  1.00  0.00     0.000 C 
BRANCH  21  22
ATOM     22  C   UNL     1      14.253  18.451  30.914  1.00  0.00    -0.000 C 
BRANCH  22  23
ATOM     23  C   UNL     1      13.119  17.599  31.498  1.00  0.00    -0.000 C 
BRANCH  23  24
ATOM     24  C   UNL     1      13.312  16.114  31.154  1.00  0.00    -0.000 C 
BRANCH  24  25
ATOM     25  C   UNL     1      14.101  15.899  29.851  1.00  0.00    -0.000 C 
BRANCH  25  26
ATOM     26  C   UNL     1      13.498  14.856  28.892  1.00  0.00    -0.000 C 
BRANCH  26  27
ATOM     27  C   UNL     1      12.111  15.258  28.369  1.00  0.00    -0.000 C 
BRANCH  27  28
ATOM     28  C   UNL     1      12.076  15.237  26.835  1.00  0.00    -0.000 C 
BRANCH  28  29
ATOM     29  C   UNL     1      10.910  14.382  26.326  1.00  0.00    -0.003 C 
ATOM     30  C   UNL     1      10.255  15.014  25.102  1.00  0.00     0.004 C 
ENDBRANCH  28  29
ENDBRANCH  27  28
ENDBRANCH  26  27
ENDBRANCH  25  26
ENDBRANCH  24  25
ENDBRANCH  23  24
ENDBRANCH  22  23
ENDBRANCH  21  22
ENDBRANCH  20  21
ENDBRANCH  19  20
ENDBRANCH  18  19
ENDBRANCH  17  18
ENDBRANCH   1  17
TORSDOF 26
ENDMDL
MODEL 3
REMARK VINA RESULT:    -4.540      1.537      4.650
REMARK INTER + INTRA:         -16.191
REMARK INTER:                 -11.650
REMARK INTRA:                  -4.541
REMARK UNBOUND:                -4.750
REMARK SMILES CCCCCCCCCCCCCCCCCCCCCCCCCCCC(=O)[O-]
REMARK SMILES IDX 15 1 16 2 17 3 18 4 19 5 20 6 21 7 22 8 23 9 24 10 25 11
REMARK SMILES IDX 26 12 27 13 28 14 29 15 30 16 14 17 13 18 12 19 11 20 10 21
REMARK SMILES IDX 9 22 8 23 7 24 6 25 5 26 4 27 3 28 2 29 1 30
REMARK H PARENT
REMARK Flexibility Score: inf
ROOT
ATOM      1  C   UNL     1      13.993  18.636  31.084  1.00  0.00     0.000 C 
ENDROOT
BRANCH   1   2
ATOM      2  C   UNL     1      14.755  19.111  32.331  1.00  0.00     0.000 C 
BRANCH   2   3
ATOM      3  C   UNL     1      15.944  18.201  32.680  1.00  0.00     0.000 C 
BRANCH   3   4
ATOM      4  C   UNL     1      17.072  18.953  33.408  1.00  0.00     0.000 C 
BRANCH   4   5
ATOM      5  C   UNL     1      18.377  18.989  32.596  1.00  0.00     0.000 C 
BRANCH   5   6
ATOM      6  C   UNL     1      19.495  19.772  33.310  1.00  0.00     0.000 C 
BRANCH   6   7
ATOM      7  C   UNL     1      19.072  20.268  34.701  1.00  0.00     0.000 C 
BRANCH   7   8
ATOM      8  C   UNL     1      19.895  19.623  35.830  1.00  0.00     0.000 C 
BRANCH   8   9
ATOM      9  C   UNL     1      19.246  18.342  36.377  1.00  0.00     0.000 C 
BRANCH   9  10
ATOM     10  C   UNL     1      19.668  17.046  35.658  1.00  0.00     0.000 C 
BRANCH  10  11
ATOM     11  C   UNL     1      18.481  16.147  35.249  1.00  0.00     0.000 C 
BRANCH  11  12
ATOM     12  C   UNL     1      17.588  15.781  36.447  1.00  0.00     0.006 C 
BRANCH  12  13
ATOM     13  C   UNL     1      16.331  16.657  36.523  1.00  0.00     0.053 C 
BRANCH  13  14
ATOM     14  C   UNL     1      15.260  16.014  37.351  1.00  0.00     0.041 C 
ATOM     15  O   UNL     1      14.261  16.683  37.726  1.00  0.00    -0.550 OA
ATOM     16  O   UNL     1      15.378  14.684  37.729  1.00  0.00    -0.550 OA
ENDBRANCH  13  14
ENDBRANCH  12  13
ENDBRANCH  11  12
ENDBRANCH  10  11
ENDBRANCH   9  10
ENDBRANCH   8   9
ENDBRANCH   7   8
ENDBRANCH   6   7
ENDBRANCH   5   6
ENDBRANCH   4   5
ENDBRANCH   3   4
ENDBRANCH   2   3
ENDBRANCH   1   2
BRANCH   1  17
ATOM     17  C   UNL     1      12.921  17.601  31.454  1.00  0.00     0.000 C 
BRANCH  17  18
ATOM     18  C   UNL     1      13.243  16.188  30.932  1.00  0.00     0.000 C 
BRANCH  18  19
ATOM     19  C   UNL     1      13.133  16.012  29.406  1.00  0.00     0.000 C 
BRANCH  19  20
ATOM     20  C   UNL     1      14.258  15.142  28.819  1.00  0.00     0.000 C 
BRANCH  20  21
ATOM     21  C   UNL     1      15.640  15.503  29.387  1.00  0.00     0.000 C 
BRANCH  21  22
ATOM     22  C   UNL     1      16.759  15.412  28.339  1.00  0.00    -0.000 C 
BRANCH  22  23
ATOM     23  C   UNL     1      17.476  16.759  28.184  1.00  0.00    -0.000 C 
BRANCH  23  24
ATOM     24  C   UNL     1      17.115  17.712  29.333  1.00  0.00    -0.000 C 
BRANCH  24  25
ATOM     25  C   UNL     1      16.946  19.170  28.871  1.00  0.00    -0.000 C 
BRANCH  25  26
ATOM     26  C   UNL     1      16.120  19.351  27.584  1.00  0.00    -0.000 C 
BRANCH  26  27
ATOM     27  C   UNL     1      14.622  19.085  27.795  1.00  0.00    -0.000 C 
BRANCH  27  28
ATOM     28  C   UNL     1      13.952  18.649  26.486  1.00  0.00    -0.000 C 
BRANCH  28  29
ATOM     29  C   UNL     1      14.599  17.373  25.937  1.00  0.00    -0.003 C 
ATOM     30  C   UNL     1      13.562  16.466  25.281  1.00  0.00     0.004 C 
ENDBRANCH  28  29
ENDBRANCH  27  28
ENDBRANCH  26  27
ENDBRANCH  25  26
ENDBRANCH  24  25
ENDBRANCH  23  24
ENDBRANCH  22  23
ENDBRANCH  21  22
ENDBRANCH  20  21
ENDBRANCH  19  20
ENDBRANCH  18  19
ENDBRANCH  17  18
ENDBRANCH   1  17
TORSDOF 26
ENDMDL
MODEL 4
REMARK VINA RESULT:    -4.539      1.306      3.693
REMARK INTER + INTRA:         -16.188
REMARK INTER:                 -10.912
REMARK INTRA:                  -5.276
REMARK UNBOUND:                -4.750
REMARK SMILES CCCCCCCCCCCCCCCCCCCCCCCCCCCC(=O)[O-]
REMARK SMILES IDX 15 1 16 2 17 3 18 4 19 5 20 6 21 7 22 8 23 9 24 10 25 11
REMARK SMILES IDX 26 12 27 13 28 14 29 15 30 16 14 17 13 18 12 19 11 20 10 21
REMARK SMILES IDX 9 22 8 23 7 24 6 25 5 26 4 27 3 28 2 29 1 30
REMARK H PARENT
REMARK Flexibility Score: inf
ROOT
ATOM      1  C   UNL     1      17.366  18.104  31.336  1.00  0.00     0.000 C 
ENDROOT
BRANCH   1   2
ATOM      2  C   UNL     1      18.108  16.804  31.681  1.00  0.00     0.000 C 
BRANCH   2   3
ATOM      3  C   UNL     1      17.329  15.923  32.671  1.00  0.00     0.000 C 
BRANCH   3   4
ATOM      4  C   UNL     1      18.247  15.216  33.684  1.00  0.00     0.000 C 
BRANCH   4   5
ATOM      5  C   UNL     1      19.665  15.810  33.709  1.00  0.00     0.000 C 
BRANCH   5   6
ATOM      6  C   UNL     1      20.147  16.122  35.137  1.00  0.00     0.000 C 
BRANCH   6   7
ATOM      7  C   UNL     1      20.810  17.504  35.247  1.00  0.00     0.000 C 
BRANCH   7   8
ATOM      8  C   UNL     1      20.404  18.444  34.098  1.00  0.00     0.000 C 
BRANCH   8   9
ATOM      9  C   UNL     1      19.980  19.836  34.594  1.00  0.00     0.000 C 
BRANCH   9  10
ATOM     10  C   UNL     1      18.541  19.918  35.137  1.00  0.00     0.000 C 
BRANCH  10  11
ATOM     11  C   UNL     1      18.455  19.881  36.678  1.00  0.00     0.000 C 
BRANCH  11  12
ATOM     12  C   UNL     1      17.321  18.969  37.178  1.00  0.00     0.006 C 
BRANCH  12  13
ATOM     13  C   UNL     1      17.209  17.679  36.356  1.00  0.00     0.053 C 
BRANCH  13  14
ATOM     14  C   UNL     1      16.040  16.849  36.790  1.00  0.00     0.041 C 
ATOM     15  O   UNL     1      15.577  16.965  37.955  1.00  0.00    -0.550 OA
ATOM     16  O   UNL     1      15.478  15.928  35.915  1.00  0.00    -0.550 OA
ENDBRANCH  13  14
ENDBRANCH  12  13
ENDBRANCH  11  12
ENDBRANCH  10  11
ENDBRANCH   9  10
ENDBRANCH   8   9
ENDBRANCH   7   8
ENDBRANCH   6   7
ENDBRANCH   5   6
ENDBRANCH   4   5
ENDBRANCH   3   4
ENDBRANCH   2   3
ENDBRANCH   1   2
BRANCH   1  17
ATOM     17  C   UNL     1      16.775  18.753  32.596  1.00  0.00     0.000 C 
BRANCH  17  18
ATOM     18  C   UNL     1      15.245  18.916  32.529  1.00  0.00     0.000 C 
BRANCH  18  19
ATOM     19  C   UNL     1      14.579  18.334  31.268  1.00  0.00     0.000 C 
BRANCH  19  20
ATOM     20  C   UNL     1      13.105  17.953  31.489  1.00  0.00     0.000 C 
BRANCH  20  21
ATOM     21  C   UNL     1      12.707  16.673  30.736  1.00  0.00     0.000 C 
BRANCH  21  22
ATOM     22  C   UNL     1      13.906  15.761  30.434  1.00  0.00    -0.000 C 
BRANCH  22  23
ATOM     23  C   UNL     1      13.642  14.902  29.190  1.00  0.00    -0.000 C 
BRANCH  23  24
ATOM     24  C   UNL     1      14.917  14.744  28.348  1.00  0.00    -0.000 C 
BRANCH  24  25
ATOM     25  C   UNL     1      16.162  15.337  29.031  1.00  0.00    -0.000 C 
BRANCH  25  26
ATOM     26  C   UNL     1      17.056  16.194  28.116  1.00  0.00    -0.000 C 
BRANCH  26  27
ATOM     27  C   UNL     1      16.253  17.161  27.233  1.00  0.00    -0.000 C 
BRANCH  27  28
ATOM     28  C   UNL     1      16.035  18.502  27.943  1.00  0.00    -0.000 C 
BRANCH  28  29
ATOM     29  C   UNL     1      14.616  19.028  27.701  1.00  0.00    -0.003 C 
ATOM     30  C   UNL     1      13.739  17.966  27.045  1.00  0.00     0.004 C 
ENDBRANCH  28  29
ENDBRANCH  27  28
ENDBRANCH  26  27
ENDBRANCH  25  26
ENDBRANCH  24  25
ENDBRANCH  23  24
ENDBRANCH  22  23
ENDBRANCH  21  22
ENDBRANCH  20  21
ENDBRANCH  19  20
ENDBRANCH  18  19
ENDBRANCH  17  18
ENDBRANCH   1  17
TORSDOF 26
ENDMDL
MODEL 5
REMARK VINA RESULT:    -4.503      1.512      4.306
REMARK INTER + INTRA:         -16.097
REMARK INTER:                 -10.761
REMARK INTRA:                  -5.335
REMARK UNBOUND:                -4.750
REMARK SMILES CCCCCCCCCCCCCCCCCCCCCCCCCCCC(=O)[O-]
REMARK SMILES IDX 15 1 16 2 17 3 18 4 19 5 20 6 21 7 22 8 23 9 24 10 25 11
REMARK SMILES IDX 26 12 27 13 28 14 29 15 30 16 14 17 13 18 12 19 11 20 10 21
REMARK SMILES IDX 9 22 8 23 7 24 6 25 5 26 4 27 3 28 2 29 1 30
REMARK H PARENT
REMARK Flexibility Score: inf
ROOT
ATOM      1  C   UNL     1      15.186  18.892  32.243  1.00  0.00     0.000 C 
ENDROOT
BRANCH   1   2
ATOM      2  C   UNL     1      16.511  18.162  31.973  1.00  0.00     0.000 C 
BRANCH   2   3
ATOM      3  C   UNL     1      16.503  16.712  32.484  1.00  0.00     0.000 C 
BRANCH   3   4
ATOM      4  C   UNL     1      17.920  16.151  32.697  1.00  0.00     0.000 C 
BRANCH   4   5
ATOM      5  C   UNL     1      19.013  17.209  32.474  1.00  0.00     0.000 C 
BRANCH   5   6
ATOM      6  C   UNL     1      19.996  17.300  33.655  1.00  0.00     0.000 C 
BRANCH   6   7
ATOM      7  C   UNL     1      20.242  18.746  34.109  1.00  0.00     0.000 C 
BRANCH   7   8
ATOM      8  C   UNL     1      19.154  19.713  33.608  1.00  0.00     0.000 C 
BRANCH   8   9
ATOM      9  C   UNL     1      18.138  20.078  34.702  1.00  0.00     0.000 C 
BRANCH   9  10
ATOM     10  C   UNL     1      18.156  19.154  35.935  1.00  0.00     0.000 C 
BRANCH  10  11
ATOM     11  C   UNL     1      17.119  18.013  35.871  1.00  0.00     0.000 C 
BRANCH  11  12
ATOM     12  C   UNL     1      17.666  16.694  36.444  1.00  0.00     0.006 C 
BRANCH  12  13
ATOM     13  C   UNL     1      16.742  15.506  36.149  1.00  0.00     0.053 C 
BRANCH  13  14
ATOM     14  C   UNL     1      15.464  15.594  36.926  1.00  0.00     0.041 C 
ATOM     15  O   UNL     1      14.401  15.109  36.456  1.00  0.00    -0.550 OA
ATOM     16  O   UNL     1      15.443  16.235  38.158  1.00  0.00    -0.550 OA
ENDBRANCH  13  14
ENDBRANCH  12  13
ENDBRANCH  11  12
ENDBRANCH  10  11
ENDBRANCH   9  10
ENDBRANCH   8   9
ENDBRANCH   7   8
ENDBRANCH   6   7
ENDBRANCH   5   6
ENDBRANCH   4   5
ENDBRANCH   3   4
ENDBRANCH   2   3
ENDBRANCH   1   2
BRANCH   1  17
ATOM     17  C   UNL     1      14.127  18.517  31.197  1.00  0.00     0.000 C 
BRANCH  17  18
ATOM     18  C   UNL     1      12.855  17.909  31.819  1.00  0.00     0.000 C 
BRANCH  18  19
ATOM     19  C   UNL     1      12.515  16.482  31.351  1.00  0.00     0.000 C 
BRANCH  19  20
ATOM     20  C   UNL     1      13.370  16.021  30.159  1.00  0.00     0.000 C 
BRANCH  20  21
ATOM     21  C   UNL     1      12.537  15.796  28.886  1.00  0.00     0.000 C 
BRANCH  21  22
ATOM     22  C   UNL     1      13.333  16.053  27.598  1.00  0.00    -0.000 C 
BRANCH  22  23
ATOM     23  C   UNL     1      13.252  17.529  27.189  1.00  0.00    -0.000 C 
BRANCH  23  24
ATOM     24  C   UNL     1      14.606  18.033  26.666  1.00  0.00    -0.000 C 
BRANCH  24  25
ATOM     25  C   UNL     1      15.202  19.155  27.533  1.00  0.00    -0.000 C 
BRANCH  25  26
ATOM     26  C   UNL     1      16.385  18.729  28.421  1.00  0.00    -0.000 C 
BRANCH  26  27
ATOM     27  C   UNL     1      17.249  17.634  27.778  1.00  0.00    -0.000 C 
BRANCH  27  28
ATOM     28  C   UNL     1      17.684  16.594  28.820  1.00  0.00    -0.000 C 
BRANCH  28  29
ATOM     29  C   UNL     1      16.702  15.418  28.863  1.00  0.00    -0.003 C 
ATOM     30  C   UNL     1      17.285  14.240  29.637  1.00  0.00     0.004 C 
ENDBRANCH  28  29
ENDBRANCH  27  28
ENDBRANCH  26  27
ENDBRANCH  25  26
ENDBRANCH  24  25
ENDBRANCH  23  24
ENDBRANCH  22  23
ENDBRANCH  21  22
ENDBRANCH  20  21
ENDBRANCH  19  20
ENDBRANCH  18  19
ENDBRANCH  17  18
ENDBRANCH   1  17
TORSDOF 26
ENDMDL
MODEL 6
REMARK VINA RESULT:    -4.490      2.659      4.598
REMARK INTER + INTRA:         -16.064
REMARK INTER:                 -10.832
REMARK INTRA:                  -5.233
REMARK UNBOUND:                -4.750
REMARK SMILES CCCCCCCCCCCCCCCCCCCCCCCCCCCC(=O)[O-]
REMARK SMILES IDX 15 1 16 2 17 3 18 4 19 5 20 6 21 7 22 8 23 9 24 10 25 11
REMARK SMILES IDX 26 12 27 13 28 14 29 15 30 16 14 17 13 18 12 19 11 20 10 21
REMARK SMILES IDX 9 22 8 23 7 24 6 25 5 26 4 27 3 28 2 29 1 30
REMARK H PARENT
REMARK Flexibility Score: inf
ROOT
ATOM      1  C   UNL     1      17.137  18.014  36.561  1.00  0.00     0.000 C 
ENDROOT
BRANCH   1   2
ATOM      2  C   UNL     1      17.745  19.400  36.828  1.00  0.00     0.000 C 
BRANCH   2   3
ATOM      3  C   UNL     1      19.267  19.347  37.040  1.00  0.00     0.000 C 
BRANCH   3   4
ATOM      4  C   UNL     1      20.026  20.330  36.133  1.00  0.00     0.000 C 
BRANCH   4   5
ATOM      5  C   UNL     1      19.573  20.250  34.666  1.00  0.00     0.000 C 
BRANCH   5   6
ATOM      6  C   UNL     1      20.272  19.117  33.894  1.00  0.00     0.000 C 
BRANCH   6   7
ATOM      7  C   UNL     1      19.295  18.288  33.046  1.00  0.00     0.000 C 
BRANCH   7   8
ATOM      8  C   UNL     1      18.163  19.144  32.449  1.00  0.00     0.000 C 
BRANCH   8   9
ATOM      9  C   UNL     1      16.777  18.743  32.979  1.00  0.00     0.000 C 
BRANCH   9  10
ATOM     10  C   UNL     1      15.789  18.258  31.900  1.00  0.00     0.000 C 
BRANCH  10  11
ATOM     11  C   UNL     1      14.354  18.796  32.086  1.00  0.00     0.000 C 
BRANCH  11  12
ATOM     12  C   UNL     1      13.298  17.871  31.456  1.00  0.00     0.006 C 
BRANCH  12  13
ATOM     13  C   UNL     1      13.823  16.443  31.257  1.00  0.00     0.053 C 
BRANCH  13  14
ATOM     14  C   UNL     1      13.501  15.923  29.889  1.00  0.00     0.041 C 
ATOM     15  O   UNL     1      13.657  14.702  29.622  1.00  0.00    -0.550 OA
ATOM     16  O   UNL     1      13.054  16.792  28.902  1.00  0.00    -0.550 OA
ENDBRANCH  13  14
ENDBRANCH  12  13
ENDBRANCH  11  12
ENDBRANCH  10  11
ENDBRANCH   9  10
ENDBRANCH   8   9
ENDBRANCH   7   8
ENDBRANCH   6   7
ENDBRANCH   5   6
ENDBRANCH   4   5
ENDBRANCH   3   4
ENDBRANCH   2   3
ENDBRANCH   1   2
BRANCH   1  17
ATOM     17  C   UNL     1      18.224  17.000  36.175  1.00  0.00     0.000 C 
BRANCH  17  18
ATOM     18  C   UNL     1      17.649  15.639  35.740  1.00  0.00     0.000 C 
BRANCH  18  19
ATOM     19  C   UNL     1      16.275  15.699  35.046  1.00  0.00     0.000 C 
BRANCH  19  20
ATOM     20  C   UNL     1      16.285  15.074  33.641  1.00  0.00     0.000 C 
BRANCH  20  21
ATOM     21  C   UNL     1      17.692  15.036  33.021  1.00  0.00     0.000 C 
BRANCH  21  22
ATOM     22  C   UNL     1      17.666  14.929  31.489  1.00  0.00    -0.000 C 
BRANCH  22  23
ATOM     23  C   UNL     1      18.936  15.533  30.876  1.00  0.00    -0.000 C 
BRANCH  23  24
ATOM     24  C   UNL     1      18.596  16.445  29.687  1.00  0.00    -0.000 C 
BRANCH  24  25
ATOM     25  C   UNL     1      17.097  16.438  29.338  1.00  0.00    -0.000 C 
BRANCH  25  26
ATOM     26  C   UNL     1      16.656  17.535  28.352  1.00  0.00    -0.000 C 
BRANCH  26  27
ATOM     27  C   UNL     1      17.119  18.938  28.774  1.00  0.00    -0.000 C 
BRANCH  27  28
ATOM     28  C   UNL     1      16.760  19.980  27.708  1.00  0.00    -0.000 C 
BRANCH  28  29
ATOM     29  C   UNL     1      15.748  19.413  26.706  1.00  0.00    -0.003 C 
ATOM     30  C   UNL     1      14.547  20.341  26.549  1.00  0.00     0.004 C 
ENDBRANCH  28  29
ENDBRANCH  27  28
ENDBRANCH  26  27
ENDBRANCH  25  26
ENDBRANCH  24  25
ENDBRANCH  23  24
ENDBRANCH  22  23
ENDBRANCH  21  22
ENDBRANCH  20  21
ENDBRANCH  19  20
ENDBRANCH  18  19
ENDBRANCH  17  18
ENDBRANCH   1  17
TORSDOF 26
ENDMDL
MODEL 7
REMARK VINA RESULT:    -4.455      1.601      4.642
REMARK INTER + INTRA:         -15.977
REMARK INTER:                 -11.366
REMARK INTRA:                  -4.611
REMARK UNBOUND:                -4.750
REMARK SMILES CCCCCCCCCCCCCCCCCCCCCCCCCCCC(=O)[O-]
REMARK SMILES IDX 15 1 16 2 17 3 18 4 19 5 20 6 21 7 22 8 23 9 24 10 25 11
REMARK SMILES IDX 26 12 27 13 28 14 29 15 30 16 14 17 13 18 12 19 11 20 10 21
REMARK SMILES IDX 9 22 8 23 7 24 6 25 5 26 4 27 3 28 2 29 1 30
REMARK H PARENT
REMARK Flexibility Score: inf
ROOT
ATOM      1  C   UNL     1      13.974  18.642  31.124  1.00  0.00     0.000 C 
ENDROOT
BRANCH   1   2
ATOM      2  C   UNL     1      15.016  18.678  32.253  1.00  0.00     0.000 C 
BRANCH   2   3
ATOM      3  C   UNL     1      16.442  18.401  31.750  1.00  0.00     0.000 C 
BRANCH   3   4
ATOM      4  C   UNL     1      17.150  17.298  32.557  1.00  0.00     0.000 C 
BRANCH   4   5
ATOM      5  C   UNL     1      18.678  17.469  32.576  1.00  0.00     0.000 C 
BRANCH   5   6
ATOM      6  C   UNL     1      19.110  18.931  32.362  1.00  0.00     0.000 C 
BRANCH   6   7
ATOM      7  C   UNL     1      19.672  19.573  33.639  1.00  0.00     0.000 C 
BRANCH   7   8
ATOM      8  C   UNL     1      18.602  20.349  34.428  1.00  0.00     0.000 C 
BRANCH   8   9
ATOM      9  C   UNL     1      18.116  19.588  35.671  1.00  0.00     0.000 C 
BRANCH   9  10
ATOM     10  C   UNL     1      19.070  18.484  36.167  1.00  0.00     0.000 C 
BRANCH  10  11
ATOM     11  C   UNL     1      18.432  17.079  36.197  1.00  0.00     0.000 C 
BRANCH  11  12
ATOM     12  C   UNL     1      16.924  17.129  36.498  1.00  0.00     0.006 C 
BRANCH  12  13
ATOM     13  C   UNL     1      16.258  15.754  36.357  1.00  0.00     0.053 C 
BRANCH  13  14
ATOM     14  C   UNL     1      15.205  15.541  37.401  1.00  0.00     0.041 C 
ATOM     15  O   UNL     1      15.140  14.448  38.022  1.00  0.00    -0.550 OA
ATOM     16  O   UNL     1      14.280  16.541  37.670  1.00  0.00    -0.550 OA
ENDBRANCH  13  14
ENDBRANCH  12  13
ENDBRANCH  11  12
ENDBRANCH  10  11
ENDBRANCH   9  10
ENDBRANCH   8   9
ENDBRANCH   7   8
ENDBRANCH   6   7
ENDBRANCH   5   6
ENDBRANCH   4   5
ENDBRANCH   3   4
ENDBRANCH   2   3
ENDBRANCH   1   2
BRANCH   1  17
ATOM     17  C   UNL     1      12.847  17.651  31.444  1.00  0.00     0.000 C 
BRANCH  17  18
ATOM     18  C   UNL     1      13.073  16.260  30.821  1.00  0.00     0.000 C 
BRANCH  18  19
ATOM     19  C   UNL     1      13.571  16.268  29.364  1.00  0.00     0.000 C 
BRANCH  19  20
ATOM     20  C   UNL     1      14.571  15.138  29.065  1.00  0.00     0.000 C 
BRANCH  20  21
ATOM     21  C   UNL     1      16.000  15.480  29.516  1.00  0.00     0.000 C 
BRANCH  21  22
ATOM     22  C   UNL     1      16.872  16.026  28.375  1.00  0.00    -0.000 C 
BRANCH  22  23
ATOM     23  C   UNL     1      16.317  15.600  27.009  1.00  0.00    -0.000 C 
BRANCH  23  24
ATOM     24  C   UNL     1      16.068  16.821  26.110  1.00  0.00    -0.000 C 
BRANCH  24  25
ATOM     25  C   UNL     1      14.586  16.996  25.735  1.00  0.00    -0.000 C 
BRANCH  25  26
ATOM     26  C   UNL     1      14.038  18.425  25.907  1.00  0.00    -0.000 C 
BRANCH  26  27
ATOM     27  C   UNL     1      14.555  19.112  27.180  1.00  0.00    -0.000 C 
BRANCH  27  28
ATOM     28  C   UNL     1      15.254  20.436  26.845  1.00  0.00    -0.000 C 
BRANCH  28  29
ATOM     29  C   UNL     1      16.763  20.337  27.097  1.00  0.00    -0.003 C 
ATOM     30  C   UNL     1      17.056  19.696  28.450  1.00  0.00     0.004 C 
ENDBRANCH  28  29
ENDBRANCH  27  28
ENDBRANCH  26  27
ENDBRANCH  25  26
ENDBRANCH  24  25
ENDBRANCH  23  24
ENDBRANCH  22  23
ENDBRANCH  21  22
ENDBRANCH  20  21
ENDBRANCH  19  20
ENDBRANCH  18  19
ENDBRANCH  17  18
ENDBRANCH   1  17
TORSDOF 26
ENDMDL
MODEL 8
REMARK VINA RESULT:    -4.412      2.399      6.652
REMARK INTER + INTRA:         -15.868
REMARK INTER:                 -10.334
REMARK INTRA:                  -5.534
REMARK UNBOUND:                -4.750
REMARK SMILES CCCCCCCCCCCCCCCCCCCCCCCCCCCC(=O)[O-]
REMARK SMILES IDX 15 1 16 2 17 3 18 4 19 5 20 6 21 7 22 8 23 9 24 10 25 11
REMARK SMILES IDX 26 12 27 13 28 14 29 15 30 16 14 17 13 18 12 19 11 20 10 21
REMARK SMILES IDX 9 22 8 23 7 24 6 25 5 26 4 27 3 28 2 29 1 30
REMARK H PARENT
REMARK Flexibility Score: inf
ROOT
ATOM      1  C   UNL     1      16.363  15.939  32.067  1.00  0.00     0.000 C 
ENDROOT
BRANCH   1   2
ATOM      2  C   UNL     1      17.144  14.717  32.575  1.00  0.00     0.000 C 
BRANCH   2   3
ATOM      3  C   UNL     1      18.226  15.092  33.602  1.00  0.00     0.000 C 
BRANCH   3   4
ATOM      4  C   UNL     1      19.564  15.467  32.941  1.00  0.00     0.000 C 
BRANCH   4   5
ATOM      5  C   UNL     1      19.803  14.713  31.623  1.00  0.00     0.000 C 
BRANCH   5   6
ATOM      6  C   UNL     1      20.195  15.652  30.468  1.00  0.00     0.000 C 
BRANCH   6   7
ATOM      7  C   UNL     1      19.421  15.352  29.176  1.00  0.00     0.000 C 
BRANCH   7   8
ATOM      8  C   UNL     1      18.486  16.505  28.769  1.00  0.00     0.000 C 
BRANCH   8   9
ATOM      9  C   UNL     1      17.022  16.058  28.629  1.00  0.00     0.000 C 
BRANCH   9  10
ATOM     10  C   UNL     1      16.149  16.972  27.748  1.00  0.00     0.000 C 
BRANCH  10  11
ATOM     11  C   UNL     1      15.710  18.276  28.448  1.00  0.00     0.000 C 
BRANCH  11  12
ATOM     12  C   UNL     1      14.213  18.273  28.801  1.00  0.00     0.006 C 
BRANCH  12  13
ATOM     13  C   UNL     1      13.975  18.188  30.314  1.00  0.00     0.053 C 
BRANCH  13  14
ATOM     14  C   UNL     1      13.060  17.054  30.666  1.00  0.00     0.041 C 
ATOM     15  O   UNL     1      12.806  16.158  29.819  1.00  0.00    -0.550 OA
ATOM     16  O   UNL     1      12.470  17.001  31.922  1.00  0.00    -0.550 OA
ENDBRANCH  13  14
ENDBRANCH  12  13
ENDBRANCH  11  12
ENDBRANCH  10  11
ENDBRANCH   9  10
ENDBRANCH   8   9
ENDBRANCH   7   8
ENDBRANCH   6   7
ENDBRANCH   5   6
ENDBRANCH   4   5
ENDBRANCH   3   4
ENDBRANCH   2   3
ENDBRANCH   1   2
BRANCH   1  17
ATOM     17  C   UNL     1      16.068  16.920  33.210  1.00  0.00     0.000 C 
BRANCH  17  18
ATOM     18  C   UNL     1      16.504  18.363  32.893  1.00  0.00     0.000 C 
BRANCH  18  19
ATOM     19  C   UNL     1      17.313  18.532  31.593  1.00  0.00     0.000 C 
BRANCH  19  20
ATOM     20  C   UNL     1      18.788  18.889  31.845  1.00  0.00     0.000 C 
BRANCH  20  21
ATOM     21  C   UNL     1      19.051  19.319  33.298  1.00  0.00     0.000 C 
BRANCH  21  22
ATOM     22  C   UNL     1      20.378  18.779  33.849  1.00  0.00    -0.000 C 
BRANCH  22  23
ATOM     23  C   UNL     1      20.804  19.549  35.106  1.00  0.00    -0.000 C 
BRANCH  23  24
ATOM     24  C   UNL     1      19.625  20.339  35.695  1.00  0.00    -0.000 C 
BRANCH  24  25
ATOM     25  C   UNL     1      19.051  19.697  36.970  1.00  0.00    -0.000 C 
BRANCH  25  26
ATOM     26  C   UNL     1      17.635  19.109  36.818  1.00  0.00    -0.000 C 
BRANCH  26  27
ATOM     27  C   UNL     1      17.645  17.636  36.385  1.00  0.00    -0.000 C 
BRANCH  27  28
ATOM     28  C   UNL     1      16.339  16.937  36.784  1.00  0.00    -0.000 C 
BRANCH  28  29
ATOM     29  C   UNL     1      16.530  15.419  36.861  1.00  0.00    -0.003 C 
ATOM     30  C   UNL     1      15.421  14.684  36.114  1.00  0.00     0.004 C 
ENDBRANCH  28  29
ENDBRANCH  27  28
ENDBRANCH  26  27
ENDBRANCH  25  26
ENDBRANCH  24  25
ENDBRANCH  23  24
ENDBRANCH  22  23
ENDBRANCH  21  22
ENDBRANCH  20  21
ENDBRANCH  19  20
ENDBRANCH  18  19
ENDBRANCH  17  18
ENDBRANCH   1  17
TORSDOF 26
ENDMDL
