MODEL 1
REMARK VINA RESULT:    -2.862      0.000      0.000
REMARK INTER + INTRA:          -3.420
REMARK INTER:                  -3.363
REMARK INTRA:                  -0.057
REMARK UNBOUND:                -0.057
REMARK SMILES CCCCC(=O)[O-]
REMARK SMILES IDX 4 1 5 2 6 3 7 4 3 5 2 6 1 7
REMARK H PARENT
REMARK Flexibility Score: inf
ROOT
ATOM      1  C   UNL     1      28.033 -42.732   1.612  1.00  0.00     0.053 C 
ENDROOT
BRANCH   1   2
ATOM      2  C   UNL     1      28.517 -43.043   0.232  1.00  0.00     0.041 C 
ATOM      3  O   UNL     1      29.740 -42.933  -0.051  1.00  0.00    -0.550 OA
ATOM      4  O   UNL     1      27.612 -43.409  -0.757  1.00  0.00    -0.550 OA
ENDBRANCH   1   2
BRANCH   1   5
ATOM      5  C   UNL     1      28.264 -43.924   2.544  1.00  0.00     0.006 C 
BRANCH   5   6
ATOM      6  C   UNL     1      27.063 -44.877   2.526  1.00  0.00    -0.003 C 
ATOM      7  C   UNL     1      27.339 -46.129   3.353  1.00  0.00     0.004 C 
ENDBRANCH   5   6
ENDBRANCH   1   5
TORSDOF 3
ENDMDL
MODEL 2
REMARK VINA RESULT:    -2.845     16.894     17.551
REMARK INTER + INTRA:          -3.401
REMARK INTER:                  -3.337
REMARK INTRA:                  -0.063
REMARK UNBOUND:                -0.057
REMARK SMILES CCCCC(=O)[O-]
REMARK SMILES IDX 4 1 5 2 6 3 7 4 3 5 2 6 1 7
REMARK H PARENT
REMARK Flexibility Score: inf
ROOT
ATOM      1  C   UNL     1      35.427 -53.258 -12.046  1.00  0.00     0.053 C 
ENDROOT
BRANCH   1   2
ATOM      2  C   UNL     1      35.664 -51.823 -11.696  1.00  0.00     0.041 C 
ATOM      3  O   UNL     1      36.837 -51.373 -11.628  1.00  0.00    -0.550 OA
ATOM      4  O   UNL     1      34.589 -50.995 -11.397  1.00  0.00    -0.550 OA
ENDBRANCH   1   2
BRANCH   1   5
ATOM      5  C   UNL     1      36.563 -54.135 -11.512  1.00  0.00     0.006 C 
BRANCH   5   6
ATOM      6  C   UNL     1      36.036 -55.162 -10.503  1.00  0.00    -0.003 C 
ATOM      7  C   UNL     1      34.525 -55.336 -10.630  1.00  0.00     0.004 C 
ENDBRANCH   5   6
ENDBRANCH   1   5
TORSDOF 3
ENDMDL
MODEL 3
REMARK VINA RESULT:    -2.830     17.149     18.030
REMARK INTER + INTRA:          -3.384
REMARK INTER:                  -3.313
REMARK INTRA:                  -0.071
REMARK UNBOUND:                -0.057
REMARK SMILES CCCCC(=O)[O-]
REMARK SMILES IDX 4 1 5 2 6 3 7 4 3 5 2 6 1 7
REMARK H PARENT
REMARK Flexibility Score: inf
ROOT
ATOM      1  C   UNL     1      35.365 -53.980 -11.687  1.00  0.00     0.053 C 
ENDROOT
BRANCH   1   2
ATOM      2  C   UNL     1      35.272 -55.098 -10.697  1.00  0.00     0.041 C 
ATOM      3  O   UNL     1      34.247 -55.828 -10.659  1.00  0.00    -0.550 OA
ATOM      4  O   UNL     1      36.298 -55.303  -9.782  1.00  0.00    -0.550 OA
ENDBRANCH   1   2
BRANCH   1   5
ATOM      5  C   UNL     1      36.759 -53.348 -11.653  1.00  0.00     0.006 C 
BRANCH   5   6
ATOM      6  C   UNL     1      36.668 -51.827 -11.479  1.00  0.00    -0.003 C 
ATOM      7  C   UNL     1      35.221 -51.349 -11.546  1.00  0.00     0.004 C 
ENDBRANCH   5   6
ENDBRANCH   1   5
TORSDOF 3
ENDMDL
MODEL 4
REMARK VINA RESULT:    -2.801      8.290      8.909
REMARK INTER + INTRA:          -3.350
REMARK INTER:                  -3.312
REMARK INTRA:                  -0.038
REMARK UNBOUND:                -0.057
REMARK SMILES CCCCC(=O)[O-]
REMARK SMILES IDX 4 1 5 2 6 3 7 4 3 5 2 6 1 7
REMARK H PARENT
REMARK Flexibility Score: inf
ROOT
ATOM      1  C   UNL     1      34.653 -49.695   2.515  1.00  0.00     0.053 C 
ENDROOT
BRANCH   1   2
ATOM      2  C   UNL     1      33.557 -50.305   1.701  1.00  0.00     0.041 C 
ATOM      3  O   UNL     1      33.247 -49.812   0.585  1.00  0.00    -0.550 OA
ATOM      4  O   UNL     1      32.844 -51.389   2.197  1.00  0.00    -0.550 OA
ENDBRANCH   1   2
BRANCH   1   5
ATOM      5  C   UNL     1      34.575 -48.167   2.462  1.00  0.00     0.006 C 
BRANCH   5   6
ATOM      6  C   UNL     1      35.437 -47.533   3.560  1.00  0.00    -0.003 C 
ATOM      7  C   UNL     1      36.245 -48.591   4.307  1.00  0.00     0.004 C 
ENDBRANCH   5   6
ENDBRANCH   1   5
TORSDOF 3
ENDMDL
MODEL 5
REMARK VINA RESULT:    -2.765      9.031      9.864
REMARK INTER + INTRA:          -3.307
REMARK INTER:                  -3.265
REMARK INTRA:                  -0.042
REMARK UNBOUND:                -0.057
REMARK SMILES CCCCC(=O)[O-]
REMARK SMILES IDX 4 1 5 2 6 3 7 4 3 5 2 6 1 7
REMARK H PARENT
REMARK Flexibility Score: inf
ROOT
ATOM      1  C   UNL     1      34.567 -50.202   2.393  1.00  0.00     0.053 C 
ENDROOT
BRANCH   1   2
ATOM      2  C   UNL     1      35.530 -51.110   3.091  1.00  0.00     0.041 C 
ATOM      3  O   UNL     1      36.726 -50.755   3.262  1.00  0.00    -0.550 OA
ATOM      4  O   UNL     1      35.118 -52.369   3.510  1.00  0.00    -0.550 OA
ENDBRANCH   1   2
BRANCH   1   5
ATOM      5  C   UNL     1      33.257 -50.935   2.095  1.00  0.00     0.006 C 
BRANCH   5   6
ATOM      6  C   UNL     1      32.443 -50.194   1.028  1.00  0.00    -0.003 C 
ATOM      7  C   UNL     1      33.179 -48.951   0.536  1.00  0.00     0.004 C 
ENDBRANCH   5   6
ENDBRANCH   1   5
TORSDOF 3
ENDMDL
MODEL 6
REMARK VINA RESULT:    -2.746      9.573     10.430
REMARK INTER + INTRA:          -3.284
REMARK INTER:                  -3.234
REMARK INTRA:                  -0.051
REMARK UNBOUND:                -0.057
REMARK SMILES CCCCC(=O)[O-]
REMARK SMILES IDX 4 1 5 2 6 3 7 4 3 5 2 6 1 7
REMARK H PARENT
REMARK Flexibility Score: inf
ROOT
ATOM      1  C   UNL     1      35.887 -50.639   2.898  1.00  0.00     0.053 C 
ENDROOT
BRANCH   1   2
ATOM      2  C   UNL     1      34.571 -50.041   2.514  1.00  0.00     0.041 C 
ATOM      3  O   UNL     1      33.615 -50.783   2.165  1.00  0.00    -0.550 OA
ATOM      4  O   UNL     1      34.414 -48.661   2.493  1.00  0.00    -0.550 OA
ENDBRANCH   1   2
BRANCH   1   5
ATOM      5  C   UNL     1      35.681 -51.986   3.596  1.00  0.00     0.006 C 
BRANCH   5   6
ATOM      6  C   UNL     1      36.451 -52.042   4.920  1.00  0.00    -0.003 C 
ATOM      7  C   UNL     1      36.698 -50.642   5.475  1.00  0.00     0.004 C 
ENDBRANCH   5   6
ENDBRANCH   1   5
TORSDOF 3
ENDMDL
MODEL 7
REMARK VINA RESULT:    -2.671      8.193      8.861
REMARK INTER + INTRA:          -3.196
REMARK INTER:                  -3.160
REMARK INTRA:                  -0.036
REMARK UNBOUND:                -0.057
REMARK SMILES CCCCC(=O)[O-]
REMARK SMILES IDX 4 1 5 2 6 3 7 4 3 5 2 6 1 7
REMARK H PARENT
REMARK Flexibility Score: inf
ROOT
ATOM      1  C   UNL     1      34.469 -48.808   2.097  1.00  0.00     0.053 C 
ENDROOT
BRANCH   1   2
ATOM      2  C   UNL     1      34.349 -50.281   2.326  1.00  0.00     0.041 C 
ATOM      3  O   UNL     1      35.328 -50.935   2.772  1.00  0.00    -0.550 OA
ATOM      4  O   UNL     1      33.171 -50.942   1.999  1.00  0.00    -0.550 OA
ENDBRANCH   1   2
BRANCH   1   5
ATOM      5  C   UNL     1      35.186 -48.139   3.273  1.00  0.00     0.006 C 
BRANCH   5   6
ATOM      6  C   UNL     1      35.186 -46.614   3.121  1.00  0.00    -0.003 C 
ATOM      7  C   UNL     1      34.044 -46.148   2.223  1.00  0.00     0.004 C 
ENDBRANCH   5   6
ENDBRANCH   1   5
TORSDOF 3
ENDMDL
MODEL 8
REMARK VINA RESULT:    -2.671      9.585     10.453
REMARK INTER + INTRA:          -3.196
REMARK INTER:                  -3.169
REMARK INTRA:                  -0.027
REMARK UNBOUND:                -0.057
REMARK SMILES CCCCC(=O)[O-]
REMARK SMILES IDX 4 1 5 2 6 3 7 4 3 5 2 6 1 7
REMARK H PARENT
REMARK Flexibility Score: inf
ROOT
ATOM      1  C   UNL     1      35.989 -50.632   2.942  1.00  0.00     0.053 C 
ENDROOT
BRANCH   1   2
ATOM      2  C   UNL     1      36.286 -50.644   4.408  1.00  0.00     0.041 C 
ATOM      3  O   UNL     1      36.498 -49.564   5.021  1.00  0.00    -0.550 OA
ATOM      4  O   UNL     1      36.377 -51.851   5.090  1.00  0.00    -0.550 OA
ENDBRANCH   1   2
BRANCH   1   5
ATOM      5  C   UNL     1      34.713 -49.835   2.659  1.00  0.00     0.006 C 
BRANCH   5   6
ATOM      6  C   UNL     1      33.599 -50.748   2.135  1.00  0.00    -0.003 C 
ATOM      7  C   UNL     1      32.779 -50.053   1.052  1.00  0.00     0.004 C 
ENDBRANCH   5   6
ENDBRANCH   1   5
TORSDOF 3
ENDMDL
MODEL 9
REMARK VINA RESULT:    -2.639     10.412     11.383
REMARK INTER + INTRA:          -3.158
REMARK INTER:                  -3.123
REMARK INTRA:                  -0.035
REMARK UNBOUND:                -0.057
REMARK SMILES CCCCC(=O)[O-]
REMARK SMILES IDX 4 1 5 2 6 3 7 4 3 5 2 6 1 7
REMARK H PARENT
REMARK Flexibility Score: inf
ROOT
ATOM      1  C   UNL     1      35.537 -51.987   3.510  1.00  0.00     0.053 C 
ENDROOT
BRANCH   1   2
ATOM      2  C   UNL     1      36.302 -52.100   4.791  1.00  0.00     0.041 C 
ATOM      3  O   UNL     1      36.658 -53.230   5.218  1.00  0.00    -0.550 OA
ATOM      4  O   UNL     1      36.578 -50.962   5.539  1.00  0.00    -0.550 OA
ENDBRANCH   1   2
BRANCH   1   5
ATOM      5  C   UNL     1      35.750 -50.608   2.879  1.00  0.00     0.006 C 
BRANCH   5   6
ATOM      6  C   UNL     1      34.429 -50.033   2.355  1.00  0.00    -0.003 C 
ATOM      7  C   UNL     1      34.472 -48.509   2.304  1.00  0.00     0.004 C 
ENDBRANCH   5   6
ENDBRANCH   1   5
TORSDOF 3
ENDMDL
