MODEL 1
REMARK VINA RESULT:    -6.487      0.000      0.000
REMARK INTER + INTRA:          -7.889
REMARK INTER:                  -7.625
REMARK INTRA:                  -0.265
REMARK UNBOUND:                -0.265
REMARK SMILES O=c1cc(-c2ccc(O)c(O)c2)oc2cc(O)cc(O)c12
REMARK SMILES IDX 4 1 3 2 2 3 1 4 21 5 19 6 18 7 16 8 15 9 14 10 13 11 5 12
REMARK SMILES IDX 6 13 7 14 8 15 12 16 10 17 9 18 11 20 20 22 17 24
REMARK H PARENT 9 19 11 21 20 23 17 25
REMARK Flexibility Score: inf
ROOT
ATOM      1  C   UNL     1      10.052  12.245 -16.711  1.00  0.00     0.138 A 
ATOM      2  C   UNL     1      10.883  13.283 -16.257  1.00  0.00     0.100 A 
ATOM      3  C   UNL     1      10.967  14.467 -16.993  1.00  0.00     0.197 A 
ATOM      4  O   UNL     1      11.716  15.392 -16.579  1.00  0.00    -0.289 OA
ATOM      5  C   UNL     1      10.222  14.601 -18.181  1.00  0.00     0.107 A 
ATOM      6  C   UNL     1      10.248  15.766 -18.985  1.00  0.00     0.134 A 
ATOM      7  C   UNL     1       9.480  15.819 -20.157  1.00  0.00     0.093 A 
ATOM      8  C   UNL     1       8.689  14.733 -20.541  1.00  0.00     0.123 A 
ATOM      9  C   UNL     1       8.658  13.580 -19.750  1.00  0.00     0.094 A 
ATOM     10  C   UNL     1       9.416  13.507 -18.577  1.00  0.00     0.146 A 
ATOM     11  O   UNL     1       9.369  12.401 -17.842  1.00  0.00    -0.456 OA
ENDROOT
BRANCH   1  12
ATOM     12  C   UNL     1       9.924  10.964 -15.969  1.00  0.00     0.021 A 
ATOM     13  C   UNL     1      10.830   9.904 -16.162  1.00  0.00     0.016 A 
ATOM     14  C   UNL     1      10.691   8.714 -15.443  1.00  0.00     0.051 A 
ATOM     15  C   UNL     1       9.652   8.566 -14.516  1.00  0.00     0.157 A 
ATOM     16  C   UNL     1       8.892  10.811 -15.026  1.00  0.00     0.062 A 
ATOM     17  C   UNL     1       8.753   9.617 -14.305  1.00  0.00     0.158 A 
BRANCH  15  18
ATOM     18  O   UNL     1       9.511   7.379 -13.798  1.00  0.00    -0.504 OA
ATOM     19  H   UNL     1       9.235   6.515 -14.251  1.00  0.00     0.293 HD
ENDBRANCH  15  18
BRANCH  17  20
ATOM     20  O   UNL     1       7.722   9.468 -13.380  1.00  0.00    -0.504 OA
ATOM     21  H   UNL     1       6.769   9.287 -13.671  1.00  0.00     0.293 HD
ENDBRANCH  17  20
ENDBRANCH   1  12
BRANCH   6  22
ATOM     22  O   UNL     1      11.030  16.866 -18.629  1.00  0.00    -0.507 OA
ATOM     23  H   UNL     1      11.022  17.723 -19.169  1.00  0.00     0.293 HD
ENDBRANCH   6  22
BRANCH   8  24
ATOM     24  O   UNL     1       7.935  14.812 -21.710  1.00  0.00    -0.508 OA
ATOM     25  H   UNL     1       7.249  15.544 -21.849  1.00  0.00     0.293 HD
ENDBRANCH   8  24
TORSDOF 5
ENDMDL
MODEL 2
REMARK VINA RESULT:    -6.311      2.271      3.035
REMARK INTER + INTRA:          -7.683
REMARK INTER:                  -7.383
REMARK INTRA:                  -0.301
REMARK UNBOUND:                -0.265
REMARK SMILES O=c1cc(-c2ccc(O)c(O)c2)oc2cc(O)cc(O)c12
REMARK SMILES IDX 4 1 3 2 2 3 1 4 21 5 19 6 18 7 16 8 15 9 14 10 13 11 5 12
REMARK SMILES IDX 6 13 7 14 8 15 12 16 10 17 9 18 11 20 20 22 17 24
REMARK H PARENT 9 19 11 21 20 23 17 25
REMARK Flexibility Score: inf
ROOT
ATOM      1  C   UNL     1       9.702  13.858 -18.408  1.00  0.00     0.138 A 
ATOM      2  C   UNL     1       9.369  14.991 -17.648  1.00  0.00     0.100 A 
ATOM      3  C   UNL     1       8.953  16.155 -18.297  1.00  0.00     0.197 A 
ATOM      4  O   UNL     1       8.657  17.168 -17.607  1.00  0.00    -0.289 OA
ATOM      5  C   UNL     1       8.878  16.177 -19.704  1.00  0.00     0.107 A 
ATOM      6  C   UNL     1       8.466  17.314 -20.440  1.00  0.00     0.134 A 
ATOM      7  C   UNL     1       8.422  17.257 -21.841  1.00  0.00     0.093 A 
ATOM      8  C   UNL     1       8.784  16.089 -22.518  1.00  0.00     0.123 A 
ATOM      9  C   UNL     1       9.192  14.963 -21.797  1.00  0.00     0.094 A 
ATOM     10  C   UNL     1       9.240  14.999 -20.399  1.00  0.00     0.146 A 
ATOM     11  O   UNL     1       9.630  13.916 -19.736  1.00  0.00    -0.456 OA
ENDROOT
BRANCH   1  12
ATOM     12  C   UNL     1      10.151  12.593 -17.771  1.00  0.00     0.021 A 
ATOM     13  C   UNL     1      10.952  12.591 -16.614  1.00  0.00     0.016 A 
ATOM     14  C   UNL     1      11.351  11.386 -16.030  1.00  0.00     0.051 A 
ATOM     15  C   UNL     1      10.953  10.165 -16.587  1.00  0.00     0.157 A 
ATOM     16  C   UNL     1       9.745  11.362 -18.316  1.00  0.00     0.062 A 
ATOM     17  C   UNL     1      10.146  10.153 -17.731  1.00  0.00     0.158 A 
BRANCH  15  18
ATOM     18  O   UNL     1      11.351   8.961 -16.008  1.00  0.00    -0.504 OA
ATOM     19  H   UNL     1      10.746   8.149 -16.004  1.00  0.00     0.293 HD
ENDBRANCH  15  18
BRANCH  17  20
ATOM     20  O   UNL     1       9.747   8.936 -18.282  1.00  0.00    -0.504 OA
ATOM     21  H   UNL     1      10.295   8.093 -18.159  1.00  0.00     0.293 HD
ENDBRANCH  17  20
ENDBRANCH   1  12
BRANCH   6  22
ATOM     22  O   UNL     1       8.100  18.495 -19.792  1.00  0.00    -0.507 OA
ATOM     23  H   UNL     1       7.432  19.140 -20.197  1.00  0.00     0.293 HD
ENDBRANCH   6  22
BRANCH   8  24
ATOM     24  O   UNL     1       8.733  16.059 -23.910  1.00  0.00    -0.508 OA
ATOM     25  H   UNL     1       8.898  15.204 -24.427  1.00  0.00     0.293 HD
ENDBRANCH   8  24
TORSDOF 5
ENDMDL
MODEL 3
REMARK VINA RESULT:    -6.276      2.112      7.251
REMARK INTER + INTRA:          -7.642
REMARK INTER:                  -7.329
REMARK INTRA:                  -0.313
REMARK UNBOUND:                -0.265
REMARK SMILES O=c1cc(-c2ccc(O)c(O)c2)oc2cc(O)cc(O)c12
REMARK SMILES IDX 4 1 3 2 2 3 1 4 21 5 19 6 18 7 16 8 15 9 14 10 13 11 5 12
REMARK SMILES IDX 6 13 7 14 8 15 12 16 10 17 9 18 11 20 20 22 17 24
REMARK H PARENT 9 19 11 21 20 23 17 25
REMARK Flexibility Score: inf
ROOT
ATOM      1  C   UNL     1       9.036  13.457 -18.685  1.00  0.00     0.138 A 
ATOM      2  C   UNL     1       9.683  12.239 -18.950  1.00  0.00     0.100 A 
ATOM      3  C   UNL     1       9.802  11.290 -17.933  1.00  0.00     0.197 A 
ATOM      4  O   UNL     1      10.385  10.199 -18.180  1.00  0.00    -0.289 OA
ATOM      5  C   UNL     1       9.277  11.569 -16.656  1.00  0.00     0.107 A 
ATOM      6  C   UNL     1       9.354  10.663 -15.571  1.00  0.00     0.134 A 
ATOM      7  C   UNL     1       8.810  11.020 -14.328  1.00  0.00     0.093 A 
ATOM      8  C   UNL     1       8.193  12.261 -14.149  1.00  0.00     0.123 A 
ATOM      9  C   UNL     1       8.114  13.160 -15.218  1.00  0.00     0.094 A 
ATOM     10  C   UNL     1       8.649  12.823 -16.465  1.00  0.00     0.146 A 
ATOM     11  O   UNL     1       8.560  13.694 -17.465  1.00  0.00    -0.456 OA
ENDROOT
BRANCH   1  12
ATOM     12  C   UNL     1       8.881  14.504 -19.728  1.00  0.00     0.021 A 
ATOM     13  C   UNL     1       8.940  14.195 -21.100  1.00  0.00     0.016 A 
ATOM     14  C   UNL     1       8.780  15.199 -22.059  1.00  0.00     0.051 A 
ATOM     15  C   UNL     1       8.552  16.523 -21.666  1.00  0.00     0.157 A 
ATOM     16  C   UNL     1       8.637  15.834 -19.342  1.00  0.00     0.062 A 
ATOM     17  C   UNL     1       8.477  16.841 -20.304  1.00  0.00     0.158 A 
BRANCH  15  18
ATOM     18  O   UNL     1       8.393  17.526 -22.621  1.00  0.00    -0.504 OA
ATOM     19  H   UNL     1       9.021  18.320 -22.665  1.00  0.00     0.293 HD
ENDBRANCH  15  18
BRANCH  17  20
ATOM     20  O   UNL     1       8.247  18.159 -19.915  1.00  0.00    -0.504 OA
ATOM     21  H   UNL     1       7.829  18.833 -20.545  1.00  0.00     0.293 HD
ENDBRANCH  17  20
ENDBRANCH   1  12
BRANCH   6  22
ATOM     22  O   UNL     1       9.965   9.418 -15.719  1.00  0.00    -0.507 OA
ATOM     23  H   UNL     1      10.313   9.097 -16.615  1.00  0.00     0.293 HD
ENDBRANCH   6  22
BRANCH   8  24
ATOM     24  O   UNL     1       7.662  12.590 -12.904  1.00  0.00    -0.508 OA
ATOM     25  H   UNL     1       6.952  13.306 -12.805  1.00  0.00     0.293 HD
ENDBRANCH   8  24
TORSDOF 5
ENDMDL
MODEL 4
REMARK VINA RESULT:    -6.236      2.304      3.423
REMARK INTER + INTRA:          -7.595
REMARK INTER:                  -7.277
REMARK INTRA:                  -0.318
REMARK UNBOUND:                -0.265
REMARK SMILES O=c1cc(-c2ccc(O)c(O)c2)oc2cc(O)cc(O)c12
REMARK SMILES IDX 4 1 3 2 2 3 1 4 21 5 19 6 18 7 16 8 15 9 14 10 13 11 5 12
REMARK SMILES IDX 6 13 7 14 8 15 12 16 10 17 9 18 11 20 20 22 17 24
REMARK H PARENT 9 19 11 21 20 23 17 25
REMARK Flexibility Score: inf
ROOT
ATOM      1  C   UNL     1       8.020  12.958 -17.180  1.00  0.00     0.138 A 
ATOM      2  C   UNL     1       7.526  12.489 -18.409  1.00  0.00     0.100 A 
ATOM      3  C   UNL     1       7.703  13.259 -19.560  1.00  0.00     0.197 A 
ATOM      4  O   UNL     1       7.255  12.831 -20.658  1.00  0.00    -0.289 OA
ATOM      5  C   UNL     1       8.370  14.497 -19.472  1.00  0.00     0.107 A 
ATOM      6  C   UNL     1       8.593  15.339 -20.588  1.00  0.00     0.134 A 
ATOM      7  C   UNL     1       9.261  16.560 -20.416  1.00  0.00     0.093 A 
ATOM      8  C   UNL     1       9.709  16.955 -19.152  1.00  0.00     0.123 A 
ATOM      9  C   UNL     1       9.493  16.128 -18.046  1.00  0.00     0.094 A 
ATOM     10  C   UNL     1       8.829  14.906 -18.197  1.00  0.00     0.146 A 
ATOM     11  O   UNL     1       8.636  14.137 -17.130  1.00  0.00    -0.456 OA
ENDROOT
BRANCH   1  12
ATOM     12  C   UNL     1       7.859  12.182 -15.924  1.00  0.00     0.021 A 
ATOM     13  C   UNL     1       7.256  10.910 -15.913  1.00  0.00     0.016 A 
ATOM     14  C   UNL     1       7.128  10.198 -14.717  1.00  0.00     0.051 A 
ATOM     15  C   UNL     1       7.606  10.739 -13.517  1.00  0.00     0.157 A 
ATOM     16  C   UNL     1       8.349  12.712 -14.717  1.00  0.00     0.062 A 
ATOM     17  C   UNL     1       8.220  11.997 -13.518  1.00  0.00     0.158 A 
BRANCH  15  18
ATOM     18  O   UNL     1       7.478  10.031 -12.323  1.00  0.00    -0.504 OA
ATOM     19  H   UNL     1       6.579   9.692 -12.001  1.00  0.00     0.293 HD
ENDBRANCH  15  18
BRANCH  17  20
ATOM     20  O   UNL     1       8.697  12.532 -12.323  1.00  0.00    -0.504 OA
ATOM     21  H   UNL     1       8.548  13.503 -12.079  1.00  0.00     0.293 HD
ENDBRANCH  17  20
ENDBRANCH   1  12
BRANCH   6  22
ATOM     22  O   UNL     1       8.155  14.972 -21.861  1.00  0.00    -0.507 OA
ATOM     23  H   UNL     1       8.632  15.286 -22.699  1.00  0.00     0.293 HD
ENDBRANCH   6  22
BRANCH   8  24
ATOM     24  O   UNL     1      10.371  18.173 -19.009  1.00  0.00    -0.508 OA
ATOM     25  H   UNL     1      11.363  18.216 -18.809  1.00  0.00     0.293 HD
ENDBRANCH   8  24
TORSDOF 5
ENDMDL
MODEL 5
REMARK VINA RESULT:    -6.230      1.162      1.672
REMARK INTER + INTRA:          -7.588
REMARK INTER:                  -7.320
REMARK INTRA:                  -0.268
REMARK UNBOUND:                -0.265
REMARK SMILES O=c1cc(-c2ccc(O)c(O)c2)oc2cc(O)cc(O)c12
REMARK SMILES IDX 4 1 3 2 2 3 1 4 21 5 19 6 18 7 16 8 15 9 14 10 13 11 5 12
REMARK SMILES IDX 6 13 7 14 8 15 12 16 10 17 9 18 11 20 20 22 17 24
REMARK H PARENT 9 19 11 21 20 23 17 25
REMARK Flexibility Score: inf
ROOT
ATOM      1  C   UNL     1       9.578  12.647 -17.443  1.00  0.00     0.138 A 
ATOM      2  C   UNL     1      10.337  13.671 -16.852  1.00  0.00     0.100 A 
ATOM      3  C   UNL     1      10.514  14.876 -17.534  1.00  0.00     0.197 A 
ATOM      4  O   UNL     1      11.197  15.789 -16.997  1.00  0.00    -0.289 OA
ATOM      5  C   UNL     1       9.933  15.046 -18.807  1.00  0.00     0.107 A 
ATOM      6  C   UNL     1      10.062  16.234 -19.565  1.00  0.00     0.134 A 
ATOM      7  C   UNL     1       9.457  16.323 -20.827  1.00  0.00     0.093 A 
ATOM      8  C   UNL     1       8.728  15.249 -21.345  1.00  0.00     0.123 A 
ATOM      9  C   UNL     1       8.597  14.072 -20.600  1.00  0.00     0.094 A 
ATOM     10  C   UNL     1       9.192  13.965 -19.339  1.00  0.00     0.146 A 
ATOM     11  O   UNL     1       9.051  12.837 -18.650  1.00  0.00    -0.456 OA
ENDROOT
BRANCH   1  12
ATOM     12  C   UNL     1       9.358  11.345 -16.764  1.00  0.00     0.021 A 
ATOM     13  C   UNL     1       8.064  10.838 -16.538  1.00  0.00     0.016 A 
ATOM     14  C   UNL     1       7.887   9.604 -15.905  1.00  0.00     0.051 A 
ATOM     15  C   UNL     1       8.997   8.855 -15.495  1.00  0.00     0.157 A 
ATOM     16  C   UNL     1      10.466  10.579 -16.360  1.00  0.00     0.062 A 
ATOM     17  C   UNL     1      10.288   9.342 -15.725  1.00  0.00     0.158 A 
BRANCH  15  18
ATOM     18  O   UNL     1       8.823   7.625 -14.862  1.00  0.00    -0.504 OA
ATOM     19  H   UNL     1       9.370   7.364 -14.051  1.00  0.00     0.293 HD
ENDBRANCH  15  18
BRANCH  17  20
ATOM     20  O   UNL     1      11.391   8.593 -15.318  1.00  0.00    -0.504 OA
ATOM     21  H   UNL     1      11.296   7.813 -14.679  1.00  0.00     0.293 HD
ENDBRANCH  17  20
ENDBRANCH   1  12
BRANCH   6  22
ATOM     22  O   UNL     1      10.785  17.323 -19.075  1.00  0.00    -0.507 OA
ATOM     23  H   UNL     1      11.507  17.774 -19.625  1.00  0.00     0.293 HD
ENDBRANCH   6  22
BRANCH   8  24
ATOM     24  O   UNL     1       8.137  15.363 -22.602  1.00  0.00    -0.508 OA
ATOM     25  H   UNL     1       7.698  16.224 -22.903  1.00  0.00     0.293 HD
ENDBRANCH   8  24
TORSDOF 5
ENDMDL
MODEL 6
REMARK VINA RESULT:    -6.008      1.182      2.736
REMARK INTER + INTRA:          -7.326
REMARK INTER:                  -7.063
REMARK INTRA:                  -0.263
REMARK UNBOUND:                -0.265
REMARK SMILES O=c1cc(-c2ccc(O)c(O)c2)oc2cc(O)cc(O)c12
REMARK SMILES IDX 4 1 3 2 2 3 1 4 21 5 19 6 18 7 16 8 15 9 14 10 13 11 5 12
REMARK SMILES IDX 6 13 7 14 8 15 12 16 10 17 9 18 11 20 20 22 17 24
REMARK H PARENT 9 19 11 21 20 23 17 25
REMARK Flexibility Score: inf
ROOT
ATOM      1  C   UNL     1       9.388  11.925 -17.844  1.00  0.00     0.138 A 
ATOM      2  C   UNL     1       8.572  11.680 -18.961  1.00  0.00     0.100 A 
ATOM      3  C   UNL     1       8.342  12.704 -19.881  1.00  0.00     0.197 A 
ATOM      4  O   UNL     1       7.607  12.475 -20.880  1.00  0.00    -0.289 OA
ATOM      5  C   UNL     1       8.927  13.969 -19.675  1.00  0.00     0.107 A 
ATOM      6  C   UNL     1       8.746  15.060 -20.558  1.00  0.00     0.134 A 
ATOM      7  C   UNL     1       9.360  16.290 -20.278  1.00  0.00     0.093 A 
ATOM      8  C   UNL     1      10.148  16.449 -19.135  1.00  0.00     0.123 A 
ATOM      9  C   UNL     1      10.331  15.375 -18.259  1.00  0.00     0.094 A 
ATOM     10  C   UNL     1       9.728  14.140 -18.521  1.00  0.00     0.146 A 
ATOM     11  O   UNL     1       9.918  13.134 -17.674  1.00  0.00    -0.456 OA
ENDROOT
BRANCH   1  12
ATOM     12  C   UNL     1       9.667  10.873 -16.833  1.00  0.00     0.021 A 
ATOM     13  C   UNL     1      10.791  10.031 -16.932  1.00  0.00     0.016 A 
ATOM     14  C   UNL     1      11.033   9.057 -15.960  1.00  0.00     0.051 A 
ATOM     15  C   UNL     1      10.164   8.912 -14.871  1.00  0.00     0.157 A 
ATOM     16  C   UNL     1       8.807  10.730 -15.729  1.00  0.00     0.062 A 
ATOM     17  C   UNL     1       9.051   9.752 -14.755  1.00  0.00     0.158 A 
BRANCH  15  18
ATOM     18  O   UNL     1      10.403   7.940 -13.901  1.00  0.00    -0.504 OA
ATOM     19  H   UNL     1      10.109   6.980 -14.029  1.00  0.00     0.293 HD
ENDBRANCH  15  18
BRANCH  17  20
ATOM     20  O   UNL     1       8.189   9.609 -13.669  1.00  0.00    -0.504 OA
ATOM     21  H   UNL     1       8.293   8.851 -13.005  1.00  0.00     0.293 HD
ENDBRANCH  17  20
ENDBRANCH   1  12
BRANCH   6  22
ATOM     22  O   UNL     1       7.964  14.931 -21.706  1.00  0.00    -0.507 OA
ATOM     23  H   UNL     1       8.367  14.672 -22.599  1.00  0.00     0.293 HD
ENDBRANCH   6  22
BRANCH   8  24
ATOM     24  O   UNL     1      10.746  17.682 -18.880  1.00  0.00    -0.508 OA
ATOM     25  H   UNL     1      11.363  18.120 -19.554  1.00  0.00     0.293 HD
ENDBRANCH   8  24
TORSDOF 5
ENDMDL
MODEL 7
REMARK VINA RESULT:    -5.996      2.118      2.713
REMARK INTER + INTRA:          -7.312
REMARK INTER:                  -7.018
REMARK INTRA:                  -0.294
REMARK UNBOUND:                -0.265
REMARK SMILES O=c1cc(-c2ccc(O)c(O)c2)oc2cc(O)cc(O)c12
REMARK SMILES IDX 4 1 3 2 2 3 1 4 21 5 19 6 18 7 16 8 15 9 14 10 13 11 5 12
REMARK SMILES IDX 6 13 7 14 8 15 12 16 10 17 9 18 11 20 20 22 17 24
REMARK H PARENT 9 19 11 21 20 23 17 25
REMARK Flexibility Score: inf
ROOT
ATOM      1  C   UNL     1       8.441  14.196 -17.136  1.00  0.00     0.138 A 
ATOM      2  C   UNL     1       8.151  15.485 -16.659  1.00  0.00     0.100 A 
ATOM      3  C   UNL     1       8.123  16.558 -17.552  1.00  0.00     0.197 A 
ATOM      4  O   UNL     1       7.863  17.711 -17.115  1.00  0.00    -0.289 OA
ATOM      5  C   UNL     1       8.391  16.333 -18.917  1.00  0.00     0.107 A 
ATOM      6  C   UNL     1       8.383  17.362 -19.889  1.00  0.00     0.134 A 
ATOM      7  C   UNL     1       8.665  17.056 -21.228  1.00  0.00     0.093 A 
ATOM      8  C   UNL     1       8.956  15.745 -21.614  1.00  0.00     0.123 A 
ATOM      9  C   UNL     1       8.966  14.724 -20.659  1.00  0.00     0.094 A 
ATOM     10  C   UNL     1       8.685  15.008 -19.318  1.00  0.00     0.146 A 
ATOM     11  O   UNL     1       8.699  14.020 -18.430  1.00  0.00    -0.456 OA
ENDROOT
BRANCH   1  12
ATOM     12  C   UNL     1       8.484  13.019 -16.231  1.00  0.00     0.021 A 
ATOM     13  C   UNL     1       8.568  11.706 -16.730  1.00  0.00     0.016 A 
ATOM     14  C   UNL     1       8.617  10.617 -15.855  1.00  0.00     0.051 A 
ATOM     15  C   UNL     1       8.592  10.822 -14.470  1.00  0.00     0.157 A 
ATOM     16  C   UNL     1       8.473  13.216 -14.839  1.00  0.00     0.062 A 
ATOM     17  C   UNL     1       8.522  12.124 -13.961  1.00  0.00     0.158 A 
BRANCH  15  18
ATOM     18  O   UNL     1       8.640   9.738 -13.595  1.00  0.00    -0.504 OA
ATOM     19  H   UNL     1       9.145   8.891 -13.827  1.00  0.00     0.293 HD
ENDBRANCH  15  18
BRANCH  17  20
ATOM     20  O   UNL     1       8.500  12.326 -12.582  1.00  0.00    -0.504 OA
ATOM     21  H   UNL     1       7.769  11.934 -12.000  1.00  0.00     0.293 HD
ENDBRANCH  17  20
ENDBRANCH   1  12
BRANCH   6  22
ATOM     22  O   UNL     1       8.098  18.681 -19.534  1.00  0.00    -0.507 OA
ATOM     23  H   UNL     1       8.148  19.437 -20.207  1.00  0.00     0.293 HD
ENDBRANCH   6  22
BRANCH   8  24
ATOM     24  O   UNL     1       9.234  15.469 -22.951  1.00  0.00    -0.508 OA
ATOM     25  H   UNL     1       9.265  16.203 -23.648  1.00  0.00     0.293 HD
ENDBRANCH   8  24
TORSDOF 5
ENDMDL
MODEL 8
REMARK VINA RESULT:    -5.928      2.124      3.683
REMARK INTER + INTRA:          -7.232
REMARK INTER:                  -6.940
REMARK INTRA:                  -0.292
REMARK UNBOUND:                -0.265
REMARK SMILES O=c1cc(-c2ccc(O)c(O)c2)oc2cc(O)cc(O)c12
REMARK SMILES IDX 4 1 3 2 2 3 1 4 21 5 19 6 18 7 16 8 15 9 14 10 13 11 5 12
REMARK SMILES IDX 6 13 7 14 8 15 12 16 10 17 9 18 11 20 20 22 17 24
REMARK H PARENT 9 19 11 21 20 23 17 25
REMARK Flexibility Score: inf
ROOT
ATOM      1  C   UNL     1       9.296  13.536 -18.349  1.00  0.00     0.138 A 
ATOM      2  C   UNL     1       9.295  13.586 -19.753  1.00  0.00     0.100 A 
ATOM      3  C   UNL     1       8.999  14.788 -20.398  1.00  0.00     0.197 A 
ATOM      4  O   UNL     1       8.999  14.823 -21.658  1.00  0.00    -0.289 OA
ATOM      5  C   UNL     1       8.702  15.933 -19.631  1.00  0.00     0.107 A 
ATOM      6  C   UNL     1       8.392  17.190 -20.204  1.00  0.00     0.134 A 
ATOM      7  C   UNL     1       8.103  18.281 -19.371  1.00  0.00     0.093 A 
ATOM      8  C   UNL     1       8.115  18.139 -17.981  1.00  0.00     0.123 A 
ATOM      9  C   UNL     1       8.420  16.900 -17.409  1.00  0.00     0.094 A 
ATOM     10  C   UNL     1       8.713  15.800 -18.222  1.00  0.00     0.146 A 
ATOM     11  O   UNL     1       9.001  14.633 -17.655  1.00  0.00    -0.456 OA
ENDROOT
BRANCH   1  12
ATOM     12  C   UNL     1       9.603  12.284 -17.610  1.00  0.00     0.021 A 
ATOM     13  C   UNL     1       9.252  12.119 -16.258  1.00  0.00     0.016 A 
ATOM     14  C   UNL     1       9.544  10.926 -15.591  1.00  0.00     0.051 A 
ATOM     15  C   UNL     1      10.183   9.878 -16.264  1.00  0.00     0.157 A 
ATOM     16  C   UNL     1      10.233  11.221 -18.283  1.00  0.00     0.062 A 
ATOM     17  C   UNL     1      10.526  10.025 -17.613  1.00  0.00     0.158 A 
BRANCH  15  18
ATOM     18  O   UNL     1      10.477   8.688 -15.601  1.00  0.00    -0.504 OA
ATOM     19  H   UNL     1      10.856   7.887 -16.092  1.00  0.00     0.293 HD
ENDBRANCH  15  18
BRANCH  17  20
ATOM     20  O   UNL     1      11.159   8.980 -18.282  1.00  0.00    -0.504 OA
ATOM     21  H   UNL     1      11.796   8.353 -17.805  1.00  0.00     0.293 HD
ENDBRANCH  17  20
ENDBRANCH   1  12
BRANCH   6  22
ATOM     22  O   UNL     1       8.371  17.361 -21.589  1.00  0.00    -0.507 OA
ATOM     23  H   UNL     1       8.353  18.283 -22.011  1.00  0.00     0.293 HD
ENDBRANCH   6  22
BRANCH   8  24
ATOM     24  O   UNL     1       7.823  19.239 -17.176  1.00  0.00    -0.508 OA
ATOM     25  H   UNL     1       7.069  19.876 -17.405  1.00  0.00     0.293 HD
ENDBRANCH   8  24
TORSDOF 5
ENDMDL
MODEL 9
REMARK VINA RESULT:    -5.835      2.338      7.293
REMARK INTER + INTRA:          -7.123
REMARK INTER:                  -6.810
REMARK INTRA:                  -0.313
REMARK UNBOUND:                -0.265
REMARK SMILES O=c1cc(-c2ccc(O)c(O)c2)oc2cc(O)cc(O)c12
REMARK SMILES IDX 4 1 3 2 2 3 1 4 21 5 19 6 18 7 16 8 15 9 14 10 13 11 5 12
REMARK SMILES IDX 6 13 7 14 8 15 12 16 10 17 9 18 11 20 20 22 17 24
REMARK H PARENT 9 19 11 21 20 23 17 25
REMARK Flexibility Score: inf
ROOT
ATOM      1  C   UNL     1       8.403  11.534 -16.180  1.00  0.00     0.138 A 
ATOM      2  C   UNL     1       8.306  12.103 -14.900  1.00  0.00     0.100 A 
ATOM      3  C   UNL     1       8.059  11.282 -13.799  1.00  0.00     0.197 A 
ATOM      4  O   UNL     1       7.972  11.802 -12.654  1.00  0.00    -0.289 OA
ATOM      5  C   UNL     1       7.905   9.894 -13.989  1.00  0.00     0.107 A 
ATOM      6  C   UNL     1       7.654   8.990 -12.929  1.00  0.00     0.134 A 
ATOM      7  C   UNL     1       7.509   7.621 -13.201  1.00  0.00     0.093 A 
ATOM      8  C   UNL     1       7.609   7.141 -14.510  1.00  0.00     0.123 A 
ATOM      9  C   UNL     1       7.857   8.029 -15.561  1.00  0.00     0.094 A 
ATOM     10  C   UNL     1       8.006   9.397 -15.310  1.00  0.00     0.146 A 
ATOM     11  O   UNL     1       8.243  10.220 -16.326  1.00  0.00    -0.456 OA
ENDROOT
BRANCH   1  12
ATOM     12  C   UNL     1       8.663  12.360 -17.387  1.00  0.00     0.021 A 
ATOM     13  C   UNL     1       8.457  13.752 -17.390  1.00  0.00     0.016 A 
ATOM     14  C   UNL     1       8.720  14.505 -18.537  1.00  0.00     0.051 A 
ATOM     15  C   UNL     1       9.200  13.883 -19.696  1.00  0.00     0.157 A 
ATOM     16  C   UNL     1       9.158  11.745 -18.552  1.00  0.00     0.062 A 
ATOM     17  C   UNL     1       9.422  12.501 -19.702  1.00  0.00     0.158 A 
BRANCH  15  18
ATOM     18  O   UNL     1       9.463  14.632 -20.842  1.00  0.00    -0.504 OA
ATOM     19  H   UNL     1       9.033  15.537 -20.994  1.00  0.00     0.293 HD
ENDBRANCH  15  18
BRANCH  17  20
ATOM     20  O   UNL     1       9.903  11.885 -20.856  1.00  0.00    -0.504 OA
ATOM     21  H   UNL     1       9.314  11.746 -21.668  1.00  0.00     0.293 HD
ENDBRANCH  17  20
ENDBRANCH   1  12
BRANCH   6  22
ATOM     22  O   UNL     1       7.548   9.440 -11.612  1.00  0.00    -0.507 OA
ATOM     23  H   UNL     1       6.683   9.824 -11.248  1.00  0.00     0.293 HD
ENDBRANCH   6  22
BRANCH   8  24
ATOM     24  O   UNL     1       7.460   5.777 -14.753  1.00  0.00    -0.508 OA
ATOM     25  H   UNL     1       6.617   5.282 -14.491  1.00  0.00     0.293 HD
ENDBRANCH   8  24
TORSDOF 5
ENDMDL
