MODEL 1
REMARK VINA RESULT:    -4.409      0.000      0.000
REMARK INTER + INTRA:          -4.538
REMARK INTER:                  -4.538
REMARK INTRA:                   0.000
REMARK UNBOUND:                 0.000
REMARK SMILES Nc1ncnc2nc[nH]c12
REMARK SMILES IDX 8 1 7 2 6 3 5 4 4 5 3 6 2 7 10 8 9 9 1 11
REMARK H PARENT 9 10 1 12 1 13
REMARK Flexibility Score: inf
ROOT
ATOM      1  C   UNL     1       4.801  -2.125  -2.640  1.00  0.00     0.199 A 
ATOM      2  N   UNL     1       4.584  -1.036  -1.853  1.00  0.00    -0.217 NA
ATOM      3  C   UNL     1       4.855  -1.513  -0.627  1.00  0.00     0.182 A 
ATOM      4  N   UNL     1       4.793  -0.826   0.539  1.00  0.00    -0.215 NA
ATOM      5  C   UNL     1       5.108  -1.487   1.695  1.00  0.00     0.226 A 
ATOM      6  N   UNL     1       5.473  -2.809   1.663  1.00  0.00    -0.217 NA
ATOM      7  C   UNL     1       5.536  -3.502   0.488  1.00  0.00     0.152 A 
ATOM      8  C   UNL     1       5.214  -2.817  -0.679  1.00  0.00     0.127 A 
ATOM      9  N   UNL     1       5.186  -3.229  -1.953  1.00  0.00    -0.340 N 
ATOM     10  H   UNL     1       5.407  -4.173  -2.337  1.00  0.00     0.168 HD
ENDROOT
BRANCH   7  11
ATOM     11  N   UNL     1       5.919  -4.879   0.481  1.00  0.00    -0.382 N 
ATOM     12  H   UNL     1       5.921  -5.447   1.356  1.00  0.00     0.158 HD
ATOM     13  H   UNL     1       6.204  -5.337  -0.413  1.00  0.00     0.158 HD
ENDBRANCH   7  11
TORSDOF 1
ENDMDL
MODEL 2
REMARK VINA RESULT:    -4.108      1.068      2.431
REMARK INTER + INTRA:          -4.228
REMARK INTER:                  -4.228
REMARK INTRA:                   0.000
REMARK UNBOUND:                 0.000
REMARK SMILES Nc1ncnc2nc[nH]c12
REMARK SMILES IDX 8 1 7 2 6 3 5 4 4 5 3 6 2 7 10 8 9 9 1 11
REMARK H PARENT 9 10 1 12 1 13
REMARK Flexibility Score: inf
ROOT
ATOM      1  C   UNL     1       4.658  -0.545  -1.791  1.00  0.00     0.199 A 
ATOM      2  N   UNL     1       4.852  -1.818  -2.234  1.00  0.00    -0.217 NA
ATOM      3  C   UNL     1       5.113  -2.479  -1.094  1.00  0.00     0.182 A 
ATOM      4  N   UNL     1       5.383  -3.801  -0.970  1.00  0.00    -0.215 NA
ATOM      5  C   UNL     1       5.625  -4.296   0.282  1.00  0.00     0.226 A 
ATOM      6  N   UNL     1       5.594  -3.468   1.375  1.00  0.00    -0.217 NA
ATOM      7  C   UNL     1       5.322  -2.135   1.251  1.00  0.00     0.152 A 
ATOM      8  C   UNL     1       5.077  -1.646  -0.028  1.00  0.00     0.127 A 
ATOM      9  N   UNL     1       4.789  -0.408  -0.449  1.00  0.00    -0.340 N 
ATOM     10  H   UNL     1       4.687   0.464   0.115  1.00  0.00     0.168 HD
ENDROOT
BRANCH   7  11
ATOM     11  N   UNL     1       5.296  -1.292   2.405  1.00  0.00    -0.382 N 
ATOM     12  H   UNL     1       5.919  -0.459   2.484  1.00  0.00     0.158 HD
ATOM     13  H   UNL     1       4.643  -1.503   3.192  1.00  0.00     0.158 HD
ENDBRANCH   7  11
TORSDOF 1
ENDMDL
MODEL 3
REMARK VINA RESULT:    -4.080     14.695     15.558
REMARK INTER + INTRA:          -4.199
REMARK INTER:                  -4.199
REMARK INTRA:                   0.000
REMARK UNBOUND:                 0.000
REMARK SMILES Nc1ncnc2nc[nH]c12
REMARK SMILES IDX 8 1 7 2 6 3 5 4 4 5 3 6 2 7 10 8 9 9 1 11
REMARK H PARENT 9 10 1 12 1 13
REMARK Flexibility Score: inf
ROOT
ATOM      1  C   UNL     1      -9.114   3.752  -0.252  1.00  0.00     0.199 A 
ATOM      2  N   UNL     1      -9.689   4.986  -0.265  1.00  0.00    -0.217 NA
ATOM      3  C   UNL     1      -8.922   5.666   0.604  1.00  0.00     0.182 A 
ATOM      4  N   UNL     1      -9.066   6.964   0.963  1.00  0.00    -0.215 NA
ATOM      5  C   UNL     1      -8.182   7.484   1.869  1.00  0.00     0.226 A 
ATOM      6  N   UNL     1      -7.183   6.704   2.393  1.00  0.00    -0.217 NA
ATOM      7  C   UNL     1      -7.037   5.395   2.031  1.00  0.00     0.152 A 
ATOM      8  C   UNL     1      -7.943   4.880   1.108  1.00  0.00     0.127 A 
ATOM      9  N   UNL     1      -8.046   3.656   0.578  1.00  0.00    -0.340 N 
ATOM     10  H   UNL     1      -7.449   2.817   0.753  1.00  0.00     0.168 HD
ENDROOT
BRANCH   7  11
ATOM     11  N   UNL     1      -5.988   4.603   2.590  1.00  0.00    -0.382 N 
ATOM     12  H   UNL     1      -5.493   4.894   3.461  1.00  0.00     0.158 HD
ATOM     13  H   UNL     1      -5.703   3.711   2.128  1.00  0.00     0.158 HD
ENDBRANCH   7  11
TORSDOF 1
ENDMDL
MODEL 4
REMARK VINA RESULT:    -4.056     10.892     11.187
REMARK INTER + INTRA:          -4.174
REMARK INTER:                  -4.174
REMARK INTRA:                   0.000
REMARK UNBOUND:                 0.000
REMARK SMILES Nc1ncnc2nc[nH]c12
REMARK SMILES IDX 8 1 7 2 6 3 5 4 4 5 3 6 2 7 10 8 9 9 1 11
REMARK H PARENT 9 10 1 12 1 13
REMARK Flexibility Score: inf
ROOT
ATOM      1  C   UNL     1      -4.776  -8.048  -1.485  1.00  0.00     0.199 A 
ATOM      2  N   UNL     1      -5.030  -8.865  -0.426  1.00  0.00    -0.217 NA
ATOM      3  C   UNL     1      -4.907  -8.027   0.616  1.00  0.00     0.182 A 
ATOM      4  N   UNL     1      -5.061  -8.337   1.925  1.00  0.00    -0.215 NA
ATOM      5  C   UNL     1      -4.894  -7.342   2.849  1.00  0.00     0.226 A 
ATOM      6  N   UNL     1      -4.578  -6.068   2.449  1.00  0.00    -0.217 NA
ATOM      7  C   UNL     1      -4.422  -5.754   1.129  1.00  0.00     0.152 A 
ATOM      8  C   UNL     1      -4.596  -6.777   0.202  1.00  0.00     0.127 A 
ATOM      9  N   UNL     1      -4.507  -6.766  -1.134  1.00  0.00    -0.340 N 
ATOM     10  H   UNL     1      -4.285  -5.966  -1.767  1.00  0.00     0.168 HD
ENDROOT
BRANCH   7  11
ATOM     11  N   UNL     1      -4.093  -4.420   0.738  1.00  0.00    -0.382 N 
ATOM     12  H   UNL     1      -3.772  -4.201  -0.231  1.00  0.00     0.158 HD
ATOM     13  H   UNL     1      -4.172  -3.638   1.425  1.00  0.00     0.158 HD
ENDBRANCH   7  11
TORSDOF 1
ENDMDL
MODEL 5
REMARK VINA RESULT:    -4.031     11.272     11.395
REMARK INTER + INTRA:          -4.148
REMARK INTER:                  -4.148
REMARK INTRA:                   0.000
REMARK UNBOUND:                 0.000
REMARK SMILES Nc1ncnc2nc[nH]c12
REMARK SMILES IDX 8 1 7 2 6 3 5 4 4 5 3 6 2 7 10 8 9 9 1 11
REMARK H PARENT 9 10 1 12 1 13
REMARK Flexibility Score: inf
ROOT
ATOM      1  C   UNL     1      -3.130  -5.235   0.617  1.00  0.00     0.199 A 
ATOM      2  N   UNL     1      -3.760  -4.842   1.757  1.00  0.00    -0.217 NA
ATOM      3  C   UNL     1      -4.898  -5.555   1.714  1.00  0.00     0.182 A 
ATOM      4  N   UNL     1      -5.898  -5.537   2.627  1.00  0.00    -0.215 NA
ATOM      5  C   UNL     1      -6.986  -6.337   2.410  1.00  0.00     0.226 A 
ATOM      6  N   UNL     1      -7.053  -7.131   1.293  1.00  0.00    -0.217 NA
ATOM      7  C   UNL     1      -6.045  -7.150   0.371  1.00  0.00     0.152 A 
ATOM      8  C   UNL     1      -4.945  -6.331   0.607  1.00  0.00     0.127 A 
ATOM      9  N   UNL     1      -3.829  -6.144  -0.108  1.00  0.00    -0.340 N 
ATOM     10  H   UNL     1      -3.550  -6.588  -1.011  1.00  0.00     0.168 HD
ENDROOT
BRANCH   7  11
ATOM     11  N   UNL     1      -6.138  -7.986  -0.784  1.00  0.00    -0.382 N 
ATOM     12  H   UNL     1      -6.846  -8.750  -0.847  1.00  0.00     0.158 HD
ATOM     13  H   UNL     1      -5.490  -7.838  -1.590  1.00  0.00     0.158 HD
ENDBRANCH   7  11
TORSDOF 1
ENDMDL
MODEL 6
REMARK VINA RESULT:    -3.972     13.918     14.871
REMARK INTER + INTRA:          -4.088
REMARK INTER:                  -4.088
REMARK INTRA:                   0.000
REMARK UNBOUND:                 0.000
REMARK SMILES Nc1ncnc2nc[nH]c12
REMARK SMILES IDX 8 1 7 2 6 3 5 4 4 5 3 6 2 7 10 8 9 9 1 11
REMARK H PARENT 9 10 1 12 1 13
REMARK Flexibility Score: inf
ROOT
ATOM      1  C   UNL     1      -7.881   2.008  -0.196  1.00  0.00     0.199 A 
ATOM      2  N   UNL     1      -6.799   2.271   0.587  1.00  0.00    -0.217 NA
ATOM      3  C   UNL     1      -7.087   3.491   1.069  1.00  0.00     0.182 A 
ATOM      4  N   UNL     1      -6.325   4.226   1.915  1.00  0.00    -0.215 NA
ATOM      5  C   UNL     1      -6.788   5.455   2.297  1.00  0.00     0.226 A 
ATOM      6  N   UNL     1      -7.990   5.921   1.831  1.00  0.00    -0.217 NA
ATOM      7  C   UNL     1      -8.760   5.181   0.979  1.00  0.00     0.152 A 
ATOM      8  C   UNL     1      -8.276   3.933   0.599  1.00  0.00     0.127 A 
ATOM      9  N   UNL     1      -8.801   3.004  -0.210  1.00  0.00    -0.340 N 
ATOM     10  H   UNL     1      -9.704   3.030  -0.733  1.00  0.00     0.168 HD
ENDROOT
BRANCH   7  11
ATOM     11  N   UNL     1     -10.009   5.689   0.507  1.00  0.00    -0.382 N 
ATOM     12  H   UNL     1     -10.642   5.109  -0.087  1.00  0.00     0.158 HD
ATOM     13  H   UNL     1     -10.307   6.658   0.755  1.00  0.00     0.158 HD
ENDBRANCH   7  11
TORSDOF 1
ENDMDL
MODEL 7
REMARK VINA RESULT:    -3.943     14.853     15.938
REMARK INTER + INTRA:          -4.058
REMARK INTER:                  -4.058
REMARK INTRA:                   0.000
REMARK UNBOUND:                 0.000
REMARK SMILES Nc1ncnc2nc[nH]c12
REMARK SMILES IDX 8 1 7 2 6 3 5 4 4 5 3 6 2 7 10 8 9 9 1 11
REMARK H PARENT 9 10 1 12 1 13
REMARK Flexibility Score: inf
ROOT
ATOM      1  C   UNL     1      -6.510   4.450   1.924  1.00  0.00     0.199 A 
ATOM      2  N   UNL     1      -6.761   5.581   2.640  1.00  0.00    -0.217 NA
ATOM      3  C   UNL     1      -7.599   6.249   1.831  1.00  0.00     0.182 A 
ATOM      4  N   UNL     1      -8.161   7.458   2.071  1.00  0.00    -0.215 NA
ATOM      5  C   UNL     1      -8.994   7.983   1.121  1.00  0.00     0.226 A 
ATOM      6  N   UNL     1      -9.246   7.296  -0.040  1.00  0.00    -0.217 NA
ATOM      7  C   UNL     1      -8.680   6.077  -0.283  1.00  0.00     0.152 A 
ATOM      8  C   UNL     1      -7.835   5.556   0.693  1.00  0.00     0.127 A 
ATOM      9  N   UNL     1      -7.151   4.406   0.730  1.00  0.00    -0.340 N 
ATOM     10  H   UNL     1      -7.114   3.646   0.015  1.00  0.00     0.168 HD
ENDROOT
BRANCH   7  11
ATOM     11  N   UNL     1      -8.957   5.380  -1.499  1.00  0.00    -0.382 N 
ATOM     12  H   UNL     1      -8.397   5.551  -2.363  1.00  0.00     0.158 HD
ATOM     13  H   UNL     1      -9.733   4.683  -1.537  1.00  0.00     0.158 HD
ENDBRANCH   7  11
TORSDOF 1
ENDMDL
MODEL 8
REMARK VINA RESULT:    -3.913      1.024      3.031
REMARK INTER + INTRA:          -4.027
REMARK INTER:                  -4.027
REMARK INTRA:                   0.000
REMARK UNBOUND:                 0.000
REMARK SMILES Nc1ncnc2nc[nH]c12
REMARK SMILES IDX 8 1 7 2 6 3 5 4 4 5 3 6 2 7 10 8 9 9 1 11
REMARK H PARENT 9 10 1 12 1 13
REMARK Flexibility Score: inf
ROOT
ATOM      1  C   UNL     1       5.620  -4.114   0.593  1.00  0.00     0.199 A 
ATOM      2  N   UNL     1       5.707  -2.872   1.145  1.00  0.00    -0.217 NA
ATOM      3  C   UNL     1       5.376  -2.079   0.113  1.00  0.00     0.182 A 
ATOM      4  N   UNL     1       5.306  -0.726   0.124  1.00  0.00    -0.215 NA
ATOM      5  C   UNL     1       4.949  -0.089  -1.033  1.00  0.00     0.226 A 
ATOM      6  N   UNL     1       4.673  -0.809  -2.167  1.00  0.00    -0.217 NA
ATOM      7  C   UNL     1       4.743  -2.173  -2.179  1.00  0.00     0.152 A 
ATOM      8  C   UNL     1       5.106  -2.807  -0.995  1.00  0.00     0.127 A 
ATOM      9  N   UNL     1       5.256  -4.107  -0.713  1.00  0.00    -0.340 N 
ATOM     10  H   UNL     1       5.125  -4.930  -1.341  1.00  0.00     0.168 HD
ENDROOT
BRANCH   7  11
ATOM     11  N   UNL     1       4.450  -2.901  -3.373  1.00  0.00    -0.382 N 
ATOM     12  H   UNL     1       4.793  -3.877  -3.513  1.00  0.00     0.158 HD
ATOM     13  H   UNL     1       3.880  -2.460  -4.129  1.00  0.00     0.158 HD
ENDBRANCH   7  11
TORSDOF 1
ENDMDL
