MODEL 1
REMARK VINA RESULT:    -5.028      0.000      0.000
REMARK INTER + INTRA:         -15.609
REMARK INTER:                 -11.494
REMARK INTRA:                  -4.115
REMARK UNBOUND:                -4.115
REMARK SMILES CCCCCCCCCCCCCCCCCCCCCCCC(=O)[O-]
REMARK SMILES IDX 13 1 14 2 15 3 16 4 17 5 18 6 19 7 20 8 21 9 22 10 23 11
REMARK SMILES IDX 24 12 25 13 26 14 12 15 11 16 10 17 9 18 8 19 7 20 6 21 5 22
REMARK SMILES IDX 4 23 3 24 2 25 1 26
REMARK H PARENT
REMARK Flexibility Score: inf
ROOT
ATOM      1  C   UNL     1     -48.772  26.329 -17.737  1.00  0.00     0.000 C 
ENDROOT
BRANCH   1   2
ATOM      2  C   UNL     1     -47.792  25.482 -16.908  1.00  0.00     0.000 C 
BRANCH   2   3
ATOM      3  C   UNL     1     -48.464  24.798 -15.704  1.00  0.00     0.000 C 
BRANCH   3   4
ATOM      4  C   UNL     1     -48.068  25.374 -14.331  1.00  0.00     0.000 C 
BRANCH   4   5
ATOM      5  C   UNL     1     -46.669  26.013 -14.333  1.00  0.00     0.000 C 
BRANCH   5   6
ATOM      6  C   UNL     1     -46.596  27.271 -13.453  1.00  0.00     0.000 C 
BRANCH   6   7
ATOM      7  C   UNL     1     -45.547  28.278 -13.948  1.00  0.00     0.000 C 
BRANCH   7   8
ATOM      8  C   UNL     1     -44.614  27.634 -14.981  1.00  0.00     0.000 C 
BRANCH   8   9
ATOM      9  C   UNL     1     -44.256  28.626 -16.097  1.00  0.00     0.000 C 
BRANCH   9  10
ATOM     10  C   UNL     1     -44.548  28.081 -17.507  1.00  0.00     0.006 C 
BRANCH  10  11
ATOM     11  C   UNL     1     -44.602  26.545 -17.584  1.00  0.00     0.053 C 
BRANCH  11  12
ATOM     12  C   UNL     1     -44.701  26.041 -18.992  1.00  0.00     0.041 C 
ATOM     13  O   UNL     1     -45.193  24.906 -19.225  1.00  0.00    -0.550 OA
ATOM     14  O   UNL     1     -44.221  26.810 -20.045  1.00  0.00    -0.550 OA
ENDBRANCH  11  12
ENDBRANCH  10  11
ENDBRANCH   9  10
ENDBRANCH   8   9
ENDBRANCH   7   8
ENDBRANCH   6   7
ENDBRANCH   5   6
ENDBRANCH   4   5
ENDBRANCH   3   4
ENDBRANCH   2   3
ENDBRANCH   1   2
BRANCH   1  15
ATOM     15  C   UNL     1     -48.202  27.709 -18.104  1.00  0.00     0.000 C 
BRANCH  15  16
ATOM     16  C   UNL     1     -47.998  28.608 -16.875  1.00  0.00     0.000 C 
BRANCH  16  17
ATOM     17  C   UNL     1     -49.342  29.119 -16.341  1.00  0.00     0.000 C 
BRANCH  17  18
ATOM     18  C   UNL     1     -49.460  28.879 -14.828  1.00  0.00    -0.000 C 
BRANCH  18  19
ATOM     19  C   UNL     1     -50.800  28.218 -14.440  1.00  0.00    -0.000 C 
BRANCH  19  20
ATOM     20  C   UNL     1     -51.743  27.971 -15.633  1.00  0.00    -0.000 C 
BRANCH  20  21
ATOM     21  C   UNL     1     -52.113  26.499 -15.881  1.00  0.00    -0.000 C 
BRANCH  21  22
ATOM     22  C   UNL     1     -51.621  25.562 -14.764  1.00  0.00    -0.000 C 
BRANCH  22  23
ATOM     23  C   UNL     1     -52.332  24.196 -14.771  1.00  0.00    -0.000 C 
BRANCH  23  24
ATOM     24  C   UNL     1     -52.541  23.555 -13.384  1.00  0.00    -0.000 C 
BRANCH  24  25
ATOM     25  C   UNL     1     -53.950  23.733 -12.790  1.00  0.00    -0.003 C 
ATOM     26  C   UNL     1     -54.057  23.234 -11.350  1.00  0.00     0.004 C 
ENDBRANCH  24  25
ENDBRANCH  23  24
ENDBRANCH  22  23
ENDBRANCH  21  22
ENDBRANCH  20  21
ENDBRANCH  19  20
ENDBRANCH  18  19
ENDBRANCH  17  18
ENDBRANCH  16  17
ENDBRANCH  15  16
ENDBRANCH   1  15
TORSDOF 22
ENDMDL
MODEL 2
REMARK VINA RESULT:    -4.663      2.887      7.802
REMARK INTER + INTRA:         -14.775
REMARK INTER:                 -10.940
REMARK INTRA:                  -3.835
REMARK UNBOUND:                -4.115
REMARK SMILES CCCCCCCCCCCCCCCCCCCCCCCC(=O)[O-]
REMARK SMILES IDX 13 1 14 2 15 3 16 4 17 5 18 6 19 7 20 8 21 9 22 10 23 11
REMARK SMILES IDX 24 12 25 13 26 14 12 15 11 16 10 17 9 18 8 19 7 20 6 21 5 22
REMARK SMILES IDX 4 23 3 24 2 25 1 26
REMARK H PARENT
REMARK Flexibility Score: inf
ROOT
ATOM      1  C   UNL     1     -48.720  24.839 -16.587  1.00  0.00     0.000 C 
ENDROOT
BRANCH   1   2
ATOM      2  C   UNL     1     -47.732  25.824 -17.235  1.00  0.00     0.000 C 
BRANCH   2   3
ATOM      3  C   UNL     1     -48.435  26.910 -18.070  1.00  0.00     0.000 C 
BRANCH   3   4
ATOM      4  C   UNL     1     -48.142  28.355 -17.627  1.00  0.00     0.000 C 
BRANCH   4   5
ATOM      5  C   UNL     1     -49.378  29.061 -17.043  1.00  0.00     0.000 C 
BRANCH   5   6
ATOM      6  C   UNL     1     -49.503  28.867 -15.523  1.00  0.00     0.000 C 
BRANCH   6   7
ATOM      7  C   UNL     1     -50.809  28.164 -15.125  1.00  0.00     0.000 C 
BRANCH   7   8
ATOM      8  C   UNL     1     -51.455  27.481 -16.336  1.00  0.00     0.000 C 
BRANCH   8   9
ATOM      9  C   UNL     1     -52.501  26.445 -15.895  1.00  0.00     0.000 C 
BRANCH   9  10
ATOM     10  C   UNL     1     -51.969  25.464 -14.834  1.00  0.00     0.006 C 
BRANCH  10  11
ATOM     11  C   UNL     1     -53.071  24.679 -14.102  1.00  0.00     0.053 C 
BRANCH  11  12
ATOM     12  C   UNL     1     -52.533  23.516 -13.325  1.00  0.00     0.041 C 
ATOM     13  O   UNL     1     -51.332  23.164 -13.463  1.00  0.00    -0.550 OA
ATOM     14  O   UNL     1     -53.364  22.799 -12.473  1.00  0.00    -0.550 OA
ENDBRANCH  11  12
ENDBRANCH  10  11
ENDBRANCH   9  10
ENDBRANCH   8   9
ENDBRANCH   7   8
ENDBRANCH   6   7
ENDBRANCH   5   6
ENDBRANCH   4   5
ENDBRANCH   3   4
ENDBRANCH   2   3
ENDBRANCH   1   2
BRANCH   1  15
ATOM     15  C   UNL     1     -48.422  24.593 -15.099  1.00  0.00     0.000 C 
BRANCH  15  16
ATOM     16  C   UNL     1     -47.980  25.869 -14.368  1.00  0.00     0.000 C 
BRANCH  16  17
ATOM     17  C   UNL     1     -46.627  25.665 -13.675  1.00  0.00     0.000 C 
BRANCH  17  18
ATOM     18  C   UNL     1     -46.026  27.008 -13.235  1.00  0.00    -0.000 C 
BRANCH  18  19
ATOM     19  C   UNL     1     -46.229  28.118 -14.289  1.00  0.00    -0.000 C 
BRANCH  19  20
ATOM     20  C   UNL     1     -44.996  29.019 -14.491  1.00  0.00    -0.000 C 
BRANCH  20  21
ATOM     21  C   UNL     1     -44.000  28.537 -15.559  1.00  0.00    -0.000 C 
BRANCH  21  22
ATOM     22  C   UNL     1     -44.617  27.515 -16.532  1.00  0.00    -0.000 C 
BRANCH  22  23
ATOM     23  C   UNL     1     -44.582  27.988 -17.998  1.00  0.00    -0.000 C 
BRANCH  23  24
ATOM     24  C   UNL     1     -44.481  26.865 -19.050  1.00  0.00    -0.000 C 
BRANCH  24  25
ATOM     25  C   UNL     1     -43.433  27.098 -20.153  1.00  0.00    -0.003 C 
ATOM     26  C   UNL     1     -42.443  28.209 -19.808  1.00  0.00     0.004 C 
ENDBRANCH  24  25
ENDBRANCH  23  24
ENDBRANCH  22  23
ENDBRANCH  21  22
ENDBRANCH  20  21
ENDBRANCH  19  20
ENDBRANCH  18  19
ENDBRANCH  17  18
ENDBRANCH  16  17
ENDBRANCH  15  16
ENDBRANCH   1  15
TORSDOF 22
ENDMDL
MODEL 3
REMARK VINA RESULT:    -4.609      1.547      3.060
REMARK INTER + INTRA:         -14.652
REMARK INTER:                 -11.604
REMARK INTRA:                  -3.048
REMARK UNBOUND:                -4.115
REMARK SMILES CCCCCCCCCCCCCCCCCCCCCCCC(=O)[O-]
REMARK SMILES IDX 13 1 14 2 15 3 16 4 17 5 18 6 19 7 20 8 21 9 22 10 23 11
REMARK SMILES IDX 24 12 25 13 26 14 12 15 11 16 10 17 9 18 8 19 7 20 6 21 5 22
REMARK SMILES IDX 4 23 3 24 2 25 1 26
REMARK H PARENT
REMARK Flexibility Score: inf
ROOT
ATOM      1  C   UNL     1     -49.882  27.252 -17.745  1.00  0.00     0.000 C 
ENDROOT
BRANCH   1   2
ATOM      2  C   UNL     1     -48.388  26.950 -17.540  1.00  0.00     0.000 C 
BRANCH   2   3
ATOM      3  C   UNL     1     -48.105  25.451 -17.334  1.00  0.00     0.000 C 
BRANCH   3   4
ATOM      4  C   UNL     1     -48.638  24.869 -16.011  1.00  0.00     0.000 C 
BRANCH   4   5
ATOM      5  C   UNL     1     -48.366  25.784 -14.805  1.00  0.00     0.000 C 
BRANCH   5   6
ATOM      6  C   UNL     1     -47.090  25.392 -14.044  1.00  0.00     0.000 C 
BRANCH   6   7
ATOM      7  C   UNL     1     -46.360  26.606 -13.450  1.00  0.00     0.000 C 
BRANCH   7   8
ATOM      8  C   UNL     1     -46.322  27.766 -14.452  1.00  0.00     0.000 C 
BRANCH   8   9
ATOM      9  C   UNL     1     -44.876  28.139 -14.811  1.00  0.00     0.000 C 
BRANCH   9  10
ATOM     10  C   UNL     1     -44.579  28.024 -16.318  1.00  0.00     0.006 C 
BRANCH  10  11
ATOM     11  C   UNL     1     -44.766  26.605 -16.884  1.00  0.00     0.053 C 
BRANCH  11  12
ATOM     12  C   UNL     1     -44.731  26.573 -18.381  1.00  0.00     0.041 C 
ATOM     13  O   UNL     1     -44.494  27.624 -19.032  1.00  0.00    -0.550 OA
ATOM     14  O   UNL     1     -44.993  25.389 -19.061  1.00  0.00    -0.550 OA
ENDBRANCH  11  12
ENDBRANCH  10  11
ENDBRANCH   9  10
ENDBRANCH   8   9
ENDBRANCH   7   8
ENDBRANCH   6   7
ENDBRANCH   5   6
ENDBRANCH   4   5
ENDBRANCH   3   4
ENDBRANCH   2   3
ENDBRANCH   1   2
BRANCH   1  15
ATOM     15  C   UNL     1     -50.357  28.476 -16.945  1.00  0.00     0.000 C 
BRANCH  15  16
ATOM     16  C   UNL     1     -51.246  28.091 -15.753  1.00  0.00     0.000 C 
BRANCH  16  17
ATOM     17  C   UNL     1     -52.043  26.815 -16.051  1.00  0.00     0.000 C 
BRANCH  17  18
ATOM     18  C   UNL     1     -52.366  26.054 -14.757  1.00  0.00    -0.000 C 
BRANCH  18  19
ATOM     19  C   UNL     1     -51.898  24.584 -14.805  1.00  0.00    -0.000 C 
BRANCH  19  20
ATOM     20  C   UNL     1     -52.592  23.673 -13.773  1.00  0.00    -0.000 C 
BRANCH  20  21
ATOM     21  C   UNL     1     -53.989  24.137 -13.327  1.00  0.00    -0.000 C 
BRANCH  21  22
ATOM     22  C   UNL     1     -54.321  23.725 -11.882  1.00  0.00    -0.000 C 
BRANCH  22  23
ATOM     23  C   UNL     1     -55.210  24.753 -11.156  1.00  0.00    -0.000 C 
BRANCH  23  24
ATOM     24  C   UNL     1     -56.276  25.440 -12.034  1.00  0.00    -0.000 C 
BRANCH  24  25
ATOM     25  C   UNL     1     -56.388  26.963 -11.850  1.00  0.00    -0.003 C 
ATOM     26  C   UNL     1     -55.314  27.736 -12.614  1.00  0.00     0.004 C 
ENDBRANCH  24  25
ENDBRANCH  23  24
ENDBRANCH  22  23
ENDBRANCH  21  22
ENDBRANCH  20  21
ENDBRANCH  19  20
ENDBRANCH  18  19
ENDBRANCH  17  18
ENDBRANCH  16  17
ENDBRANCH  15  16
ENDBRANCH   1  15
TORSDOF 22
ENDMDL
MODEL 4
REMARK VINA RESULT:    -4.284      4.040      7.973
REMARK INTER + INTRA:         -13.907
REMARK INTER:                 -10.872
REMARK INTRA:                  -3.035
REMARK UNBOUND:                -4.115
REMARK SMILES CCCCCCCCCCCCCCCCCCCCCCCC(=O)[O-]
REMARK SMILES IDX 13 1 14 2 15 3 16 4 17 5 18 6 19 7 20 8 21 9 22 10 23 11
REMARK SMILES IDX 24 12 25 13 26 14 12 15 11 16 10 17 9 18 8 19 7 20 6 21 5 22
REMARK SMILES IDX 4 23 3 24 2 25 1 26
REMARK H PARENT
REMARK Flexibility Score: inf
ROOT
ATOM      1  C   UNL     1     -47.533  26.285 -17.356  1.00  0.00     0.000 C 
ENDROOT
BRANCH   1   2
ATOM      2  C   UNL     1     -48.318  24.975 -17.176  1.00  0.00     0.000 C 
BRANCH   2   3
ATOM      3  C   UNL     1     -48.400  24.525 -15.706  1.00  0.00     0.000 C 
BRANCH   3   4
ATOM      4  C   UNL     1     -49.751  24.801 -15.020  1.00  0.00     0.000 C 
BRANCH   4   5
ATOM      5  C   UNL     1     -50.724  23.614 -15.120  1.00  0.00     0.000 C 
BRANCH   5   6
ATOM      6  C   UNL     1     -52.063  23.891 -14.418  1.00  0.00     0.000 C 
BRANCH   6   7
ATOM      7  C   UNL     1     -52.170  23.188 -13.056  1.00  0.00     0.000 C 
BRANCH   7   8
ATOM      8  C   UNL     1     -53.621  23.178 -12.558  1.00  0.00     0.000 C 
BRANCH   8   9
ATOM      9  C   UNL     1     -53.696  23.543 -11.068  1.00  0.00     0.000 C 
BRANCH   9  10
ATOM     10  C   UNL     1     -54.843  24.518 -10.742  1.00  0.00     0.006 C 
BRANCH  10  11
ATOM     11  C   UNL     1     -55.662  24.950 -11.970  1.00  0.00     0.053 C 
BRANCH  11  12
ATOM     12  C   UNL     1     -56.311  26.289 -11.789  1.00  0.00     0.041 C 
ATOM     13  O   UNL     1     -57.566  26.392 -11.806  1.00  0.00    -0.550 OA
ATOM     14  O   UNL     1     -55.531  27.428 -11.633  1.00  0.00    -0.550 OA
ENDBRANCH  11  12
ENDBRANCH  10  11
ENDBRANCH   9  10
ENDBRANCH   8   9
ENDBRANCH   7   8
ENDBRANCH   6   7
ENDBRANCH   5   6
ENDBRANCH   4   5
ENDBRANCH   3   4
ENDBRANCH   2   3
ENDBRANCH   1   2
BRANCH   1  15
ATOM     15  C   UNL     1     -46.281  26.111 -18.232  1.00  0.00     0.000 C 
BRANCH  15  16
ATOM     16  C   UNL     1     -44.983  26.424 -17.473  1.00  0.00     0.000 C 
BRANCH  16  17
ATOM     17  C   UNL     1     -44.973  27.875 -16.977  1.00  0.00     0.000 C 
BRANCH  17  18
ATOM     18  C   UNL     1     -44.784  27.935 -15.454  1.00  0.00    -0.000 C 
BRANCH  18  19
ATOM     19  C   UNL     1     -44.994  26.562 -14.779  1.00  0.00    -0.000 C 
BRANCH  19  20
ATOM     20  C   UNL     1     -46.146  26.540 -13.756  1.00  0.00    -0.000 C 
BRANCH  20  21
ATOM     21  C   UNL     1     -46.773  27.909 -13.446  1.00  0.00    -0.000 C 
BRANCH  21  22
ATOM     22  C   UNL     1     -48.286  27.950 -13.725  1.00  0.00    -0.000 C 
BRANCH  22  23
ATOM     23  C   UNL     1     -48.622  28.501 -15.123  1.00  0.00    -0.000 C 
BRANCH  23  24
ATOM     24  C   UNL     1     -50.117  28.784 -15.378  1.00  0.00    -0.000 C 
BRANCH  24  25
ATOM     25  C   UNL     1     -50.747  27.971 -16.523  1.00  0.00    -0.003 C 
ATOM     26  C   UNL     1     -52.029  27.251 -16.108  1.00  0.00     0.004 C 
ENDBRANCH  24  25
ENDBRANCH  23  24
ENDBRANCH  22  23
ENDBRANCH  21  22
ENDBRANCH  20  21
ENDBRANCH  19  20
ENDBRANCH  18  19
ENDBRANCH  17  18
ENDBRANCH  16  17
ENDBRANCH  15  16
ENDBRANCH   1  15
TORSDOF 22
ENDMDL
MODEL 5
REMARK VINA RESULT:    -4.003      1.226      3.657
REMARK INTER + INTRA:         -13.266
REMARK INTER:                 -10.363
REMARK INTRA:                  -2.903
REMARK UNBOUND:                -4.115
REMARK SMILES CCCCCCCCCCCCCCCCCCCCCCCC(=O)[O-]
REMARK SMILES IDX 13 1 14 2 15 3 16 4 17 5 18 6 19 7 20 8 21 9 22 10 23 11
REMARK SMILES IDX 24 12 25 13 26 14 12 15 11 16 10 17 9 18 8 19 7 20 6 21 5 22
REMARK SMILES IDX 4 23 3 24 2 25 1 26
REMARK H PARENT
REMARK Flexibility Score: inf
ROOT
ATOM      1  C   UNL     1     -47.716  27.868 -14.032  1.00  0.00     0.000 C 
ENDROOT
BRANCH   1   2
ATOM      2  C   UNL     1     -49.077  28.279 -13.445  1.00  0.00     0.000 C 
BRANCH   2   3
ATOM      3  C   UNL     1     -49.984  28.979 -14.473  1.00  0.00     0.000 C 
BRANCH   3   4
ATOM      4  C   UNL     1     -50.557  28.054 -15.563  1.00  0.00     0.000 C 
BRANCH   4   5
ATOM      5  C   UNL     1     -50.098  28.443 -16.978  1.00  0.00     0.000 C 
BRANCH   5   6
ATOM      6  C   UNL     1     -49.494  27.257 -17.748  1.00  0.00     0.000 C 
BRANCH   6   7
ATOM      7  C   UNL     1     -47.994  27.437 -18.026  1.00  0.00     0.000 C 
BRANCH   7   8
ATOM      8  C   UNL     1     -47.437  28.645 -17.264  1.00  0.00     0.000 C 
BRANCH   8   9
ATOM      9  C   UNL     1     -45.929  28.492 -17.013  1.00  0.00     0.000 C 
BRANCH   9  10
ATOM     10  C   UNL     1     -45.481  27.023 -16.897  1.00  0.00     0.006 C 
BRANCH  10  11
ATOM     11  C   UNL     1     -44.268  26.670 -17.774  1.00  0.00     0.053 C 
BRANCH  11  12
ATOM     12  C   UNL     1     -44.662  26.075 -19.092  1.00  0.00     0.041 C 
ATOM     13  O   UNL     1     -45.281  24.980 -19.132  1.00  0.00    -0.550 OA
ATOM     14  O   UNL     1     -44.318  26.713 -20.278  1.00  0.00    -0.550 OA
ENDBRANCH  11  12
ENDBRANCH  10  11
ENDBRANCH   9  10
ENDBRANCH   8   9
ENDBRANCH   7   8
ENDBRANCH   6   7
ENDBRANCH   5   6
ENDBRANCH   4   5
ENDBRANCH   3   4
ENDBRANCH   2   3
ENDBRANCH   1   2
BRANCH   1  15
ATOM     15  C   UNL     1     -47.013  26.782 -13.201  1.00  0.00     0.000 C 
BRANCH  15  16
ATOM     16  C   UNL     1     -47.214  25.374 -13.782  1.00  0.00     0.000 C 
BRANCH  16  17
ATOM     17  C   UNL     1     -47.950  25.435 -15.126  1.00  0.00     0.000 C 
BRANCH  17  18
ATOM     18  C   UNL     1     -48.934  24.264 -15.267  1.00  0.00    -0.000 C 
BRANCH  18  19
ATOM     19  C   UNL     1     -50.362  24.635 -14.813  1.00  0.00    -0.000 C 
BRANCH  19  20
ATOM     20  C   UNL     1     -51.357  23.460 -14.860  1.00  0.00    -0.000 C 
BRANCH  20  21
ATOM     21  C   UNL     1     -52.654  23.668 -14.060  1.00  0.00    -0.000 C 
BRANCH  21  22
ATOM     22  C   UNL     1     -52.508  23.289 -12.576  1.00  0.00    -0.000 C 
BRANCH  22  23
ATOM     23  C   UNL     1     -53.838  22.847 -11.937  1.00  0.00    -0.000 C 
BRANCH  23  24
ATOM     24  C   UNL     1     -54.219  23.580 -10.634  1.00  0.00    -0.000 C 
BRANCH  24  25
ATOM     25  C   UNL     1     -54.943  24.923 -10.830  1.00  0.00    -0.003 C 
ATOM     26  C   UNL     1     -55.688  25.010 -12.162  1.00  0.00     0.004 C 
ENDBRANCH  24  25
ENDBRANCH  23  24
ENDBRANCH  22  23
ENDBRANCH  21  22
ENDBRANCH  20  21
ENDBRANCH  19  20
ENDBRANCH  18  19
ENDBRANCH  17  18
ENDBRANCH  16  17
ENDBRANCH  15  16
ENDBRANCH   1  15
TORSDOF 22
ENDMDL
MODEL 6
REMARK VINA RESULT:    -3.984      3.445      5.432
REMARK INTER + INTRA:         -13.222
REMARK INTER:                  -9.972
REMARK INTRA:                  -3.250
REMARK UNBOUND:                -4.115
REMARK SMILES CCCCCCCCCCCCCCCCCCCCCCCC(=O)[O-]
REMARK SMILES IDX 13 1 14 2 15 3 16 4 17 5 18 6 19 7 20 8 21 9 22 10 23 11
REMARK SMILES IDX 24 12 25 13 26 14 12 15 11 16 10 17 9 18 8 19 7 20 6 21 5 22
REMARK SMILES IDX 4 23 3 24 2 25 1 26
REMARK H PARENT
REMARK Flexibility Score: inf
ROOT
ATOM      1  C   UNL     1     -46.691  26.566 -13.676  1.00  0.00     0.000 C 
ENDROOT
BRANCH   1   2
ATOM      2  C   UNL     1     -45.379  26.443 -14.469  1.00  0.00     0.000 C 
BRANCH   2   3
ATOM      3  C   UNL     1     -44.988  27.750 -15.182  1.00  0.00     0.000 C 
BRANCH   3   4
ATOM      4  C   UNL     1     -45.385  27.818 -16.669  1.00  0.00     0.000 C 
BRANCH   4   5
ATOM      5  C   UNL     1     -44.997  26.550 -17.449  1.00  0.00     0.000 C 
BRANCH   5   6
ATOM      6  C   UNL     1     -46.189  25.927 -18.191  1.00  0.00     0.000 C 
BRANCH   6   7
ATOM      7  C   UNL     1     -47.538  26.301 -17.559  1.00  0.00     0.000 C 
BRANCH   7   8
ATOM      8  C   UNL     1     -48.163  25.095 -16.847  1.00  0.00     0.000 C 
BRANCH   8   9
ATOM      9  C   UNL     1     -49.409  25.509 -16.049  1.00  0.00     0.000 C 
BRANCH   9  10
ATOM     10  C   UNL     1     -49.654  24.626 -14.812  1.00  0.00     0.006 C 
BRANCH  10  11
ATOM     11  C   UNL     1     -50.783  23.596 -14.994  1.00  0.00     0.053 C 
BRANCH  11  12
ATOM     12  C   UNL     1     -51.894  23.777 -14.005  1.00  0.00     0.041 C 
ATOM     13  O   UNL     1     -52.829  24.586 -14.244  1.00  0.00    -0.550 OA
ATOM     14  O   UNL     1     -51.882  23.078 -12.804  1.00  0.00    -0.550 OA
ENDBRANCH  11  12
ENDBRANCH  10  11
ENDBRANCH   9  10
ENDBRANCH   8   9
ENDBRANCH   7   8
ENDBRANCH   6   7
ENDBRANCH   5   6
ENDBRANCH   4   5
ENDBRANCH   3   4
ENDBRANCH   2   3
ENDBRANCH   1   2
BRANCH   1  15
ATOM     15  C   UNL     1     -47.088  28.026 -13.407  1.00  0.00     0.000 C 
BRANCH  15  16
ATOM     16  C   UNL     1     -48.553  28.314 -13.766  1.00  0.00     0.000 C 
BRANCH  16  17
ATOM     17  C   UNL     1     -48.659  28.992 -15.138  1.00  0.00     0.000 C 
BRANCH  17  18
ATOM     18  C   UNL     1     -50.116  29.030 -15.622  1.00  0.00    -0.000 C 
BRANCH  18  19
ATOM     19  C   UNL     1     -51.091  28.393 -14.608  1.00  0.00    -0.000 C 
BRANCH  19  20
ATOM     20  C   UNL     1     -52.398  27.876 -15.240  1.00  0.00    -0.000 C 
BRANCH  20  21
ATOM     21  C   UNL     1     -53.640  28.743 -14.977  1.00  0.00    -0.000 C 
BRANCH  21  22
ATOM     22  C   UNL     1     -53.943  28.914 -13.478  1.00  0.00    -0.000 C 
BRANCH  22  23
ATOM     23  C   UNL     1     -55.409  28.599 -13.124  1.00  0.00    -0.000 C 
BRANCH  23  24
ATOM     24  C   UNL     1     -55.609  27.487 -12.074  1.00  0.00    -0.000 C 
BRANCH  24  25
ATOM     25  C   UNL     1     -56.981  27.488 -11.378  1.00  0.00    -0.003 C 
ATOM     26  C   UNL     1     -58.079  28.128 -12.226  1.00  0.00     0.004 C 
ENDBRANCH  24  25
ENDBRANCH  23  24
ENDBRANCH  22  23
ENDBRANCH  21  22
ENDBRANCH  20  21
ENDBRANCH  19  20
ENDBRANCH  18  19
ENDBRANCH  17  18
ENDBRANCH  16  17
ENDBRANCH  15  16
ENDBRANCH   1  15
TORSDOF 22
ENDMDL
MODEL 7
REMARK VINA RESULT:    -3.863     14.453     16.533
REMARK INTER + INTRA:         -12.946
REMARK INTER:                  -9.730
REMARK INTRA:                  -3.216
REMARK UNBOUND:                -4.115
REMARK SMILES CCCCCCCCCCCCCCCCCCCCCCCC(=O)[O-]
REMARK SMILES IDX 13 1 14 2 15 3 16 4 17 5 18 6 19 7 20 8 21 9 22 10 23 11
REMARK SMILES IDX 24 12 25 13 26 14 12 15 11 16 10 17 9 18 8 19 7 20 6 21 5 22
REMARK SMILES IDX 4 23 3 24 2 25 1 26
REMARK H PARENT
REMARK Flexibility Score: inf
ROOT
ATOM      1  C   UNL     1     -47.549  12.121 -19.883  1.00  0.00     0.000 C 
ENDROOT
BRANCH   1   2
ATOM      2  C   UNL     1     -48.765  13.016 -20.177  1.00  0.00     0.000 C 
BRANCH   2   3
ATOM      3  C   UNL     1     -50.098  12.247 -20.125  1.00  0.00     0.000 C 
BRANCH   3   4
ATOM      4  C   UNL     1     -51.282  12.964 -20.800  1.00  0.00     0.000 C 
BRANCH   4   5
ATOM      5  C   UNL     1     -51.744  12.267 -22.091  1.00  0.00     0.000 C 
BRANCH   5   6
ATOM      6  C   UNL     1     -51.175  10.845 -22.228  1.00  0.00     0.000 C 
BRANCH   6   7
ATOM      7  C   UNL     1     -50.220  10.705 -23.423  1.00  0.00     0.000 C 
BRANCH   7   8
ATOM      8  C   UNL     1     -50.510  11.772 -24.484  1.00  0.00     0.000 C 
BRANCH   8   9
ATOM      9  C   UNL     1     -49.224  12.505 -24.897  1.00  0.00     0.000 C 
BRANCH   9  10
ATOM     10  C   UNL     1     -48.174  12.563 -23.772  1.00  0.00     0.006 C 
BRANCH  10  11
ATOM     11  C   UNL     1     -47.308  13.835 -23.792  1.00  0.00     0.053 C 
BRANCH  11  12
ATOM     12  C   UNL     1     -47.218  14.451 -25.155  1.00  0.00     0.041 C 
ATOM     13  O   UNL     1     -46.304  14.103 -25.947  1.00  0.00    -0.550 OA
ATOM     14  O   UNL     1     -48.123  15.432 -25.539  1.00  0.00    -0.550 OA
ENDBRANCH  11  12
ENDBRANCH  10  11
ENDBRANCH   9  10
ENDBRANCH   8   9
ENDBRANCH   7   8
ENDBRANCH   6   7
ENDBRANCH   5   6
ENDBRANCH   4   5
ENDBRANCH   3   4
ENDBRANCH   2   3
ENDBRANCH   1   2
BRANCH   1  15
ATOM     15  C   UNL     1     -47.933  10.646 -19.681  1.00  0.00     0.000 C 
BRANCH  15  16
ATOM     16  C   UNL     1     -46.957   9.906 -18.753  1.00  0.00     0.000 C 
BRANCH  16  17
ATOM     17  C   UNL     1     -47.712   8.996 -17.775  1.00  0.00     0.000 C 
BRANCH  17  18
ATOM     18  C   UNL     1     -49.181   9.426 -17.646  1.00  0.00    -0.000 C 
BRANCH  18  19
ATOM     19  C   UNL     1     -49.518   9.960 -16.238  1.00  0.00    -0.000 C 
BRANCH  19  20
ATOM     20  C   UNL     1     -48.748   9.257 -15.104  1.00  0.00    -0.000 C 
BRANCH  20  21
ATOM     21  C   UNL     1     -48.807   9.961 -13.738  1.00  0.00    -0.000 C 
BRANCH  21  22
ATOM     22  C   UNL     1     -47.428  10.072 -13.063  1.00  0.00    -0.000 C 
BRANCH  22  23
ATOM     23  C   UNL     1     -46.265  10.074 -14.074  1.00  0.00    -0.000 C 
BRANCH  23  24
ATOM     24  C   UNL     1     -45.328  11.297 -13.998  1.00  0.00    -0.000 C 
BRANCH  24  25
ATOM     25  C   UNL     1     -45.830  12.548 -14.740  1.00  0.00    -0.003 C 
ATOM     26  C   UNL     1     -46.444  12.228 -16.102  1.00  0.00     0.004 C 
ENDBRANCH  24  25
ENDBRANCH  23  24
ENDBRANCH  22  23
ENDBRANCH  21  22
ENDBRANCH  20  21
ENDBRANCH  19  20
ENDBRANCH  18  19
ENDBRANCH  17  18
ENDBRANCH  16  17
ENDBRANCH  15  16
ENDBRANCH   1  15
TORSDOF 22
ENDMDL
MODEL 8
REMARK VINA RESULT:    -3.522     14.454     17.125
REMARK INTER + INTRA:         -12.166
REMARK INTER:                  -8.657
REMARK INTRA:                  -3.509
REMARK UNBOUND:                -4.115
REMARK SMILES CCCCCCCCCCCCCCCCCCCCCCCC(=O)[O-]
REMARK SMILES IDX 13 1 14 2 15 3 16 4 17 5 18 6 19 7 20 8 21 9 22 10 23 11
REMARK SMILES IDX 24 12 25 13 26 14 12 15 11 16 10 17 9 18 8 19 7 20 6 21 5 22
REMARK SMILES IDX 4 23 3 24 2 25 1 26
REMARK H PARENT
REMARK Flexibility Score: inf
ROOT
ATOM      1  C   UNL     1     -50.950  13.189 -20.378  1.00  0.00     0.000 C 
ENDROOT
BRANCH   1   2
ATOM      2  C   UNL     1     -49.616  13.828 -19.958  1.00  0.00     0.000 C 
BRANCH   2   3
ATOM      3  C   UNL     1     -48.394  12.997 -20.392  1.00  0.00     0.000 C 
BRANCH   3   4
ATOM      4  C   UNL     1     -47.725  12.195 -19.261  1.00  0.00     0.000 C 
BRANCH   4   5
ATOM      5  C   UNL     1     -47.349  10.765 -19.685  1.00  0.00     0.000 C 
BRANCH   5   6
ATOM      6  C   UNL     1     -48.492   9.763 -19.458  1.00  0.00     0.000 C 
BRANCH   6   7
ATOM      7  C   UNL     1     -49.396  10.158 -18.280  1.00  0.00     0.000 C 
BRANCH   7   8
ATOM      8  C   UNL     1     -49.129   9.267 -17.062  1.00  0.00     0.000 C 
BRANCH   8   9
ATOM      9  C   UNL     1     -48.929  10.110 -15.793  1.00  0.00     0.000 C 
BRANCH   9  10
ATOM     10  C   UNL     1     -47.476  10.102 -15.285  1.00  0.00     0.006 C 
BRANCH  10  11
ATOM     11  C   UNL     1     -46.569  11.137 -15.973  1.00  0.00     0.053 C 
BRANCH  11  12
ATOM     12  C   UNL     1     -46.086  12.197 -15.030  1.00  0.00     0.041 C 
ATOM     13  O   UNL     1     -46.420  13.399 -15.204  1.00  0.00    -0.550 OA
ATOM     14  O   UNL     1     -45.240  11.865 -13.979  1.00  0.00    -0.550 OA
ENDBRANCH  11  12
ENDBRANCH  10  11
ENDBRANCH   9  10
ENDBRANCH   8   9
ENDBRANCH   7   8
ENDBRANCH   6   7
ENDBRANCH   5   6
ENDBRANCH   4   5
ENDBRANCH   3   4
ENDBRANCH   2   3
ENDBRANCH   1   2
BRANCH   1  15
ATOM     15  C   UNL     1     -50.762  11.950 -21.269  1.00  0.00     0.000 C 
BRANCH  15  16
ATOM     16  C   UNL     1     -51.706  11.947 -22.481  1.00  0.00     0.000 C 
BRANCH  16  17
ATOM     17  C   UNL     1     -51.322  10.843 -23.473  1.00  0.00     0.000 C 
BRANCH  17  18
ATOM     18  C   UNL     1     -50.043  10.120 -23.025  1.00  0.00    -0.000 C 
BRANCH  18  19
ATOM     19  C   UNL     1     -49.199   9.621 -24.218  1.00  0.00    -0.000 C 
BRANCH  19  20
ATOM     20  C   UNL     1     -48.211  10.670 -24.764  1.00  0.00    -0.000 C 
BRANCH  20  21
ATOM     21  C   UNL     1     -46.954  10.893 -23.907  1.00  0.00    -0.000 C 
BRANCH  21  22
ATOM     22  C   UNL     1     -46.792  12.355 -23.454  1.00  0.00    -0.000 C 
BRANCH  22  23
ATOM     23  C   UNL     1     -47.852  13.292 -24.063  1.00  0.00    -0.000 C 
BRANCH  23  24
ATOM     24  C   UNL     1     -47.296  14.458 -24.905  1.00  0.00    -0.000 C 
BRANCH  24  25
ATOM     25  C   UNL     1     -46.452  14.038 -26.121  1.00  0.00    -0.003 C 
ATOM     26  C   UNL     1     -47.257  13.272 -27.170  1.00  0.00     0.004 C 
ENDBRANCH  24  25
ENDBRANCH  23  24
ENDBRANCH  22  23
ENDBRANCH  21  22
ENDBRANCH  20  21
ENDBRANCH  19  20
ENDBRANCH  18  19
ENDBRANCH  17  18
ENDBRANCH  16  17
ENDBRANCH  15  16
ENDBRANCH   1  15
TORSDOF 22
ENDMDL
MODEL 9
REMARK VINA RESULT:    -3.472     15.026     17.220
REMARK INTER + INTRA:         -12.053
REMARK INTER:                  -8.104
REMARK INTRA:                  -3.949
REMARK UNBOUND:                -4.115
REMARK SMILES CCCCCCCCCCCCCCCCCCCCCCCC(=O)[O-]
REMARK SMILES IDX 13 1 14 2 15 3 16 4 17 5 18 6 19 7 20 8 21 9 22 10 23 11
REMARK SMILES IDX 24 12 25 13 26 14 12 15 11 16 10 17 9 18 8 19 7 20 6 21 5 22
REMARK SMILES IDX 4 23 3 24 2 25 1 26
REMARK H PARENT
REMARK Flexibility Score: inf
ROOT
ATOM      1  C   UNL     1     -49.349  16.785 -26.417  1.00  0.00     0.000 C 
ENDROOT
BRANCH   1   2
ATOM      2  C   UNL     1     -48.983  18.039 -27.229  1.00  0.00     0.000 C 
BRANCH   2   3
ATOM      3  C   UNL     1     -49.271  17.881 -28.733  1.00  0.00     0.000 C 
BRANCH   3   4
ATOM      4  C   UNL     1     -48.073  17.398 -29.572  1.00  0.00     0.000 C 
BRANCH   4   5
ATOM      5  C   UNL     1     -46.718  17.767 -28.946  1.00  0.00     0.000 C 
BRANCH   5   6
ATOM      6  C   UNL     1     -45.827  16.538 -28.706  1.00  0.00     0.000 C 
BRANCH   6   7
ATOM      7  C   UNL     1     -46.469  15.236 -29.207  1.00  0.00     0.000 C 
BRANCH   7   8
ATOM      8  C   UNL     1     -45.932  14.026 -28.433  1.00  0.00     0.000 C 
BRANCH   8   9
ATOM      9  C   UNL     1     -46.938  12.866 -28.453  1.00  0.00     0.000 C 
BRANCH   9  10
ATOM     10  C   UNL     1     -46.479  11.654 -27.620  1.00  0.00     0.006 C 
BRANCH  10  11
ATOM     11  C   UNL     1     -45.157  11.880 -26.866  1.00  0.00     0.053 C 
BRANCH  11  12
ATOM     12  C   UNL     1     -44.038  11.039 -27.402  1.00  0.00     0.041 C 
ATOM     13  O   UNL     1     -44.005  10.730 -28.621  1.00  0.00    -0.550 OA
ATOM     14  O   UNL     1     -43.047  10.569 -26.548  1.00  0.00    -0.550 OA
ENDBRANCH  11  12
ENDBRANCH  10  11
ENDBRANCH   9  10
ENDBRANCH   8   9
ENDBRANCH   7   8
ENDBRANCH   6   7
ENDBRANCH   5   6
ENDBRANCH   4   5
ENDBRANCH   3   4
ENDBRANCH   2   3
ENDBRANCH   1   2
BRANCH   1  15
ATOM     15  C   UNL     1     -48.113  16.018 -25.920  1.00  0.00     0.000 C 
BRANCH  15  16
ATOM     16  C   UNL     1     -48.416  14.541 -25.627  1.00  0.00     0.000 C 
BRANCH  16  17
ATOM     17  C   UNL     1     -47.320  13.919 -24.752  1.00  0.00     0.000 C 
BRANCH  17  18
ATOM     18  C   UNL     1     -47.921  12.948 -23.724  1.00  0.00    -0.000 C 
BRANCH  18  19
ATOM     19  C   UNL     1     -47.457  11.493 -23.946  1.00  0.00    -0.000 C 
BRANCH  19  20
ATOM     20  C   UNL     1     -48.600  10.519 -24.294  1.00  0.00    -0.000 C 
BRANCH  20  21
ATOM     21  C   UNL     1     -49.502  10.959 -25.460  1.00  0.00    -0.000 C 
BRANCH  21  22
ATOM     22  C   UNL     1     -51.000  10.902 -25.110  1.00  0.00    -0.000 C 
BRANCH  22  23
ATOM     23  C   UNL     1     -51.444  12.058 -24.194  1.00  0.00    -0.000 C 
BRANCH  23  24
ATOM     24  C   UNL     1     -51.891  11.642 -22.778  1.00  0.00    -0.000 C 
BRANCH  24  25
ATOM     25  C   UNL     1     -51.090  12.278 -21.629  1.00  0.00    -0.003 C 
ATOM     26  C   UNL     1     -50.033  11.340 -21.047  1.00  0.00     0.004 C 
ENDBRANCH  24  25
ENDBRANCH  23  24
ENDBRANCH  22  23
ENDBRANCH  21  22
ENDBRANCH  20  21
ENDBRANCH  19  20
ENDBRANCH  18  19
ENDBRANCH  17  18
ENDBRANCH  16  17
ENDBRANCH  15  16
ENDBRANCH   1  15
TORSDOF 22
ENDMDL
