MODEL 1
REMARK VINA RESULT:    -5.339      0.000      0.000
REMARK INTER + INTRA:          -5.339
REMARK INTER:                  -5.339
REMARK INTRA:                   0.000
REMARK UNBOUND:                 0.000
REMARK SMILES CC(C)=C1CC[C@@H](C)CC1=O
REMARK SMILES IDX 8 1 7 2 6 3 5 4 4 5 2 6 1 7 3 8 10 9 11 10 9 11
REMARK H PARENT
REMARK Flexibility Score: inf
ROOT
ATOM      1  C   UNL     1      99.619 131.374  53.053  1.00  0.00     0.008 C 
ATOM      2  C   UNL     1     100.323 132.243  52.006  1.00  0.00    -0.006 C 
ATOM      3  C   UNL     1     101.641 132.803  52.563  1.00  0.00     0.008 C 
ATOM      4  C   UNL     1     102.409 133.591  51.495  1.00  0.00     0.039 C 
ATOM      5  C   UNL     1     101.554 134.662  50.832  1.00  0.00    -0.006 C 
ATOM      6  C   UNL     1     102.101 135.829  50.379  1.00  0.00    -0.070 C 
ATOM      7  C   UNL     1     103.583 136.098  50.503  1.00  0.00     0.039 C 
ATOM      8  C   UNL     1     101.254 136.923  49.771  1.00  0.00     0.039 C 
ATOM      9  C   UNL     1     100.120 134.309  50.605  1.00  0.00     0.159 C 
ATOM     10  O   UNL     1      99.483 134.759  49.615  1.00  0.00    -0.295 OA
ATOM     11  C   UNL     1      99.410 133.396  51.562  1.00  0.00     0.084 C 
ENDROOT
TORSDOF 0
ENDMDL
MODEL 2
REMARK VINA RESULT:    -5.333      1.320      4.192
REMARK INTER + INTRA:          -5.333
REMARK INTER:                  -5.333
REMARK INTRA:                   0.000
REMARK UNBOUND:                 0.000
REMARK SMILES CC(C)=C1CC[C@@H](C)CC1=O
REMARK SMILES IDX 8 1 7 2 6 3 5 4 4 5 2 6 1 7 3 8 10 9 11 10 9 11
REMARK H PARENT
REMARK Flexibility Score: inf
ROOT
ATOM      1  C   UNL     1     103.128 136.543  49.732  1.00  0.00     0.008 C 
ATOM      2  C   UNL     1     102.657 135.590  50.837  1.00  0.00    -0.006 C 
ATOM      3  C   UNL     1     103.583 134.367  50.929  1.00  0.00     0.008 C 
ATOM      4  C   UNL     1     103.187 133.454  52.097  1.00  0.00     0.039 C 
ATOM      5  C   UNL     1     101.713 133.071  52.064  1.00  0.00    -0.006 C 
ATOM      6  C   UNL     1     101.283 131.864  52.535  1.00  0.00    -0.070 C 
ATOM      7  C   UNL     1     102.250 130.863  53.126  1.00  0.00     0.039 C 
ATOM      8  C   UNL     1      99.832 131.449  52.456  1.00  0.00     0.039 C 
ATOM      9  C   UNL     1     100.770 134.132  51.599  1.00  0.00     0.159 C 
ATOM     10  O   UNL     1      99.597 134.210  52.053  1.00  0.00    -0.295 OA
ATOM     11  C   UNL     1     101.213 135.137  50.576  1.00  0.00     0.084 C 
ENDROOT
TORSDOF 0
ENDMDL
MODEL 3
REMARK VINA RESULT:    -5.249      1.626      2.444
REMARK INTER + INTRA:          -5.249
REMARK INTER:                  -5.249
REMARK INTRA:                   0.000
REMARK UNBOUND:                 0.000
REMARK SMILES CC(C)=C1CC[C@@H](C)CC1=O
REMARK SMILES IDX 8 1 7 2 6 3 5 4 4 5 2 6 1 7 3 8 10 9 11 10 9 11
REMARK H PARENT
REMARK Flexibility Score: inf
ROOT
ATOM      1  C   UNL     1      99.496 131.347  52.967  1.00  0.00     0.008 C 
ATOM      2  C   UNL     1      99.971 132.774  52.673  1.00  0.00    -0.006 C 
ATOM      3  C   UNL     1      99.657 133.161  51.219  1.00  0.00     0.008 C 
ATOM      4  C   UNL     1     100.033 134.621  50.937  1.00  0.00     0.039 C 
ATOM      5  C   UNL     1     101.469 134.941  51.330  1.00  0.00    -0.006 C 
ATOM      6  C   UNL     1     102.202 135.869  50.647  1.00  0.00    -0.070 C 
ATOM      7  C   UNL     1     101.613 136.630  49.482  1.00  0.00     0.039 C 
ATOM      8  C   UNL     1     103.646 136.154  50.992  1.00  0.00     0.039 C 
ATOM      9  C   UNL     1     101.975 134.271  52.565  1.00  0.00     0.159 C 
ATOM     10  O   UNL     1     102.817 134.832  53.317  1.00  0.00    -0.295 OA
ATOM     11  C   UNL     1     101.479 132.904  52.937  1.00  0.00     0.084 C 
ENDROOT
TORSDOF 0
ENDMDL
MODEL 4
REMARK VINA RESULT:    -5.219      1.882      2.919
REMARK INTER + INTRA:          -5.219
REMARK INTER:                  -5.219
REMARK INTRA:                   0.000
REMARK UNBOUND:                 0.000
REMARK SMILES CC(C)=C1CC[C@@H](C)CC1=O
REMARK SMILES IDX 8 1 7 2 6 3 5 4 4 5 2 6 1 7 3 8 10 9 11 10 9 11
REMARK H PARENT
REMARK Flexibility Score: inf
ROOT
ATOM      1  C   UNL     1     102.971 130.252  53.213  1.00  0.00     0.008 C 
ATOM      2  C   UNL     1     102.220 131.551  52.900  1.00  0.00    -0.006 C 
ATOM      3  C   UNL     1     101.177 131.320  51.796  1.00  0.00     0.008 C 
ATOM      4  C   UNL     1     100.345 132.584  51.542  1.00  0.00     0.039 C 
ATOM      5  C   UNL     1     101.210 133.810  51.282  1.00  0.00    -0.006 C 
ATOM      6  C   UNL     1     100.793 134.811  50.452  1.00  0.00    -0.070 C 
ATOM      7  C   UNL     1      99.445 134.752  49.769  1.00  0.00     0.039 C 
ATOM      8  C   UNL     1     101.666 136.005  50.142  1.00  0.00     0.039 C 
ATOM      9  C   UNL     1     102.474 133.900  52.073  1.00  0.00     0.159 C 
ATOM     10  O   UNL     1     102.947 135.014  52.426  1.00  0.00    -0.295 OA
ATOM     11  C   UNL     1     103.203 132.651  52.472  1.00  0.00     0.084 C 
ENDROOT
TORSDOF 0
ENDMDL
MODEL 5
REMARK VINA RESULT:    -5.208      2.669      4.504
REMARK INTER + INTRA:          -5.208
REMARK INTER:                  -5.208
REMARK INTRA:                   0.000
REMARK UNBOUND:                 0.000
REMARK SMILES CC(C)=C1CC[C@@H](C)CC1=O
REMARK SMILES IDX 8 1 7 2 6 3 5 4 4 5 2 6 1 7 3 8 10 9 11 10 9 11
REMARK H PARENT
REMARK Flexibility Score: inf
ROOT
ATOM      1  C   UNL     1     101.038 136.187  49.730  1.00  0.00     0.008 C 
ATOM      2  C   UNL     1     102.006 135.954  50.896  1.00  0.00    -0.006 C 
ATOM      3  C   UNL     1     103.454 136.223  50.459  1.00  0.00     0.008 C 
ATOM      4  C   UNL     1     104.426 136.094  51.640  1.00  0.00     0.039 C 
ATOM      5  C   UNL     1     104.274 134.772  52.379  1.00  0.00    -0.006 C 
ATOM      6  C   UNL     1     105.341 134.167  52.980  1.00  0.00    -0.070 C 
ATOM      7  C   UNL     1     106.716 134.795  52.950  1.00  0.00     0.039 C 
ATOM      8  C   UNL     1     105.215 132.827  53.667  1.00  0.00     0.039 C 
ATOM      9  C   UNL     1     102.881 134.247  52.504  1.00  0.00     0.159 C 
ATOM     10  O   UNL     1     102.522 133.577  53.510  1.00  0.00    -0.295 OA
ATOM     11  C   UNL     1     101.875 134.518  51.425  1.00  0.00     0.084 C 
ENDROOT
TORSDOF 0
ENDMDL
MODEL 6
REMARK VINA RESULT:    -5.205      2.355      3.157
REMARK INTER + INTRA:          -5.205
REMARK INTER:                  -5.205
REMARK INTRA:                   0.000
REMARK UNBOUND:                 0.000
REMARK SMILES CC(C)=C1CC[C@@H](C)CC1=O
REMARK SMILES IDX 8 1 7 2 6 3 5 4 4 5 2 6 1 7 3 8 10 9 11 10 9 11
REMARK H PARENT
REMARK Flexibility Score: inf
ROOT
ATOM      1  C   UNL     1      98.731 132.967  55.032  1.00  0.00     0.008 C 
ATOM      2  C   UNL     1      99.463 133.076  53.690  1.00  0.00    -0.006 C 
ATOM      3  C   UNL     1      99.833 131.682  53.160  1.00  0.00     0.008 C 
ATOM      4  C   UNL     1     100.474 131.766  51.768  1.00  0.00     0.039 C 
ATOM      5  C   UNL     1     101.646 132.738  51.724  1.00  0.00    -0.006 C 
ATOM      6  C   UNL     1     102.708 132.532  50.891  1.00  0.00    -0.070 C 
ATOM      7  C   UNL     1     102.757 131.339  49.965  1.00  0.00     0.039 C 
ATOM      8  C   UNL     1     103.902 133.459  50.879  1.00  0.00     0.039 C 
ATOM      9  C   UNL     1     101.504 133.973  52.552  1.00  0.00     0.159 C 
ATOM     10  O   UNL     1     102.022 135.065  52.193  1.00  0.00    -0.295 OA
ATOM     11  C   UNL     1     100.728 133.934  53.836  1.00  0.00     0.084 C 
ENDROOT
TORSDOF 0
ENDMDL
MODEL 7
REMARK VINA RESULT:    -5.191      2.147      3.813
REMARK INTER + INTRA:          -5.191
REMARK INTER:                  -5.191
REMARK INTRA:                   0.000
REMARK UNBOUND:                 0.000
REMARK SMILES CC(C)=C1CC[C@@H](C)CC1=O
REMARK SMILES IDX 8 1 7 2 6 3 5 4 4 5 2 6 1 7 3 8 10 9 11 10 9 11
REMARK H PARENT
REMARK Flexibility Score: inf
ROOT
ATOM      1  C   UNL     1     106.067 133.930  53.524  1.00  0.00     0.008 C 
ATOM      2  C   UNL     1     105.103 134.138  52.351  1.00  0.00    -0.006 C 
ATOM      3  C   UNL     1     104.665 135.609  52.265  1.00  0.00     0.008 C 
ATOM      4  C   UNL     1     103.781 135.857  51.035  1.00  0.00     0.039 C 
ATOM      5  C   UNL     1     102.607 134.891  50.956  1.00  0.00    -0.006 C 
ATOM      6  C   UNL     1     101.415 135.266  50.405  1.00  0.00    -0.070 C 
ATOM      7  C   UNL     1     101.217 136.652  49.835  1.00  0.00     0.039 C 
ATOM      8  C   UNL     1     100.225 134.335  50.372  1.00  0.00     0.039 C 
ATOM      9  C   UNL     1     102.877 133.492  51.405  1.00  0.00     0.159 C 
ATOM     10  O   UNL     1     102.287 132.510  50.880  1.00  0.00    -0.295 OA
ATOM     11  C   UNL     1     103.873 133.231  52.498  1.00  0.00     0.084 C 
ENDROOT
TORSDOF 0
ENDMDL
MODEL 8
REMARK VINA RESULT:    -5.138      2.191      3.511
REMARK INTER + INTRA:          -5.138
REMARK INTER:                  -5.138
REMARK INTRA:                   0.000
REMARK UNBOUND:                 0.000
REMARK SMILES CC(C)=C1CC[C@@H](C)CC1=O
REMARK SMILES IDX 8 1 7 2 6 3 5 4 4 5 2 6 1 7 3 8 10 9 11 10 9 11
REMARK H PARENT
REMARK Flexibility Score: inf
ROOT
ATOM      1  C   UNL     1      99.482 134.692  49.875  1.00  0.00     0.008 C 
ATOM      2  C   UNL     1     100.996 134.594  50.089  1.00  0.00    -0.006 C 
ATOM      3  C   UNL     1     101.316 133.707  51.302  1.00  0.00     0.008 C 
ATOM      4  C   UNL     1     102.830 133.515  51.469  1.00  0.00     0.039 C 
ATOM      5  C   UNL     1     103.586 134.836  51.495  1.00  0.00    -0.006 C 
ATOM      6  C   UNL     1     104.729 134.985  52.227  1.00  0.00    -0.070 C 
ATOM      7  C   UNL     1     105.301 133.839  53.029  1.00  0.00     0.039 C 
ATOM      8  C   UNL     1     105.458 136.307  52.306  1.00  0.00     0.039 C 
ATOM      9  C   UNL     1     103.070 135.905  50.589  1.00  0.00     0.159 C 
ATOM     10  O   UNL     1     103.846 136.746  50.059  1.00  0.00    -0.295 OA
ATOM     11  C   UNL     1     101.603 135.992  50.286  1.00  0.00     0.084 C 
ENDROOT
TORSDOF 0
ENDMDL
MODEL 9
REMARK VINA RESULT:    -5.125      2.408      4.563
REMARK INTER + INTRA:          -5.125
REMARK INTER:                  -5.125
REMARK INTRA:                   0.000
REMARK UNBOUND:                 0.000
REMARK SMILES CC(C)=C1CC[C@@H](C)CC1=O
REMARK SMILES IDX 8 1 7 2 6 3 5 4 4 5 2 6 1 7 3 8 10 9 11 10 9 11
REMARK H PARENT
REMARK Flexibility Score: inf
ROOT
ATOM      1  C   UNL     1     105.847 134.345  52.721  1.00  0.00     0.008 C 
ATOM      2  C   UNL     1     104.587 133.708  52.124  1.00  0.00    -0.006 C 
ATOM      3  C   UNL     1     103.553 134.787  51.765  1.00  0.00     0.008 C 
ATOM      4  C   UNL     1     102.328 134.177  51.071  1.00  0.00     0.039 C 
ATOM      5  C   UNL     1     101.721 133.026  51.862  1.00  0.00    -0.006 C 
ATOM      6  C   UNL     1     100.381 132.769  51.828  1.00  0.00    -0.070 C 
ATOM      7  C   UNL     1      99.444 133.607  50.987  1.00  0.00     0.039 C 
ATOM      8  C   UNL     1      99.760 131.666  52.653  1.00  0.00     0.039 C 
ATOM      9  C   UNL     1     102.689 132.139  52.574  1.00  0.00     0.159 C 
ATOM     10  O   UNL     1     102.454 130.911  52.736  1.00  0.00    -0.295 OA
ATOM     11  C   UNL     1     103.974 132.701  53.108  1.00  0.00     0.084 C 
ENDROOT
TORSDOF 0
ENDMDL
