MODEL 1
REMARK VINA RESULT:    -4.400      0.000      0.000
REMARK INTER + INTRA:          -8.402
REMARK INTER:                  -6.714
REMARK INTRA:                  -1.688
REMARK UNBOUND:                -1.688
REMARK SMILES OC[C@@H]1O[C@](CO)(O[C@@H]2O[C@H](CO)[C@H](O)[C@H](O)[C@H]2O)[C@@H](O)[C@H]1O
REMARK SMILES IDX 8 1 9 2 11 3 14 4 10 5 16 6 18 7 12 8 13 9 15 11 17 13 19 15
REMARK SMILES IDX 5 17 20 18 4 19 22 20 3 21 6 22 7 23 21 25 23 27 2 29 1 30
REMARK H PARENT 13 10 15 12 17 14 19 16 7 24 21 26 23 28 1 31
REMARK Flexibility Score: inf
ROOT
ATOM      1  O   UNL     1     134.974 128.122 125.174  1.00  0.00    -0.313 OA
ENDROOT
BRANCH   1   2
ATOM      2  C   UNL     1     133.921 128.261 124.230  1.00  0.00     0.285 C 
ATOM      3  C   UNL     1     133.158 126.002 124.441  1.00  0.00     0.178 C 
ATOM      4  C   UNL     1     133.732 125.625 123.049  1.00  0.00     0.177 C 
ATOM      5  O   UNL     1     132.843 127.389 124.552  1.00  0.00    -0.341 OA
ATOM      6  C   UNL     1     134.879 126.557 122.614  1.00  0.00     0.179 C 
ATOM      7  C   UNL     1     134.457 128.021 122.805  1.00  0.00     0.202 C 
BRANCH   3   8
ATOM      8  C   UNL     1     133.970 125.486 125.653  1.00  0.00     0.191 C 
BRANCH   8   9
ATOM      9  O   UNL     1     133.357 125.877 126.855  1.00  0.00    -0.394 OA
ATOM     10  H   UNL     1     132.399 126.005 126.644  1.00  0.00     0.210 HD
ENDBRANCH   8   9
ENDBRANCH   3   8
BRANCH   4  11
ATOM     11  O   UNL     1     134.144 124.283 123.026  1.00  0.00    -0.387 OA
ATOM     12  H   UNL     1     135.135 124.285 122.966  1.00  0.00     0.211 HD
ENDBRANCH   4  11
BRANCH   6  13
ATOM     13  O   UNL     1     136.049 126.301 123.346  1.00  0.00    -0.387 OA
ATOM     14  H   UNL     1     136.678 127.049 123.163  1.00  0.00     0.211 HD
ENDBRANCH   6  13
BRANCH   7  15
ATOM     15  O   UNL     1     133.455 128.356 121.878  1.00  0.00    -0.385 OA
ATOM     16  H   UNL     1     133.899 128.823 121.123  1.00  0.00     0.211 HD
ENDBRANCH   7  15
ENDBRANCH   1   2
BRANCH   1  17
ATOM     17  C   UNL     1     135.552 129.341 125.643  1.00  0.00     0.224 C 
ATOM     18  C   UNL     1     136.190 129.143 127.036  1.00  0.00     0.208 C 
ATOM     19  O   UNL     1     134.478 130.243 125.817  1.00  0.00    -0.337 OA
ATOM     20  C   UNL     1     134.966 129.202 127.916  1.00  0.00     0.180 C 
ATOM     21  C   UNL     1     134.062 130.186 127.166  1.00  0.00     0.179 C 
BRANCH  17  22
ATOM     22  C   UNL     1     136.523 129.960 124.597  1.00  0.00     0.225 C 
BRANCH  22  23
ATOM     23  O   UNL     1     136.507 131.358 124.685  1.00  0.00    -0.391 OA
ATOM     24  H   UNL     1     137.299 131.685 124.181  1.00  0.00     0.210 HD
ENDBRANCH  22  23
ENDBRANCH  17  22
BRANCH  18  25
ATOM     25  O   UNL     1     137.078 130.197 127.333  1.00  0.00    -0.385 OA
ATOM     26  H   UNL     1     137.865 130.082 126.733  1.00  0.00     0.211 HD
ENDBRANCH  18  25
BRANCH  20  27
ATOM     27  O   UNL     1     135.246 129.585 129.243  1.00  0.00    -0.387 OA
ATOM     28  H   UNL     1     135.187 128.784 129.826  1.00  0.00     0.211 HD
ENDBRANCH  20  27
BRANCH  21  29
ATOM     29  C   UNL     1     132.580 129.784 127.239  1.00  0.00     0.191 C 
BRANCH  29  30
ATOM     30  O   UNL     1     132.452 128.387 127.282  1.00  0.00    -0.394 OA
ATOM     31  H   UNL     1     131.530 128.172 126.990  1.00  0.00     0.210 HD
ENDBRANCH  29  30
ENDBRANCH  21  29
ENDBRANCH   1  17
TORSDOF 13
ENDMDL
MODEL 2
REMARK VINA RESULT:    -4.384      7.551      9.685
REMARK INTER + INTRA:          -8.379
REMARK INTER:                  -6.674
REMARK INTRA:                  -1.704
REMARK UNBOUND:                -1.688
REMARK SMILES OC[C@@H]1O[C@](CO)(O[C@@H]2O[C@H](CO)[C@H](O)[C@H](O)[C@H]2O)[C@@H](O)[C@H]1O
REMARK SMILES IDX 8 1 9 2 11 3 14 4 10 5 16 6 18 7 12 8 13 9 15 11 17 13 19 15
REMARK SMILES IDX 5 17 20 18 4 19 22 20 3 21 6 22 7 23 21 25 23 27 2 29 1 30
REMARK H PARENT 13 10 15 12 17 14 19 16 7 24 21 26 23 28 1 31
REMARK Flexibility Score: inf
ROOT
ATOM      1  O   UNL     1     136.553 137.132 125.192  1.00  0.00    -0.313 OA
ENDROOT
BRANCH   1   2
ATOM      2  C   UNL     1     136.945 136.152 124.241  1.00  0.00     0.285 C 
ATOM      3  C   UNL     1     139.290 136.586 124.454  1.00  0.00     0.178 C 
ATOM      4  C   UNL     1     139.337 137.280 123.066  1.00  0.00     0.177 C 
ATOM      5  O   UNL     1     138.233 135.634 124.559  1.00  0.00    -0.341 OA
ATOM      6  C   UNL     1     137.965 137.830 122.636  1.00  0.00     0.179 C 
ATOM      7  C   UNL     1     136.892 136.747 122.820  1.00  0.00     0.202 C 
BRANCH   3   8
ATOM      8  C   UNL     1     139.345 137.538 125.672  1.00  0.00     0.191 C 
BRANCH   8   9
ATOM      9  O   UNL     1     139.250 136.808 126.869  1.00  0.00    -0.394 OA
ATOM     10  H   UNL     1     138.648 137.328 127.458  1.00  0.00     0.210 HD
ENDBRANCH   8   9
ENDBRANCH   3   8
BRANCH   4  11
ATOM     11  O   UNL     1     140.309 138.295 123.050  1.00  0.00    -0.387 OA
ATOM     12  H   UNL     1     141.172 137.865 122.817  1.00  0.00     0.211 HD
ENDBRANCH   4  11
BRANCH   6  13
ATOM     13  O   UNL     1     137.618 138.972 123.376  1.00  0.00    -0.387 OA
ATOM     14  H   UNL     1     137.901 139.762 122.843  1.00  0.00     0.211 HD
ENDBRANCH   6  13
BRANCH   7  15
ATOM     15  O   UNL     1     137.088 135.715 121.886  1.00  0.00    -0.385 OA
ATOM     16  H   UNL     1     136.438 134.997 122.102  1.00  0.00     0.211 HD
ENDBRANCH   7  15
ENDBRANCH   1   2
BRANCH   1  17
ATOM     17  C   UNL     1     135.201 137.054 125.643  1.00  0.00     0.224 C 
ATOM     18  C   UNL     1     135.048 137.710 127.033  1.00  0.00     0.208 C 
ATOM     19  O   UNL     1     134.923 135.679 125.815  1.00  0.00    -0.337 OA
ATOM     20  C   UNL     1     135.573 136.609 127.922  1.00  0.00     0.180 C 
ATOM     21  C   UNL     1     135.155 135.342 127.167  1.00  0.00     0.179 C 
BRANCH  17  22
ATOM     22  C   UNL     1     134.205 137.607 124.583  1.00  0.00     0.225 C 
BRANCH  22  23
ATOM     23  O   UNL     1     132.979 136.936 124.670  1.00  0.00    -0.391 OA
ATOM     24  H   UNL     1     132.622 136.871 123.743  1.00  0.00     0.210 HD
ENDBRANCH  22  23
ENDBRANCH  17  22
BRANCH  18  25
ATOM     25  O   UNL     1     133.694 137.982 127.312  1.00  0.00    -0.385 OA
ATOM     26  H   UNL     1     133.325 137.168 127.751  1.00  0.00     0.211 HD
ENDBRANCH  18  25
BRANCH  20  27
ATOM     27  O   UNL     1     135.085 136.671 129.242  1.00  0.00    -0.387 OA
ATOM     28  H   UNL     1     135.641 136.083 129.817  1.00  0.00     0.211 HD
ENDBRANCH  20  27
BRANCH  21  29
ATOM     29  C   UNL     1     136.218 134.236 127.255  1.00  0.00     0.191 C 
BRANCH  29  30
ATOM     30  O   UNL     1     137.506 134.793 127.273  1.00  0.00    -0.394 OA
ATOM     31  H   UNL     1     137.496 135.524 127.940  1.00  0.00     0.210 HD
ENDBRANCH  29  30
ENDBRANCH  21  29
ENDBRANCH   1  17
TORSDOF 13
ENDMDL
MODEL 3
REMARK VINA RESULT:    -4.373      7.036      9.560
REMARK INTER + INTRA:          -8.362
REMARK INTER:                  -6.671
REMARK INTRA:                  -1.692
REMARK UNBOUND:                -1.688
REMARK SMILES OC[C@@H]1O[C@](CO)(O[C@@H]2O[C@H](CO)[C@H](O)[C@H](O)[C@H]2O)[C@@H](O)[C@H]1O
REMARK SMILES IDX 8 1 9 2 11 3 14 4 10 5 16 6 18 7 12 8 13 9 15 11 17 13 19 15
REMARK SMILES IDX 5 17 20 18 4 19 22 20 3 21 6 22 7 23 21 25 23 27 2 29 1 30
REMARK H PARENT 13 10 15 12 17 14 19 16 7 24 21 26 23 28 1 31
REMARK Flexibility Score: inf
ROOT
ATOM      1  O   UNL     1     128.680 134.332 126.049  1.00  0.00    -0.313 OA
ENDROOT
BRANCH   1   2
ATOM      2  C   UNL     1     128.138 133.797 127.249  1.00  0.00     0.285 C 
ATOM      3  C   UNL     1     130.264 133.320 128.241  1.00  0.00     0.178 C 
ATOM      4  C   UNL     1     130.077 131.794 128.024  1.00  0.00     0.177 C 
ATOM      5  O   UNL     1     129.025 134.019 128.341  1.00  0.00    -0.341 OA
ATOM      6  C   UNL     1     129.095 131.478 126.881  1.00  0.00     0.179 C 
ATOM      7  C   UNL     1     127.812 132.303 127.059  1.00  0.00     0.202 C 
BRANCH   3   8
ATOM      8  C   UNL     1     131.249 134.011 127.268  1.00  0.00     0.191 C 
BRANCH   8   9
ATOM      9  O   UNL     1     131.224 135.403 127.453  1.00  0.00    -0.394 OA
ATOM     10  H   UNL     1     131.120 135.547 128.426  1.00  0.00     0.210 HD
ENDBRANCH   8   9
ENDBRANCH   3   8
BRANCH   4  11
ATOM     11  O   UNL     1     131.315 131.167 127.805  1.00  0.00    -0.387 OA
ATOM     12  H   UNL     1     131.601 131.405 126.885  1.00  0.00     0.211 HD
ENDBRANCH   4  11
BRANCH   6  13
ATOM     13  O   UNL     1     129.665 131.750 125.628  1.00  0.00    -0.387 OA
ATOM     14  H   UNL     1     129.691 130.892 125.127  1.00  0.00     0.211 HD
ENDBRANCH   6  13
BRANCH   7  15
ATOM     15  O   UNL     1     127.098 131.845 128.180  1.00  0.00    -0.385 OA
ATOM     16  H   UNL     1     126.612 132.624 128.556  1.00  0.00     0.211 HD
ENDBRANCH   7  15
ENDBRANCH   1   2
BRANCH   1  17
ATOM     17  C   UNL     1     127.999 135.466 125.511  1.00  0.00     0.224 C 
ATOM     18  C   UNL     1     126.529 135.118 125.188  1.00  0.00     0.208 C 
ATOM     19  O   UNL     1     128.626 135.750 124.277  1.00  0.00    -0.337 OA
ATOM     20  C   UNL     1     126.694 134.396 123.873  1.00  0.00     0.180 C 
ATOM     21  C   UNL     1     127.898 135.110 123.248  1.00  0.00     0.179 C 
BRANCH  17  22
ATOM     22  C   UNL     1     128.156 136.719 126.420  1.00  0.00     0.225 C 
BRANCH  22  23
ATOM     23  O   UNL     1     128.352 137.865 125.639  1.00  0.00    -0.391 OA
ATOM     24  H   UNL     1     128.970 137.608 124.903  1.00  0.00     0.210 HD
ENDBRANCH  22  23
ENDBRANCH  17  22
BRANCH  18  25
ATOM     25  O   UNL     1     125.762 136.290 125.029  1.00  0.00    -0.385 OA
ATOM     26  H   UNL     1     126.406 137.049 125.001  1.00  0.00     0.211 HD
ENDBRANCH  18  25
BRANCH  20  27
ATOM     27  O   UNL     1     125.538 134.423 123.068  1.00  0.00    -0.387 OA
ATOM     28  H   UNL     1     125.709 135.002 122.281  1.00  0.00     0.211 HD
ENDBRANCH  20  27
BRANCH  21  29
ATOM     29  C   UNL     1     128.816 134.142 122.486  1.00  0.00     0.191 C 
BRANCH  29  30
ATOM     30  O   UNL     1     129.019 132.969 123.229  1.00  0.00    -0.394 OA
ATOM     31  H   UNL     1     129.310 132.269 122.591  1.00  0.00     0.210 HD
ENDBRANCH  29  30
ENDBRANCH  21  29
ENDBRANCH   1  17
TORSDOF 13
ENDMDL
MODEL 4
REMARK VINA RESULT:    -4.358      8.413     10.766
REMARK INTER + INTRA:          -8.338
REMARK INTER:                  -6.798
REMARK INTRA:                  -1.540
REMARK UNBOUND:                -1.688
REMARK SMILES OC[C@@H]1O[C@](CO)(O[C@@H]2O[C@H](CO)[C@H](O)[C@H](O)[C@H]2O)[C@@H](O)[C@H]1O
REMARK SMILES IDX 8 1 9 2 11 3 14 4 10 5 16 6 18 7 12 8 13 9 15 11 17 13 19 15
REMARK SMILES IDX 5 17 20 18 4 19 22 20 3 21 6 22 7 23 21 25 23 27 2 29 1 30
REMARK H PARENT 13 10 15 12 17 14 19 16 7 24 21 26 23 28 1 31
REMARK Flexibility Score: inf
ROOT
ATOM      1  O   UNL     1     128.340 134.908 122.897  1.00  0.00    -0.313 OA
ENDROOT
BRANCH   1   2
ATOM      2  C   UNL     1     127.392 135.963 122.812  1.00  0.00     0.285 C 
ATOM      3  C   UNL     1     128.242 137.156 124.705  1.00  0.00     0.178 C 
ATOM      4  C   UNL     1     127.019 136.751 125.571  1.00  0.00     0.177 C 
ATOM      5  O   UNL     1     127.948 137.176 123.309  1.00  0.00    -0.341 OA
ATOM      6  C   UNL     1     126.340 135.466 125.065  1.00  0.00     0.179 C 
ATOM      7  C   UNL     1     126.099 135.570 123.552  1.00  0.00     0.202 C 
BRANCH   3   8
ATOM      8  C   UNL     1     129.555 136.398 125.017  1.00  0.00     0.191 C 
BRANCH   8   9
ATOM      9  O   UNL     1     130.115 136.862 126.218  1.00  0.00    -0.394 OA
ATOM     10  H   UNL     1     130.473 137.763 126.022  1.00  0.00     0.210 HD
ENDBRANCH   8   9
ENDBRANCH   3   8
BRANCH   4  11
ATOM     11  O   UNL     1     127.386 136.623 126.921  1.00  0.00    -0.387 OA
ATOM     12  H   UNL     1     127.198 137.495 127.356  1.00  0.00     0.211 HD
ENDBRANCH   4  11
BRANCH   6  13
ATOM     13  O   UNL     1     127.118 134.332 125.345  1.00  0.00    -0.387 OA
ATOM     14  H   UNL     1     127.793 134.602 126.024  1.00  0.00     0.211 HD
ENDBRANCH   6  13
BRANCH   7  15
ATOM     15  O   UNL     1     125.110 136.534 123.288  1.00  0.00    -0.385 OA
ATOM     16  H   UNL     1     124.236 136.128 123.521  1.00  0.00     0.211 HD
ENDBRANCH   7  15
ENDBRANCH   1   2
BRANCH   1  17
ATOM     17  C   UNL     1     128.734 134.325 121.655  1.00  0.00     0.224 C 
ATOM     18  C   UNL     1     129.879 133.310 121.865  1.00  0.00     0.208 C 
ATOM     19  O   UNL     1     129.269 135.379 120.879  1.00  0.00    -0.337 OA
ATOM     20  C   UNL     1     131.061 134.240 121.983  1.00  0.00     0.180 C 
ATOM     21  C   UNL     1     130.671 135.396 121.056  1.00  0.00     0.179 C 
BRANCH  17  22
ATOM     22  C   UNL     1     127.519 133.739 120.880  1.00  0.00     0.225 C 
BRANCH  22  23
ATOM     23  O   UNL     1     126.998 132.630 121.558  1.00  0.00    -0.391 OA
ATOM     24  H   UNL     1     126.046 132.838 121.758  1.00  0.00     0.210 HD
ENDBRANCH  22  23
ENDBRANCH  17  22
BRANCH  18  25
ATOM     25  O   UNL     1     130.010 132.465 120.744  1.00  0.00    -0.385 OA
ATOM     26  H   UNL     1     129.919 133.044 119.940  1.00  0.00     0.211 HD
ENDBRANCH  18  25
BRANCH  20  27
ATOM     27  O   UNL     1     132.289 133.634 121.650  1.00  0.00    -0.387 OA
ATOM     28  H   UNL     1     132.482 132.918 122.310  1.00  0.00     0.211 HD
ENDBRANCH  20  27
BRANCH  21  29
ATOM     29  C   UNL     1     131.110 136.760 121.612  1.00  0.00     0.191 C 
BRANCH  29  30
ATOM     30  O   UNL     1     132.138 136.599 122.552  1.00  0.00    -0.394 OA
ATOM     31  H   UNL     1     132.994 136.743 122.074  1.00  0.00     0.210 HD
ENDBRANCH  29  30
ENDBRANCH  21  29
ENDBRANCH   1  17
TORSDOF 13
ENDMDL
MODEL 5
REMARK VINA RESULT:    -4.355      6.942      9.684
REMARK INTER + INTRA:          -8.335
REMARK INTER:                  -6.636
REMARK INTRA:                  -1.698
REMARK UNBOUND:                -1.688
REMARK SMILES OC[C@@H]1O[C@](CO)(O[C@@H]2O[C@H](CO)[C@H](O)[C@H](O)[C@H]2O)[C@@H](O)[C@H]1O
REMARK SMILES IDX 8 1 9 2 11 3 14 4 10 5 16 6 18 7 12 8 13 9 15 11 17 13 19 15
REMARK SMILES IDX 5 17 20 18 4 19 22 20 3 21 6 22 7 23 21 25 23 27 2 29 1 30
REMARK H PARENT 13 10 15 12 17 14 19 16 7 24 21 26 23 28 1 31
REMARK Flexibility Score: inf
ROOT
ATOM      1  O   UNL     1     136.458 136.397 126.038  1.00  0.00    -0.313 OA
ENDROOT
BRANCH   1   2
ATOM      2  C   UNL     1     136.235 137.114 127.244  1.00  0.00     0.285 C 
ATOM      3  C   UNL     1     134.634 135.561 128.114  1.00  0.00     0.178 C 
ATOM      4  C   UNL     1     133.463 136.547 127.856  1.00  0.00     0.177 C 
ATOM      5  O   UNL     1     135.884 136.222 128.298  1.00  0.00    -0.341 OA
ATOM      6  C   UNL     1     133.789 137.572 126.754  1.00  0.00     0.179 C 
ATOM      7  C   UNL     1     135.164 138.200 127.021  1.00  0.00     0.202 C 
BRANCH   3   8
ATOM      8  C   UNL     1     134.737 134.381 127.117  1.00  0.00     0.191 C 
BRANCH   8   9
ATOM      9  O   UNL     1     135.927 133.666 127.326  1.00  0.00    -0.394 OA
ATOM     10  H   UNL     1     136.459 133.774 126.498  1.00  0.00     0.210 HD
ENDBRANCH   8   9
ENDBRANCH   3   8
BRANCH   4  11
ATOM     11  O   UNL     1     132.281 135.850 127.556  1.00  0.00    -0.387 OA
ATOM     12  H   UNL     1     132.547 135.026 127.072  1.00  0.00     0.211 HD
ENDBRANCH   4  11
BRANCH   6  13
ATOM     13  O   UNL     1     133.779 136.975 125.484  1.00  0.00    -0.387 OA
ATOM     14  H   UNL     1     133.167 136.193 125.533  1.00  0.00     0.211 HD
ENDBRANCH   6  13
BRANCH   7  15
ATOM     15  O   UNL     1     135.103 139.022 128.160  1.00  0.00    -0.385 OA
ATOM     16  H   UNL     1     135.194 138.432 128.952  1.00  0.00     0.211 HD
ENDBRANCH   7  15
ENDBRANCH   1   2
BRANCH   1  17
ATOM     17  C   UNL     1     137.800 136.400 125.552  1.00  0.00     0.224 C 
ATOM     18  C   UNL     1     138.248 137.833 125.189  1.00  0.00     0.208 C 
ATOM     19  O   UNL     1     137.782 135.665 124.345  1.00  0.00    -0.337 OA
ATOM     20  C   UNL     1     137.594 137.997 123.839  1.00  0.00     0.180 C 
ATOM     21  C   UNL     1     137.634 136.573 123.272  1.00  0.00     0.179 C 
BRANCH  17  22
ATOM     22  C   UNL     1     138.769 135.676 126.530  1.00  0.00     0.225 C 
BRANCH  22  23
ATOM     23  O   UNL     1     139.735 134.956 125.815  1.00  0.00    -0.391 OA
ATOM     24  H   UNL     1     139.256 134.488 125.079  1.00  0.00     0.210 HD
ENDBRANCH  22  23
ENDBRANCH  17  22
BRANCH  18  25
ATOM     25  O   UNL     1     139.652 137.906 125.084  1.00  0.00    -0.385 OA
ATOM     26  H   UNL     1     139.987 136.969 125.104  1.00  0.00     0.211 HD
ENDBRANCH  18  25
BRANCH  20  27
ATOM     27  O   UNL     1     138.227 138.952 123.020  1.00  0.00    -0.387 OA
ATOM     28  H   UNL     1     138.821 139.514 123.583  1.00  0.00     0.211 HD
ENDBRANCH  20  27
BRANCH  21  29
ATOM     29  C   UNL     1     136.368 136.232 122.471  1.00  0.00     0.191 C 
BRANCH  29  30
ATOM     30  O   UNL     1     135.220 136.623 123.176  1.00  0.00    -0.394 OA
ATOM     31  H   UNL     1     134.907 135.832 123.683  1.00  0.00     0.210 HD
ENDBRANCH  29  30
ENDBRANCH  21  29
ENDBRANCH   1  17
TORSDOF 13
ENDMDL
MODEL 6
REMARK VINA RESULT:    -4.353      1.579      5.564
REMARK INTER + INTRA:          -8.332
REMARK INTER:                  -6.633
REMARK INTRA:                  -1.699
REMARK UNBOUND:                -1.688
REMARK SMILES OC[C@@H]1O[C@](CO)(O[C@@H]2O[C@H](CO)[C@H](O)[C@H](O)[C@H]2O)[C@@H](O)[C@H]1O
REMARK SMILES IDX 8 1 9 2 11 3 14 4 10 5 16 6 18 7 12 8 13 9 15 11 17 13 19 15
REMARK SMILES IDX 5 17 20 18 4 19 22 20 3 21 6 22 7 23 21 25 23 27 2 29 1 30
REMARK H PARENT 13 10 15 12 17 14 19 16 7 24 21 26 23 28 1 31
REMARK Flexibility Score: inf
ROOT
ATOM      1  O   UNL     1     134.388 128.684 126.052  1.00  0.00    -0.313 OA
ENDROOT
BRANCH   1   2
ATOM      2  C   UNL     1     135.119 128.513 127.258  1.00  0.00     0.285 C 
ATOM      3  C   UNL     1     134.582 130.675 128.134  1.00  0.00     0.178 C 
ATOM      4  C   UNL     1     136.023 131.191 127.879  1.00  0.00     0.177 C 
ATOM      5  O   UNL     1     134.525 129.261 128.314  1.00  0.00    -0.341 OA
ATOM      6  C   UNL     1     136.745 130.398 126.775  1.00  0.00     0.179 C 
ATOM      7  C   UNL     1     136.596 128.892 127.037  1.00  0.00     0.202 C 
BRANCH   3   8
ATOM      8  C   UNL     1     133.511 131.182 127.139  1.00  0.00     0.191 C 
BRANCH   8   9
ATOM      9  O   UNL     1     132.298 130.503 127.336  1.00  0.00    -0.394 OA
ATOM     10  H   UNL     1     131.707 131.135 127.818  1.00  0.00     0.210 HD
ENDBRANCH   8   9
ENDBRANCH   3   8
BRANCH   4  11
ATOM     11  O   UNL     1     136.015 132.564 127.583  1.00  0.00    -0.387 OA
ATOM     12  H   UNL     1     136.600 132.692 126.791  1.00  0.00     0.211 HD
ENDBRANCH   4  11
BRANCH   6  13
ATOM     13  O   UNL     1     136.235 130.711 125.505  1.00  0.00    -0.387 OA
ATOM     14  H   UNL     1     135.725 129.917 125.191  1.00  0.00     0.211 HD
ENDBRANCH   6  13
BRANCH   7  15
ATOM     15  O   UNL     1     137.337 128.528 128.176  1.00  0.00    -0.385 OA
ATOM     16  H   UNL     1     138.288 128.467 127.899  1.00  0.00     0.211 HD
ENDBRANCH   7  15
ENDBRANCH   1   2
BRANCH   1  17
ATOM     17  C   UNL     1     133.716 127.524 125.563  1.00  0.00     0.224 C 
ATOM     18  C   UNL     1     134.729 126.413 125.209  1.00  0.00     0.208 C 
ATOM     19  O   UNL     1     133.101 127.909 124.350  1.00  0.00    -0.337 OA
ATOM     20  C   UNL     1     135.212 126.892 123.862  1.00  0.00     0.180 C 
ATOM     21  C   UNL     1     133.968 127.577 123.285  1.00  0.00     0.179 C 
BRANCH  17  22
ATOM     22  C   UNL     1     132.593 127.055 126.532  1.00  0.00     0.225 C 
BRANCH  22  23
ATOM     23  O   UNL     1     131.492 126.580 125.809  1.00  0.00    -0.391 OA
ATOM     24  H   UNL     1     130.937 127.373 125.580  1.00  0.00     0.210 HD
ENDBRANCH  22  23
ENDBRANCH  17  22
BRANCH  18  25
ATOM     25  O   UNL     1     134.084 125.164 125.100  1.00  0.00    -0.385 OA
ATOM     26  H   UNL     1     133.213 125.253 125.575  1.00  0.00     0.211 HD
ENDBRANCH  18  25
BRANCH  20  27
ATOM     27  O   UNL     1     135.723 125.862 123.049  1.00  0.00    -0.387 OA
ATOM     28  H   UNL     1     134.988 125.231 122.832  1.00  0.00     0.211 HD
ENDBRANCH  20  27
BRANCH  21  29
ATOM     29  C   UNL     1     134.320 128.841 122.485  1.00  0.00     0.191 C 
BRANCH  29  30
ATOM     30  O   UNL     1     135.271 129.610 123.173  1.00  0.00    -0.394 OA
ATOM     31  H   UNL     1     135.038 129.564 124.135  1.00  0.00     0.210 HD
ENDBRANCH  29  30
ENDBRANCH  21  29
ENDBRANCH   1  17
TORSDOF 13
ENDMDL
MODEL 7
REMARK VINA RESULT:    -4.329      6.516      9.709
REMARK INTER + INTRA:          -8.295
REMARK INTER:                  -6.707
REMARK INTRA:                  -1.588
REMARK UNBOUND:                -1.688
REMARK SMILES OC[C@@H]1O[C@](CO)(O[C@@H]2O[C@H](CO)[C@H](O)[C@H](O)[C@H]2O)[C@@H](O)[C@H]1O
REMARK SMILES IDX 8 1 9 2 11 3 14 4 10 5 16 6 18 7 12 8 13 9 15 11 17 13 19 15
REMARK SMILES IDX 5 17 20 18 4 19 22 20 3 21 6 22 7 23 21 25 23 27 2 29 1 30
REMARK H PARENT 13 10 15 12 17 14 19 16 7 24 21 26 23 28 1 31
REMARK Flexibility Score: inf
ROOT
ATOM      1  O   UNL     1     137.193 136.124 123.033  1.00  0.00    -0.313 OA
ENDROOT
BRANCH   1   2
ATOM      2  C   UNL     1     138.563 136.493 122.962  1.00  0.00     0.285 C 
ATOM      3  C   UNL     1     139.193 135.329 124.958  1.00  0.00     0.178 C 
ATOM      4  C   UNL     1     139.354 136.660 125.741  1.00  0.00     0.177 C 
ATOM      5  O   UNL     1     139.383 135.489 123.552  1.00  0.00    -0.341 OA
ATOM      6  C   UNL     1     138.526 137.806 125.131  1.00  0.00     0.179 C 
ATOM      7  C   UNL     1     138.771 137.872 123.617  1.00  0.00     0.202 C 
BRANCH   3   8
ATOM      8  C   UNL     1     137.917 134.518 125.288  1.00  0.00     0.191 C 
BRANCH   8   9
ATOM      9  O   UNL     1     138.067 133.848 126.514  1.00  0.00    -0.394 OA
ATOM     10  H   UNL     1     138.703 133.109 126.345  1.00  0.00     0.210 HD
ENDBRANCH   8   9
ENDBRANCH   3   8
BRANCH   4  11
ATOM     11  O   UNL     1     139.036 136.480 127.098  1.00  0.00    -0.387 OA
ATOM     12  H   UNL     1     138.074 136.702 127.200  1.00  0.00     0.211 HD
ENDBRANCH   4  11
BRANCH   6  13
ATOM     13  O   UNL     1     137.156 137.635 125.384  1.00  0.00    -0.387 OA
ATOM     14  H   UNL     1     136.731 138.531 125.305  1.00  0.00     0.211 HD
ENDBRANCH   6  13
BRANCH   7  15
ATOM     15  O   UNL     1     140.083 138.306 123.362  1.00  0.00    -0.385 OA
ATOM     16  H   UNL     1     140.364 137.901 122.501  1.00  0.00     0.211 HD
ENDBRANCH   7  15
ENDBRANCH   1   2
BRANCH   1  17
ATOM     17  C   UNL     1     136.528 135.961 121.780  1.00  0.00     0.224 C 
ATOM     18  C   UNL     1     135.023 135.686 121.991  1.00  0.00     0.208 C 
ATOM     19  O   UNL     1     137.072 134.795 121.195  1.00  0.00    -0.337 OA
ATOM     20  C   UNL     1     135.052 134.219 122.342  1.00  0.00     0.180 C 
ATOM     21  C   UNL     1     136.239 133.702 121.521  1.00  0.00     0.179 C 
BRANCH  17  22
ATOM     22  C   UNL     1     136.813 137.149 120.817  1.00  0.00     0.225 C 
BRANCH  22  23
ATOM     23  O   UNL     1     136.068 138.273 121.196  1.00  0.00    -0.391 OA
ATOM     24  H   UNL     1     136.428 138.572 122.074  1.00  0.00     0.210 HD
ENDBRANCH  22  23
ENDBRANCH  17  22
BRANCH  18  25
ATOM     25  O   UNL     1     134.303 135.906 120.799  1.00  0.00    -0.385 OA
ATOM     26  H   UNL     1     133.785 135.074 120.622  1.00  0.00     0.211 HD
ENDBRANCH  18  25
BRANCH  20  27
ATOM     27  O   UNL     1     133.842 133.551 122.073  1.00  0.00    -0.387 OA
ATOM     28  H   UNL     1     133.762 133.414 121.094  1.00  0.00     0.211 HD
ENDBRANCH  20  27
BRANCH  21  29
ATOM     29  C   UNL     1     137.048 132.636 122.276  1.00  0.00     0.191 C 
BRANCH  29  30
ATOM     30  O   UNL     1     138.417 132.945 122.245  1.00  0.00    -0.394 OA
ATOM     31  H   UNL     1     138.850 132.411 122.958  1.00  0.00     0.210 HD
ENDBRANCH  29  30
ENDBRANCH  21  29
ENDBRANCH   1  17
TORSDOF 13
ENDMDL
MODEL 8
REMARK VINA RESULT:    -4.310      2.614      4.551
REMARK INTER + INTRA:          -8.266
REMARK INTER:                  -6.731
REMARK INTRA:                  -1.535
REMARK UNBOUND:                -1.688
REMARK SMILES OC[C@@H]1O[C@](CO)(O[C@@H]2O[C@H](CO)[C@H](O)[C@H](O)[C@H]2O)[C@@H](O)[C@H]1O
REMARK SMILES IDX 8 1 9 2 11 3 14 4 10 5 16 6 18 7 12 8 13 9 15 11 17 13 19 15
REMARK SMILES IDX 5 17 20 18 4 19 22 20 3 21 6 22 7 23 21 25 23 27 2 29 1 30
REMARK H PARENT 13 10 15 12 17 14 19 16 7 24 21 26 23 28 1 31
REMARK Flexibility Score: inf
ROOT
ATOM      1  O   UNL     1     134.071 128.061 122.910  1.00  0.00    -0.313 OA
ENDROOT
BRANCH   1   2
ATOM      2  C   UNL     1     133.625 126.714 122.838  1.00  0.00     0.285 C 
ATOM      3  C   UNL     1     132.237 126.852 124.784  1.00  0.00     0.178 C 
ATOM      4  C   UNL     1     133.228 125.990 125.612  1.00  0.00     0.177 C 
ATOM      5  O   UNL     1     132.315 126.591 123.383  1.00  0.00    -0.341 OA
ATOM      6  C   UNL     1     134.662 126.042 125.052  1.00  0.00     0.179 C 
ATOM      7  C   UNL     1     134.636 125.786 123.538  1.00  0.00     0.202 C 
BRANCH   3   8
ATOM      8  C   UNL     1     132.253 128.367 125.099  1.00  0.00     0.191 C 
BRANCH   8   9
ATOM      9  O   UNL     1     131.538 128.628 126.280  1.00  0.00    -0.394 OA
ATOM     10  H   UNL     1     132.015 129.371 126.729  1.00  0.00     0.210 HD
ENDBRANCH   8   9
ENDBRANCH   3   8
BRANCH   4  11
ATOM     11  O   UNL     1     133.207 126.369 126.965  1.00  0.00    -0.387 OA
ATOM     12  H   UNL     1     133.753 127.194 127.042  1.00  0.00     0.211 HD
ENDBRANCH   4  11
BRANCH   6  13
ATOM     13  O   UNL     1     135.267 127.281 125.314  1.00  0.00    -0.387 OA
ATOM     14  H   UNL     1     134.581 127.856 125.745  1.00  0.00     0.211 HD
ENDBRANCH   6  13
BRANCH   7  15
ATOM     15  O   UNL     1     134.282 124.449 123.284  1.00  0.00    -0.385 OA
ATOM     16  H   UNL     1     134.938 123.877 123.759  1.00  0.00     0.211 HD
ENDBRANCH   7  15
ENDBRANCH   1   2
BRANCH   1  17
ATOM     17  C   UNL     1     134.375 128.683 121.662  1.00  0.00     0.224 C 
ATOM     18  C   UNL     1     134.657 130.189 121.855  1.00  0.00     0.208 C 
ATOM     19  O   UNL     1     133.201 128.589 120.881  1.00  0.00    -0.337 OA
ATOM     20  C   UNL     1     133.251 130.727 121.957  1.00  0.00     0.180 C 
ATOM     21  C   UNL     1     132.465 129.786 121.037  1.00  0.00     0.179 C 
BRANCH  17  22
ATOM     22  C   UNL     1     135.507 127.932 120.903  1.00  0.00     0.225 C 
BRANCH  22  23
ATOM     23  O   UNL     1     136.730 128.098 121.565  1.00  0.00    -0.391 OA
ATOM     24  H   UNL     1     137.403 127.566 121.061  1.00  0.00     0.210 HD
ENDBRANCH  22  23
ENDBRANCH  17  22
BRANCH  18  25
ATOM     25  O   UNL     1     135.321 130.721 120.731  1.00  0.00    -0.385 OA
ATOM     26  H   UNL     1     135.237 130.045 120.005  1.00  0.00     0.211 HD
ENDBRANCH  18  25
BRANCH  20  27
ATOM     27  O   UNL     1     133.141 132.086 121.606  1.00  0.00    -0.387 OA
ATOM     28  H   UNL     1     132.610 132.160 120.771  1.00  0.00     0.211 HD
ENDBRANCH  20  27
BRANCH  21  29
ATOM     29  C   UNL     1     131.066 129.468 121.589  1.00  0.00     0.191 C 
BRANCH  29  30
ATOM     30  O   UNL     1     130.709 130.391 122.583  1.00  0.00    -0.394 OA
ATOM     31  H   UNL     1     130.325 129.873 123.335  1.00  0.00     0.210 HD
ENDBRANCH  29  30
ENDBRANCH  21  29
ENDBRANCH   1  17
TORSDOF 13
ENDMDL
MODEL 9
REMARK VINA RESULT:    -4.280      1.780      5.150
REMARK INTER + INTRA:          -8.221
REMARK INTER:                  -6.399
REMARK INTRA:                  -1.821
REMARK UNBOUND:                -1.688
REMARK SMILES OC[C@@H]1O[C@](CO)(O[C@@H]2O[C@H](CO)[C@H](O)[C@H](O)[C@H]2O)[C@@H](O)[C@H]1O
REMARK SMILES IDX 8 1 9 2 11 3 14 4 10 5 16 6 18 7 12 8 13 9 15 11 17 13 19 15
REMARK SMILES IDX 5 17 20 18 4 19 22 20 3 21 6 22 7 23 21 25 23 27 2 29 1 30
REMARK H PARENT 13 10 15 12 17 14 19 16 7 24 21 26 23 28 1 31
REMARK Flexibility Score: inf
ROOT
ATOM      1  O   UNL     1     134.364 128.164 123.943  1.00  0.00    -0.313 OA
ENDROOT
BRANCH   1   2
ATOM      2  C   UNL     1     134.950 127.587 125.102  1.00  0.00     0.285 C 
ATOM      3  C   UNL     1     132.879 127.333 126.276  1.00  0.00     0.178 C 
ATOM      4  C   UNL     1     133.229 128.495 127.244  1.00  0.00     0.177 C 
ATOM      5  O   UNL     1     134.036 126.697 125.735  1.00  0.00    -0.341 OA
ATOM      6  C   UNL     1     134.249 129.477 126.640  1.00  0.00     0.179 C 
ATOM      7  C   UNL     1     135.435 128.698 126.055  1.00  0.00     0.202 C 
BRANCH   3   8
ATOM      8  C   UNL     1     131.834 127.672 125.186  1.00  0.00     0.191 C 
BRANCH   8   9
ATOM      9  O   UNL     1     131.768 126.642 124.233  1.00  0.00    -0.394 OA
ATOM     10  H   UNL     1     130.853 126.270 124.297  1.00  0.00     0.210 HD
ENDBRANCH   8   9
ENDBRANCH   3   8
BRANCH   4  11
ATOM     11  O   UNL     1     132.066 129.170 127.652  1.00  0.00    -0.387 OA
ATOM     12  H   UNL     1     132.329 130.108 127.842  1.00  0.00     0.211 HD
ENDBRANCH   4  11
BRANCH   6  13
ATOM     13  O   UNL     1     133.663 130.271 125.642  1.00  0.00    -0.387 OA
ATOM     14  H   UNL     1     133.178 129.658 125.028  1.00  0.00     0.211 HD
ENDBRANCH   6  13
BRANCH   7  15
ATOM     15  O   UNL     1     136.185 128.115 127.092  1.00  0.00    -0.385 OA
ATOM     16  H   UNL     1     135.658 128.215 127.926  1.00  0.00     0.211 HD
ENDBRANCH   7  15
ENDBRANCH   1   2
BRANCH   1  17
ATOM     17  C   UNL     1     134.693 127.538 122.703  1.00  0.00     0.224 C 
ATOM     18  C   UNL     1     135.646 128.428 121.876  1.00  0.00     0.208 C 
ATOM     19  O   UNL     1     133.485 127.454 121.974  1.00  0.00    -0.337 OA
ATOM     20  C   UNL     1     134.669 129.421 121.295  1.00  0.00     0.180 C 
ATOM     21  C   UNL     1     133.400 128.578 121.122  1.00  0.00     0.179 C 
BRANCH  17  22
ATOM     22  C   UNL     1     135.220 126.089 122.910  1.00  0.00     0.225 C 
BRANCH  22  23
ATOM     23  O   UNL     1     134.150 125.192 123.016  1.00  0.00    -0.391 OA
ATOM     24  H   UNL     1     134.485 124.308 122.703  1.00  0.00     0.210 HD
ENDBRANCH  22  23
ENDBRANCH  17  22
BRANCH  18  25
ATOM     25  O   UNL     1     136.273 127.680 120.859  1.00  0.00    -0.385 OA
ATOM     26  H   UNL     1     136.103 126.721 121.067  1.00  0.00     0.211 HD
ENDBRANCH  18  25
BRANCH  20  27
ATOM     27  O   UNL     1     135.119 130.021 120.102  1.00  0.00    -0.387 OA
ATOM     28  H   UNL     1     135.942 129.555 119.800  1.00  0.00     0.211 HD
ENDBRANCH  20  27
BRANCH  21  29
ATOM     29  C   UNL     1     132.125 129.377 121.438  1.00  0.00     0.191 C 
BRANCH  29  30
ATOM     30  O   UNL     1     132.244 130.019 122.680  1.00  0.00    -0.394 OA
ATOM     31  H   UNL     1     131.614 130.783 122.672  1.00  0.00     0.210 HD
ENDBRANCH  29  30
ENDBRANCH  21  29
ENDBRANCH   1  17
TORSDOF 13
ENDMDL
