MODEL 1
REMARK VINA RESULT:    -2.573      0.000      0.000
REMARK INTER + INTRA:          -2.573
REMARK INTER:                  -2.573
REMARK INTRA:                   0.000
REMARK UNBOUND:                 0.000
REMARK SMILES CC(=O)[O-]
REMARK SMILES IDX 1 1 2 2 3 3 4 4
REMARK H PARENT
REMARK Flexibility Score: inf
ROOT
ATOM      1  C   UNL     1      11.485 -14.303  -3.850  1.00  0.00     0.063 C 
ATOM      2  C   UNL     1      11.607 -14.032  -2.389  1.00  0.00     0.038 C 
ATOM      3  O   UNL     1      12.642 -13.480  -1.932  1.00  0.00    -0.550 OA
ATOM      4  O   UNL     1      10.555 -14.339  -1.534  1.00  0.00    -0.550 OA
ENDROOT
TORSDOF 0
ENDMDL
MODEL 2
REMARK VINA RESULT:    -2.557      0.194      1.629
REMARK INTER + INTRA:          -2.557
REMARK INTER:                  -2.557
REMARK INTRA:                   0.000
REMARK UNBOUND:                 0.000
REMARK SMILES CC(=O)[O-]
REMARK SMILES IDX 1 1 2 2 3 3 4 4
REMARK H PARENT
REMARK Flexibility Score: inf
ROOT
ATOM      1  C   UNL     1      11.615 -14.594  -3.798  1.00  0.00     0.063 C 
ATOM      2  C   UNL     1      11.631 -14.112  -2.387  1.00  0.00     0.038 C 
ATOM      3  O   UNL     1      10.680 -14.394  -1.612  1.00  0.00    -0.550 OA
ATOM      4  O   UNL     1      12.721 -13.395  -1.909  1.00  0.00    -0.550 OA
ENDROOT
TORSDOF 0
ENDMDL
MODEL 3
REMARK VINA RESULT:    -2.218     22.047     22.627
REMARK INTER + INTRA:          -2.218
REMARK INTER:                  -2.218
REMARK INTRA:                   0.000
REMARK UNBOUND:                 0.000
REMARK SMILES CC(=O)[O-]
REMARK SMILES IDX 1 1 2 2 3 3 4 4
REMARK H PARENT
REMARK Flexibility Score: inf
ROOT
ATOM      1  C   UNL     1      -3.139 -11.147  14.618  1.00  0.00     0.063 C 
ATOM      2  C   UNL     1      -2.952  -9.708  14.275  1.00  0.00     0.038 C 
ATOM      3  O   UNL     1      -2.089  -9.369  13.423  1.00  0.00    -0.550 OA
ATOM      4  O   UNL     1      -3.766  -8.743  14.854  1.00  0.00    -0.550 OA
ENDROOT
TORSDOF 0
ENDMDL
MODEL 4
REMARK VINA RESULT:    -1.882     16.232     16.674
REMARK INTER + INTRA:          -1.882
REMARK INTER:                  -1.882
REMARK INTRA:                   0.000
REMARK UNBOUND:                 0.000
REMARK SMILES CC(=O)[O-]
REMARK SMILES IDX 1 1 2 2 3 3 4 4
REMARK H PARENT
REMARK Flexibility Score: inf
ROOT
ATOM      1  C   UNL     1      -3.830  -6.450  -1.012  1.00  0.00     0.063 C 
ATOM      2  C   UNL     1      -3.039  -6.589   0.244  1.00  0.00     0.038 C 
ATOM      3  O   UNL     1      -3.422  -6.018   1.299  1.00  0.00    -0.550 OA
ATOM      4  O   UNL     1      -1.907  -7.394   0.268  1.00  0.00    -0.550 OA
ENDROOT
TORSDOF 0
ENDMDL
MODEL 5
REMARK VINA RESULT:    -1.853     15.642     15.925
REMARK INTER + INTRA:          -1.853
REMARK INTER:                  -1.853
REMARK INTRA:                   0.000
REMARK UNBOUND:                 0.000
REMARK SMILES CC(=O)[O-]
REMARK SMILES IDX 1 1 2 2 3 3 4 4
REMARK H PARENT
REMARK Flexibility Score: inf
ROOT
ATOM      1  C   UNL     1      -0.133  -2.569  -2.679  1.00  0.00     0.063 C 
ATOM      2  C   UNL     1      -0.613  -3.949  -2.975  1.00  0.00     0.038 C 
ATOM      3  O   UNL     1      -0.082  -4.618  -3.900  1.00  0.00    -0.550 OA
ATOM      4  O   UNL     1      -1.609  -4.522  -2.194  1.00  0.00    -0.550 OA
ENDROOT
TORSDOF 0
ENDMDL
MODEL 6
REMARK VINA RESULT:    -1.821      9.934     10.245
REMARK INTER + INTRA:          -1.821
REMARK INTER:                  -1.821
REMARK INTRA:                   0.000
REMARK UNBOUND:                 0.000
REMARK SMILES CC(=O)[O-]
REMARK SMILES IDX 1 1 2 2 3 3 4 4
REMARK H PARENT
REMARK Flexibility Score: inf
ROOT
ATOM      1  C   UNL     1       3.029 -18.038   2.803  1.00  0.00     0.063 C 
ATOM      2  C   UNL     1       4.024 -18.902   2.104  1.00  0.00     0.038 C 
ATOM      3  O   UNL     1       5.115 -19.187   2.662  1.00  0.00    -0.550 OA
ATOM      4  O   UNL     1       3.725 -19.440   0.858  1.00  0.00    -0.550 OA
ENDROOT
TORSDOF 0
ENDMDL
MODEL 7
REMARK VINA RESULT:    -1.722     11.083     11.756
REMARK INTER + INTRA:          -1.722
REMARK INTER:                  -1.722
REMARK INTRA:                   0.000
REMARK UNBOUND:                 0.000
REMARK SMILES CC(=O)[O-]
REMARK SMILES IDX 1 1 2 2 3 3 4 4
REMARK H PARENT
REMARK Flexibility Score: inf
ROOT
ATOM      1  C   UNL     1       2.682 -18.632   4.675  1.00  0.00     0.063 C 
ATOM      2  C   UNL     1       2.390 -18.236   3.267  1.00  0.00     0.038 C 
ATOM      3  O   UNL     1       3.197 -17.506   2.635  1.00  0.00    -0.550 OA
ATOM      4  O   UNL     1       1.252 -18.718   2.631  1.00  0.00    -0.550 OA
ENDROOT
TORSDOF 0
ENDMDL
MODEL 8
REMARK VINA RESULT:    -1.721     21.029     21.248
REMARK INTER + INTRA:          -1.721
REMARK INTER:                  -1.721
REMARK INTRA:                   0.000
REMARK UNBOUND:                 0.000
REMARK SMILES CC(=O)[O-]
REMARK SMILES IDX 1 1 2 2 3 3 4 4
REMARK H PARENT
REMARK Flexibility Score: inf
ROOT
ATOM      1  C   UNL     1      -5.740  -7.707   7.776  1.00  0.00     0.063 C 
ATOM      2  C   UNL     1      -5.339  -6.275   7.670  1.00  0.00     0.038 C 
ATOM      3  O   UNL     1      -5.961  -5.500   6.897  1.00  0.00    -0.550 OA
ATOM      4  O   UNL     1      -4.313  -5.779   8.465  1.00  0.00    -0.550 OA
ENDROOT
TORSDOF 0
ENDMDL
MODEL 9
REMARK VINA RESULT:    -1.683     10.994     11.446
REMARK INTER + INTRA:          -1.683
REMARK INTER:                  -1.683
REMARK INTRA:                   0.000
REMARK UNBOUND:                 0.000
REMARK SMILES CC(=O)[O-]
REMARK SMILES IDX 1 1 2 2 3 3 4 4
REMARK H PARENT
REMARK Flexibility Score: inf
ROOT
ATOM      1  C   UNL     1       3.806 -18.344   2.214  1.00  0.00     0.063 C 
ATOM      2  C   UNL     1       2.590 -18.316   3.076  1.00  0.00     0.038 C 
ATOM      3  O   UNL     1       1.464 -18.600   2.590  1.00  0.00    -0.550 OA
ATOM      4  O   UNL     1       2.704 -18.030   4.431  1.00  0.00    -0.550 OA
ENDROOT
TORSDOF 0
ENDMDL
