MODEL 1
REMARK VINA RESULT:    -0.822      0.000      0.000
REMARK INTER + INTRA:          -1.198
REMARK INTER:                  -0.894
REMARK INTRA:                  -0.304
REMARK UNBOUND:                -0.304
REMARK SMILES CC(=O)c1cc(C)ccc1O
REMARK SMILES IDX 7 1 6 2 5 3 4 4 10 5 9 6 8 7 2 8 3 9 1 10 11 11
REMARK H PARENT 11 12
REMARK Flexibility Score: inf
ROOT
ATOM      1  C   UNL     1      29.522  24.030  29.188  1.00  0.00     0.044 C 
ATOM      2  C   UNL     1      30.634  23.232  28.575  1.00  0.00    -0.050 A 
ATOM      3  C   UNL     1      31.954  23.703  28.627  1.00  0.00     0.019 A 
ATOM      4  C   UNL     1      33.014  22.944  28.097  1.00  0.00     0.059 A 
ATOM      5  C   UNL     1      32.728  21.695  27.492  1.00  0.00     0.126 A 
ATOM      6  C   UNL     1      31.414  21.216  27.477  1.00  0.00     0.047 A 
ATOM      7  C   UNL     1      30.374  21.973  28.018  1.00  0.00     0.007 A 
ENDROOT
BRANCH   4   8
ATOM      8  C   UNL     1      34.400  23.455  28.224  1.00  0.00     0.163 C 
ATOM      9  O   UNL     1      35.217  23.299  27.278  1.00  0.00    -0.294 OA
ATOM     10  C   UNL     1      34.883  24.073  29.500  1.00  0.00     0.093 C 
ENDBRANCH   4   8
BRANCH   5  11
ATOM     11  O   UNL     1      33.712  20.918  26.876  1.00  0.00    -0.507 OA
ATOM     12  H   UNL     1      34.697  20.995  27.092  1.00  0.00     0.293 HD
ENDBRANCH   5  11
TORSDOF 2
ENDMDL
MODEL 2
REMARK VINA RESULT:    -0.564      1.796      2.361
REMARK INTER + INTRA:          -0.918
REMARK INTER:                  -0.710
REMARK INTRA:                  -0.208
REMARK UNBOUND:                -0.304
REMARK SMILES CC(=O)c1cc(C)ccc1O
REMARK SMILES IDX 7 1 6 2 5 3 4 4 10 5 9 6 8 7 2 8 3 9 1 10 11 11
REMARK H PARENT 11 12
REMARK Flexibility Score: inf
ROOT
ATOM      1  C   UNL     1      30.418  24.123  32.359  1.00  0.00     0.044 C 
ATOM      2  C   UNL     1      30.847  24.072  30.923  1.00  0.00    -0.050 A 
ATOM      3  C   UNL     1      32.208  24.125  30.590  1.00  0.00     0.019 A 
ATOM      4  C   UNL     1      32.629  24.032  29.250  1.00  0.00     0.059 A 
ATOM      5  C   UNL     1      31.652  23.898  28.232  1.00  0.00     0.126 A 
ATOM      6  C   UNL     1      30.299  23.811  28.576  1.00  0.00     0.047 A 
ATOM      7  C   UNL     1      29.897  23.891  29.910  1.00  0.00     0.007 A 
ENDROOT
BRANCH   4   8
ATOM      8  C   UNL     1      34.080  24.035  28.949  1.00  0.00     0.163 C 
ATOM      9  O   UNL     1      34.476  23.885  27.762  1.00  0.00    -0.294 OA
ATOM     10  C   UNL     1      35.098  24.117  30.044  1.00  0.00     0.093 C 
ENDBRANCH   4   8
BRANCH   5  11
ATOM     11  O   UNL     1      31.983  23.877  26.875  1.00  0.00    -0.507 OA
ATOM     12  H   UNL     1      31.348  24.166  26.144  1.00  0.00     0.293 HD
ENDBRANCH   5  11
TORSDOF 2
ENDMDL
MODEL 3
REMARK VINA RESULT:    -0.258      2.000      3.546
REMARK INTER + INTRA:          -0.585
REMARK INTER:                  -0.658
REMARK INTRA:                   0.074
REMARK UNBOUND:                -0.304
REMARK SMILES CC(=O)c1cc(C)ccc1O
REMARK SMILES IDX 7 1 6 2 5 3 4 4 10 5 9 6 8 7 2 8 3 9 1 10 11 11
REMARK H PARENT 11 12
REMARK Flexibility Score: inf
ROOT
ATOM      1  C   UNL     1      30.311  24.034  31.812  1.00  0.00     0.044 C 
ATOM      2  C   UNL     1      31.115  23.648  30.607  1.00  0.00    -0.050 A 
ATOM      3  C   UNL     1      30.537  22.874  29.591  1.00  0.00     0.019 A 
ATOM      4  C   UNL     1      31.264  22.542  28.432  1.00  0.00     0.059 A 
ATOM      5  C   UNL     1      32.602  22.991  28.310  1.00  0.00     0.126 A 
ATOM      6  C   UNL     1      33.159  23.792  29.312  1.00  0.00     0.047 A 
ATOM      7  C   UNL     1      32.423  24.125  30.449  1.00  0.00     0.007 A 
ENDROOT
BRANCH   4   8
ATOM      8  C   UNL     1      30.595  21.770  27.358  1.00  0.00     0.163 C 
ATOM      9  O   UNL     1      29.493  22.165  26.892  1.00  0.00    -0.294 OA
ATOM     10  C   UNL     1      31.158  20.469  26.875  1.00  0.00     0.093 C 
ENDBRANCH   4   8
BRANCH   5  11
ATOM     11  O   UNL     1      33.414  22.640  27.229  1.00  0.00    -0.507 OA
ATOM     12  H   UNL     1      33.174  22.836  26.266  1.00  0.00     0.293 HD
ENDBRANCH   5  11
TORSDOF 2
ENDMDL
MODEL 4
REMARK VINA RESULT:     2.090      1.790      2.521
REMARK INTER + INTRA:           1.969
REMARK INTER:                   2.198
REMARK INTRA:                  -0.229
REMARK UNBOUND:                -0.304
REMARK SMILES CC(=O)c1cc(C)ccc1O
REMARK SMILES IDX 7 1 6 2 5 3 4 4 10 5 9 6 8 7 2 8 3 9 1 10 11 11
REMARK H PARENT 11 12
REMARK Flexibility Score: inf
ROOT
ATOM      1  C   UNL     1      31.091  22.724  29.836  1.00  0.00     0.044 C 
ATOM      2  C   UNL     1      32.326  23.103  29.075  1.00  0.00    -0.050 A 
ATOM      3  C   UNL     1      33.511  23.411  29.760  1.00  0.00     0.019 A 
ATOM      4  C   UNL     1      34.690  23.724  29.059  1.00  0.00     0.059 A 
ATOM      5  C   UNL     1      34.663  23.740  27.642  1.00  0.00     0.126 A 
ATOM      6  C   UNL     1      33.487  23.397  26.967  1.00  0.00     0.047 A 
ATOM      7  C   UNL     1      32.328  23.076  27.675  1.00  0.00     0.007 A 
ENDROOT
BRANCH   4   8
ATOM      8  C   UNL     1      35.934  23.987  29.821  1.00  0.00     0.163 C 
ATOM      9  O   UNL     1      37.040  24.043  29.221  1.00  0.00    -0.294 OA
ATOM     10  C   UNL     1      35.917  24.094  31.315  1.00  0.00     0.093 C 
ENDBRANCH   4   8
BRANCH   5  11
ATOM     11  O   UNL     1      35.769  24.115  26.876  1.00  0.00    -0.507 OA
ATOM     12  H   UNL     1      36.636  23.595  26.859  1.00  0.00     0.293 HD
ENDBRANCH   5  11
TORSDOF 2
ENDMDL
