MODEL 1
REMARK VINA RESULT:    -3.891      0.000      0.000
REMARK INTER + INTRA:          -4.796
REMARK INTER:                  -4.574
REMARK INTRA:                  -0.222
REMARK UNBOUND:                -0.222
REMARK SMILES [NH3+][C@H](CO)C(=O)[O-]
REMARK SMILES IDX 3 1 2 2 1 3 5 7 6 8 7 9 4 10
REMARK H PARENT 1 4 1 5 1 6 4 11
REMARK Flexibility Score: inf
ROOT
ATOM      1  C   UNL     1     -22.989   6.709 -14.723  1.00  0.00     0.227 C 
ENDROOT
BRANCH   1   2
ATOM      2  C   UNL     1     -24.183   6.196 -13.898  1.00  0.00     0.253 C 
BRANCH   2   3
ATOM      3  N   UNL     1     -25.045   7.310 -13.486  1.00  0.00    -0.348 N 
ATOM      4  H   UNL     1     -24.575   8.220 -13.700  1.00  0.00     0.345 HD
ATOM      5  H   UNL     1     -25.250   7.261 -12.460  1.00  0.00     0.345 HD
ATOM      6  H   UNL     1     -25.946   7.274 -14.015  1.00  0.00     0.345 HD
ENDBRANCH   2   3
BRANCH   2   7
ATOM      7  C   UNL     1     -24.973   5.180 -14.679  1.00  0.00     0.102 C 
ATOM      8  O   UNL     1     -24.474   4.057 -14.957  1.00  0.00    -0.544 OA
ATOM      9  O   UNL     1     -26.268   5.473 -15.088  1.00  0.00    -0.544 OA
ENDBRANCH   2   7
ENDBRANCH   1   2
BRANCH   1  10
ATOM     10  O   UNL     1     -22.127   5.656 -15.061  1.00  0.00    -0.390 OA
ATOM     11  H   UNL     1     -21.749   5.314 -14.210  1.00  0.00     0.210 HD
ENDBRANCH   1  10
TORSDOF 4
ENDMDL
MODEL 2
REMARK VINA RESULT:    -3.871      2.122      3.418
REMARK INTER + INTRA:          -4.773
REMARK INTER:                  -4.550
REMARK INTRA:                  -0.223
REMARK UNBOUND:                -0.222
REMARK SMILES [NH3+][C@H](CO)C(=O)[O-]
REMARK SMILES IDX 3 1 2 2 1 3 5 7 6 8 7 9 4 10
REMARK H PARENT 1 4 1 5 1 6 4 11
REMARK Flexibility Score: inf
ROOT
ATOM      1  C   UNL     1     -25.932   4.977 -15.447  1.00  0.00     0.227 C 
ENDROOT
BRANCH   1   2
ATOM      2  C   UNL     1     -24.534   4.567 -14.949  1.00  0.00     0.253 C 
BRANCH   2   3
ATOM      3  N   UNL     1     -23.846   3.747 -15.953  1.00  0.00    -0.348 N 
ATOM      4  H   UNL     1     -22.852   3.594 -15.666  1.00  0.00     0.345 HD
ATOM      5  H   UNL     1     -23.865   4.214 -16.890  1.00  0.00     0.345 HD
ATOM      6  H   UNL     1     -24.313   2.815 -16.028  1.00  0.00     0.345 HD
ENDBRANCH   2   3
BRANCH   2   7
ATOM      7  C   UNL     1     -23.712   5.781 -14.609  1.00  0.00     0.102 C 
ATOM      8  O   UNL     1     -24.093   6.582 -13.713  1.00  0.00    -0.544 OA
ATOM      9  O   UNL     1     -22.516   6.019 -15.274  1.00  0.00    -0.544 OA
ENDBRANCH   2   7
ENDBRANCH   1   2
BRANCH   1  10
ATOM     10  O   UNL     1     -26.672   5.576 -14.418  1.00  0.00    -0.390 OA
ATOM     11  H   UNL     1     -26.282   5.254 -13.564  1.00  0.00     0.210 HD
ENDBRANCH   1  10
TORSDOF 4
ENDMDL
MODEL 3
REMARK VINA RESULT:    -3.834      2.720      3.461
REMARK INTER + INTRA:          -4.729
REMARK INTER:                  -4.722
REMARK INTRA:                  -0.008
REMARK UNBOUND:                -0.222
REMARK SMILES [NH3+][C@H](CO)C(=O)[O-]
REMARK SMILES IDX 3 1 2 2 1 3 5 7 6 8 7 9 4 10
REMARK H PARENT 1 4 1 5 1 6 4 11
REMARK Flexibility Score: inf
ROOT
ATOM      1  C   UNL     1     -23.683   4.220 -17.214  1.00  0.00     0.227 C 
ENDROOT
BRANCH   1   2
ATOM      2  C   UNL     1     -24.161   4.134 -15.753  1.00  0.00     0.253 C 
BRANCH   2   3
ATOM      3  N   UNL     1     -23.688   2.894 -15.126  1.00  0.00    -0.348 N 
ATOM      4  H   UNL     1     -23.077   3.121 -14.307  1.00  0.00     0.345 HD
ATOM      5  H   UNL     1     -23.146   2.315 -15.809  1.00  0.00     0.345 HD
ATOM      6  H   UNL     1     -24.504   2.339 -14.780  1.00  0.00     0.345 HD
ENDBRANCH   2   3
BRANCH   2   7
ATOM      7  C   UNL     1     -23.696   5.331 -14.968  1.00  0.00     0.102 C 
ATOM      8  O   UNL     1     -24.370   5.759 -13.993  1.00  0.00    -0.544 OA
ATOM      9  O   UNL     1     -22.507   5.965 -15.309  1.00  0.00    -0.544 OA
ENDBRANCH   2   7
ENDBRANCH   1   2
BRANCH   1  10
ATOM     10  O   UNL     1     -24.689   3.796 -18.093  1.00  0.00    -0.390 OA
ATOM     11  H   UNL     1     -25.210   4.604 -18.340  1.00  0.00     0.210 HD
ENDBRANCH   1  10
TORSDOF 4
ENDMDL
MODEL 4
REMARK VINA RESULT:    -3.732      2.204      2.276
REMARK INTER + INTRA:          -4.609
REMARK INTER:                  -4.276
REMARK INTRA:                  -0.333
REMARK UNBOUND:                -0.222
REMARK SMILES [NH3+][C@H](CO)C(=O)[O-]
REMARK SMILES IDX 3 1 2 2 1 3 5 7 6 8 7 9 4 10
REMARK H PARENT 1 4 1 5 1 6 4 11
REMARK Flexibility Score: inf
ROOT
ATOM      1  C   UNL     1     -22.902   6.263 -14.784  1.00  0.00     0.227 C 
ENDROOT
BRANCH   1   2
ATOM      2  C   UNL     1     -24.348   5.749 -14.659  1.00  0.00     0.253 C 
BRANCH   2   3
ATOM      3  N   UNL     1     -24.362   4.331 -14.280  1.00  0.00    -0.348 N 
ATOM      4  H   UNL     1     -24.355   3.734 -15.140  1.00  0.00     0.345 HD
ATOM      5  H   UNL     1     -25.212   4.107 -13.713  1.00  0.00     0.345 HD
ATOM      6  H   UNL     1     -23.509   4.107 -13.719  1.00  0.00     0.345 HD
ENDBRANCH   2   3
BRANCH   2   7
ATOM      7  C   UNL     1     -25.121   6.568 -13.660  1.00  0.00     0.102 C 
ATOM      8  O   UNL     1     -25.051   6.310 -12.429  1.00  0.00    -0.544 OA
ATOM      9  O   UNL     1     -25.909   7.628 -14.093  1.00  0.00    -0.544 OA
ENDBRANCH   2   7
ENDBRANCH   1   2
BRANCH   1  10
ATOM     10  O   UNL     1     -22.822   7.616 -14.424  1.00  0.00    -0.390 OA
ATOM     11  H   UNL     1     -23.420   7.738 -13.642  1.00  0.00     0.210 HD
ENDBRANCH   1  10
TORSDOF 4
ENDMDL
MODEL 5
REMARK VINA RESULT:    -3.726      1.752      2.284
REMARK INTER + INTRA:          -4.602
REMARK INTER:                  -4.387
REMARK INTRA:                  -0.216
REMARK UNBOUND:                -0.222
REMARK SMILES [NH3+][C@H](CO)C(=O)[O-]
REMARK SMILES IDX 3 1 2 2 1 3 5 7 6 8 7 9 4 10
REMARK H PARENT 1 4 1 5 1 6 4 11
REMARK Flexibility Score: inf
ROOT
ATOM      1  C   UNL     1     -23.922   4.562 -15.502  1.00  0.00     0.227 C 
ENDROOT
BRANCH   1   2
ATOM      2  C   UNL     1     -24.343   5.403 -14.283  1.00  0.00     0.253 C 
BRANCH   2   3
ATOM      3  N   UNL     1     -23.323   6.411 -13.972  1.00  0.00    -0.348 N 
ATOM      4  H   UNL     1     -22.761   6.103 -13.145  1.00  0.00     0.345 HD
ATOM      5  H   UNL     1     -23.766   7.336 -13.762  1.00  0.00     0.345 HD
ATOM      6  H   UNL     1     -22.675   6.521 -14.785  1.00  0.00     0.345 HD
ENDBRANCH   2   3
BRANCH   2   7
ATOM      7  C   UNL     1     -25.676   6.060 -14.523  1.00  0.00     0.102 C 
ATOM      8  O   UNL     1     -25.899   7.228 -14.105  1.00  0.00    -0.544 OA
ATOM      9  O   UNL     1     -26.667   5.384 -15.223  1.00  0.00    -0.544 OA
ENDBRANCH   2   7
ENDBRANCH   1   2
BRANCH   1  10
ATOM     10  O   UNL     1     -24.477   3.277 -15.436  1.00  0.00    -0.390 OA
ATOM     11  H   UNL     1     -23.863   2.676 -15.934  1.00  0.00     0.210 HD
ENDBRANCH   1  10
TORSDOF 4
ENDMDL
MODEL 6
REMARK VINA RESULT:    -3.685      1.585      2.535
REMARK INTER + INTRA:          -4.554
REMARK INTER:                  -4.332
REMARK INTRA:                  -0.222
REMARK UNBOUND:                -0.222
REMARK SMILES [NH3+][C@H](CO)C(=O)[O-]
REMARK SMILES IDX 3 1 2 2 1 3 5 7 6 8 7 9 4 10
REMARK H PARENT 1 4 1 5 1 6 4 11
REMARK Flexibility Score: inf
ROOT
ATOM      1  C   UNL     1     -24.961   7.823 -14.222  1.00  0.00     0.227 C 
ENDROOT
BRANCH   1   2
ATOM      2  C   UNL     1     -24.885   6.389 -13.668  1.00  0.00     0.253 C 
BRANCH   2   3
ATOM      3  N   UNL     1     -25.541   6.305 -12.358  1.00  0.00    -0.348 N 
ATOM      4  H   UNL     1     -25.292   5.401 -11.893  1.00  0.00     0.345 HD
ATOM      5  H   UNL     1     -26.581   6.365 -12.458  1.00  0.00     0.345 HD
ATOM      6  H   UNL     1     -25.212   7.088 -11.747  1.00  0.00     0.345 HD
ENDBRANCH   2   3
BRANCH   2   7
ATOM      7  C   UNL     1     -25.506   5.412 -14.630  1.00  0.00     0.102 C 
ATOM      8  O   UNL     1     -26.665   5.608 -15.083  1.00  0.00    -0.544 OA
ATOM      9  O   UNL     1     -24.794   4.290 -15.037  1.00  0.00    -0.544 OA
ENDBRANCH   2   7
ENDBRANCH   1   2
BRANCH   1  10
ATOM     10  O   UNL     1     -26.228   8.379 -13.995  1.00  0.00    -0.390 OA
ATOM     11  H   UNL     1     -26.853   7.927 -14.620  1.00  0.00     0.210 HD
ENDBRANCH   1  10
TORSDOF 4
ENDMDL
MODEL 7
REMARK VINA RESULT:    -3.684      1.780      2.632
REMARK INTER + INTRA:          -4.552
REMARK INTER:                  -4.195
REMARK INTRA:                  -0.357
REMARK UNBOUND:                -0.222
REMARK SMILES [NH3+][C@H](CO)C(=O)[O-]
REMARK SMILES IDX 3 1 2 2 1 3 5 7 6 8 7 9 4 10
REMARK H PARENT 1 4 1 5 1 6 4 11
REMARK Flexibility Score: inf
ROOT
ATOM      1  C   UNL     1     -24.795   4.169 -15.424  1.00  0.00     0.227 C 
ENDROOT
BRANCH   1   2
ATOM      2  C   UNL     1     -25.301   5.563 -15.010  1.00  0.00     0.253 C 
BRANCH   2   3
ATOM      3  N   UNL     1     -26.677   5.485 -14.505  1.00  0.00    -0.348 N 
ATOM      4  H   UNL     1     -27.126   4.599 -14.836  1.00  0.00     0.345 HD
ATOM      5  H   UNL     1     -27.241   6.301 -14.837  1.00  0.00     0.345 HD
ATOM      6  H   UNL     1     -26.670   5.478 -13.459  1.00  0.00     0.345 HD
ENDBRANCH   2   3
BRANCH   2   7
ATOM      7  C   UNL     1     -24.395   6.173 -13.975  1.00  0.00     0.102 C 
ATOM      8  O   UNL     1     -24.722   6.174 -12.758  1.00  0.00    -0.544 OA
ATOM      9  O   UNL     1     -23.180   6.729 -14.357  1.00  0.00    -0.544 OA
ENDBRANCH   2   7
ENDBRANCH   1   2
BRANCH   1  10
ATOM     10  O   UNL     1     -23.602   3.854 -14.758  1.00  0.00    -0.390 OA
ATOM     11  H   UNL     1     -23.527   4.485 -13.995  1.00  0.00     0.210 HD
ENDBRANCH   1  10
TORSDOF 4
ENDMDL
MODEL 8
REMARK VINA RESULT:    -3.621      1.340      3.102
REMARK INTER + INTRA:          -4.478
REMARK INTER:                  -4.471
REMARK INTRA:                  -0.007
REMARK UNBOUND:                -0.222
REMARK SMILES [NH3+][C@H](CO)C(=O)[O-]
REMARK SMILES IDX 3 1 2 2 1 3 5 7 6 8 7 9 4 10
REMARK H PARENT 1 4 1 5 1 6 4 11
REMARK Flexibility Score: inf
ROOT
ATOM      1  C   UNL     1     -26.533   5.311 -15.138  1.00  0.00     0.227 C 
ENDROOT
BRANCH   1   2
ATOM      2  C   UNL     1     -25.523   6.172 -14.356  1.00  0.00     0.253 C 
BRANCH   2   3
ATOM      3  N   UNL     1     -25.780   6.089 -12.913  1.00  0.00    -0.348 N 
ATOM      4  H   UNL     1     -24.888   6.233 -12.385  1.00  0.00     0.345 HD
ATOM      5  H   UNL     1     -26.182   5.156 -12.661  1.00  0.00     0.345 HD
ATOM      6  H   UNL     1     -26.452   6.838 -12.630  1.00  0.00     0.345 HD
ENDBRANCH   2   3
BRANCH   2   7
ATOM      7  C   UNL     1     -24.112   5.750 -14.665  1.00  0.00     0.102 C 
ATOM      8  O   UNL     1     -23.145   6.519 -14.419  1.00  0.00    -0.544 OA
ATOM      9  O   UNL     1     -23.866   4.496 -15.212  1.00  0.00    -0.544 OA
ENDBRANCH   2   7
ENDBRANCH   1   2
BRANCH   1  10
ATOM     10  O   UNL     1     -27.814   5.879 -15.089  1.00  0.00    -0.390 OA
ATOM     11  H   UNL     1     -27.838   6.456 -14.282  1.00  0.00     0.210 HD
ENDBRANCH   1  10
TORSDOF 4
ENDMDL
MODEL 9
REMARK VINA RESULT:    -3.531      2.004      2.555
REMARK INTER + INTRA:          -4.373
REMARK INTER:                  -4.153
REMARK INTRA:                  -0.220
REMARK UNBOUND:                -0.222
REMARK SMILES [NH3+][C@H](CO)C(=O)[O-]
REMARK SMILES IDX 3 1 2 2 1 3 5 7 6 8 7 9 4 10
REMARK H PARENT 1 4 1 5 1 6 4 11
REMARK Flexibility Score: inf
ROOT
ATOM      1  C   UNL     1     -25.082   8.201 -14.309  1.00  0.00     0.227 C 
ENDROOT
BRANCH   1   2
ATOM      2  C   UNL     1     -24.817   6.788 -13.758  1.00  0.00     0.253 C 
BRANCH   2   3
ATOM      3  N   UNL     1     -26.047   5.988 -13.771  1.00  0.00    -0.348 N 
ATOM      4  H   UNL     1     -26.365   5.809 -12.791  1.00  0.00     0.345 HD
ATOM      5  H   UNL     1     -25.889   5.072 -14.254  1.00  0.00     0.345 HD
ATOM      6  H   UNL     1     -26.803   6.510 -14.271  1.00  0.00     0.345 HD
ENDBRANCH   2   3
BRANCH   2   7
ATOM      7  C   UNL     1     -23.734   6.103 -14.548  1.00  0.00     0.102 C 
ATOM      8  O   UNL     1     -23.888   4.919 -14.952  1.00  0.00    -0.544 OA
ATOM      9  O   UNL     1     -22.559   6.781 -14.848  1.00  0.00    -0.544 OA
ENDBRANCH   2   7
ENDBRANCH   1   2
BRANCH   1  10
ATOM     10  O   UNL     1     -24.018   9.062 -14.005  1.00  0.00    -0.390 OA
ATOM     11  H   UNL     1     -23.360   8.529 -13.488  1.00  0.00     0.210 HD
ENDBRANCH   1  10
TORSDOF 4
ENDMDL
