MODEL 1
REMARK VINA RESULT:    -0.221      0.000      0.000
REMARK INTER + INTRA:          -0.221
REMARK INTER:                  -0.221
REMARK INTRA:                   0.000
REMARK UNBOUND:                 0.000
REMARK SMILES C=C1CCC[C@@]2(C)CC(=O)C(=C(C)C)C[C@H]12
REMARK SMILES IDX 13 1 12 2 11 3 15 4 16 5 2 6 1 7 3 8 4 9 5 10 6 11 8 12 9 13
REMARK SMILES IDX 10 14 7 15 14 16
REMARK H PARENT
REMARK Flexibility Score: inf
ROOT
ATOM      1  C   UNL     1     136.657 136.472 135.658  1.00  0.00     0.039 C 
ATOM      2  C   UNL     1     136.519 135.655 136.923  1.00  0.00    -0.070 C 
ATOM      3  C   UNL     1     137.260 135.939 138.035  1.00  0.00    -0.006 C 
ATOM      4  C   UNL     1     138.240 137.105 138.052  1.00  0.00     0.047 C 
ATOM      5  C   UNL     1     138.405 137.729 139.460  1.00  0.00     0.025 C 
ATOM      6  C   UNL     1     139.409 138.880 139.547  1.00  0.00    -0.073 C 
ATOM      7  C   UNL     1     140.124 139.338 138.501  1.00  0.00     0.008 C 
ATOM      8  C   UNL     1     139.545 139.546 140.895  1.00  0.00     0.031 C 
ATOM      9  C   UNL     1     139.831 138.503 141.978  1.00  0.00     0.005 C 
ATOM     10  C   UNL     1     138.809 137.354 141.945  1.00  0.00     0.008 C 
ATOM     11  C   UNL     1     138.717 136.659 140.553  1.00  0.00    -0.018 C 
ATOM     12  C   UNL     1     137.550 135.643 140.597  1.00  0.00     0.088 C 
ATOM     13  C   UNL     1     137.250 135.065 139.244  1.00  0.00     0.159 C 
ATOM     14  O   UNL     1     137.007 133.831 139.156  1.00  0.00    -0.295 OA
ATOM     15  C   UNL     1     140.044 135.905 140.260  1.00  0.00     0.012 C 
ATOM     16  C   UNL     1     135.499 134.540 136.910  1.00  0.00     0.039 C 
ENDROOT
TORSDOF 0
ENDMDL
MODEL 2
REMARK VINA RESULT:    -0.220      3.218      3.534
REMARK INTER + INTRA:          -0.220
REMARK INTER:                  -0.220
REMARK INTRA:                   0.000
REMARK UNBOUND:                 0.000
REMARK SMILES C=C1CCC[C@@]2(C)CC(=O)C(=C(C)C)C[C@H]12
REMARK SMILES IDX 13 1 12 2 11 3 15 4 16 5 2 6 1 7 3 8 4 9 5 10 6 11 8 12 9 13
REMARK SMILES IDX 10 14 7 15 14 16
REMARK H PARENT
REMARK Flexibility Score: inf
ROOT
ATOM      1  C   UNL     1     134.246 139.312 136.964  1.00  0.00     0.039 C 
ATOM      2  C   UNL     1     134.064 139.260 138.464  1.00  0.00    -0.070 C 
ATOM      3  C   UNL     1     135.131 139.110 139.304  1.00  0.00    -0.006 C 
ATOM      4  C   UNL     1     136.551 139.012 138.762  1.00  0.00     0.047 C 
ATOM      5  C   UNL     1     137.607 139.580 139.743  1.00  0.00     0.025 C 
ATOM      6  C   UNL     1     139.058 139.471 139.270  1.00  0.00    -0.073 C 
ATOM      7  C   UNL     1     139.430 138.919 138.099  1.00  0.00     0.008 C 
ATOM      8  C   UNL     1     140.103 140.072 140.180  1.00  0.00     0.031 C 
ATOM      9  C   UNL     1     139.959 139.513 141.598  1.00  0.00     0.005 C 
ATOM     10  C   UNL     1     138.518 139.650 142.119  1.00  0.00     0.008 C 
ATOM     11  C   UNL     1     137.464 138.988 141.180  1.00  0.00    -0.018 C 
ATOM     12  C   UNL     1     136.054 139.333 141.718  1.00  0.00     0.088 C 
ATOM     13  C   UNL     1     134.967 138.911 140.773  1.00  0.00     0.159 C 
ATOM     14  O   UNL     1     133.930 138.375 141.248  1.00  0.00    -0.295 OA
ATOM     15  C   UNL     1     137.654 137.446 141.191  1.00  0.00     0.012 C 
ATOM     16  C   UNL     1     132.655 139.420 138.987  1.00  0.00     0.039 C 
ENDROOT
TORSDOF 0
ENDMDL
MODEL 3
REMARK VINA RESULT:    -0.198      2.060      3.464
REMARK INTER + INTRA:          -0.198
REMARK INTER:                  -0.198
REMARK INTRA:                   0.000
REMARK UNBOUND:                 0.000
REMARK SMILES C=C1CCC[C@@]2(C)CC(=O)C(=C(C)C)C[C@H]12
REMARK SMILES IDX 13 1 12 2 11 3 15 4 16 5 2 6 1 7 3 8 4 9 5 10 6 11 8 12 9 13
REMARK SMILES IDX 10 14 7 15 14 16
REMARK H PARENT
REMARK Flexibility Score: inf
ROOT
ATOM      1  C   UNL     1     135.817 136.153 136.262  1.00  0.00     0.039 C 
ATOM      2  C   UNL     1     136.740 137.350 136.245  1.00  0.00    -0.070 C 
ATOM      3  C   UNL     1     137.340 137.801 137.386  1.00  0.00    -0.006 C 
ATOM      4  C   UNL     1     137.119 137.101 138.721  1.00  0.00     0.047 C 
ATOM      5  C   UNL     1     138.338 137.217 139.668  1.00  0.00     0.025 C 
ATOM      6  C   UNL     1     138.159 136.567 141.041  1.00  0.00    -0.073 C 
ATOM      7  C   UNL     1     137.035 135.940 141.438  1.00  0.00     0.008 C 
ATOM      8  C   UNL     1     139.355 136.613 141.962  1.00  0.00     0.031 C 
ATOM      9  C   UNL     1     139.856 138.051 142.112  1.00  0.00     0.005 C 
ATOM     10  C   UNL     1     140.089 138.717 140.745  1.00  0.00     0.008 C 
ATOM     11  C   UNL     1     138.828 138.690 139.830  1.00  0.00    -0.018 C 
ATOM     12  C   UNL     1     139.231 139.233 138.437  1.00  0.00     0.088 C 
ATOM     13  C   UNL     1     138.137 139.061 137.424  1.00  0.00     0.159 C 
ATOM     14  O   UNL     1     137.903 140.007 136.623  1.00  0.00    -0.295 OA
ATOM     15  C   UNL     1     137.725 139.602 140.437  1.00  0.00     0.012 C 
ATOM     16  C   UNL     1     136.997 137.996 134.902  1.00  0.00     0.039 C 
ENDROOT
TORSDOF 0
ENDMDL
MODEL 4
REMARK VINA RESULT:    -0.195      1.690      3.162
REMARK INTER + INTRA:          -0.195
REMARK INTER:                  -0.195
REMARK INTRA:                   0.000
REMARK UNBOUND:                 0.000
REMARK SMILES C=C1CCC[C@@]2(C)CC(=O)C(=C(C)C)C[C@H]12
REMARK SMILES IDX 13 1 12 2 11 3 15 4 16 5 2 6 1 7 3 8 4 9 5 10 6 11 8 12 9 13
REMARK SMILES IDX 10 14 7 15 14 16
REMARK H PARENT
REMARK Flexibility Score: inf
ROOT
ATOM      1  C   UNL     1     135.558 133.736 137.346  1.00  0.00     0.039 C 
ATOM      2  C   UNL     1     136.058 135.141 137.095  1.00  0.00    -0.070 C 
ATOM      3  C   UNL     1     136.717 135.843 138.063  1.00  0.00    -0.006 C 
ATOM      4  C   UNL     1     136.993 135.230 139.430  1.00  0.00     0.047 C 
ATOM      5  C   UNL     1     138.290 135.773 140.080  1.00  0.00     0.025 C 
ATOM      6  C   UNL     1     138.598 135.223 141.473  1.00  0.00    -0.073 C 
ATOM      7  C   UNL     1     137.818 134.340 142.125  1.00  0.00     0.008 C 
ATOM      8  C   UNL     1     139.888 135.691 142.104  1.00  0.00     0.031 C 
ATOM      9  C   UNL     1     139.958 137.220 142.105  1.00  0.00     0.005 C 
ATOM     10  C   UNL     1     139.697 137.800 140.704  1.00  0.00     0.008 C 
ATOM     11  C   UNL     1     138.341 137.334 140.093  1.00  0.00    -0.018 C 
ATOM     12  C   UNL     1     138.269 137.843 138.633  1.00  0.00     0.088 C 
ATOM     13  C   UNL     1     137.093 137.277 137.892  1.00  0.00     0.159 C 
ATOM     14  O   UNL     1     136.428 138.041 137.141  1.00  0.00    -0.295 OA
ATOM     15  C   UNL     1     137.166 137.943 140.908  1.00  0.00     0.012 C 
ATOM     16  C   UNL     1     135.830 135.711 135.714  1.00  0.00     0.039 C 
ENDROOT
TORSDOF 0
ENDMDL
MODEL 5
REMARK VINA RESULT:    -0.180      2.243      2.566
REMARK INTER + INTRA:          -0.180
REMARK INTER:                  -0.180
REMARK INTRA:                   0.000
REMARK UNBOUND:                 0.000
REMARK SMILES C=C1CCC[C@@]2(C)CC(=O)C(=C(C)C)C[C@H]12
REMARK SMILES IDX 13 1 12 2 11 3 15 4 16 5 2 6 1 7 3 8 4 9 5 10 6 11 8 12 9 13
REMARK SMILES IDX 10 14 7 15 14 16
REMARK H PARENT
REMARK Flexibility Score: inf
ROOT
ATOM      1  C   UNL     1     136.039 136.951 135.726  1.00  0.00     0.039 C 
ATOM      2  C   UNL     1     135.263 137.470 136.916  1.00  0.00    -0.070 C 
ATOM      3  C   UNL     1     135.844 137.584 138.147  1.00  0.00    -0.006 C 
ATOM      4  C   UNL     1     137.305 137.215 138.365  1.00  0.00     0.047 C 
ATOM      5  C   UNL     1     137.973 138.047 139.488  1.00  0.00     0.025 C 
ATOM      6  C   UNL     1     139.432 137.691 139.780  1.00  0.00    -0.073 C 
ATOM      7  C   UNL     1     140.116 136.725 139.139  1.00  0.00     0.008 C 
ATOM      8  C   UNL     1     140.125 138.529 140.828  1.00  0.00     0.031 C 
ATOM      9  C   UNL     1     139.308 138.545 142.123  1.00  0.00     0.005 C 
ATOM     10  C   UNL     1     137.845 138.945 141.866  1.00  0.00     0.008 C 
ATOM     11  C   UNL     1     137.142 138.040 140.809  1.00  0.00    -0.018 C 
ATOM     12  C   UNL     1     135.744 138.637 140.516  1.00  0.00     0.088 C 
ATOM     13  C   UNL     1     135.065 137.954 139.365  1.00  0.00     0.159 C 
ATOM     14  O   UNL     1     133.836 137.691 139.459  1.00  0.00    -0.295 OA
ATOM     15  C   UNL     1     136.978 136.604 141.380  1.00  0.00     0.012 C 
ATOM     16  C   UNL     1     133.832 137.889 136.669  1.00  0.00     0.039 C 
ENDROOT
TORSDOF 0
ENDMDL
MODEL 6
REMARK VINA RESULT:    -0.170      2.000      2.669
REMARK INTER + INTRA:          -0.170
REMARK INTER:                  -0.170
REMARK INTRA:                   0.000
REMARK UNBOUND:                 0.000
REMARK SMILES C=C1CCC[C@@]2(C)CC(=O)C(=C(C)C)C[C@H]12
REMARK SMILES IDX 13 1 12 2 11 3 15 4 16 5 2 6 1 7 3 8 4 9 5 10 6 11 8 12 9 13
REMARK SMILES IDX 10 14 7 15 14 16
REMARK H PARENT
REMARK Flexibility Score: inf
ROOT
ATOM      1  C   UNL     1     136.206 132.576 137.528  1.00  0.00     0.039 C 
ATOM      2  C   UNL     1     135.774 132.829 138.955  1.00  0.00    -0.070 C 
ATOM      3  C   UNL     1     136.456 133.696 139.760  1.00  0.00    -0.006 C 
ATOM      4  C   UNL     1     137.668 134.462 139.244  1.00  0.00     0.047 C 
ATOM      5  C   UNL     1     137.841 135.841 139.927  1.00  0.00     0.025 C 
ATOM      6  C   UNL     1     139.066 136.639 139.478  1.00  0.00    -0.073 C 
ATOM      7  C   UNL     1     139.957 136.204 138.567  1.00  0.00     0.008 C 
ATOM      8  C   UNL     1     139.226 138.013 140.085  1.00  0.00     0.031 C 
ATOM      9  C   UNL     1     139.172 137.930 141.612  1.00  0.00     0.005 C 
ATOM     10  C   UNL     1     137.924 137.171 142.096  1.00  0.00     0.008 C 
ATOM     11  C   UNL     1     137.805 135.742 141.485  1.00  0.00    -0.018 C 
ATOM     12  C   UNL     1     136.440 135.148 141.910  1.00  0.00     0.088 C 
ATOM     13  C   UNL     1     136.141 133.855 141.209  1.00  0.00     0.159 C 
ATOM     14  O   UNL     1     135.635 132.911 141.875  1.00  0.00    -0.295 OA
ATOM     15  C   UNL     1     138.948 134.844 142.033  1.00  0.00     0.012 C 
ATOM     16  C   UNL     1     134.535 132.107 139.432  1.00  0.00     0.039 C 
ENDROOT
TORSDOF 0
ENDMDL
MODEL 7
REMARK VINA RESULT:    -0.159      2.136      3.352
REMARK INTER + INTRA:          -0.159
REMARK INTER:                  -0.159
REMARK INTRA:                   0.000
REMARK UNBOUND:                 0.000
REMARK SMILES C=C1CCC[C@@]2(C)CC(=O)C(=C(C)C)C[C@H]12
REMARK SMILES IDX 13 1 12 2 11 3 15 4 16 5 2 6 1 7 3 8 4 9 5 10 6 11 8 12 9 13
REMARK SMILES IDX 10 14 7 15 14 16
REMARK H PARENT
REMARK Flexibility Score: inf
ROOT
ATOM      1  C   UNL     1     137.937 132.226 138.351  1.00  0.00     0.039 C 
ATOM      2  C   UNL     1     138.640 133.256 137.496  1.00  0.00    -0.070 C 
ATOM      3  C   UNL     1     138.768 134.552 137.908  1.00  0.00    -0.006 C 
ATOM      4  C   UNL     1     138.226 135.007 139.257  1.00  0.00     0.047 C 
ATOM      5  C   UNL     1     139.044 136.170 139.871  1.00  0.00     0.025 C 
ATOM      6  C   UNL     1     138.522 136.696 141.208  1.00  0.00    -0.073 C 
ATOM      7  C   UNL     1     137.428 136.218 141.832  1.00  0.00     0.008 C 
ATOM      8  C   UNL     1     139.335 137.790 141.858  1.00  0.00     0.031 C 
ATOM      9  C   UNL     1     139.556 138.944 140.878  1.00  0.00     0.005 C 
ATOM     10  C   UNL     1     140.125 138.450 139.537  1.00  0.00     0.008 C 
ATOM     11  C   UNL     1     139.245 137.350 138.869  1.00  0.00    -0.018 C 
ATOM     12  C   UNL     1     139.998 136.819 137.625  1.00  0.00     0.088 C 
ATOM     13  C   UNL     1     139.327 135.618 137.026  1.00  0.00     0.159 C 
ATOM     14  O   UNL     1     139.236 135.541 135.771  1.00  0.00    -0.295 OA
ATOM     15  C   UNL     1     137.890 137.967 138.424  1.00  0.00     0.012 C 
ATOM     16  C   UNL     1     139.225 132.775 136.188  1.00  0.00     0.039 C 
ENDROOT
TORSDOF 0
ENDMDL
MODEL 8
REMARK VINA RESULT:    -0.130     19.285     22.315
REMARK INTER + INTRA:          -0.130
REMARK INTER:                  -0.130
REMARK INTRA:                   0.000
REMARK UNBOUND:                 0.000
REMARK SMILES C=C1CCC[C@@]2(C)CC(=O)C(=C(C)C)C[C@H]12
REMARK SMILES IDX 13 1 12 2 11 3 15 4 16 5 2 6 1 7 3 8 4 9 5 10 6 11 8 12 9 13
REMARK SMILES IDX 10 14 7 15 14 16
REMARK H PARENT
REMARK Flexibility Score: inf
ROOT
ATOM      1  C   UNL     1     123.076 134.889 126.755  1.00  0.00     0.039 C 
ATOM      2  C   UNL     1     122.474 136.161 127.308  1.00  0.00    -0.070 C 
ATOM      3  C   UNL     1     122.089 137.180 126.485  1.00  0.00    -0.006 C 
ATOM      4  C   UNL     1     122.229 137.067 124.973  1.00  0.00     0.047 C 
ATOM      5  C   UNL     1     121.148 137.870 124.208  1.00  0.00     0.025 C 
ATOM      6  C   UNL     1     121.264 137.827 122.684  1.00  0.00    -0.073 C 
ATOM      7  C   UNL     1     122.226 137.161 122.019  1.00  0.00     0.008 C 
ATOM      8  C   UNL     1     120.186 138.552 121.913  1.00  0.00     0.031 C 
ATOM      9  C   UNL     1     120.064 139.999 122.400  1.00  0.00     0.005 C 
ATOM     10  C   UNL     1     119.901 140.071 123.928  1.00  0.00     0.008 C 
ATOM     11  C   UNL     1     121.047 139.349 124.699  1.00  0.00    -0.018 C 
ATOM     12  C   UNL     1     120.688 139.346 126.205  1.00  0.00     0.088 C 
ATOM     13  C   UNL     1     121.629 138.499 127.011  1.00  0.00     0.159 C 
ATOM     14  O   UNL     1     122.027 138.933 128.125  1.00  0.00    -0.295 OA
ATOM     15  C   UNL     1     122.380 140.119 124.491  1.00  0.00     0.012 C 
ATOM     16  C   UNL     1     122.285 136.232 128.806  1.00  0.00     0.039 C 
ENDROOT
TORSDOF 0
ENDMDL
MODEL 9
REMARK VINA RESULT:    -0.126     17.488     20.719
REMARK INTER + INTRA:          -0.126
REMARK INTER:                  -0.126
REMARK INTRA:                   0.000
REMARK UNBOUND:                 0.000
REMARK SMILES C=C1CCC[C@@]2(C)CC(=O)C(=C(C)C)C[C@H]12
REMARK SMILES IDX 13 1 12 2 11 3 15 4 16 5 2 6 1 7 3 8 4 9 5 10 6 11 8 12 9 13
REMARK SMILES IDX 10 14 7 15 14 16
REMARK H PARENT
REMARK Flexibility Score: inf
ROOT
ATOM      1  C   UNL     1     136.333 125.287 126.568  1.00  0.00     0.039 C 
ATOM      2  C   UNL     1     137.214 124.251 127.229  1.00  0.00    -0.070 C 
ATOM      3  C   UNL     1     137.662 123.158 126.543  1.00  0.00    -0.006 C 
ATOM      4  C   UNL     1     137.309 122.950 125.075  1.00  0.00     0.047 C 
ATOM      5  C   UNL     1     138.406 122.182 124.298  1.00  0.00     0.025 C 
ATOM      6  C   UNL     1     138.089 121.908 122.827  1.00  0.00    -0.073 C 
ATOM      7  C   UNL     1     136.946 122.281 122.219  1.00  0.00     0.008 C 
ATOM      8  C   UNL     1     139.167 121.213 122.031  1.00  0.00     0.031 C 
ATOM      9  C   UNL     1     139.602 119.924 122.733  1.00  0.00     0.005 C 
ATOM     10  C   UNL     1     139.972 120.177 124.205  1.00  0.00     0.008 C 
ATOM     11  C   UNL     1     138.827 120.859 125.013  1.00  0.00    -0.018 C 
ATOM     12  C   UNL     1     139.372 121.210 126.419  1.00  0.00     0.088 C 
ATOM     13  C   UNL     1     138.409 122.051 127.207  1.00  0.00     0.159 C 
ATOM     14  O   UNL     1     138.240 121.789 128.429  1.00  0.00    -0.295 OA
ATOM     15  C   UNL     1     137.633 119.875 125.156  1.00  0.00     0.012 C 
ATOM     16  C   UNL     1     137.604 124.503 128.667  1.00  0.00     0.039 C 
ENDROOT
TORSDOF 0
ENDMDL
