MODEL 1
REMARK VINA RESULT:    -4.450      0.000      0.000
REMARK INTER + INTRA:          -7.709
REMARK INTER:                  -6.791
REMARK INTRA:                  -0.918
REMARK UNBOUND:                -0.918
REMARK SMILES CCCCCCCCCCC(=O)[O-]
REMARK SMILES IDX 7 1 8 2 9 3 10 4 11 5 12 6 13 7 6 8 5 9 4 10 3 11 2 12 1 13
REMARK H PARENT
REMARK Flexibility Score: inf
ROOT
ATOM      1  C   UNL     1       1.449   8.139  -8.967  1.00  0.00     0.000 C 
ENDROOT
BRANCH   1   2
ATOM      2  C   UNL     1       1.654   9.125  -7.802  1.00  0.00     0.000 C 
BRANCH   2   3
ATOM      3  C   UNL     1       1.114   8.646  -6.438  1.00  0.00     0.006 C 
BRANCH   3   4
ATOM      4  C   UNL     1       1.871   9.200  -5.221  1.00  0.00     0.053 C 
BRANCH   4   5
ATOM      5  C   UNL     1       2.838   8.202  -4.661  1.00  0.00     0.041 C 
ATOM      6  O   UNL     1       3.834   7.835  -5.340  1.00  0.00    -0.550 OA
ATOM      7  O   UNL     1       2.622   7.651  -3.404  1.00  0.00    -0.550 OA
ENDBRANCH   4   5
ENDBRANCH   3   4
ENDBRANCH   2   3
ENDBRANCH   1   2
BRANCH   1   8
ATOM      8  C   UNL     1       0.174   7.296  -8.822  1.00  0.00     0.000 C 
BRANCH   8   9
ATOM      9  C   UNL     1       0.296   5.979  -9.602  1.00  0.00    -0.000 C 
BRANCH   9  10
ATOM     10  C   UNL     1       1.105   4.907  -8.850  1.00  0.00    -0.000 C 
BRANCH  10  11
ATOM     11  C   UNL     1       0.283   4.021  -7.895  1.00  0.00    -0.000 C 
BRANCH  11  12
ATOM     12  C   UNL     1       0.345   4.496  -6.436  1.00  0.00    -0.003 C 
ATOM     13  C   UNL     1       1.715   5.083  -6.107  1.00  0.00     0.004 C 
ENDBRANCH  11  12
ENDBRANCH  10  11
ENDBRANCH   9  10
ENDBRANCH   8   9
ENDBRANCH   1   8
TORSDOF 9
ENDMDL
MODEL 2
REMARK VINA RESULT:    -4.401      0.966      1.374
REMARK INTER + INTRA:          -7.635
REMARK INTER:                  -7.020
REMARK INTRA:                  -0.616
REMARK UNBOUND:                -0.918
REMARK SMILES CCCCCCCCCCC(=O)[O-]
REMARK SMILES IDX 7 1 8 2 9 3 10 4 11 5 12 6 13 7 6 8 5 9 4 10 3 11 2 12 1 13
REMARK H PARENT
REMARK Flexibility Score: inf
ROOT
ATOM      1  C   UNL     1       0.744   8.247  -7.350  1.00  0.00     0.000 C 
ENDROOT
BRANCH   1   2
ATOM      2  C   UNL     1       1.352   9.562  -6.826  1.00  0.00     0.000 C 
BRANCH   2   3
ATOM      3  C   UNL     1       1.654   9.585  -5.313  1.00  0.00     0.006 C 
BRANCH   3   4
ATOM      4  C   UNL     1       2.914   8.807  -4.902  1.00  0.00     0.053 C 
BRANCH   4   5
ATOM      5  C   UNL     1       2.579   7.476  -4.301  1.00  0.00     0.041 C 
ATOM      6  O   UNL     1       2.604   6.436  -5.011  1.00  0.00    -0.550 OA
ATOM      7  O   UNL     1       2.207   7.388  -2.965  1.00  0.00    -0.550 OA
ENDBRANCH   4   5
ENDBRANCH   3   4
ENDBRANCH   2   3
ENDBRANCH   1   2
BRANCH   1   8
ATOM      8  C   UNL     1       0.577   8.230  -8.876  1.00  0.00     0.000 C 
BRANCH   8   9
ATOM      9  C   UNL     1       0.060   6.866  -9.356  1.00  0.00    -0.000 C 
BRANCH   9  10
ATOM     10  C   UNL     1       1.192   5.882  -9.703  1.00  0.00    -0.000 C 
BRANCH  10  11
ATOM     11  C   UNL     1       1.536   4.869  -8.595  1.00  0.00    -0.000 C 
BRANCH  11  12
ATOM     12  C   UNL     1       0.294   4.197  -7.991  1.00  0.00    -0.003 C 
ATOM     13  C   UNL     1       0.351   4.209  -6.466  1.00  0.00     0.004 C 
ENDBRANCH  11  12
ENDBRANCH  10  11
ENDBRANCH   9  10
ENDBRANCH   8   9
ENDBRANCH   1   8
TORSDOF 9
ENDMDL
MODEL 3
REMARK VINA RESULT:    -4.226      1.869      3.280
REMARK INTER + INTRA:          -7.368
REMARK INTER:                  -6.185
REMARK INTRA:                  -1.183
REMARK UNBOUND:                -0.918
REMARK SMILES CCCCCCCCCCC(=O)[O-]
REMARK SMILES IDX 7 1 8 2 9 3 10 4 11 5 12 6 13 7 6 8 5 9 4 10 3 11 2 12 1 13
REMARK H PARENT
REMARK Flexibility Score: inf
ROOT
ATOM      1  C   UNL     1       0.459   5.225  -6.548  1.00  0.00     0.000 C 
ENDROOT
BRANCH   1   2
ATOM      2  C   UNL     1       1.914   5.357  -6.062  1.00  0.00     0.000 C 
BRANCH   2   3
ATOM      3  C   UNL     1       2.215   6.624  -5.234  1.00  0.00     0.006 C 
BRANCH   3   4
ATOM      4  C   UNL     1       2.554   7.868  -6.070  1.00  0.00     0.053 C 
BRANCH   4   5
ATOM      5  C   UNL     1       1.418   8.843  -6.111  1.00  0.00     0.041 C 
ATOM      6  O   UNL     1       0.520   8.733  -6.988  1.00  0.00    -0.550 OA
ATOM      7  O   UNL     1       1.367   9.893  -5.203  1.00  0.00    -0.550 OA
ENDBRANCH   4   5
ENDBRANCH   3   4
ENDBRANCH   2   3
ENDBRANCH   1   2
BRANCH   1   8
ATOM      8  C   UNL     1       0.259   4.066  -7.535  1.00  0.00     0.000 C 
BRANCH   8   9
ATOM      9  C   UNL     1       0.618   4.493  -8.965  1.00  0.00    -0.000 C 
BRANCH   9  10
ATOM     10  C   UNL     1       0.259   5.960  -9.263  1.00  0.00    -0.000 C 
BRANCH  10  11
ATOM     11  C   UNL     1       1.397   6.797  -9.876  1.00  0.00    -0.000 C 
BRANCH  11  12
ATOM     12  C   UNL     1       2.762   6.100  -9.797  1.00  0.00    -0.003 C 
ATOM     13  C   UNL     1       3.855   7.080  -9.380  1.00  0.00     0.004 C 
ENDBRANCH  11  12
ENDBRANCH  10  11
ENDBRANCH   9  10
ENDBRANCH   8   9
ENDBRANCH   1   8
TORSDOF 9
ENDMDL
MODEL 4
REMARK VINA RESULT:    -4.131      2.770      4.662
REMARK INTER + INTRA:          -7.223
REMARK INTER:                  -6.021
REMARK INTRA:                  -1.202
REMARK UNBOUND:                -0.918
REMARK SMILES CCCCCCCCCCC(=O)[O-]
REMARK SMILES IDX 7 1 8 2 9 3 10 4 11 5 12 6 13 7 6 8 5 9 4 10 3 11 2 12 1 13
REMARK H PARENT
REMARK Flexibility Score: inf
ROOT
ATOM      1  C   UNL     1       0.793   8.328  -7.812  1.00  0.00     0.000 C 
ENDROOT
BRANCH   1   2
ATOM      2  C   UNL     1       0.014   7.015  -8.014  1.00  0.00     0.000 C 
BRANCH   2   3
ATOM      3  C   UNL     1       0.786   5.906  -8.760  1.00  0.00     0.006 C 
BRANCH   3   4
ATOM      4  C   UNL     1       1.446   4.862  -7.847  1.00  0.00     0.053 C 
BRANCH   4   5
ATOM      5  C   UNL     1       0.451   4.191  -6.951  1.00  0.00     0.041 C 
ATOM      6  O   UNL     1      -0.343   3.331  -7.417  1.00  0.00    -0.550 OA
ATOM      7  O   UNL     1       0.375   4.539  -5.608  1.00  0.00    -0.550 OA
ENDBRANCH   4   5
ENDBRANCH   3   4
ENDBRANCH   2   3
ENDBRANCH   1   2
BRANCH   1   8
ATOM      8  C   UNL     1       1.151   8.593  -6.343  1.00  0.00     0.000 C 
BRANCH   8   9
ATOM      9  C   UNL     1       2.393   7.791  -5.927  1.00  0.00    -0.000 C 
BRANCH   9  10
ATOM     10  C   UNL     1       3.711   8.447  -6.377  1.00  0.00    -0.000 C 
BRANCH  10  11
ATOM     11  C   UNL     1       4.665   7.522  -7.156  1.00  0.00    -0.000 C 
BRANCH  11  12
ATOM     12  C   UNL     1       4.244   7.324  -8.619  1.00  0.00    -0.003 C 
ATOM     13  C   UNL     1       4.401   8.617  -9.415  1.00  0.00     0.004 C 
ENDBRANCH  11  12
ENDBRANCH  10  11
ENDBRANCH   9  10
ENDBRANCH   8   9
ENDBRANCH   1   8
TORSDOF 9
ENDMDL
MODEL 5
REMARK VINA RESULT:    -4.106      2.457      4.349
REMARK INTER + INTRA:          -7.185
REMARK INTER:                  -6.083
REMARK INTRA:                  -1.103
REMARK UNBOUND:                -0.918
REMARK SMILES CCCCCCCCCCC(=O)[O-]
REMARK SMILES IDX 7 1 8 2 9 3 10 4 11 5 12 6 13 7 6 8 5 9 4 10 3 11 2 12 1 13
REMARK H PARENT
REMARK Flexibility Score: inf
ROOT
ATOM      1  C   UNL     1       0.372   7.653  -8.211  1.00  0.00     0.000 C 
ENDROOT
BRANCH   1   2
ATOM      2  C   UNL     1       0.021   6.638  -9.315  1.00  0.00     0.000 C 
BRANCH   2   3
ATOM      3  C   UNL     1       0.683   5.252  -9.163  1.00  0.00     0.006 C 
BRANCH   3   4
ATOM      4  C   UNL     1       1.282   4.979  -7.775  1.00  0.00     0.053 C 
BRANCH   4   5
ATOM      5  C   UNL     1       0.367   4.157  -6.920  1.00  0.00     0.041 C 
ATOM      6  O   UNL     1      -0.353   3.264  -7.439  1.00  0.00    -0.550 OA
ATOM      7  O   UNL     1       0.283   4.400  -5.554  1.00  0.00    -0.550 OA
ENDBRANCH   4   5
ENDBRANCH   3   4
ENDBRANCH   2   3
ENDBRANCH   1   2
BRANCH   1   8
ATOM      8  C   UNL     1       1.207   8.834  -8.725  1.00  0.00     0.000 C 
BRANCH   8   9
ATOM      9  C   UNL     1       2.700   8.477  -8.759  1.00  0.00    -0.000 C 
BRANCH   9  10
ATOM     10  C   UNL     1       3.447   8.892  -7.478  1.00  0.00    -0.000 C 
BRANCH  10  11
ATOM     11  C   UNL     1       3.813   7.732  -6.533  1.00  0.00    -0.000 C 
BRANCH  11  12
ATOM     12  C   UNL     1       2.737   7.460  -5.474  1.00  0.00    -0.003 C 
ATOM     13  C   UNL     1       2.109   8.762  -4.982  1.00  0.00     0.004 C 
ENDBRANCH  11  12
ENDBRANCH  10  11
ENDBRANCH   9  10
ENDBRANCH   8   9
ENDBRANCH   1   8
TORSDOF 9
ENDMDL
MODEL 6
REMARK VINA RESULT:    -4.092      1.423      2.275
REMARK INTER + INTRA:          -7.164
REMARK INTER:                  -6.208
REMARK INTRA:                  -0.955
REMARK UNBOUND:                -0.918
REMARK SMILES CCCCCCCCCCC(=O)[O-]
REMARK SMILES IDX 7 1 8 2 9 3 10 4 11 5 12 6 13 7 6 8 5 9 4 10 3 11 2 12 1 13
REMARK H PARENT
REMARK Flexibility Score: inf
ROOT
ATOM      1  C   UNL     1       3.145   8.821  -8.343  1.00  0.00     0.000 C 
ENDROOT
BRANCH   1   2
ATOM      2  C   UNL     1       3.964   7.671  -7.728  1.00  0.00     0.000 C 
BRANCH   2   3
ATOM      3  C   UNL     1       4.357   7.868  -6.249  1.00  0.00     0.006 C 
BRANCH   3   4
ATOM      4  C   UNL     1       3.246   8.455  -5.365  1.00  0.00     0.053 C 
BRANCH   4   5
ATOM      5  C   UNL     1       2.666   7.431  -4.439  1.00  0.00     0.041 C 
ATOM      6  O   UNL     1       2.573   7.672  -3.206  1.00  0.00    -0.550 OA
ATOM      7  O   UNL     1       2.258   6.198  -4.931  1.00  0.00    -0.550 OA
ENDBRANCH   4   5
ENDBRANCH   3   4
ENDBRANCH   2   3
ENDBRANCH   1   2
BRANCH   1   8
ATOM      8  C   UNL     1       1.771   8.370  -8.859  1.00  0.00     0.000 C 
BRANCH   8   9
ATOM      9  C   UNL     1       0.735   8.359  -7.726  1.00  0.00    -0.000 C 
BRANCH   9  10
ATOM     10  C   UNL     1      -0.014   7.019  -7.608  1.00  0.00    -0.000 C 
BRANCH  10  11
ATOM     11  C   UNL     1       0.418   5.941  -8.619  1.00  0.00    -0.000 C 
BRANCH  11  12
ATOM     12  C   UNL     1       1.152   4.764  -7.961  1.00  0.00    -0.003 C 
ATOM     13  C   UNL     1       0.306   4.138  -6.856  1.00  0.00     0.004 C 
ENDBRANCH  11  12
ENDBRANCH  10  11
ENDBRANCH   9  10
ENDBRANCH   8   9
ENDBRANCH   1   8
TORSDOF 9
ENDMDL
MODEL 7
REMARK VINA RESULT:    -4.089     18.044     20.247
REMARK INTER + INTRA:          -7.159
REMARK INTER:                  -6.048
REMARK INTRA:                  -1.111
REMARK UNBOUND:                -0.918
REMARK SMILES CCCCCCCCCCC(=O)[O-]
REMARK SMILES IDX 7 1 8 2 9 3 10 4 11 5 12 6 13 7 6 8 5 9 4 10 3 11 2 12 1 13
REMARK H PARENT
REMARK Flexibility Score: inf
ROOT
ATOM      1  C   UNL     1      -4.988  -5.251   5.046  1.00  0.00     0.000 C 
ENDROOT
BRANCH   1   2
ATOM      2  C   UNL     1      -4.721  -6.446   5.980  1.00  0.00     0.000 C 
BRANCH   2   3
ATOM      3  C   UNL     1      -5.790  -7.558   5.939  1.00  0.00     0.006 C 
BRANCH   3   4
ATOM      4  C   UNL     1      -7.017  -7.298   6.827  1.00  0.00     0.053 C 
BRANCH   4   5
ATOM      5  C   UNL     1      -8.198  -6.836   6.031  1.00  0.00     0.041 C 
ATOM      6  O   UNL     1      -8.421  -5.605   5.885  1.00  0.00    -0.550 OA
ATOM      7  O   UNL     1      -9.072  -7.763   5.477  1.00  0.00    -0.550 OA
ENDBRANCH   4   5
ENDBRANCH   3   4
ENDBRANCH   2   3
ENDBRANCH   1   2
BRANCH   1   8
ATOM      8  C   UNL     1      -4.030  -4.076   5.288  1.00  0.00     0.000 C 
BRANCH   8   9
ATOM      9  C   UNL     1      -4.788  -2.849   5.816  1.00  0.00    -0.000 C 
BRANCH   9  10
ATOM     10  C   UNL     1      -5.917  -3.215   6.796  1.00  0.00    -0.000 C 
BRANCH  10  11
ATOM     11  C   UNL     1      -5.545  -3.112   8.286  1.00  0.00    -0.000 C 
BRANCH  11  12
ATOM     12  C   UNL     1      -5.380  -4.481   8.959  1.00  0.00    -0.003 C 
ATOM     13  C   UNL     1      -3.905  -4.834   9.133  1.00  0.00     0.004 C 
ENDBRANCH  11  12
ENDBRANCH  10  11
ENDBRANCH   9  10
ENDBRANCH   8   9
ENDBRANCH   1   8
TORSDOF 9
ENDMDL
MODEL 8
REMARK VINA RESULT:    -4.078      2.387      4.582
REMARK INTER + INTRA:          -7.142
REMARK INTER:                  -6.074
REMARK INTRA:                  -1.069
REMARK UNBOUND:                -0.918
REMARK SMILES CCCCCCCCCCC(=O)[O-]
REMARK SMILES IDX 7 1 8 2 9 3 10 4 11 5 12 6 13 7 6 8 5 9 4 10 3 11 2 12 1 13
REMARK H PARENT
REMARK Flexibility Score: inf
ROOT
ATOM      1  C   UNL     1       0.888   7.860  -9.080  1.00  0.00     0.000 C 
ENDROOT
BRANCH   1   2
ATOM      2  C   UNL     1       2.199   7.069  -9.247  1.00  0.00     0.000 C 
BRANCH   2   3
ATOM      3  C   UNL     1       2.163   5.624  -8.706  1.00  0.00     0.006 C 
BRANCH   3   4
ATOM      4  C   UNL     1       0.757   5.014  -8.605  1.00  0.00     0.053 C 
BRANCH   4   5
ATOM      5  C   UNL     1       0.506   4.403  -7.261  1.00  0.00     0.041 C 
ATOM      6  O   UNL     1       1.051   4.887  -6.233  1.00  0.00    -0.550 OA
ATOM      7  O   UNL     1      -0.302   3.279  -7.145  1.00  0.00    -0.550 OA
ENDBRANCH   4   5
ENDBRANCH   3   4
ENDBRANCH   2   3
ENDBRANCH   1   2
BRANCH   1   8
ATOM      8  C   UNL     1       1.016   9.034  -8.098  1.00  0.00     0.000 C 
BRANCH   8   9
ATOM      9  C   UNL     1       1.001   8.538  -6.645  1.00  0.00    -0.000 C 
BRANCH   9  10
ATOM     10  C   UNL     1       1.581   9.563  -5.654  1.00  0.00    -0.000 C 
BRANCH  10  11
ATOM     11  C   UNL     1       3.050   9.326  -5.257  1.00  0.00    -0.000 C 
BRANCH  11  12
ATOM     12  C   UNL     1       3.541   7.912  -5.596  1.00  0.00    -0.003 C 
ATOM     13  C   UNL     1       4.680   7.955  -6.612  1.00  0.00     0.004 C 
ENDBRANCH  11  12
ENDBRANCH  10  11
ENDBRANCH   9  10
ENDBRANCH   8   9
ENDBRANCH   1   8
TORSDOF 9
ENDMDL
MODEL 9
REMARK VINA RESULT:    -4.012     18.524     20.650
REMARK INTER + INTRA:          -7.042
REMARK INTER:                  -5.919
REMARK INTRA:                  -1.123
REMARK UNBOUND:                -0.918
REMARK SMILES CCCCCCCCCCC(=O)[O-]
REMARK SMILES IDX 7 1 8 2 9 3 10 4 11 5 12 6 13 7 6 8 5 9 4 10 3 11 2 12 1 13
REMARK H PARENT
REMARK Flexibility Score: inf
ROOT
ATOM      1  C   UNL     1      -4.848  -6.451   6.226  1.00  0.00     0.000 C 
ENDROOT
BRANCH   1   2
ATOM      2  C   UNL     1      -5.970  -6.306   5.181  1.00  0.00     0.000 C 
BRANCH   2   3
ATOM      3  C   UNL     1      -7.403  -6.344   5.751  1.00  0.00     0.006 C 
BRANCH   3   4
ATOM      4  C   UNL     1      -7.617  -7.372   6.874  1.00  0.00     0.053 C 
BRANCH   4   5
ATOM      5  C   UNL     1      -7.965  -8.726   6.336  1.00  0.00     0.041 C 
ATOM      6  O   UNL     1      -7.067  -9.593   6.171  1.00  0.00    -0.550 OA
ATOM      7  O   UNL     1      -9.277  -9.020   5.984  1.00  0.00    -0.550 OA
ENDBRANCH   4   5
ENDBRANCH   3   4
ENDBRANCH   2   3
ENDBRANCH   1   2
BRANCH   1   8
ATOM      8  C   UNL     1      -3.828  -5.305   6.173  1.00  0.00     0.000 C 
BRANCH   8   9
ATOM      9  C   UNL     1      -4.281  -4.211   5.196  1.00  0.00    -0.000 C 
BRANCH   9  10
ATOM     10  C   UNL     1      -4.731  -2.920   5.903  1.00  0.00    -0.000 C 
BRANCH  10  11
ATOM     11  C   UNL     1      -5.971  -3.069   6.804  1.00  0.00    -0.000 C 
BRANCH  11  12
ATOM     12  C   UNL     1      -5.629  -3.059   8.300  1.00  0.00    -0.003 C 
ATOM     13  C   UNL     1      -6.295  -4.226   9.023  1.00  0.00     0.004 C 
ENDBRANCH  11  12
ENDBRANCH  10  11
ENDBRANCH   9  10
ENDBRANCH   8   9
ENDBRANCH   1   8
TORSDOF 9
ENDMDL
