MODEL 1
REMARK VINA RESULT:    -4.592      0.000      0.000
REMARK INTER + INTRA:          -7.246
REMARK INTER:                  -7.009
REMARK INTRA:                  -0.238
REMARK UNBOUND:                -0.238
REMARK SMILES CCCCCCCCCCC(=O)[O-]
REMARK SMILES IDX 7 1 8 2 9 3 10 4 11 5 12 6 13 7 6 8 5 9 4 10 3 11 2 12 1 13
REMARK H PARENT
REMARK Flexibility Score: inf
ROOT
ATOM      1  C   UNL     1     -11.419 -10.461   5.856  1.00  0.00     0.000 C 
ENDROOT
BRANCH   1   2
ATOM      2  C   UNL     1     -12.537  -9.773   6.657  1.00  0.00     0.000 C 
BRANCH   2   3
ATOM      3  C   UNL     1     -13.658 -10.751   7.063  1.00  0.00     0.006 C 
BRANCH   3   4
ATOM      4  C   UNL     1     -15.005 -10.062   7.337  1.00  0.00     0.053 C 
BRANCH   4   5
ATOM      5  C   UNL     1     -15.215  -9.785   8.793  1.00  0.00     0.041 C 
ATOM      6  O   UNL     1     -14.323 -10.083   9.630  1.00  0.00    -0.550 OA
ATOM      7  O   UNL     1     -16.385  -9.172   9.224  1.00  0.00    -0.550 OA
ENDBRANCH   4   5
ENDBRANCH   3   4
ENDBRANCH   2   3
ENDBRANCH   1   2
BRANCH   1   8
ATOM      8  C   UNL     1     -10.683 -11.547   6.664  1.00  0.00     0.000 C 
BRANCH   8   9
ATOM      9  C   UNL     1     -10.142 -12.720   5.828  1.00  0.00    -0.000 C 
BRANCH   9  10
ATOM     10  C   UNL     1      -8.633 -12.952   6.030  1.00  0.00    -0.000 C 
BRANCH  10  11
ATOM     11  C   UNL     1      -8.076 -14.046   5.107  1.00  0.00    -0.000 C 
BRANCH  11  12
ATOM     12  C   UNL     1      -6.720 -14.585   5.584  1.00  0.00    -0.003 C 
ATOM     13  C   UNL     1      -6.498 -16.018   5.106  1.00  0.00     0.004 C 
ENDBRANCH  11  12
ENDBRANCH  10  11
ENDBRANCH   9  10
ENDBRANCH   8   9
ENDBRANCH   1   8
TORSDOF 9
ENDMDL
MODEL 2
REMARK VINA RESULT:    -4.501      1.310      2.323
REMARK INTER + INTRA:          -7.107
REMARK INTER:                  -6.643
REMARK INTRA:                  -0.464
REMARK UNBOUND:                -0.238
REMARK SMILES CCCCCCCCCCC(=O)[O-]
REMARK SMILES IDX 7 1 8 2 9 3 10 4 11 5 12 6 13 7 6 8 5 9 4 10 3 11 2 12 1 13
REMARK H PARENT
REMARK Flexibility Score: inf
ROOT
ATOM      1  C   UNL     1     -11.803  -9.903   5.913  1.00  0.00     0.000 C 
ENDROOT
BRANCH   1   2
ATOM      2  C   UNL     1     -12.818  -9.627   7.035  1.00  0.00     0.000 C 
BRANCH   2   3
ATOM      3  C   UNL     1     -13.941 -10.682   7.085  1.00  0.00     0.006 C 
BRANCH   3   4
ATOM      4  C   UNL     1     -15.327 -10.091   7.393  1.00  0.00     0.053 C 
BRANCH   4   5
ATOM      5  C   UNL     1     -15.503  -9.782   8.847  1.00  0.00     0.041 C 
ATOM      6  O   UNL     1     -16.474  -9.080   9.232  1.00  0.00    -0.550 OA
ATOM      7  O   UNL     1     -14.610 -10.293   9.781  1.00  0.00    -0.550 OA
ENDBRANCH   4   5
ENDBRANCH   3   4
ENDBRANCH   2   3
ENDBRANCH   1   2
BRANCH   1   8
ATOM      8  C   UNL     1     -10.532  -9.041   6.028  1.00  0.00     0.000 C 
BRANCH   8   9
ATOM      9  C   UNL     1      -9.515  -9.525   7.078  1.00  0.00    -0.000 C 
BRANCH   9  10
ATOM     10  C   UNL     1      -8.781 -10.810   6.652  1.00  0.00    -0.000 C 
BRANCH  10  11
ATOM     11  C   UNL     1      -9.444 -12.080   7.207  1.00  0.00    -0.000 C 
BRANCH  11  12
ATOM     12  C   UNL     1      -9.946 -13.015   6.098  1.00  0.00    -0.003 C 
ATOM     13  C   UNL     1      -8.790 -13.518   5.238  1.00  0.00     0.004 C 
ENDBRANCH  11  12
ENDBRANCH  10  11
ENDBRANCH   9  10
ENDBRANCH   8   9
ENDBRANCH   1   8
TORSDOF 9
ENDMDL
MODEL 3
REMARK VINA RESULT:    -4.385      0.962      1.374
REMARK INTER + INTRA:          -6.930
REMARK INTER:                  -6.558
REMARK INTRA:                  -0.373
REMARK UNBOUND:                -0.238
REMARK SMILES CCCCCCCCCCC(=O)[O-]
REMARK SMILES IDX 7 1 8 2 9 3 10 4 11 5 12 6 13 7 6 8 5 9 4 10 3 11 2 12 1 13
REMARK H PARENT
REMARK Flexibility Score: inf
ROOT
ATOM      1  C   UNL     1     -11.088 -11.548   6.863  1.00  0.00     0.000 C 
ENDROOT
BRANCH   1   2
ATOM      2  C   UNL     1     -11.683 -10.509   5.897  1.00  0.00     0.000 C 
BRANCH   2   3
ATOM      3  C   UNL     1     -13.094 -10.052   6.321  1.00  0.00     0.006 C 
BRANCH   3   4
ATOM      4  C   UNL     1     -13.345 -10.159   7.835  1.00  0.00     0.053 C 
BRANCH   4   5
ATOM      5  C   UNL     1     -14.799 -10.075   8.177  1.00  0.00     0.041 C 
ATOM      6  O   UNL     1     -15.664 -10.037   7.262  1.00  0.00    -0.550 OA
ATOM      7  O   UNL     1     -15.203 -10.066   9.506  1.00  0.00    -0.550 OA
ENDBRANCH   4   5
ENDBRANCH   3   4
ENDBRANCH   2   3
ENDBRANCH   1   2
BRANCH   1   8
ATOM      8  C   UNL     1      -9.552 -11.477   6.948  1.00  0.00     0.000 C 
BRANCH   8   9
ATOM      9  C   UNL     1      -8.833 -12.831   6.809  1.00  0.00    -0.000 C 
BRANCH   9  10
ATOM     10  C   UNL     1      -8.967 -13.436   5.399  1.00  0.00    -0.000 C 
BRANCH  10  11
ATOM     11  C   UNL     1      -7.625 -13.931   4.840  1.00  0.00    -0.000 C 
BRANCH  11  12
ATOM     12  C   UNL     1      -6.743 -14.582   5.915  1.00  0.00    -0.003 C 
ATOM     13  C   UNL     1      -5.906 -15.715   5.328  1.00  0.00     0.004 C 
ENDBRANCH  11  12
ENDBRANCH  10  11
ENDBRANCH   9  10
ENDBRANCH   8   9
ENDBRANCH   1   8
TORSDOF 9
ENDMDL
MODEL 4
REMARK VINA RESULT:    -4.373      3.054      3.847
REMARK INTER + INTRA:          -6.912
REMARK INTER:                  -5.807
REMARK INTRA:                  -1.105
REMARK UNBOUND:                -0.238
REMARK SMILES CCCCCCCCCCC(=O)[O-]
REMARK SMILES IDX 7 1 8 2 9 3 10 4 11 5 12 6 13 7 6 8 5 9 4 10 3 11 2 12 1 13
REMARK H PARENT
REMARK Flexibility Score: inf
ROOT
ATOM      1  C   UNL     1     -11.360 -10.442   5.877  1.00  0.00     0.000 C 
ENDROOT
BRANCH   1   2
ATOM      2  C   UNL     1     -12.801 -10.377   6.412  1.00  0.00     0.000 C 
BRANCH   2   3
ATOM      3  C   UNL     1     -12.933  -9.449   7.637  1.00  0.00     0.006 C 
BRANCH   3   4
ATOM      4  C   UNL     1     -13.607 -10.120   8.845  1.00  0.00     0.053 C 
BRANCH   4   5
ATOM      5  C   UNL     1     -15.051  -9.746   8.970  1.00  0.00     0.041 C 
ATOM      6  O   UNL     1     -15.818  -9.840   7.975  1.00  0.00    -0.550 OA
ATOM      7  O   UNL     1     -15.558  -9.320  10.192  1.00  0.00    -0.550 OA
ENDBRANCH   4   5
ENDBRANCH   3   4
ENDBRANCH   2   3
ENDBRANCH   1   2
BRANCH   1   8
ATOM      8  C   UNL     1     -10.489  -9.265   6.357  1.00  0.00     0.000 C 
BRANCH   8   9
ATOM      9  C   UNL     1      -9.046  -9.642   6.738  1.00  0.00    -0.000 C 
BRANCH   9  10
ATOM     10  C   UNL     1      -8.864  -9.853   8.252  1.00  0.00    -0.000 C 
BRANCH  10  11
ATOM     11  C   UNL     1      -9.293 -11.257   8.706  1.00  0.00    -0.000 C 
BRANCH  11  12
ATOM     12  C   UNL     1     -10.159 -11.225   9.974  1.00  0.00    -0.003 C 
ATOM     13  C   UNL     1     -10.309  -9.801  10.502  1.00  0.00     0.004 C 
ENDBRANCH  11  12
ENDBRANCH  10  11
ENDBRANCH   9  10
ENDBRANCH   8   9
ENDBRANCH   1   8
TORSDOF 9
ENDMDL
MODEL 5
REMARK VINA RESULT:    -4.342      3.581      6.372
REMARK INTER + INTRA:          -6.864
REMARK INTER:                  -5.805
REMARK INTRA:                  -1.058
REMARK UNBOUND:                -0.238
REMARK SMILES CCCCCCCCCCC(=O)[O-]
REMARK SMILES IDX 7 1 8 2 9 3 10 4 11 5 12 6 13 7 6 8 5 9 4 10 3 11 2 12 1 13
REMARK H PARENT
REMARK Flexibility Score: inf
ROOT
ATOM      1  C   UNL     1     -13.654 -10.752   6.914  1.00  0.00     0.000 C 
ENDROOT
BRANCH   1   2
ATOM      2  C   UNL     1     -12.660  -9.836   6.178  1.00  0.00     0.000 C 
BRANCH   2   3
ATOM      3  C   UNL     1     -11.312 -10.532   5.904  1.00  0.00     0.006 C 
BRANCH   3   4
ATOM      4  C   UNL     1     -11.001 -11.676   6.883  1.00  0.00     0.053 C 
BRANCH   4   5
ATOM      5  C   UNL     1      -9.866 -12.532   6.416  1.00  0.00     0.041 C 
ATOM      6  O   UNL     1      -9.862 -12.994   5.244  1.00  0.00    -0.550 OA
ATOM      7  O   UNL     1      -8.799 -12.799   7.264  1.00  0.00    -0.550 OA
ENDBRANCH   4   5
ENDBRANCH   3   4
ENDBRANCH   2   3
ENDBRANCH   1   2
BRANCH   1   8
ATOM      8  C   UNL     1     -14.966 -10.036   7.288  1.00  0.00     0.000 C 
BRANCH   8   9
ATOM      9  C   UNL     1     -14.960  -9.353   8.667  1.00  0.00    -0.000 C 
BRANCH   9  10
ATOM     10  C   UNL     1     -13.906  -9.943   9.622  1.00  0.00    -0.000 C 
BRANCH  10  11
ATOM     11  C   UNL     1     -12.753  -8.968   9.903  1.00  0.00    -0.000 C 
BRANCH  11  12
ATOM     12  C   UNL     1     -11.389  -9.671   9.965  1.00  0.00    -0.003 C 
ATOM     13  C   UNL     1     -10.327  -8.876   9.210  1.00  0.00     0.004 C 
ENDBRANCH  11  12
ENDBRANCH  10  11
ENDBRANCH   9  10
ENDBRANCH   8   9
ENDBRANCH   1   8
TORSDOF 9
ENDMDL
MODEL 6
REMARK VINA RESULT:    -4.342      8.397      9.622
REMARK INTER + INTRA:          -6.864
REMARK INTER:                  -6.209
REMARK INTRA:                  -0.654
REMARK UNBOUND:                -0.238
REMARK SMILES CCCCCCCCCCC(=O)[O-]
REMARK SMILES IDX 7 1 8 2 9 3 10 4 11 5 12 6 13 7 6 8 5 9 4 10 3 11 2 12 1 13
REMARK H PARENT
REMARK Flexibility Score: inf
ROOT
ATOM      1  C   UNL     1      -6.407 -16.883   5.071  1.00  0.00     0.000 C 
ENDROOT
BRANCH   1   2
ATOM      2  C   UNL     1      -6.149 -18.394   4.943  1.00  0.00     0.000 C 
BRANCH   2   3
ATOM      3  C   UNL     1      -7.434 -19.227   5.131  1.00  0.00     0.006 C 
BRANCH   3   4
ATOM      4  C   UNL     1      -7.951 -19.860   3.829  1.00  0.00     0.053 C 
BRANCH   4   5
ATOM      5  C   UNL     1      -9.188 -19.188   3.322  1.00  0.00     0.041 C 
ATOM      6  O   UNL     1      -9.476 -18.022   3.702  1.00  0.00    -0.550 OA
ATOM      7  O   UNL     1     -10.010 -19.837   2.409  1.00  0.00    -0.550 OA
ENDBRANCH   4   5
ENDBRANCH   3   4
ENDBRANCH   2   3
ENDBRANCH   1   2
BRANCH   1   8
ATOM      8  C   UNL     1      -5.171 -16.032   4.723  1.00  0.00     0.000 C 
BRANCH   8   9
ATOM      9  C   UNL     1      -3.955 -16.250   5.642  1.00  0.00    -0.000 C 
BRANCH   9  10
ATOM     10  C   UNL     1      -2.616 -16.191   4.885  1.00  0.00    -0.000 C 
BRANCH  10  11
ATOM     11  C   UNL     1      -2.685 -16.871   3.509  1.00  0.00    -0.000 C 
BRANCH  11  12
ATOM     12  C   UNL     1      -2.461 -18.388   3.591  1.00  0.00    -0.003 C 
ATOM     13  C   UNL     1      -1.505 -18.862   2.500  1.00  0.00     0.004 C 
ENDBRANCH  11  12
ENDBRANCH  10  11
ENDBRANCH   9  10
ENDBRANCH   8   9
ENDBRANCH   1   8
TORSDOF 9
ENDMDL
MODEL 7
REMARK VINA RESULT:    -4.199      3.201      6.836
REMARK INTER + INTRA:          -6.646
REMARK INTER:                  -6.040
REMARK INTRA:                  -0.607
REMARK UNBOUND:                -0.238
REMARK SMILES CCCCCCCCCCC(=O)[O-]
REMARK SMILES IDX 7 1 8 2 9 3 10 4 11 5 12 6 13 7 6 8 5 9 4 10 3 11 2 12 1 13
REMARK H PARENT
REMARK Flexibility Score: inf
ROOT
ATOM      1  C   UNL     1     -10.002  -9.266   6.450  1.00  0.00     0.000 C 
ENDROOT
BRANCH   1   2
ATOM      2  C   UNL     1      -9.839  -9.855   7.862  1.00  0.00     0.000 C 
BRANCH   2   3
ATOM      3  C   UNL     1      -9.479 -11.354   7.836  1.00  0.00     0.006 C 
BRANCH   3   4
ATOM      4  C   UNL     1      -8.762 -11.791   6.548  1.00  0.00     0.053 C 
BRANCH   4   5
ATOM      5  C   UNL     1      -9.507 -12.865   5.818  1.00  0.00     0.041 C 
ATOM      6  O   UNL     1     -10.717 -13.089   6.085  1.00  0.00    -0.550 OA
ATOM      7  O   UNL     1      -8.874 -13.600   4.824  1.00  0.00    -0.550 OA
ENDBRANCH   4   5
ENDBRANCH   3   4
ENDBRANCH   2   3
ENDBRANCH   1   2
BRANCH   1   8
ATOM      8  C   UNL     1     -11.465  -9.253   5.971  1.00  0.00     0.000 C 
BRANCH   8   9
ATOM      9  C   UNL     1     -12.514  -9.176   7.095  1.00  0.00    -0.000 C 
BRANCH   9  10
ATOM     10  C   UNL     1     -13.277 -10.498   7.292  1.00  0.00    -0.000 C 
BRANCH  10  11
ATOM     11  C   UNL     1     -14.788 -10.346   7.064  1.00  0.00    -0.000 C 
BRANCH  11  12
ATOM     12  C   UNL     1     -15.487  -9.609   8.216  1.00  0.00    -0.003 C 
ATOM     13  C   UNL     1     -14.925 -10.044   9.567  1.00  0.00     0.004 C 
ENDBRANCH  11  12
ENDBRANCH  10  11
ENDBRANCH   9  10
ENDBRANCH   8   9
ENDBRANCH   1   8
TORSDOF 9
ENDMDL
MODEL 8
REMARK VINA RESULT:    -4.186      4.558      7.551
REMARK INTER + INTRA:          -6.627
REMARK INTER:                  -6.185
REMARK INTRA:                  -0.441
REMARK UNBOUND:                -0.238
REMARK SMILES CCCCCCCCCCC(=O)[O-]
REMARK SMILES IDX 7 1 8 2 9 3 10 4 11 5 12 6 13 7 6 8 5 9 4 10 3 11 2 12 1 13
REMARK H PARENT
REMARK Flexibility Score: inf
ROOT
ATOM      1  C   UNL     1      -5.202 -16.037   4.964  1.00  0.00     0.000 C 
ENDROOT
BRANCH   1   2
ATOM      2  C   UNL     1      -6.711 -15.818   5.169  1.00  0.00     0.000 C 
BRANCH   2   3
ATOM      3  C   UNL     1      -7.046 -14.364   5.562  1.00  0.00     0.006 C 
BRANCH   3   4
ATOM      4  C   UNL     1      -8.351 -13.844   4.936  1.00  0.00     0.053 C 
BRANCH   4   5
ATOM      5  C   UNL     1      -9.181 -13.070   5.912  1.00  0.00     0.041 C 
ATOM      6  O   UNL     1     -10.292 -12.593   5.560  1.00  0.00    -0.550 OA
ATOM      7  O   UNL     1      -8.741 -12.899   7.218  1.00  0.00    -0.550 OA
ENDBRANCH   4   5
ENDBRANCH   3   4
ENDBRANCH   2   3
ENDBRANCH   1   2
BRANCH   1   8
ATOM      8  C   UNL     1      -4.418 -16.088   6.289  1.00  0.00     0.000 C 
BRANCH   8   9
ATOM      9  C   UNL     1      -2.888 -16.005   6.140  1.00  0.00    -0.000 C 
BRANCH   9  10
ATOM     10  C   UNL     1      -2.429 -16.036   4.670  1.00  0.00    -0.000 C 
BRANCH  10  11
ATOM     11  C   UNL     1      -1.672 -17.325   4.317  1.00  0.00    -0.000 C 
BRANCH  11  12
ATOM     12  C   UNL     1      -2.433 -18.197   3.307  1.00  0.00    -0.003 C 
ATOM     13  C   UNL     1      -1.469 -18.986   2.426  1.00  0.00     0.004 C 
ENDBRANCH  11  12
ENDBRANCH  10  11
ENDBRANCH   9  10
ENDBRANCH   8   9
ENDBRANCH   1   8
TORSDOF 9
ENDMDL
MODEL 9
REMARK VINA RESULT:    -4.115     13.248     15.169
REMARK INTER + INTRA:          -6.517
REMARK INTER:                  -5.624
REMARK INTRA:                  -0.893
REMARK UNBOUND:                -0.238
REMARK SMILES CCCCCCCCCCC(=O)[O-]
REMARK SMILES IDX 7 1 8 2 9 3 10 4 11 5 12 6 13 7 6 8 5 9 4 10 3 11 2 12 1 13
REMARK H PARENT
REMARK Flexibility Score: inf
ROOT
ATOM      1  C   UNL     1      -7.645 -20.155  14.592  1.00  0.00     0.000 C 
ENDROOT
BRANCH   1   2
ATOM      2  C   UNL     1      -6.933 -20.559  15.895  1.00  0.00     0.000 C 
BRANCH   2   3
ATOM      3  C   UNL     1      -7.368 -21.951  16.396  1.00  0.00     0.006 C 
BRANCH   3   4
ATOM      4  C   UNL     1      -6.223 -22.978  16.426  1.00  0.00     0.053 C 
BRANCH   4   5
ATOM      5  C   UNL     1      -5.929 -23.541  15.071  1.00  0.00     0.041 C 
ATOM      6  O   UNL     1      -4.785 -23.997  14.809  1.00  0.00    -0.550 OA
ATOM      7  O   UNL     1      -6.926 -23.589  14.104  1.00  0.00    -0.550 OA
ENDBRANCH   4   5
ENDBRANCH   3   4
ENDBRANCH   2   3
ENDBRANCH   1   2
BRANCH   1   8
ATOM      8  C   UNL     1      -9.082 -20.701  14.500  1.00  0.00     0.000 C 
BRANCH   8   9
ATOM      9  C   UNL     1     -10.187 -19.668  14.787  1.00  0.00    -0.000 C 
BRANCH   9  10
ATOM     10  C   UNL     1     -11.371 -20.262  15.572  1.00  0.00    -0.000 C 
BRANCH  10  11
ATOM     11  C   UNL     1     -10.918 -21.150  16.741  1.00  0.00    -0.000 C 
BRANCH  11  12
ATOM     12  C   UNL     1     -10.868 -20.389  18.074  1.00  0.00    -0.003 C 
ATOM     13  C   UNL     1     -12.147 -19.586  18.296  1.00  0.00     0.004 C 
ENDBRANCH  11  12
ENDBRANCH  10  11
ENDBRANCH   9  10
ENDBRANCH   8   9
ENDBRANCH   1   8
TORSDOF 9
ENDMDL
