MODEL 1
REMARK VINA RESULT:    -3.962      0.000      0.000
REMARK INTER + INTRA:          -5.551
REMARK INTER:                  -5.235
REMARK INTRA:                  -0.315
REMARK UNBOUND:                -0.315
REMARK SMILES C=C[C@@H](O)CCCCC
REMARK SMILES IDX 6 1 7 2 8 3 9 4 5 5 3 6 2 7 1 8 4 9
REMARK H PARENT 4 10
REMARK Flexibility Score: inf
ROOT
ATOM      1  C   UNL     1     125.026 122.091 113.976  1.00  0.00     0.003 C 
ENDROOT
BRANCH   1   2
ATOM      2  C   UNL     1     124.679 121.891 112.493  1.00  0.00    -0.000 C 
BRANCH   2   3
ATOM      3  C   UNL     1     124.020 120.526 112.263  1.00  0.00    -0.003 C 
ATOM      4  C   UNL     1     122.614 120.681 111.691  1.00  0.00     0.004 C 
ENDBRANCH   2   3
ENDBRANCH   1   2
BRANCH   1   5
ATOM      5  C   UNL     1     126.501 122.465 114.208  1.00  0.00     0.036 C 
BRANCH   5   6
ATOM      6  C   UNL     1     127.174 121.643 115.326  1.00  0.00     0.136 C 
BRANCH   6   7
ATOM      7  C   UNL     1     127.358 120.209 114.890  1.00  0.00    -0.004 C 
ATOM      8  C   UNL     1     127.845 119.900 113.683  1.00  0.00     0.007 C 
ENDBRANCH   6   7
BRANCH   6   9
ATOM      9  O   UNL     1     128.432 122.195 115.618  1.00  0.00    -0.389 OA
ATOM     10  H   UNL     1     128.971 122.140 114.786  1.00  0.00     0.211 HD
ENDBRANCH   6   9
ENDBRANCH   5   6
ENDBRANCH   1   5
TORSDOF 6
ENDMDL
MODEL 2
REMARK VINA RESULT:    -3.803      2.986      4.976
REMARK INTER + INTRA:          -5.341
REMARK INTER:                  -4.920
REMARK INTRA:                  -0.421
REMARK UNBOUND:                -0.315
REMARK SMILES C=C[C@@H](O)CCCCC
REMARK SMILES IDX 6 1 7 2 8 3 9 4 5 5 3 6 2 7 1 8 4 9
REMARK H PARENT 4 10
REMARK Flexibility Score: inf
ROOT
ATOM      1  C   UNL     1     124.248 121.625 112.242  1.00  0.00     0.003 C 
ENDROOT
BRANCH   1   2
ATOM      2  C   UNL     1     124.976 122.182 113.475  1.00  0.00    -0.000 C 
BRANCH   2   3
ATOM      3  C   UNL     1     125.472 121.048 114.379  1.00  0.00    -0.003 C 
ATOM      4  C   UNL     1     126.988 121.100 114.551  1.00  0.00     0.004 C 
ENDBRANCH   2   3
ENDBRANCH   1   2
BRANCH   1   5
ATOM      5  C   UNL     1     123.978 120.113 112.331  1.00  0.00     0.036 C 
BRANCH   5   6
ATOM      6  C   UNL     1     122.553 119.716 111.893  1.00  0.00     0.136 C 
BRANCH   6   7
ATOM      7  C   UNL     1     121.801 119.096 113.046  1.00  0.00    -0.004 C 
ATOM      8  C   UNL     1     122.115 119.367 114.316  1.00  0.00     0.007 C 
ENDBRANCH   6   7
BRANCH   6   9
ATOM      9  O   UNL     1     121.862 120.859 111.460  1.00  0.00    -0.389 OA
ATOM     10  H   UNL     1     121.473 120.641 110.573  1.00  0.00     0.211 HD
ENDBRANCH   6   9
ENDBRANCH   5   6
ENDBRANCH   1   5
TORSDOF 6
ENDMDL
MODEL 3
REMARK VINA RESULT:    -3.759     17.431     18.279
REMARK INTER + INTRA:          -5.283
REMARK INTER:                  -4.991
REMARK INTRA:                  -0.292
REMARK UNBOUND:                -0.315
REMARK SMILES C=C[C@@H](O)CCCCC
REMARK SMILES IDX 6 1 7 2 8 3 9 4 5 5 3 6 2 7 1 8 4 9
REMARK H PARENT 4 10
REMARK Flexibility Score: inf
ROOT
ATOM      1  C   UNL     1     113.555 118.726 127.866  1.00  0.00     0.003 C 
ENDROOT
BRANCH   1   2
ATOM      2  C   UNL     1     114.983 118.718 128.431  1.00  0.00    -0.000 C 
BRANCH   2   3
ATOM      3  C   UNL     1     116.015 118.539 127.311  1.00  0.00    -0.003 C 
ATOM      4  C   UNL     1     116.841 117.273 127.519  1.00  0.00     0.004 C 
ENDBRANCH   2   3
ENDBRANCH   1   2
BRANCH   1   5
ATOM      5  C   UNL     1     113.499 118.450 126.354  1.00  0.00     0.036 C 
BRANCH   5   6
ATOM      6  C   UNL     1     112.146 118.816 125.711  1.00  0.00     0.136 C 
BRANCH   6   7
ATOM      7  C   UNL     1     112.290 120.040 124.839  1.00  0.00    -0.004 C 
ATOM      8  C   UNL     1     113.370 120.825 124.904  1.00  0.00     0.007 C 
ENDBRANCH   6   7
BRANCH   6   9
ATOM      9  O   UNL     1     111.697 117.745 124.922  1.00  0.00    -0.389 OA
ATOM     10  H   UNL     1     111.615 116.959 125.524  1.00  0.00     0.211 HD
ENDBRANCH   6   9
ENDBRANCH   5   6
ENDBRANCH   1   5
TORSDOF 6
ENDMDL
MODEL 4
REMARK VINA RESULT:    -3.749      1.776      2.079
REMARK INTER + INTRA:          -5.270
REMARK INTER:                  -4.898
REMARK INTRA:                  -0.372
REMARK UNBOUND:                -0.315
REMARK SMILES C=C[C@@H](O)CCCCC
REMARK SMILES IDX 6 1 7 2 8 3 9 4 5 5 3 6 2 7 1 8 4 9
REMARK H PARENT 4 10
REMARK Flexibility Score: inf
ROOT
ATOM      1  C   UNL     1     125.888 121.705 112.631  1.00  0.00     0.003 C 
ENDROOT
BRANCH   1   2
ATOM      2  C   UNL     1     124.386 121.804 112.325  1.00  0.00    -0.000 C 
BRANCH   2   3
ATOM      3  C   UNL     1     123.709 120.435 112.454  1.00  0.00    -0.003 C 
ATOM      4  C   UNL     1     122.455 120.355 111.588  1.00  0.00     0.004 C 
ENDBRANCH   2   3
ENDBRANCH   1   2
BRANCH   1   5
ATOM      5  C   UNL     1     126.414 120.259 112.626  1.00  0.00     0.036 C 
BRANCH   5   6
ATOM      6  C   UNL     1     127.578 120.025 113.610  1.00  0.00     0.136 C 
BRANCH   6   7
ATOM      7  C   UNL     1     127.175 119.038 114.679  1.00  0.00    -0.004 C 
ATOM      8  C   UNL     1     125.892 118.821 114.987  1.00  0.00     0.007 C 
ENDBRANCH   6   7
BRANCH   6   9
ATOM      9  O   UNL     1     128.685 119.516 112.913  1.00  0.00    -0.389 OA
ATOM     10  H   UNL     1     128.356 119.231 112.020  1.00  0.00     0.211 HD
ENDBRANCH   6   9
ENDBRANCH   5   6
ENDBRANCH   1   5
TORSDOF 6
ENDMDL
MODEL 5
REMARK VINA RESULT:    -3.715      3.891      5.426
REMARK INTER + INTRA:          -5.225
REMARK INTER:                  -4.680
REMARK INTRA:                  -0.546
REMARK UNBOUND:                -0.315
REMARK SMILES C=C[C@@H](O)CCCCC
REMARK SMILES IDX 6 1 7 2 8 3 9 4 5 5 3 6 2 7 1 8 4 9
REMARK H PARENT 4 10
REMARK Flexibility Score: inf
ROOT
ATOM      1  C   UNL     1     122.097 120.058 112.104  1.00  0.00     0.003 C 
ENDROOT
BRANCH   1   2
ATOM      2  C   UNL     1     123.295 120.986 111.853  1.00  0.00    -0.000 C 
BRANCH   2   3
ATOM      3  C   UNL     1     124.464 120.635 112.780  1.00  0.00    -0.003 C 
ATOM      4  C   UNL     1     124.914 121.850 113.587  1.00  0.00     0.004 C 
ENDBRANCH   2   3
ENDBRANCH   1   2
BRANCH   1   5
ATOM      5  C   UNL     1     122.500 118.695 112.695  1.00  0.00     0.036 C 
BRANCH   5   6
ATOM      6  C   UNL     1     121.626 118.261 113.889  1.00  0.00     0.136 C 
BRANCH   6   7
ATOM      7  C   UNL     1     121.469 119.399 114.870  1.00  0.00    -0.004 C 
ATOM      8  C   UNL     1     122.402 119.667 115.788  1.00  0.00     0.007 C 
ENDBRANCH   6   7
BRANCH   6   9
ATOM      9  O   UNL     1     120.356 117.881 113.425  1.00  0.00    -0.389 OA
ATOM     10  H   UNL     1     120.499 117.351 112.598  1.00  0.00     0.211 HD
ENDBRANCH   6   9
ENDBRANCH   5   6
ENDBRANCH   1   5
TORSDOF 6
ENDMDL
MODEL 6
REMARK VINA RESULT:    -3.708     16.679     17.466
REMARK INTER + INTRA:          -5.215
REMARK INTER:                  -5.100
REMARK INTRA:                  -0.115
REMARK UNBOUND:                -0.315
REMARK SMILES C=C[C@@H](O)CCCCC
REMARK SMILES IDX 6 1 7 2 8 3 9 4 5 5 3 6 2 7 1 8 4 9
REMARK H PARENT 4 10
REMARK Flexibility Score: inf
ROOT
ATOM      1  C   UNL     1     111.612 119.821 123.539  1.00  0.00     0.003 C 
ENDROOT
BRANCH   1   2
ATOM      2  C   UNL     1     112.300 119.926 122.170  1.00  0.00    -0.000 C 
BRANCH   2   3
ATOM      3  C   UNL     1     111.275 120.164 121.056  1.00  0.00    -0.003 C 
ATOM      4  C   UNL     1     111.705 121.311 120.146  1.00  0.00     0.004 C 
ENDBRANCH   2   3
ENDBRANCH   1   2
BRANCH   1   5
ATOM      5  C   UNL     1     112.585 119.976 124.721  1.00  0.00     0.036 C 
BRANCH   5   6
ATOM      6  C   UNL     1     112.746 118.690 125.557  1.00  0.00     0.136 C 
BRANCH   6   7
ATOM      7  C   UNL     1     112.671 119.006 127.032  1.00  0.00    -0.004 C 
ATOM      8  C   UNL     1     113.744 118.918 127.824  1.00  0.00     0.007 C 
ENDBRANCH   6   7
BRANCH   6   9
ATOM      9  O   UNL     1     111.719 117.789 125.231  1.00  0.00    -0.389 OA
ATOM     10  H   UNL     1     111.534 117.903 124.262  1.00  0.00     0.211 HD
ENDBRANCH   6   9
ENDBRANCH   5   6
ENDBRANCH   1   5
TORSDOF 6
ENDMDL
MODEL 7
REMARK VINA RESULT:    -3.677     15.645     16.766
REMARK INTER + INTRA:          -5.174
REMARK INTER:                  -4.865
REMARK INTRA:                  -0.310
REMARK UNBOUND:                -0.315
REMARK SMILES C=C[C@@H](O)CCCCC
REMARK SMILES IDX 6 1 7 2 8 3 9 4 5 5 3 6 2 7 1 8 4 9
REMARK H PARENT 4 10
REMARK Flexibility Score: inf
ROOT
ATOM      1  C   UNL     1     112.004 119.780 124.148  1.00  0.00     0.003 C 
ENDROOT
BRANCH   1   2
ATOM      2  C   UNL     1     111.935 118.477 124.959  1.00  0.00    -0.000 C 
BRANCH   2   3
ATOM      3  C   UNL     1     112.935 118.499 126.120  1.00  0.00    -0.003 C 
ATOM      4  C   UNL     1     114.211 119.243 125.736  1.00  0.00     0.004 C 
ENDBRANCH   2   3
ENDBRANCH   1   2
BRANCH   1   5
ATOM      5  C   UNL     1     111.654 119.589 122.662  1.00  0.00     0.036 C 
BRANCH   5   6
ATOM      6  C   UNL     1     112.809 119.953 121.707  1.00  0.00     0.136 C 
BRANCH   6   7
ATOM      7  C   UNL     1     113.267 121.372 121.950  1.00  0.00    -0.004 C 
ATOM      8  C   UNL     1     113.238 122.293 120.982  1.00  0.00     0.007 C 
ENDBRANCH   6   7
BRANCH   6   9
ATOM      9  O   UNL     1     113.888 119.082 121.926  1.00  0.00    -0.389 OA
ATOM     10  H   UNL     1     113.503 118.213 122.212  1.00  0.00     0.211 HD
ENDBRANCH   6   9
ENDBRANCH   5   6
ENDBRANCH   1   5
TORSDOF 6
ENDMDL
MODEL 8
REMARK VINA RESULT:    -3.671     17.233     18.261
REMARK INTER + INTRA:          -5.167
REMARK INTER:                  -5.023
REMARK INTRA:                  -0.144
REMARK UNBOUND:                -0.315
REMARK SMILES C=C[C@@H](O)CCCCC
REMARK SMILES IDX 6 1 7 2 8 3 9 4 5 5 3 6 2 7 1 8 4 9
REMARK H PARENT 4 10
REMARK Flexibility Score: inf
ROOT
ATOM      1  C   UNL     1     113.671 119.103 125.913  1.00  0.00     0.003 C 
ENDROOT
BRANCH   1   2
ATOM      2  C   UNL     1     113.496 119.080 127.439  1.00  0.00    -0.000 C 
BRANCH   2   3
ATOM      3  C   UNL     1     114.413 118.034 128.081  1.00  0.00    -0.003 C 
ATOM      4  C   UNL     1     115.641 118.687 128.711  1.00  0.00     0.004 C 
ENDBRANCH   2   3
ENDBRANCH   1   2
BRANCH   1   5
ATOM      5  C   UNL     1     112.577 119.906 125.189  1.00  0.00     0.036 C 
BRANCH   5   6
ATOM      6  C   UNL     1     111.608 119.027 124.372  1.00  0.00     0.136 C 
BRANCH   6   7
ATOM      7  C   UNL     1     111.931 119.115 122.899  1.00  0.00    -0.004 C 
ATOM      8  C   UNL     1     111.645 120.208 122.183  1.00  0.00     0.007 C 
ENDBRANCH   6   7
BRANCH   6   9
ATOM      9  O   UNL     1     111.729 117.690 124.785  1.00  0.00    -0.389 OA
ATOM     10  H   UNL     1     110.807 117.354 124.943  1.00  0.00     0.211 HD
ENDBRANCH   6   9
ENDBRANCH   5   6
ENDBRANCH   1   5
TORSDOF 6
ENDMDL
MODEL 9
REMARK VINA RESULT:    -3.598     16.839     17.581
REMARK INTER + INTRA:          -5.070
REMARK INTER:                  -4.509
REMARK INTRA:                  -0.562
REMARK UNBOUND:                -0.315
REMARK SMILES C=C[C@@H](O)CCCCC
REMARK SMILES IDX 6 1 7 2 8 3 9 4 5 5 3 6 2 7 1 8 4 9
REMARK H PARENT 4 10
REMARK Flexibility Score: inf
ROOT
ATOM      1  C   UNL     1     112.782 118.383 126.140  1.00  0.00     0.003 C 
ENDROOT
BRANCH   1   2
ATOM      2  C   UNL     1     113.038 119.060 127.495  1.00  0.00    -0.000 C 
BRANCH   2   3
ATOM      3  C   UNL     1     114.165 118.354 128.257  1.00  0.00    -0.003 C 
ATOM      4  C   UNL     1     115.054 117.552 127.311  1.00  0.00     0.004 C 
ENDBRANCH   2   3
ENDBRANCH   1   2
BRANCH   1   5
ATOM      5  C   UNL     1     112.399 119.375 125.029  1.00  0.00     0.036 C 
BRANCH   5   6
ATOM      6  C   UNL     1     113.421 120.516 124.844  1.00  0.00     0.136 C 
BRANCH   6   7
ATOM      7  C   UNL     1     114.697 119.987 124.233  1.00  0.00    -0.004 C 
ATOM      8  C   UNL     1     115.890 120.224 124.786  1.00  0.00     0.007 C 
ENDBRANCH   6   7
BRANCH   6   9
ATOM      9  O   UNL     1     112.881 121.495 123.995  1.00  0.00    -0.389 OA
ATOM     10  H   UNL     1     113.441 122.308 124.101  1.00  0.00     0.211 HD
ENDBRANCH   6   9
ENDBRANCH   5   6
ENDBRANCH   1   5
TORSDOF 6
ENDMDL
