MODEL 1
REMARK VINA RESULT:    -6.003      0.000      0.000
REMARK INTER + INTRA:         -11.141
REMARK INTER:                  -9.864
REMARK INTRA:                  -1.277
REMARK UNBOUND:                -1.277
REMARK SMILES C[C@@H]1O[C@@H](OC[C@H]2O[C@@H](Oc3c(-c4ccc(O)c(O)c4)oc4cc(O)cc(O)c4c3=O)[C@H](O)[C@H](O)[C@H]2O)[C@H](O)[C@H](O)[C@@H]1O
REMARK SMILES IDX 7 1 36 2 34 3 32 4 9 5 8 6 6 7 5 8 4 9 1 10 2 11 42 12 3 13
REMARK SMILES IDX 40 14 38 15 43 16 41 18 39 20 37 22 35 24 10 26 11 27 12 28
REMARK SMILES IDX 30 29 21 30 29 31 31 32 22 33 27 34 23 35 26 36 24 37 13 38
REMARK SMILES IDX 20 39 14 40 18 41 15 42 16 43 19 44 17 46 28 48 25 50 33 52
REMARK H PARENT 43 17 41 19 39 21 37 23 35 25 19 45 17 47 28 49 25 51 33 53
REMARK Flexibility Score: inf
ROOT
ATOM      1  C   UNL     1      -7.105  -6.090  22.496  1.00  0.00     0.180 C 
ATOM      2  C   UNL     1      -7.959  -7.352  22.929  1.00  0.00     0.177 C 
ATOM      3  C   UNL     1      -8.286  -7.427  24.436  1.00  0.00     0.180 C 
ATOM      4  C   UNL     1      -7.366  -6.454  25.250  1.00  0.00     0.214 C 
ATOM      5  C   UNL     1      -5.959  -6.531  24.587  1.00  0.00     0.339 C 
ATOM      6  O   UNL     1      -6.053  -5.759  23.381  1.00  0.00    -0.332 OA
ENDROOT
BRANCH   1   7
ATOM      7  C   UNL     1      -7.965  -4.806  22.237  1.00  0.00     0.198 C 
BRANCH   7   8
ATOM      8  O   UNL     1      -8.393  -4.716  20.875  1.00  0.00    -0.347 OA
BRANCH   8   9
ATOM      9  C   UNL     1      -7.998  -3.469  20.302  1.00  0.00     0.281 C 
ATOM     10  C   UNL     1      -8.657  -0.481  20.331  1.00  0.00     0.041 C 
ATOM     11  C   UNL     1      -8.797  -1.511  19.158  1.00  0.00     0.150 C 
ATOM     12  C   UNL     1      -7.633  -1.595  18.144  1.00  0.00     0.174 C 
ATOM     13  O   UNL     1      -9.124  -2.821  19.702  1.00  0.00    -0.344 OA
ATOM     14  C   UNL     1      -6.427  -2.476  18.551  1.00  0.00     0.179 C 
ATOM     15  C   UNL     1      -6.909  -3.764  19.259  1.00  0.00     0.202 C 
BRANCH  12  16
ATOM     16  O   UNL     1      -7.248  -0.352  17.618  1.00  0.00    -0.388 OA
ATOM     17  H   UNL     1      -6.293  -0.175  17.847  1.00  0.00     0.211 HD
ENDBRANCH  12  16
BRANCH  14  18
ATOM     18  O   UNL     1      -5.498  -1.734  19.309  1.00  0.00    -0.387 OA
ATOM     19  H   UNL     1      -5.964  -1.045  19.882  1.00  0.00     0.211 HD
ENDBRANCH  14  18
BRANCH  15  20
ATOM     20  O   UNL     1      -5.825  -4.467  19.831  1.00  0.00    -0.385 OA
ATOM     21  H   UNL     1      -5.222  -4.724  19.097  1.00  0.00     0.211 HD
ENDBRANCH  15  20
ENDBRANCH   8   9
ENDBRANCH   7   8
ENDBRANCH   1   7
BRANCH   2  22
ATOM     22  O   UNL     1      -9.125  -7.448  22.156  1.00  0.00    -0.387 OA
ATOM     23  H   UNL     1      -9.849  -7.743  22.777  1.00  0.00     0.211 HD
ENDBRANCH   2  22
BRANCH   3  24
ATOM     24  O   UNL     1      -8.168  -8.762  24.900  1.00  0.00    -0.387 OA
ATOM     25  H   UNL     1      -8.952  -9.263  24.581  1.00  0.00     0.211 HD
ENDBRANCH   3  24
BRANCH   5  26
ATOM     26  O   UNL     1      -4.840  -5.979  25.366  1.00  0.00    -0.454 OA
BRANCH  26  27
ATOM     27  C   UNL     1      -3.713  -6.626  25.873  1.00  0.00     0.214 A 
ATOM     28  C   UNL     1      -3.132  -7.798  25.293  1.00  0.00     0.180 A 
ATOM     29  C   UNL     1      -3.123  -6.139  27.072  1.00  0.00     0.239 A 
ATOM     30  O   UNL     1      -2.166  -8.457  25.918  1.00  0.00    -0.452 OA
ATOM     31  C   UNL     1      -2.074  -6.876  27.683  1.00  0.00     0.111 A 
ATOM     32  O   UNL     1      -3.583  -5.093  27.653  1.00  0.00    -0.285 OA
ATOM     33  C   UNL     1      -1.647  -8.085  27.067  1.00  0.00     0.146 A 
ATOM     34  C   UNL     1      -1.381  -6.411  28.828  1.00  0.00     0.134 A 
ATOM     35  C   UNL     1      -0.674  -8.873  27.668  1.00  0.00     0.094 A 
ATOM     36  C   UNL     1      -0.334  -7.177  29.396  1.00  0.00     0.093 A 
ATOM     37  C   UNL     1      -0.007  -8.414  28.833  1.00  0.00     0.123 A 
BRANCH  28  38
ATOM     38  C   UNL     1      -3.594  -8.307  23.971  1.00  0.00     0.025 A 
ATOM     39  C   UNL     1      -3.182  -7.715  22.760  1.00  0.00     0.062 A 
ATOM     40  C   UNL     1      -4.532  -9.342  23.888  1.00  0.00     0.016 A 
ATOM     41  C   UNL     1      -3.921  -7.874  21.585  1.00  0.00     0.158 A 
ATOM     42  C   UNL     1      -5.308  -9.536  22.734  1.00  0.00     0.051 A 
ATOM     43  C   UNL     1      -5.031  -8.785  21.588  1.00  0.00     0.157 A 
BRANCH  41  44
ATOM     44  O   UNL     1      -3.530  -7.164  20.439  1.00  0.00    -0.504 OA
ATOM     45  H   UNL     1      -4.043  -6.403  20.022  1.00  0.00     0.293 HD
ENDBRANCH  41  44
BRANCH  43  46
ATOM     46  O   UNL     1      -5.829  -8.970  20.437  1.00  0.00    -0.504 OA
ATOM     47  H   UNL     1      -5.965  -9.881  20.052  1.00  0.00     0.293 HD
ENDBRANCH  43  46
ENDBRANCH  28  38
BRANCH  34  48
ATOM     48  O   UNL     1      -1.722  -5.188  29.419  1.00  0.00    -0.507 OA
ATOM     49  H   UNL     1      -2.673  -4.825  29.361  1.00  0.00     0.293 HD
ENDBRANCH  34  48
BRANCH  37  50
ATOM     50  O   UNL     1       0.971  -9.206  29.443  1.00  0.00    -0.508 OA
ATOM     51  H   UNL     1       1.489  -9.892  28.877  1.00  0.00     0.293 HD
ENDBRANCH  37  50
ENDBRANCH  26  27
ENDBRANCH   5  26
BRANCH   4  52
ATOM     52  O   UNL     1      -7.441  -6.784  26.600  1.00  0.00    -0.384 OA
ATOM     53  H   UNL     1      -8.297  -7.312  26.723  1.00  0.00     0.211 HD
ENDBRANCH   4  52
TORSDOF 16
ENDMDL
MODEL 2
REMARK VINA RESULT:    -5.748      2.384      9.533
REMARK INTER + INTRA:         -10.722
REMARK INTER:                  -8.876
REMARK INTRA:                  -1.846
REMARK UNBOUND:                -1.277
REMARK SMILES C[C@@H]1O[C@@H](OC[C@H]2O[C@@H](Oc3c(-c4ccc(O)c(O)c4)oc4cc(O)cc(O)c4c3=O)[C@H](O)[C@H](O)[C@H]2O)[C@H](O)[C@H](O)[C@@H]1O
REMARK SMILES IDX 7 1 36 2 34 3 32 4 9 5 8 6 6 7 5 8 4 9 1 10 2 11 42 12 3 13
REMARK SMILES IDX 40 14 38 15 43 16 41 18 39 20 37 22 35 24 10 26 11 27 12 28
REMARK SMILES IDX 30 29 21 30 29 31 31 32 22 33 27 34 23 35 26 36 24 37 13 38
REMARK SMILES IDX 20 39 14 40 18 41 15 42 16 43 19 44 17 46 28 48 25 50 33 52
REMARK H PARENT 43 17 41 19 39 21 37 23 35 25 19 45 17 47 28 49 25 51 33 53
REMARK Flexibility Score: inf
ROOT
ATOM      1  C   UNL     1      -2.599  -7.143  26.534  1.00  0.00     0.180 C 
ATOM      2  C   UNL     1      -3.432  -7.549  27.819  1.00  0.00     0.177 C 
ATOM      3  C   UNL     1      -4.287  -8.825  27.659  1.00  0.00     0.180 C 
ATOM      4  C   UNL     1      -4.444  -9.199  26.145  1.00  0.00     0.214 C 
ATOM      5  C   UNL     1      -4.611  -7.852  25.380  1.00  0.00     0.339 C 
ATOM      6  O   UNL     1      -3.297  -7.279  25.312  1.00  0.00    -0.332 OA
ENDROOT
BRANCH   1   7
ATOM      7  C   UNL     1      -1.226  -7.888  26.412  1.00  0.00     0.198 C 
BRANCH   7   8
ATOM      8  O   UNL     1      -0.575  -8.018  27.679  1.00  0.00    -0.347 OA
BRANCH   8   9
ATOM      9  C   UNL     1       0.686  -7.349  27.672  1.00  0.00     0.281 C 
ATOM     10  C   UNL     1       2.925  -6.434  25.796  1.00  0.00     0.041 C 
ATOM     11  C   UNL     1       2.971  -7.506  26.939  1.00  0.00     0.150 C 
ATOM     12  C   UNL     1       3.476  -7.044  28.325  1.00  0.00     0.174 C 
ATOM     13  O   UNL     1       1.676  -8.164  27.037  1.00  0.00    -0.344 OA
ATOM     14  C   UNL     1       2.438  -6.356  29.243  1.00  0.00     0.179 C 
ATOM     15  C   UNL     1       1.064  -7.059  29.133  1.00  0.00     0.202 C 
BRANCH  12  16
ATOM     16  O   UNL     1       4.704  -6.366  28.285  1.00  0.00    -0.388 OA
ATOM     17  H   UNL     1       5.448  -7.028  28.238  1.00  0.00     0.211 HD
ENDBRANCH  12  16
BRANCH  14  18
ATOM     18  O   UNL     1       2.380  -4.971  28.984  1.00  0.00    -0.387 OA
ATOM     19  H   UNL     1       1.485  -4.711  28.596  1.00  0.00     0.211 HD
ENDBRANCH  14  18
BRANCH  15  20
ATOM     20  O   UNL     1       0.057  -6.314  29.786  1.00  0.00    -0.385 OA
ATOM     21  H   UNL     1       0.087  -6.553  30.740  1.00  0.00     0.211 HD
ENDBRANCH  15  20
ENDBRANCH   8   9
ENDBRANCH   7   8
ENDBRANCH   1   7
BRANCH   2  22
ATOM     22  O   UNL     1      -2.596  -7.642  28.940  1.00  0.00    -0.387 OA
ATOM     23  H   UNL     1      -2.424  -8.615  29.082  1.00  0.00     0.211 HD
ENDBRANCH   2  22
BRANCH   3  24
ATOM     24  O   UNL     1      -5.548  -8.653  28.284  1.00  0.00    -0.387 OA
ATOM     25  H   UNL     1      -5.795  -7.704  28.211  1.00  0.00     0.211 HD
ENDBRANCH   3  24
BRANCH   5  26
ATOM     26  O   UNL     1      -5.115  -7.943  24.001  1.00  0.00    -0.454 OA
BRANCH  26  27
ATOM     27  C   UNL     1      -5.849  -7.013  23.266  1.00  0.00     0.214 A 
ATOM     28  C   UNL     1      -7.265  -6.841  23.377  1.00  0.00     0.180 A 
ATOM     29  C   UNL     1      -5.175  -6.214  22.302  1.00  0.00     0.239 A 
ATOM     30  O   UNL     1      -7.921  -6.059  22.532  1.00  0.00    -0.452 OA
ATOM     31  C   UNL     1      -5.931  -5.374  21.440  1.00  0.00     0.111 A 
ATOM     32  O   UNL     1      -3.906  -6.306  22.143  1.00  0.00    -0.285 OA
ATOM     33  C   UNL     1      -7.347  -5.364  21.575  1.00  0.00     0.146 A 
ATOM     34  C   UNL     1      -5.327  -4.488  20.515  1.00  0.00     0.134 A 
ATOM     35  C   UNL     1      -8.129  -4.613  20.708  1.00  0.00     0.094 A 
ATOM     36  C   UNL     1      -6.122  -3.663  19.684  1.00  0.00     0.093 A 
ATOM     37  C   UNL     1      -7.516  -3.752  19.762  1.00  0.00     0.123 A 
BRANCH  28  38
ATOM     38  C   UNL     1      -8.038  -7.534  24.446  1.00  0.00     0.025 A 
ATOM     39  C   UNL     1      -8.282  -6.934  25.698  1.00  0.00     0.062 A 
ATOM     40  C   UNL     1      -8.476  -8.852  24.274  1.00  0.00     0.016 A 
ATOM     41  C   UNL     1      -8.595  -7.700  26.823  1.00  0.00     0.158 A 
ATOM     42  C   UNL     1      -8.792  -9.667  25.373  1.00  0.00     0.051 A 
ATOM     43  C   UNL     1      -8.822  -9.108  26.655  1.00  0.00     0.157 A 
BRANCH  41  44
ATOM     44  O   UNL     1      -8.708  -7.060  28.067  1.00  0.00    -0.504 OA
ATOM     45  H   UNL     1      -8.180  -6.252  28.356  1.00  0.00     0.293 HD
ENDBRANCH  41  44
BRANCH  43  46
ATOM     46  O   UNL     1      -9.120  -9.938  27.758  1.00  0.00    -0.504 OA
ATOM     47  H   UNL     1      -9.784  -9.653  28.446  1.00  0.00     0.293 HD
ENDBRANCH  43  46
ENDBRANCH  28  38
BRANCH  34  48
ATOM     48  O   UNL     1      -3.932  -4.415  20.406  1.00  0.00    -0.507 OA
ATOM     49  H   UNL     1      -3.343  -5.202  20.677  1.00  0.00     0.293 HD
ENDBRANCH  34  48
BRANCH  37  50
ATOM     50  O   UNL     1      -8.299  -2.997  18.884  1.00  0.00    -0.508 OA
ATOM     51  H   UNL     1      -8.669  -3.439  18.031  1.00  0.00     0.293 HD
ENDBRANCH  37  50
ENDBRANCH  26  27
ENDBRANCH   5  26
BRANCH   4  52
ATOM     52  O   UNL     1      -5.476 -10.125  26.013  1.00  0.00    -0.384 OA
ATOM     53  H   UNL     1      -5.275 -10.666  25.180  1.00  0.00     0.211 HD
ENDBRANCH   4  52
TORSDOF 16
ENDMDL
MODEL 3
REMARK VINA RESULT:    -4.706     12.284     17.577
REMARK INTER + INTRA:          -9.010
REMARK INTER:                  -8.846
REMARK INTRA:                  -0.165
REMARK UNBOUND:                -1.277
REMARK SMILES C[C@@H]1O[C@@H](OC[C@H]2O[C@@H](Oc3c(-c4ccc(O)c(O)c4)oc4cc(O)cc(O)c4c3=O)[C@H](O)[C@H](O)[C@H]2O)[C@H](O)[C@H](O)[C@@H]1O
REMARK SMILES IDX 7 1 36 2 34 3 32 4 9 5 8 6 6 7 5 8 4 9 1 10 2 11 42 12 3 13
REMARK SMILES IDX 40 14 38 15 43 16 41 18 39 20 37 22 35 24 10 26 11 27 12 28
REMARK SMILES IDX 30 29 21 30 29 31 31 32 22 33 27 34 23 35 26 36 24 37 13 38
REMARK SMILES IDX 20 39 14 40 18 41 15 42 16 43 19 44 17 46 28 48 25 50 33 52
REMARK H PARENT 43 17 41 19 39 21 37 23 35 25 19 45 17 47 28 49 25 51 33 53
REMARK Flexibility Score: inf
ROOT
ATOM      1  C   UNL     1      -2.355   4.598  17.254  1.00  0.00     0.180 C 
ATOM      2  C   UNL     1      -3.429   3.436  17.171  1.00  0.00     0.177 C 
ATOM      3  C   UNL     1      -3.802   3.001  15.736  1.00  0.00     0.180 C 
ATOM      4  C   UNL     1      -3.332   4.074  14.695  1.00  0.00     0.214 C 
ATOM      5  C   UNL     1      -3.589   5.462  15.354  1.00  0.00     0.339 C 
ATOM      6  O   UNL     1      -2.536   5.637  16.313  1.00  0.00    -0.332 OA
ENDROOT
BRANCH   1   7
ATOM      7  C   UNL     1      -0.874   4.093  17.166  1.00  0.00     0.198 C 
BRANCH   7   8
ATOM      8  O   UNL     1      -0.064   4.627  18.217  1.00  0.00    -0.347 OA
BRANCH   8   9
ATOM      9  C   UNL     1       0.181   6.018  18.011  1.00  0.00     0.281 C 
ATOM     10  C   UNL     1       0.096   8.193  15.858  1.00  0.00     0.041 C 
ATOM     11  C   UNL     1       1.333   7.609  16.624  1.00  0.00     0.150 C 
ATOM     12  C   UNL     1       1.825   8.379  17.870  1.00  0.00     0.174 C 
ATOM     13  O   UNL     1       1.096   6.205  16.926  1.00  0.00    -0.344 OA
ATOM     14  C   UNL     1       1.082   8.093  19.196  1.00  0.00     0.179 C 
ATOM     15  C   UNL     1       0.751   6.586  19.319  1.00  0.00     0.202 C 
BRANCH  12  16
ATOM     16  O   UNL     1       2.032   9.750  17.645  1.00  0.00    -0.388 OA
ATOM     17  H   UNL     1       1.737  10.266  18.446  1.00  0.00     0.211 HD
ENDBRANCH  12  16
BRANCH  14  18
ATOM     18  O   UNL     1      -0.047   8.926  19.328  1.00  0.00    -0.387 OA
ATOM     19  H   UNL     1      -0.566   8.705  20.166  1.00  0.00     0.211 HD
ENDBRANCH  14  18
BRANCH  15  20
ATOM     20  O   UNL     1      -0.116   6.343  20.407  1.00  0.00    -0.385 OA
ATOM     21  H   UNL     1      -0.425   7.216  20.738  1.00  0.00     0.211 HD
ENDBRANCH  15  20
ENDBRANCH   8   9
ENDBRANCH   7   8
ENDBRANCH   1   7
BRANCH   2  22
ATOM     22  O   UNL     1      -3.028   2.336  17.942  1.00  0.00    -0.387 OA
ATOM     23  H   UNL     1      -3.599   2.346  18.761  1.00  0.00     0.211 HD
ENDBRANCH   2  22
BRANCH   3  24
ATOM     24  O   UNL     1      -5.196   2.762  15.642  1.00  0.00    -0.387 OA
ATOM     25  H   UNL     1      -5.663   3.569  15.955  1.00  0.00     0.211 HD
ENDBRANCH   3  24
BRANCH   5  26
ATOM     26  O   UNL     1      -3.554   6.626  14.457  1.00  0.00    -0.454 OA
BRANCH  26  27
ATOM     27  C   UNL     1      -4.611   7.362  13.923  1.00  0.00     0.214 A 
ATOM     28  C   UNL     1      -5.811   7.677  14.638  1.00  0.00     0.180 A 
ATOM     29  C   UNL     1      -4.537   7.787  12.567  1.00  0.00     0.239 A 
ATOM     30  O   UNL     1      -6.842   8.233  14.018  1.00  0.00    -0.452 OA
ATOM     31  C   UNL     1      -5.667   8.400  11.965  1.00  0.00     0.111 A 
ATOM     32  O   UNL     1      -3.495   7.545  11.860  1.00  0.00    -0.285 OA
ATOM     33  C   UNL     1      -6.844   8.569  12.748  1.00  0.00     0.146 A 
ATOM     34  C   UNL     1      -5.641   8.926  10.650  1.00  0.00     0.134 A 
ATOM     35  C   UNL     1      -7.994   9.099  12.179  1.00  0.00     0.094 A 
ATOM     36  C   UNL     1      -6.791   9.538  10.096  1.00  0.00     0.093 A 
ATOM     37  C   UNL     1      -7.968   9.594  10.849  1.00  0.00     0.123 A 
BRANCH  28  38
ATOM     38  C   UNL     1      -5.930   7.392  16.095  1.00  0.00     0.025 A 
ATOM     39  C   UNL     1      -5.729   6.099  16.620  1.00  0.00     0.062 A 
ATOM     40  C   UNL     1      -6.337   8.387  16.989  1.00  0.00     0.016 A 
ATOM     41  C   UNL     1      -6.255   5.729  17.860  1.00  0.00     0.158 A 
ATOM     42  C   UNL     1      -6.883   8.066  18.243  1.00  0.00     0.051 A 
ATOM     43  C   UNL     1      -6.876   6.736  18.673  1.00  0.00     0.157 A 
BRANCH  41  44
ATOM     44  O   UNL     1      -6.126   4.394  18.277  1.00  0.00    -0.504 OA
ATOM     45  H   UNL     1      -6.445   3.590  17.761  1.00  0.00     0.293 HD
ENDBRANCH  41  44
BRANCH  43  46
ATOM     46  O   UNL     1      -7.446   6.417  19.925  1.00  0.00    -0.504 OA
ATOM     47  H   UNL     1      -7.483   5.471  20.242  1.00  0.00     0.293 HD
ENDBRANCH  43  46
ENDBRANCH  28  38
BRANCH  34  48
ATOM     48  O   UNL     1      -4.476   8.846   9.875  1.00  0.00    -0.507 OA
ATOM     49  H   UNL     1      -3.980   7.963   9.765  1.00  0.00     0.293 HD
ENDBRANCH  34  48
BRANCH  37  50
ATOM     50  O   UNL     1      -9.125  10.125  10.272  1.00  0.00    -0.508 OA
ATOM     51  H   UNL     1     -10.009   9.603  10.343  1.00  0.00     0.293 HD
ENDBRANCH  37  50
ENDBRANCH  26  27
ENDBRANCH   5  26
BRANCH   4  52
ATOM     52  O   UNL     1      -3.967   3.831  13.479  1.00  0.00    -0.384 OA
ATOM     53  H   UNL     1      -3.249   3.529  12.831  1.00  0.00     0.211 HD
ENDBRANCH   4  52
TORSDOF 16
ENDMDL
MODEL 4
REMARK VINA RESULT:    -4.312      1.924      7.867
REMARK INTER + INTRA:          -8.362
REMARK INTER:                  -6.949
REMARK INTRA:                  -1.413
REMARK UNBOUND:                -1.277
REMARK SMILES C[C@@H]1O[C@@H](OC[C@H]2O[C@@H](Oc3c(-c4ccc(O)c(O)c4)oc4cc(O)cc(O)c4c3=O)[C@H](O)[C@H](O)[C@H]2O)[C@H](O)[C@H](O)[C@@H]1O
REMARK SMILES IDX 7 1 36 2 34 3 32 4 9 5 8 6 6 7 5 8 4 9 1 10 2 11 42 12 3 13
REMARK SMILES IDX 40 14 38 15 43 16 41 18 39 20 37 22 35 24 10 26 11 27 12 28
REMARK SMILES IDX 30 29 21 30 29 31 31 32 22 33 27 34 23 35 26 36 24 37 13 38
REMARK SMILES IDX 20 39 14 40 18 41 15 42 16 43 19 44 17 46 28 48 25 50 33 52
REMARK H PARENT 43 17 41 19 39 21 37 23 35 25 19 45 17 47 28 49 25 51 33 53
REMARK Flexibility Score: inf
ROOT
ATOM      1  C   UNL     1      -3.519  -7.962  21.201  1.00  0.00     0.180 C 
ATOM      2  C   UNL     1      -2.918  -6.764  20.356  1.00  0.00     0.177 C 
ATOM      3  C   UNL     1      -3.478  -5.371  20.720  1.00  0.00     0.180 C 
ATOM      4  C   UNL     1      -4.793  -5.506  21.560  1.00  0.00     0.214 C 
ATOM      5  C   UNL     1      -5.578  -6.705  20.949  1.00  0.00     0.339 C 
ATOM      6  O   UNL     1      -4.913  -7.887  21.422  1.00  0.00    -0.332 OA
ENDROOT
BRANCH   1   7
ATOM      7  C   UNL     1      -2.804  -8.182  22.577  1.00  0.00     0.198 C 
BRANCH   7   8
ATOM      8  O   UNL     1      -3.726  -8.150  23.670  1.00  0.00    -0.347 OA
BRANCH   8   9
ATOM      9  C   UNL     1      -3.080  -7.712  24.865  1.00  0.00     0.281 C 
ATOM     10  C   UNL     1      -0.453  -7.951  26.417  1.00  0.00     0.041 C 
ATOM     11  C   UNL     1      -1.884  -8.452  26.816  1.00  0.00     0.150 C 
ATOM     12  C   UNL     1      -2.733  -7.530  27.720  1.00  0.00     0.174 C 
ATOM     13  O   UNL     1      -2.612  -8.838  25.616  1.00  0.00    -0.344 OA
ATOM     14  C   UNL     1      -3.511  -6.396  27.011  1.00  0.00     0.179 C 
ATOM     15  C   UNL     1      -4.102  -6.897  25.672  1.00  0.00     0.202 C 
BRANCH  12  16
ATOM     16  O   UNL     1      -2.063  -7.094  28.874  1.00  0.00    -0.388 OA
ATOM     17  H   UNL     1      -2.312  -7.678  29.643  1.00  0.00     0.211 HD
ENDBRANCH  12  16
BRANCH  14  18
ATOM     18  O   UNL     1      -2.706  -5.247  26.872  1.00  0.00    -0.387 OA
ATOM     19  H   UNL     1      -2.954  -4.728  26.042  1.00  0.00     0.211 HD
ENDBRANCH  14  18
BRANCH  15  20
ATOM     20  O   UNL     1      -4.621  -5.825  24.912  1.00  0.00    -0.385 OA
ATOM     21  H   UNL     1      -4.836  -6.176  24.018  1.00  0.00     0.211 HD
ENDBRANCH  15  20
ENDBRANCH   8   9
ENDBRANCH   7   8
ENDBRANCH   1   7
BRANCH   2  22
ATOM     22  O   UNL     1      -1.518  -6.774  20.412  1.00  0.00    -0.387 OA
ATOM     23  H   UNL     1      -1.215  -7.444  19.735  1.00  0.00     0.211 HD
ENDBRANCH   2  22
BRANCH   3  24
ATOM     24  O   UNL     1      -3.688  -4.604  19.546  1.00  0.00    -0.387 OA
ATOM     25  H   UNL     1      -4.504  -4.069  19.677  1.00  0.00     0.211 HD
ENDBRANCH   3  24
BRANCH   5  26
ATOM     26  O   UNL     1      -6.993  -6.823  21.333  1.00  0.00    -0.454 OA
BRANCH  26  27
ATOM     27  C   UNL     1      -7.565  -6.827  22.605  1.00  0.00     0.214 A 
ATOM     28  C   UNL     1      -8.380  -5.769  23.121  1.00  0.00     0.180 A 
ATOM     29  C   UNL     1      -7.290  -7.916  23.478  1.00  0.00     0.239 A 
ATOM     30  O   UNL     1      -8.753  -5.761  24.392  1.00  0.00    -0.452 OA
ATOM     31  C   UNL     1      -7.738  -7.860  24.825  1.00  0.00     0.111 A 
ATOM     32  O   UNL     1      -6.571  -8.903  23.090  1.00  0.00    -0.285 OA
ATOM     33  C   UNL     1      -8.453  -6.707  25.254  1.00  0.00     0.146 A 
ATOM     34  C   UNL     1      -7.578  -8.940  25.728  1.00  0.00     0.134 A 
ATOM     35  C   UNL     1      -8.848  -6.580  26.579  1.00  0.00     0.094 A 
ATOM     36  C   UNL     1      -8.050  -8.841  27.058  1.00  0.00     0.093 A 
ATOM     37  C   UNL     1      -8.654  -7.654  27.486  1.00  0.00     0.123 A 
BRANCH  28  38
ATOM     38  C   UNL     1      -8.831  -4.654  22.243  1.00  0.00     0.025 A 
ATOM     39  C   UNL     1      -8.897  -4.788  20.841  1.00  0.00     0.062 A 
ATOM     40  C   UNL     1      -9.123  -3.394  22.777  1.00  0.00     0.016 A 
ATOM     41  C   UNL     1      -8.881  -3.671  20.003  1.00  0.00     0.158 A 
ATOM     42  C   UNL     1      -9.109  -2.239  21.978  1.00  0.00     0.051 A 
ATOM     43  C   UNL     1      -8.956  -2.365  20.594  1.00  0.00     0.157 A 
BRANCH  41  44
ATOM     44  O   UNL     1      -8.826  -3.869  18.614  1.00  0.00    -0.504 OA
ATOM     45  H   UNL     1      -9.561  -3.640  17.964  1.00  0.00     0.293 HD
ENDBRANCH  41  44
BRANCH  43  46
ATOM     46  O   UNL     1      -8.921  -1.198  19.799  1.00  0.00    -0.504 OA
ATOM     47  H   UNL     1      -9.738  -0.883  19.321  1.00  0.00     0.293 HD
ENDBRANCH  43  46
ENDBRANCH  28  38
BRANCH  34  48
ATOM     48  O   UNL     1      -6.946 -10.121  25.319  1.00  0.00    -0.507 OA
ATOM     49  H   UNL     1      -6.166 -10.509  25.849  1.00  0.00     0.293 HD
ENDBRANCH  34  48
BRANCH  37  50
ATOM     50  O   UNL     1      -9.046  -7.528  28.822  1.00  0.00    -0.508 OA
ATOM     51  H   UNL     1      -8.940  -6.621  29.295  1.00  0.00     0.293 HD
ENDBRANCH  37  50
ENDBRANCH  26  27
ENDBRANCH   5  26
BRANCH   4  52
ATOM     52  O   UNL     1      -5.445  -4.276  21.580  1.00  0.00    -0.384 OA
ATOM     53  H   UNL     1      -6.436  -4.474  21.664  1.00  0.00     0.211 HD
ENDBRANCH   4  52
TORSDOF 16
ENDMDL
MODEL 5
REMARK VINA RESULT:    -3.929     11.316     15.864
REMARK INTER + INTRA:          -7.733
REMARK INTER:                  -6.500
REMARK INTRA:                  -1.233
REMARK UNBOUND:                -1.277
REMARK SMILES C[C@@H]1O[C@@H](OC[C@H]2O[C@@H](Oc3c(-c4ccc(O)c(O)c4)oc4cc(O)cc(O)c4c3=O)[C@H](O)[C@H](O)[C@H]2O)[C@H](O)[C@H](O)[C@@H]1O
REMARK SMILES IDX 7 1 36 2 34 3 32 4 9 5 8 6 6 7 5 8 4 9 1 10 2 11 42 12 3 13
REMARK SMILES IDX 40 14 38 15 43 16 41 18 39 20 37 22 35 24 10 26 11 27 12 28
REMARK SMILES IDX 30 29 21 30 29 31 31 32 22 33 27 34 23 35 26 36 24 37 13 38
REMARK SMILES IDX 20 39 14 40 18 41 15 42 16 43 19 44 17 46 28 48 25 50 33 52
REMARK H PARENT 43 17 41 19 39 21 37 23 35 25 19 45 17 47 28 49 25 51 33 53
REMARK Flexibility Score: inf
ROOT
ATOM      1  C   UNL     1      -2.900   9.380  13.812  1.00  0.00     0.180 C 
ATOM      2  C   UNL     1      -3.591   9.074  12.419  1.00  0.00     0.177 C 
ATOM      3  C   UNL     1      -4.323   7.716  12.344  1.00  0.00     0.180 C 
ATOM      4  C   UNL     1      -3.878   6.784  13.522  1.00  0.00     0.214 C 
ATOM      5  C   UNL     1      -2.350   7.020  13.711  1.00  0.00     0.339 C 
ATOM      6  O   UNL     1      -2.233   8.278  14.393  1.00  0.00    -0.332 OA
ENDROOT
BRANCH   1   7
ATOM      7  C   UNL     1      -3.872   9.996  14.875  1.00  0.00     0.198 C 
BRANCH   7   8
ATOM      8  O   UNL     1      -5.204  10.125  14.370  1.00  0.00    -0.347 OA
BRANCH   8   9
ATOM      9  C   UNL     1      -6.101   9.272  15.082  1.00  0.00     0.281 C 
ATOM     10  C   UNL     1      -6.752   8.263  17.897  1.00  0.00     0.041 C 
ATOM     11  C   UNL     1      -6.228   7.460  16.657  1.00  0.00     0.150 C 
ATOM     12  C   UNL     1      -7.279   6.738  15.783  1.00  0.00     0.174 C 
ATOM     13  O   UNL     1      -5.367   8.316  15.855  1.00  0.00    -0.344 OA
ATOM     14  C   UNL     1      -7.993   7.598  14.713  1.00  0.00     0.179 C 
ATOM     15  C   UNL     1      -6.996   8.575  14.046  1.00  0.00     0.202 C 
BRANCH  12  16
ATOM     16  O   UNL     1      -8.164   5.928  16.512  1.00  0.00    -0.388 OA
ATOM     17  H   UNL     1      -8.920   6.484  16.851  1.00  0.00     0.211 HD
ENDBRANCH  12  16
BRANCH  14  18
ATOM     18  O   UNL     1      -9.125   8.238  15.258  1.00  0.00    -0.387 OA
ATOM     19  H   UNL     1      -8.860   9.064  15.775  1.00  0.00     0.211 HD
ENDBRANCH  14  18
BRANCH  15  20
ATOM     20  O   UNL     1      -7.669   9.513  13.233  1.00  0.00    -0.385 OA
ATOM     21  H   UNL     1      -7.385  10.409  13.521  1.00  0.00     0.211 HD
ENDBRANCH  15  20
ENDBRANCH   8   9
ENDBRANCH   7   8
ENDBRANCH   1   7
BRANCH   2  22
ATOM     22  O   UNL     1      -4.442  10.125  12.049  1.00  0.00    -0.387 OA
ATOM     23  H   UNL     1      -5.329   9.926  12.464  1.00  0.00     0.211 HD
ENDBRANCH   2  22
BRANCH   3  24
ATOM     24  O   UNL     1      -4.096   7.105  11.085  1.00  0.00    -0.387 OA
ATOM     25  H   UNL     1      -3.124   7.052  10.945  1.00  0.00     0.211 HD
ENDBRANCH   3  24
BRANCH   5  26
ATOM     26  O   UNL     1      -1.630   6.023  14.517  1.00  0.00    -0.454 OA
BRANCH  26  27
ATOM     27  C   UNL     1      -1.168   6.115  15.830  1.00  0.00     0.214 A 
ATOM     28  C   UNL     1      -1.687   5.342  16.918  1.00  0.00     0.180 A 
ATOM     29  C   UNL     1      -0.158   7.067  16.137  1.00  0.00     0.239 A 
ATOM     30  O   UNL     1      -1.319   5.598  18.165  1.00  0.00    -0.452 OA
ATOM     31  C   UNL     1       0.212   7.279  17.492  1.00  0.00     0.111 A 
ATOM     32  O   UNL     1       0.359   7.796  15.219  1.00  0.00    -0.285 OA
ATOM     33  C   UNL     1      -0.448   6.523  18.501  1.00  0.00     0.146 A 
ATOM     34  C   UNL     1       1.266   8.147  17.869  1.00  0.00     0.134 A 
ATOM     35  C   UNL     1      -0.169   6.749  19.842  1.00  0.00     0.094 A 
ATOM     36  C   UNL     1       1.605   8.318  19.233  1.00  0.00     0.093 A 
ATOM     37  C   UNL     1       0.868   7.644  20.212  1.00  0.00     0.123 A 
BRANCH  28  38
ATOM     38  C   UNL     1      -2.649   4.231  16.677  1.00  0.00     0.025 A 
ATOM     39  C   UNL     1      -3.981   4.471  16.284  1.00  0.00     0.062 A 
ATOM     40  C   UNL     1      -2.285   2.902  16.921  1.00  0.00     0.016 A 
ATOM     41  C   UNL     1      -4.981   3.516  16.484  1.00  0.00     0.158 A 
ATOM     42  C   UNL     1      -3.252   1.907  17.140  1.00  0.00     0.051 A 
ATOM     43  C   UNL     1      -4.604   2.213  16.956  1.00  0.00     0.157 A 
BRANCH  41  44
ATOM     44  O   UNL     1      -6.310   3.855  16.185  1.00  0.00    -0.504 OA
ATOM     45  H   UNL     1      -6.957   3.277  15.673  1.00  0.00     0.293 HD
ENDBRANCH  41  44
BRANCH  43  46
ATOM     46  O   UNL     1      -5.573   1.214  17.198  1.00  0.00    -0.504 OA
ATOM     47  H   UNL     1      -6.461   1.450  17.586  1.00  0.00     0.293 HD
ENDBRANCH  43  46
ENDBRANCH  28  38
BRANCH  34  48
ATOM     48  O   UNL     1       1.990   8.851  16.898  1.00  0.00    -0.507 OA
ATOM     49  H   UNL     1       2.259   8.408  16.021  1.00  0.00     0.293 HD
ENDBRANCH  34  48
BRANCH  37  50
ATOM     50  O   UNL     1       1.150   7.877  21.562  1.00  0.00    -0.508 OA
ATOM     51  H   UNL     1       0.670   8.644  22.052  1.00  0.00     0.293 HD
ENDBRANCH  37  50
ENDBRANCH  26  27
ENDBRANCH   5  26
BRANCH   4  52
ATOM     52  O   UNL     1      -4.279   5.480  13.242  1.00  0.00    -0.384 OA
ATOM     53  H   UNL     1      -3.720   4.871  13.829  1.00  0.00     0.211 HD
ENDBRANCH   4  52
TORSDOF 16
ENDMDL
MODEL 6
REMARK VINA RESULT:    -3.904      4.155      9.948
REMARK INTER + INTRA:          -7.691
REMARK INTER:                  -6.946
REMARK INTRA:                  -0.746
REMARK UNBOUND:                -1.277
REMARK SMILES C[C@@H]1O[C@@H](OC[C@H]2O[C@@H](Oc3c(-c4ccc(O)c(O)c4)oc4cc(O)cc(O)c4c3=O)[C@H](O)[C@H](O)[C@H]2O)[C@H](O)[C@H](O)[C@@H]1O
REMARK SMILES IDX 7 1 36 2 34 3 32 4 9 5 8 6 6 7 5 8 4 9 1 10 2 11 42 12 3 13
REMARK SMILES IDX 40 14 38 15 43 16 41 18 39 20 37 22 35 24 10 26 11 27 12 28
REMARK SMILES IDX 30 29 21 30 29 31 31 32 22 33 27 34 23 35 26 36 24 37 13 38
REMARK SMILES IDX 20 39 14 40 18 41 15 42 16 43 19 44 17 46 28 48 25 50 33 52
REMARK H PARENT 43 17 41 19 39 21 37 23 35 25 19 45 17 47 28 49 25 51 33 53
REMARK Flexibility Score: inf
ROOT
ATOM      1  C   UNL     1       1.285  -6.673  27.912  1.00  0.00     0.180 C 
ATOM      2  C   UNL     1       1.476  -7.993  28.767  1.00  0.00     0.177 C 
ATOM      3  C   UNL     1       0.987  -9.287  28.079  1.00  0.00     0.180 C 
ATOM      4  C   UNL     1       0.056  -8.948  26.865  1.00  0.00     0.214 C 
ATOM      5  C   UNL     1      -0.811  -7.732  27.308  1.00  0.00     0.339 C 
ATOM      6  O   UNL     1       0.052  -6.589  27.226  1.00  0.00    -0.332 OA
ENDROOT
BRANCH   1   7
ATOM      7  C   UNL     1       2.446  -6.411  26.892  1.00  0.00     0.198 C 
BRANCH   7   8
ATOM      8  O   UNL     1       3.717  -6.800  27.419  1.00  0.00    -0.347 OA
BRANCH   8   9
ATOM      9  C   UNL     1       4.510  -5.653  27.728  1.00  0.00     0.281 C 
ATOM     10  C   UNL     1       4.957  -2.736  26.915  1.00  0.00     0.041 C 
ATOM     11  C   UNL     1       5.932  -3.957  26.787  1.00  0.00     0.150 C 
ATOM     12  C   UNL     1       6.967  -4.161  27.917  1.00  0.00     0.174 C 
ATOM     13  O   UNL     1       5.160  -5.168  26.548  1.00  0.00    -0.344 OA
ATOM     14  C   UNL     1       6.471  -4.903  29.180  1.00  0.00     0.179 C 
ATOM     15  C   UNL     1       5.535  -6.072  28.792  1.00  0.00     0.202 C 
BRANCH  12  16
ATOM     16  O   UNL     1       7.712  -3.010  28.217  1.00  0.00    -0.388 OA
ATOM     17  H   UNL     1       8.685  -3.230  28.200  1.00  0.00     0.211 HD
ENDBRANCH  12  16
BRANCH  14  18
ATOM     18  O   UNL     1       5.891  -4.002  30.096  1.00  0.00    -0.387 OA
ATOM     19  H   UNL     1       5.778  -3.088  29.683  1.00  0.00     0.211 HD
ENDBRANCH  14  18
BRANCH  15  20
ATOM     20  O   UNL     1       4.901  -6.617  29.931  1.00  0.00    -0.385 OA
ATOM     21  H   UNL     1       5.468  -7.351  30.259  1.00  0.00     0.211 HD
ENDBRANCH  15  20
ENDBRANCH   8   9
ENDBRANCH   7   8
ENDBRANCH   1   7
BRANCH   2  22
ATOM     22  O   UNL     1       2.806  -8.120  29.190  1.00  0.00    -0.387 OA
ATOM     23  H   UNL     1       3.186  -7.196  29.201  1.00  0.00     0.211 HD
ENDBRANCH   2  22
BRANCH   3  24
ATOM     24  O   UNL     1       0.332 -10.125  29.017  1.00  0.00    -0.387 OA
ATOM     25  H   UNL     1       0.259 -11.022  28.621  1.00  0.00     0.211 HD
ENDBRANCH   3  24
BRANCH   5  26
ATOM     26  O   UNL     1      -1.994  -7.440  26.485  1.00  0.00    -0.454 OA
BRANCH  26  27
ATOM     27  C   UNL     1      -3.290  -7.947  26.588  1.00  0.00     0.214 A 
ATOM     28  C   UNL     1      -4.286  -7.814  25.569  1.00  0.00     0.180 A 
ATOM     29  C   UNL     1      -3.681  -8.589  27.795  1.00  0.00     0.239 A 
ATOM     30  O   UNL     1      -5.542  -8.171  25.799  1.00  0.00    -0.452 OA
ATOM     31  C   UNL     1      -5.038  -8.971  27.974  1.00  0.00     0.111 A 
ATOM     32  O   UNL     1      -2.847  -8.749  28.755  1.00  0.00    -0.285 OA
ATOM     33  C   UNL     1      -5.963  -8.695  26.929  1.00  0.00     0.146 A 
ATOM     34  C   UNL     1      -5.485  -9.690  29.110  1.00  0.00     0.134 A 
ATOM     35  C   UNL     1      -7.311  -8.986  27.090  1.00  0.00     0.094 A 
ATOM     36  C   UNL     1      -6.846 -10.057  29.239  1.00  0.00     0.093 A 
ATOM     37  C   UNL     1      -7.755  -9.679  28.246  1.00  0.00     0.123 A 
BRANCH  28  38
ATOM     38  C   UNL     1      -3.938  -7.277  24.224  1.00  0.00     0.025 A 
ATOM     39  C   UNL     1      -4.291  -5.970  23.830  1.00  0.00     0.062 A 
ATOM     40  C   UNL     1      -3.323  -8.088  23.265  1.00  0.00     0.016 A 
ATOM     41  C   UNL     1      -4.375  -5.615  22.482  1.00  0.00     0.158 A 
ATOM     42  C   UNL     1      -3.388  -7.781  21.896  1.00  0.00     0.051 A 
ATOM     43  C   UNL     1      -3.942  -6.562  21.493  1.00  0.00     0.157 A 
BRANCH  41  44
ATOM     44  O   UNL     1      -4.847  -4.336  22.147  1.00  0.00    -0.504 OA
ATOM     45  H   UNL     1      -4.857  -3.540  22.764  1.00  0.00     0.293 HD
ENDBRANCH  41  44
BRANCH  43  46
ATOM     46  O   UNL     1      -4.024  -6.269  20.114  1.00  0.00    -0.504 OA
ATOM     47  H   UNL     1      -4.886  -5.972  19.706  1.00  0.00     0.293 HD
ENDBRANCH  43  46
ENDBRANCH  28  38
BRANCH  34  48
ATOM     48  O   UNL     1      -4.588 -10.046  30.125  1.00  0.00    -0.507 OA
ATOM     49  H   UNL     1      -4.526  -9.502  30.985  1.00  0.00     0.293 HD
ENDBRANCH  34  48
BRANCH  37  50
ATOM     50  O   UNL     1      -9.112  -9.971  28.414  1.00  0.00    -0.508 OA
ATOM     51  H   UNL     1      -9.814  -9.250  28.198  1.00  0.00     0.293 HD
ENDBRANCH  37  50
ENDBRANCH  26  27
ENDBRANCH   5  26
BRANCH   4  52
ATOM     52  O   UNL     1      -0.629 -10.100  26.486  1.00  0.00    -0.384 OA
ATOM     53  H   UNL     1      -0.825 -10.009  25.496  1.00  0.00     0.211 HD
ENDBRANCH   4  52
TORSDOF 16
ENDMDL
MODEL 7
REMARK VINA RESULT:    -3.178     11.994     17.459
REMARK INTER + INTRA:          -6.499
REMARK INTER:                  -6.309
REMARK INTRA:                  -0.190
REMARK UNBOUND:                -1.277
REMARK SMILES C[C@@H]1O[C@@H](OC[C@H]2O[C@@H](Oc3c(-c4ccc(O)c(O)c4)oc4cc(O)cc(O)c4c3=O)[C@H](O)[C@H](O)[C@H]2O)[C@H](O)[C@H](O)[C@@H]1O
REMARK SMILES IDX 7 1 36 2 34 3 32 4 9 5 8 6 6 7 5 8 4 9 1 10 2 11 42 12 3 13
REMARK SMILES IDX 40 14 38 15 43 16 41 18 39 20 37 22 35 24 10 26 11 27 12 28
REMARK SMILES IDX 30 29 21 30 29 31 31 32 22 33 27 34 23 35 26 36 24 37 13 38
REMARK SMILES IDX 20 39 14 40 18 41 15 42 16 43 19 44 17 46 28 48 25 50 33 52
REMARK H PARENT 43 17 41 19 39 21 37 23 35 25 19 45 17 47 28 49 25 51 33 53
REMARK Flexibility Score: inf
ROOT
ATOM      1  C   UNL     1      -4.595   3.490  16.066  1.00  0.00     0.180 C 
ATOM      2  C   UNL     1      -3.368   2.651  16.615  1.00  0.00     0.177 C 
ATOM      3  C   UNL     1      -2.090   3.475  16.885  1.00  0.00     0.180 C 
ATOM      4  C   UNL     1      -2.174   4.872  16.182  1.00  0.00     0.214 C 
ATOM      5  C   UNL     1      -2.861   4.625  14.805  1.00  0.00     0.339 C 
ATOM      6  O   UNL     1      -4.258   4.458  15.092  1.00  0.00    -0.332 OA
ENDROOT
BRANCH   1   7
ATOM      7  C   UNL     1      -5.439   4.182  17.190  1.00  0.00     0.198 C 
BRANCH   7   8
ATOM      8  O   UNL     1      -6.721   4.599  16.715  1.00  0.00    -0.347 OA
BRANCH   8   9
ATOM      9  C   UNL     1      -6.802   6.024  16.660  1.00  0.00     0.281 C 
ATOM     10  C   UNL     1      -7.874   8.317  14.939  1.00  0.00     0.041 C 
ATOM     11  C   UNL     1      -6.388   7.945  15.274  1.00  0.00     0.150 C 
ATOM     12  C   UNL     1      -5.721   8.686  16.455  1.00  0.00     0.174 C 
ATOM     13  O   UNL     1      -6.272   6.502  15.419  1.00  0.00    -0.344 OA
ATOM     14  C   UNL     1      -6.003   8.126  17.869  1.00  0.00     0.179 C 
ATOM     15  C   UNL     1      -6.006   6.579  17.850  1.00  0.00     0.202 C 
BRANCH  12  16
ATOM     16  O   UNL     1      -5.839  10.083  16.387  1.00  0.00    -0.388 OA
ATOM     17  H   UNL     1      -6.444  10.401  17.114  1.00  0.00     0.211 HD
ENDBRANCH  12  16
BRANCH  14  18
ATOM     18  O   UNL     1      -7.184   8.682  18.401  1.00  0.00    -0.387 OA
ATOM     19  H   UNL     1      -7.999   8.183  18.073  1.00  0.00     0.211 HD
ENDBRANCH  14  18
BRANCH  15  20
ATOM     20  O   UNL     1      -6.478   6.056  19.074  1.00  0.00    -0.385 OA
ATOM     21  H   UNL     1      -6.647   6.817  19.674  1.00  0.00     0.211 HD
ENDBRANCH  15  20
ENDBRANCH   8   9
ENDBRANCH   7   8
ENDBRANCH   1   7
BRANCH   2  22
ATOM     22  O   UNL     1      -3.741   1.915  17.749  1.00  0.00    -0.387 OA
ATOM     23  H   UNL     1      -3.695   0.953  17.485  1.00  0.00     0.211 HD
ENDBRANCH   2  22
BRANCH   3  24
ATOM     24  O   UNL     1      -0.943   2.752  16.469  1.00  0.00    -0.387 OA
ATOM     25  H   UNL     1      -0.674   3.094  15.587  1.00  0.00     0.211 HD
ENDBRANCH   3  24
BRANCH   5  26
ATOM     26  O   UNL     1      -2.750   5.708  13.817  1.00  0.00    -0.454 OA
BRANCH  26  27
ATOM     27  C   UNL     1      -3.739   6.277  13.015  1.00  0.00     0.214 A 
ATOM     28  C   UNL     1      -3.798   7.668  12.681  1.00  0.00     0.180 A 
ATOM     29  C   UNL     1      -4.793   5.452  12.535  1.00  0.00     0.239 A 
ATOM     30  O   UNL     1      -4.853   8.170  12.055  1.00  0.00    -0.452 OA
ATOM     31  C   UNL     1      -5.886   6.046  11.849  1.00  0.00     0.111 A 
ATOM     32  O   UNL     1      -4.812   4.196  12.789  1.00  0.00    -0.285 OA
ATOM     33  C   UNL     1      -5.886   7.457  11.665  1.00  0.00     0.146 A 
ATOM     34  C   UNL     1      -6.929   5.282  11.268  1.00  0.00     0.134 A 
ATOM     35  C   UNL     1      -6.967   8.086  11.063  1.00  0.00     0.094 A 
ATOM     36  C   UNL     1      -7.993   5.918  10.585  1.00  0.00     0.093 A 
ATOM     37  C   UNL     1      -8.023   7.314  10.512  1.00  0.00     0.123 A 
BRANCH  28  38
ATOM     38  C   UNL     1      -2.675   8.585  13.024  1.00  0.00     0.025 A 
ATOM     39  C   UNL     1      -1.793   9.081  12.043  1.00  0.00     0.062 A 
ATOM     40  C   UNL     1      -2.401   8.917  14.355  1.00  0.00     0.016 A 
ATOM     41  C   UNL     1      -0.522   9.554  12.381  1.00  0.00     0.158 A 
ATOM     42  C   UNL     1      -1.137   9.385  14.748  1.00  0.00     0.051 A 
ATOM     43  C   UNL     1      -0.180   9.675  13.770  1.00  0.00     0.157 A 
BRANCH  41  44
ATOM     44  O   UNL     1       0.358   9.923  11.351  1.00  0.00    -0.504 OA
ATOM     45  H   UNL     1       0.816   9.284  10.720  1.00  0.00     0.293 HD
ENDBRANCH  41  44
BRANCH  43  46
ATOM     46  O   UNL     1       1.097  10.124  14.173  1.00  0.00    -0.504 OA
ATOM     47  H   UNL     1       1.251  11.083  14.403  1.00  0.00     0.293 HD
ENDBRANCH  43  46
ENDBRANCH  28  38
BRANCH  34  48
ATOM     48  O   UNL     1      -6.925   3.884  11.363  1.00  0.00    -0.507 OA
ATOM     49  H   UNL     1      -7.110   3.303  10.547  1.00  0.00     0.293 HD
ENDBRANCH  34  48
BRANCH  37  50
ATOM     50  O   UNL     1      -9.115   7.945   9.909  1.00  0.00    -0.508 OA
ATOM     51  H   UNL     1      -8.975   8.839   9.419  1.00  0.00     0.293 HD
ENDBRANCH  37  50
ENDBRANCH  26  27
ENDBRANCH   5  26
BRANCH   4  52
ATOM     52  O   UNL     1      -0.904   5.441  16.153  1.00  0.00    -0.384 OA
ATOM     53  H   UNL     1      -0.271   4.722  15.823  1.00  0.00     0.211 HD
ENDBRANCH   4  52
TORSDOF 16
ENDMDL
