MODEL 1
REMARK VINA RESULT:    -4.414      0.000      0.000
REMARK INTER + INTRA:          -8.759
REMARK INTER:                  -8.027
REMARK INTRA:                  -0.732
REMARK UNBOUND:                -0.732
REMARK SMILES CCCCCCCCCCCCCC[C@@H](C)C(=O)[O-]
REMARK SMILES IDX 9 1 10 2 11 3 12 4 13 5 14 6 15 7 16 8 17 9 18 10 19 11 8 12
REMARK SMILES IDX 7 13 6 14 5 15 4 16 3 17 2 18 1 19
REMARK H PARENT
REMARK Flexibility Score: inf
ROOT
ATOM      1  C   UNL     1      -5.583  18.370  15.075  1.00  0.00     0.000 C 
ENDROOT
BRANCH   1   2
ATOM      2  C   UNL     1      -4.167  17.877  14.725  1.00  0.00     0.000 C 
BRANCH   2   3
ATOM      3  C   UNL     1      -3.595  18.408  13.397  1.00  0.00     0.000 C 
BRANCH   3   4
ATOM      4  C   UNL     1      -2.112  18.796  13.494  1.00  0.00     0.000 C 
BRANCH   4   5
ATOM      5  C   UNL     1      -1.225  17.759  12.794  1.00  0.00     0.001 C 
BRANCH   5   6
ATOM      6  C   UNL     1      -2.064  16.587  12.261  1.00  0.00     0.009 C 
BRANCH   6   7
ATOM      7  C   UNL     1      -1.612  15.223  12.826  1.00  0.00     0.032 C 
ATOM      8  C   UNL     1      -2.605  14.659  13.852  1.00  0.00     0.014 C 
BRANCH   7   9
ATOM      9  C   UNL     1      -1.427  14.239  11.705  1.00  0.00     0.044 C 
ATOM     10  O   UNL     1      -2.419  13.818  11.051  1.00  0.00    -0.550 OA
ATOM     11  O   UNL     1      -0.153  13.785  11.382  1.00  0.00    -0.550 OA
ENDBRANCH   7   9
ENDBRANCH   6   7
ENDBRANCH   5   6
ENDBRANCH   4   5
ENDBRANCH   3   4
ENDBRANCH   2   3
ENDBRANCH   1   2
BRANCH   1  12
ATOM     12  C   UNL     1      -5.927  19.721  14.425  1.00  0.00     0.000 C 
BRANCH  12  13
ATOM     13  C   UNL     1      -7.202  20.362  15.004  1.00  0.00    -0.000 C 
BRANCH  13  14
ATOM     14  C   UNL     1      -8.042  21.181  14.007  1.00  0.00    -0.000 C 
BRANCH  14  15
ATOM     15  C   UNL     1      -8.808  22.337  14.674  1.00  0.00    -0.000 C 
BRANCH  15  16
ATOM     16  C   UNL     1      -8.055  23.674  14.581  1.00  0.00    -0.000 C 
BRANCH  16  17
ATOM     17  C   UNL     1      -8.594  24.581  13.464  1.00  0.00    -0.000 C 
BRANCH  17  18
ATOM     18  C   UNL     1      -8.513  26.057  13.871  1.00  0.00    -0.003 C 
ATOM     19  C   UNL     1      -9.291  26.941  12.900  1.00  0.00     0.004 C 
ENDBRANCH  17  18
ENDBRANCH  16  17
ENDBRANCH  15  16
ENDBRANCH  14  15
ENDBRANCH  13  14
ENDBRANCH  12  13
ENDBRANCH   1  12
TORSDOF 14
ENDMDL
MODEL 2
REMARK VINA RESULT:    -4.033      1.171      2.273
REMARK INTER + INTRA:          -8.065
REMARK INTER:                  -7.233
REMARK INTRA:                  -0.832
REMARK UNBOUND:                -0.732
REMARK SMILES CCCCCCCCCCCCCC[C@@H](C)C(=O)[O-]
REMARK SMILES IDX 9 1 10 2 11 3 12 4 13 5 14 6 15 7 16 8 17 9 18 10 19 11 8 12
REMARK SMILES IDX 7 13 6 14 5 15 4 16 3 17 2 18 1 19
REMARK H PARENT
REMARK Flexibility Score: inf
ROOT
ATOM      1  C   UNL     1      -3.458  18.243  13.186  1.00  0.00     0.000 C 
ENDROOT
BRANCH   1   2
ATOM      2  C   UNL     1      -2.119  19.002  13.201  1.00  0.00     0.000 C 
BRANCH   2   3
ATOM      3  C   UNL     1      -0.974  18.301  13.955  1.00  0.00     0.000 C 
BRANCH   3   4
ATOM      4  C   UNL     1      -0.155  17.357  13.062  1.00  0.00     0.000 C 
BRANCH   4   5
ATOM      5  C   UNL     1      -0.542  15.893  13.307  1.00  0.00     0.001 C 
BRANCH   5   6
ATOM      6  C   UNL     1      -1.065  15.240  12.018  1.00  0.00     0.009 C 
BRANCH   6   7
ATOM      7  C   UNL     1      -1.582  13.802  12.246  1.00  0.00     0.032 C 
ATOM      8  C   UNL     1      -2.719  13.747  13.275  1.00  0.00     0.014 C 
BRANCH   7   9
ATOM      9  C   UNL     1      -2.048  13.212  10.943  1.00  0.00     0.044 C 
ATOM     10  O   UNL     1      -1.687  12.056  10.597  1.00  0.00    -0.550 OA
ATOM     11  O   UNL     1      -2.885  13.946  10.110  1.00  0.00    -0.550 OA
ENDBRANCH   7   9
ENDBRANCH   6   7
ENDBRANCH   5   6
ENDBRANCH   4   5
ENDBRANCH   3   4
ENDBRANCH   2   3
ENDBRANCH   1   2
BRANCH   1  12
ATOM     12  C   UNL     1      -4.199  18.303  14.532  1.00  0.00     0.000 C 
BRANCH  12  13
ATOM     13  C   UNL     1      -4.819  19.684  14.818  1.00  0.00    -0.000 C 
BRANCH  13  14
ATOM     14  C   UNL     1      -6.357  19.723  14.857  1.00  0.00    -0.000 C 
BRANCH  14  15
ATOM     15  C   UNL     1      -6.938  21.055  14.351  1.00  0.00    -0.000 C 
BRANCH  15  16
ATOM     16  C   UNL     1      -8.283  21.400  15.011  1.00  0.00    -0.000 C 
BRANCH  16  17
ATOM     17  C   UNL     1      -8.991  22.582  14.331  1.00  0.00    -0.000 C 
BRANCH  17  18
ATOM     18  C   UNL     1      -7.977  23.639  13.877  1.00  0.00    -0.003 C 
ATOM     19  C   UNL     1      -8.637  25.006  13.722  1.00  0.00     0.004 C 
ENDBRANCH  17  18
ENDBRANCH  16  17
ENDBRANCH  15  16
ENDBRANCH  14  15
ENDBRANCH  13  14
ENDBRANCH  12  13
ENDBRANCH   1  12
TORSDOF 14
ENDMDL
MODEL 3
REMARK VINA RESULT:    -3.858      2.551      4.636
REMARK INTER + INTRA:          -7.747
REMARK INTER:                  -6.894
REMARK INTRA:                  -0.853
REMARK UNBOUND:                -0.732
REMARK SMILES CCCCCCCCCCCCCC[C@@H](C)C(=O)[O-]
REMARK SMILES IDX 9 1 10 2 11 3 12 4 13 5 14 6 15 7 16 8 17 9 18 10 19 11 8 12
REMARK SMILES IDX 7 13 6 14 5 15 4 16 3 17 2 18 1 19
REMARK H PARENT
REMARK Flexibility Score: inf
ROOT
ATOM      1  C   UNL     1      -2.336  17.109  12.602  1.00  0.00     0.000 C 
ENDROOT
BRANCH   1   2
ATOM      2  C   UNL     1      -0.921  16.504  12.574  1.00  0.00     0.000 C 
BRANCH   2   3
ATOM      3  C   UNL     1      -0.861  14.968  12.675  1.00  0.00     0.000 C 
BRANCH   3   4
ATOM      4  C   UNL     1      -1.766  14.402  13.780  1.00  0.00     0.000 C 
BRANCH   4   5
ATOM      5  C   UNL     1      -2.223  12.977  13.440  1.00  0.00     0.001 C 
BRANCH   5   6
ATOM      6  C   UNL     1      -3.733  12.814  13.669  1.00  0.00     0.009 C 
BRANCH   6   7
ATOM      7  C   UNL     1      -4.464  12.236  12.437  1.00  0.00     0.032 C 
ATOM      8  C   UNL     1      -3.573  12.215  11.187  1.00  0.00     0.014 C 
BRANCH   7   9
ATOM      9  C   UNL     1      -4.952  10.845  12.736  1.00  0.00     0.044 C 
ATOM     10  O   UNL     1      -5.137  10.017  11.805  1.00  0.00    -0.550 OA
ATOM     11  O   UNL     1      -5.201  10.465  14.049  1.00  0.00    -0.550 OA
ENDBRANCH   7   9
ENDBRANCH   6   7
ENDBRANCH   5   6
ENDBRANCH   4   5
ENDBRANCH   3   4
ENDBRANCH   2   3
ENDBRANCH   1   2
BRANCH   1  12
ATOM     12  C   UNL     1      -2.341  18.614  12.919  1.00  0.00     0.000 C 
BRANCH  12  13
ATOM     13  C   UNL     1      -3.181  18.966  14.160  1.00  0.00    -0.000 C 
BRANCH  13  14
ATOM     14  C   UNL     1      -4.454  18.124  14.357  1.00  0.00    -0.000 C 
BRANCH  14  15
ATOM     15  C   UNL     1      -5.580  18.893  15.069  1.00  0.00    -0.000 C 
BRANCH  15  16
ATOM     16  C   UNL     1      -6.100  20.079  14.240  1.00  0.00    -0.000 C 
BRANCH  16  17
ATOM     17  C   UNL     1      -7.106  20.947  15.012  1.00  0.00    -0.000 C 
BRANCH  17  18
ATOM     18  C   UNL     1      -8.517  20.798  14.430  1.00  0.00    -0.003 C 
ATOM     19  C   UNL     1      -9.265  22.128  14.448  1.00  0.00     0.004 C 
ENDBRANCH  17  18
ENDBRANCH  16  17
ENDBRANCH  15  16
ENDBRANCH  14  15
ENDBRANCH  13  14
ENDBRANCH  12  13
ENDBRANCH   1  12
TORSDOF 14
ENDMDL
MODEL 4
REMARK VINA RESULT:    -3.756      2.237      3.878
REMARK INTER + INTRA:          -7.561
REMARK INTER:                  -6.529
REMARK INTRA:                  -1.032
REMARK UNBOUND:                -0.732
REMARK SMILES CCCCCCCCCCCCCC[C@@H](C)C(=O)[O-]
REMARK SMILES IDX 9 1 10 2 11 3 12 4 13 5 14 6 15 7 16 8 17 9 18 10 19 11 8 12
REMARK SMILES IDX 7 13 6 14 5 15 4 16 3 17 2 18 1 19
REMARK H PARENT
REMARK Flexibility Score: inf
ROOT
ATOM      1  C   UNL     1      -1.841  17.894  12.838  1.00  0.00     0.000 C 
ENDROOT
BRANCH   1   2
ATOM      2  C   UNL     1      -0.477  17.298  13.230  1.00  0.00     0.000 C 
BRANCH   2   3
ATOM      3  C   UNL     1      -0.461  16.507  14.552  1.00  0.00     0.000 C 
BRANCH   3   4
ATOM      4  C   UNL     1       0.052  15.069  14.385  1.00  0.00     0.000 C 
BRANCH   4   5
ATOM      5  C   UNL     1      -1.070  14.136  13.908  1.00  0.00     0.001 C 
BRANCH   5   6
ATOM      6  C   UNL     1      -0.997  13.920  12.389  1.00  0.00     0.009 C 
BRANCH   6   7
ATOM      7  C   UNL     1      -2.222  13.159  11.835  1.00  0.00     0.032 C 
ATOM      8  C   UNL     1      -2.708  13.733  10.497  1.00  0.00     0.014 C 
BRANCH   7   9
ATOM      9  C   UNL     1      -1.890  11.702  11.671  1.00  0.00     0.044 C 
ATOM     10  O   UNL     1      -2.157  10.876  12.584  1.00  0.00    -0.550 OA
ATOM     11  O   UNL     1      -1.281  11.256  10.503  1.00  0.00    -0.550 OA
ENDBRANCH   7   9
ENDBRANCH   6   7
ENDBRANCH   5   6
ENDBRANCH   4   5
ENDBRANCH   3   4
ENDBRANCH   2   3
ENDBRANCH   1   2
BRANCH   1  12
ATOM     12  C   UNL     1      -2.992  17.405  13.734  1.00  0.00     0.000 C 
BRANCH  12  13
ATOM     13  C   UNL     1      -4.015  18.510  14.058  1.00  0.00    -0.000 C 
BRANCH  13  14
ATOM     14  C   UNL     1      -5.114  18.119  15.062  1.00  0.00    -0.000 C 
BRANCH  14  15
ATOM     15  C   UNL     1      -6.263  19.141  15.124  1.00  0.00    -0.000 C 
BRANCH  15  16
ATOM     16  C   UNL     1      -5.783  20.583  14.891  1.00  0.00    -0.000 C 
BRANCH  16  17
ATOM     17  C   UNL     1      -6.940  21.557  14.623  1.00  0.00    -0.000 C 
BRANCH  17  18
ATOM     18  C   UNL     1      -8.289  20.830  14.669  1.00  0.00    -0.003 C 
ATOM     19  C   UNL     1      -9.429  21.754  14.249  1.00  0.00     0.004 C 
ENDBRANCH  17  18
ENDBRANCH  16  17
ENDBRANCH  15  16
ENDBRANCH  14  15
ENDBRANCH  13  14
ENDBRANCH  12  13
ENDBRANCH   1  12
TORSDOF 14
ENDMDL
MODEL 5
REMARK VINA RESULT:    -3.727      5.365     10.113
REMARK INTER + INTRA:          -7.509
REMARK INTER:                  -5.136
REMARK INTRA:                  -2.373
REMARK UNBOUND:                -0.732
REMARK SMILES CCCCCCCCCCCCCC[C@@H](C)C(=O)[O-]
REMARK SMILES IDX 9 1 10 2 11 3 12 4 13 5 14 6 15 7 16 8 17 9 18 10 19 11 8 12
REMARK SMILES IDX 7 13 6 14 5 15 4 16 3 17 2 18 1 19
REMARK H PARENT
REMARK Flexibility Score: inf
ROOT
ATOM      1  C   UNL     1      -3.237  12.981  11.107  1.00  0.00     0.000 C 
ENDROOT
BRANCH   1   2
ATOM      2  C   UNL     1      -2.097  13.979  10.835  1.00  0.00     0.000 C 
BRANCH   2   3
ATOM      3  C   UNL     1      -0.811  13.747  11.648  1.00  0.00     0.000 C 
BRANCH   3   4
ATOM      4  C   UNL     1       0.088  14.991  11.720  1.00  0.00     0.000 C 
BRANCH   4   5
ATOM      5  C   UNL     1      -0.123  15.747  13.038  1.00  0.00     0.001 C 
BRANCH   5   6
ATOM      6  C   UNL     1      -1.024  16.974  12.829  1.00  0.00     0.009 C 
BRANCH   6   7
ATOM      7  C   UNL     1      -2.506  16.689  13.161  1.00  0.00     0.032 C 
ATOM      8  C   UNL     1      -2.666  15.842  14.430  1.00  0.00     0.014 C 
BRANCH   7   9
ATOM      9  C   UNL     1      -3.255  17.984  13.316  1.00  0.00     0.044 C 
ATOM     10  O   UNL     1      -2.865  19.025  12.725  1.00  0.00    -0.550 OA
ATOM     11  O   UNL     1      -4.388  18.037  14.119  1.00  0.00    -0.550 OA
ENDBRANCH   7   9
ENDBRANCH   6   7
ENDBRANCH   5   6
ENDBRANCH   4   5
ENDBRANCH   3   4
ENDBRANCH   2   3
ENDBRANCH   1   2
BRANCH   1  12
ATOM     12  C   UNL     1      -3.268  12.487  12.564  1.00  0.00     0.000 C 
BRANCH  12  13
ATOM     13  C   UNL     1      -3.950  11.115  12.720  1.00  0.00    -0.000 C 
BRANCH  13  14
ATOM     14  C   UNL     1      -3.166   9.918  12.152  1.00  0.00    -0.000 C 
BRANCH  14  15
ATOM     15  C   UNL     1      -1.712   9.860  12.652  1.00  0.00    -0.000 C 
BRANCH  15  16
ATOM     16  C   UNL     1      -0.692   9.843  11.501  1.00  0.00    -0.000 C 
BRANCH  16  17
ATOM     17  C   UNL     1      -1.351  10.007  10.123  1.00  0.00    -0.000 C 
BRANCH  17  18
ATOM     18  C   UNL     1      -0.546  10.971   9.243  1.00  0.00    -0.003 C 
ATOM     19  C   UNL     1      -1.372  11.453   8.054  1.00  0.00     0.004 C 
ENDBRANCH  17  18
ENDBRANCH  16  17
ENDBRANCH  15  16
ENDBRANCH  14  15
ENDBRANCH  13  14
ENDBRANCH  12  13
ENDBRANCH   1  12
TORSDOF 14
ENDMDL
MODEL 6
REMARK VINA RESULT:    -3.595      5.731      8.083
REMARK INTER + INTRA:          -7.269
REMARK INTER:                  -5.413
REMARK INTRA:                  -1.856
REMARK UNBOUND:                -0.732
REMARK SMILES CCCCCCCCCCCCCC[C@@H](C)C(=O)[O-]
REMARK SMILES IDX 9 1 10 2 11 3 12 4 13 5 14 6 15 7 16 8 17 9 18 10 19 11 8 12
REMARK SMILES IDX 7 13 6 14 5 15 4 16 3 17 2 18 1 19
REMARK H PARENT
REMARK Flexibility Score: inf
ROOT
ATOM      1  C   UNL     1      -4.071  12.269  13.825  1.00  0.00     0.000 C 
ENDROOT
BRANCH   1   2
ATOM      2  C   UNL     1      -4.835  11.912  12.537  1.00  0.00     0.000 C 
BRANCH   2   3
ATOM      3  C   UNL     1      -4.394  10.605  11.852  1.00  0.00     0.000 C 
BRANCH   3   4
ATOM      4  C   UNL     1      -3.513   9.723  12.750  1.00  0.00     0.000 C 
BRANCH   4   5
ATOM      5  C   UNL     1      -2.181   9.395  12.063  1.00  0.00     0.001 C 
BRANCH   5   6
ATOM      6  C   UNL     1      -1.522  10.667  11.507  1.00  0.00     0.009 C 
BRANCH   6   7
ATOM      7  C   UNL     1      -1.162  10.547  10.009  1.00  0.00     0.032 C 
ATOM      8  C   UNL     1      -1.674   9.239   9.390  1.00  0.00     0.014 C 
BRANCH   7   9
ATOM      9  C   UNL     1      -1.722  11.719   9.252  1.00  0.00     0.044 C 
ATOM     10  O   UNL     1      -2.298  12.660   9.861  1.00  0.00    -0.550 OA
ATOM     11  O   UNL     1      -1.605  11.771   7.868  1.00  0.00    -0.550 OA
ENDBRANCH   7   9
ENDBRANCH   6   7
ENDBRANCH   5   6
ENDBRANCH   4   5
ENDBRANCH   3   4
ENDBRANCH   2   3
ENDBRANCH   1   2
BRANCH   1  12
ATOM     12  C   UNL     1      -3.025  13.377  13.616  1.00  0.00     0.000 C 
BRANCH  12  13
ATOM     13  C   UNL     1      -3.227  14.582  14.554  1.00  0.00    -0.000 C 
BRANCH  13  14
ATOM     14  C   UNL     1      -1.935  15.224  15.093  1.00  0.00    -0.000 C 
BRANCH  14  15
ATOM     15  C   UNL     1      -1.779  16.697  14.679  1.00  0.00    -0.000 C 
BRANCH  15  16
ATOM     16  C   UNL     1      -2.705  17.084  13.514  1.00  0.00    -0.000 C 
BRANCH  16  17
ATOM     17  C   UNL     1      -1.936  17.364  12.214  1.00  0.00    -0.000 C 
BRANCH  17  18
ATOM     18  C   UNL     1      -1.715  16.071  11.420  1.00  0.00    -0.003 C 
ATOM     19  C   UNL     1      -0.296  15.542  11.612  1.00  0.00     0.004 C 
ENDBRANCH  17  18
ENDBRANCH  16  17
ENDBRANCH  15  16
ENDBRANCH  14  15
ENDBRANCH  13  14
ENDBRANCH  12  13
ENDBRANCH   1  12
TORSDOF 14
ENDMDL
MODEL 7
REMARK VINA RESULT:    -3.584     19.339     20.722
REMARK INTER + INTRA:          -7.248
REMARK INTER:                  -5.399
REMARK INTRA:                  -1.849
REMARK UNBOUND:                -0.732
REMARK SMILES CCCCCCCCCCCCCC[C@@H](C)C(=O)[O-]
REMARK SMILES IDX 9 1 10 2 11 3 12 4 13 5 14 6 15 7 16 8 17 9 18 10 19 11 8 12
REMARK SMILES IDX 7 13 6 14 5 15 4 16 3 17 2 18 1 19
REMARK H PARENT
REMARK Flexibility Score: inf
ROOT
ATOM      1  C   UNL     1     -18.621  14.280  -0.206  1.00  0.00     0.000 C 
ENDROOT
BRANCH   1   2
ATOM      2  C   UNL     1     -19.075  14.116   1.256  1.00  0.00     0.000 C 
BRANCH   2   3
ATOM      3  C   UNL     1     -19.337  12.665   1.704  1.00  0.00     0.000 C 
BRANCH   3   4
ATOM      4  C   UNL     1     -18.926  11.627   0.649  1.00  0.00     0.000 C 
BRANCH   4   5
ATOM      5  C   UNL     1     -18.135  10.478   1.287  1.00  0.00     0.001 C 
BRANCH   5   6
ATOM      6  C   UNL     1     -18.111  10.610   2.817  1.00  0.00     0.009 C 
BRANCH   6   7
ATOM      7  C   UNL     1     -16.955   9.816   3.467  1.00  0.00     0.032 C 
ATOM      8  C   UNL     1     -16.203   8.946   2.451  1.00  0.00     0.014 C 
BRANCH   7   9
ATOM      9  C   UNL     1     -15.996  10.761   4.136  1.00  0.00     0.044 C 
ATOM     10  O   UNL     1     -16.403  11.849   4.623  1.00  0.00    -0.550 OA
ATOM     11  O   UNL     1     -14.647  10.436   4.219  1.00  0.00    -0.550 OA
ENDBRANCH   7   9
ENDBRANCH   6   7
ENDBRANCH   5   6
ENDBRANCH   4   5
ENDBRANCH   3   4
ENDBRANCH   2   3
ENDBRANCH   1   2
BRANCH   1  12
ATOM     12  C   UNL     1     -19.695  14.922  -1.101  1.00  0.00     0.000 C 
BRANCH  12  13
ATOM     13  C   UNL     1     -19.796  14.262  -2.488  1.00  0.00    -0.000 C 
BRANCH  13  14
ATOM     14  C   UNL     1     -18.583  13.411  -2.905  1.00  0.00    -0.000 C 
BRANCH  14  15
ATOM     15  C   UNL     1     -18.921  11.917  -3.057  1.00  0.00    -0.000 C 
BRANCH  15  16
ATOM     16  C   UNL     1     -17.703  11.010  -2.812  1.00  0.00    -0.000 C 
BRANCH  16  17
ATOM     17  C   UNL     1     -16.521  11.762  -2.184  1.00  0.00    -0.000 C 
BRANCH  17  18
ATOM     18  C   UNL     1     -15.238  11.540  -2.995  1.00  0.00    -0.003 C 
ATOM     19  C   UNL     1     -15.302  12.264  -4.337  1.00  0.00     0.004 C 
ENDBRANCH  17  18
ENDBRANCH  16  17
ENDBRANCH  15  16
ENDBRANCH  14  15
ENDBRANCH  13  14
ENDBRANCH  12  13
ENDBRANCH   1  12
TORSDOF 14
ENDMDL
MODEL 8
REMARK VINA RESULT:    -3.573     18.055     19.243
REMARK INTER + INTRA:          -7.229
REMARK INTER:                  -5.685
REMARK INTRA:                  -1.544
REMARK UNBOUND:                -0.732
REMARK SMILES CCCCCCCCCCCCCC[C@@H](C)C(=O)[O-]
REMARK SMILES IDX 9 1 10 2 11 3 12 4 13 5 14 6 15 7 16 8 17 9 18 10 19 11 8 12
REMARK SMILES IDX 7 13 6 14 5 15 4 16 3 17 2 18 1 19
REMARK H PARENT
REMARK Flexibility Score: inf
ROOT
ATOM      1  C   UNL     1     -18.627  12.169   2.719  1.00  0.00     0.000 C 
ENDROOT
BRANCH   1   2
ATOM      2  C   UNL     1     -18.576  10.630   2.727  1.00  0.00     0.000 C 
BRANCH   2   3
ATOM      3  C   UNL     1     -17.828   9.991   1.543  1.00  0.00     0.000 C 
BRANCH   3   4
ATOM      4  C   UNL     1     -16.681   9.068   1.983  1.00  0.00     0.000 C 
BRANCH   4   5
ATOM      5  C   UNL     1     -16.458   9.154   3.499  1.00  0.00     0.001 C 
BRANCH   5   6
ATOM      6  C   UNL     1     -14.965   9.313   3.828  1.00  0.00     0.009 C 
BRANCH   6   7
ATOM      7  C   UNL     1     -14.642  10.669   4.494  1.00  0.00     0.032 C 
ATOM      8  C   UNL     1     -15.866  11.285   5.185  1.00  0.00     0.014 C 
BRANCH   7   9
ATOM      9  C   UNL     1     -13.529  10.498   5.490  1.00  0.00     0.044 C 
ATOM     10  O   UNL     1     -12.340  10.339   5.103  1.00  0.00    -0.550 OA
ATOM     11  O   UNL     1     -13.808  10.515   6.852  1.00  0.00    -0.550 OA
ENDBRANCH   7   9
ENDBRANCH   6   7
ENDBRANCH   5   6
ENDBRANCH   4   5
ENDBRANCH   3   4
ENDBRANCH   2   3
ENDBRANCH   1   2
BRANCH   1  12
ATOM     12  C   UNL     1     -19.458  12.736   1.555  1.00  0.00     0.000 C 
BRANCH  12  13
ATOM     13  C   UNL     1     -18.964  14.114   1.077  1.00  0.00    -0.000 C 
BRANCH  13  14
ATOM     14  C   UNL     1     -18.663  14.223  -0.429  1.00  0.00    -0.000 C 
BRANCH  14  15
ATOM     15  C   UNL     1     -19.120  12.987  -1.223  1.00  0.00    -0.000 C 
BRANCH  15  16
ATOM     16  C   UNL     1     -18.073  12.526  -2.251  1.00  0.00    -0.000 C 
BRANCH  16  17
ATOM     17  C   UNL     1     -17.032  11.570  -1.648  1.00  0.00    -0.000 C 
BRANCH  17  18
ATOM     18  C   UNL     1     -15.865  11.350  -2.618  1.00  0.00    -0.003 C 
ATOM     19  C   UNL     1     -16.035  12.186  -3.884  1.00  0.00     0.004 C 
ENDBRANCH  17  18
ENDBRANCH  16  17
ENDBRANCH  15  16
ENDBRANCH  14  15
ENDBRANCH  13  14
ENDBRANCH  12  13
ENDBRANCH   1  12
TORSDOF 14
ENDMDL
MODEL 9
REMARK VINA RESULT:    -3.536     18.437     20.116
REMARK INTER + INTRA:          -7.162
REMARK INTER:                  -5.769
REMARK INTRA:                  -1.393
REMARK UNBOUND:                -0.732
REMARK SMILES CCCCCCCCCCCCCC[C@@H](C)C(=O)[O-]
REMARK SMILES IDX 9 1 10 2 11 3 12 4 13 5 14 6 15 7 16 8 17 9 18 10 19 11 8 12
REMARK SMILES IDX 7 13 6 14 5 15 4 16 3 17 2 18 1 19
REMARK H PARENT
REMARK Flexibility Score: inf
ROOT
ATOM      1  C   UNL     1     -18.898  13.001   2.012  1.00  0.00     0.000 C 
ENDROOT
BRANCH   1   2
ATOM      2  C   UNL     1     -19.606  13.448   0.720  1.00  0.00     0.000 C 
BRANCH   2   3
ATOM      3  C   UNL     1     -18.991  14.677   0.024  1.00  0.00     0.000 C 
BRANCH   3   4
ATOM      4  C   UNL     1     -19.162  14.651  -1.502  1.00  0.00     0.000 C 
BRANCH   4   5
ATOM      5  C   UNL     1     -19.308  13.213  -2.016  1.00  0.00     0.001 C 
BRANCH   5   6
ATOM      6  C   UNL     1     -18.052  12.774  -2.785  1.00  0.00     0.009 C 
BRANCH   6   7
ATOM      7  C   UNL     1     -17.020  12.059  -1.884  1.00  0.00     0.032 C 
ATOM      8  C   UNL     1     -17.623  10.851  -1.153  1.00  0.00     0.014 C 
BRANCH   7   9
ATOM      9  C   UNL     1     -15.841  11.618  -2.706  1.00  0.00     0.044 C 
ATOM     10  O   UNL     1     -15.205  10.572  -2.406  1.00  0.00    -0.550 OA
ATOM     11  O   UNL     1     -15.445  12.367  -3.808  1.00  0.00    -0.550 OA
ENDBRANCH   7   9
ENDBRANCH   6   7
ENDBRANCH   5   6
ENDBRANCH   4   5
ENDBRANCH   3   4
ENDBRANCH   2   3
ENDBRANCH   1   2
BRANCH   1  12
ATOM     12  C   UNL     1     -19.147  11.522   2.354  1.00  0.00     0.000 C 
BRANCH  12  13
ATOM     13  C   UNL     1     -17.985  10.880   3.134  1.00  0.00    -0.000 C 
BRANCH  13  14
ATOM     14  C   UNL     1     -17.101  11.859   3.927  1.00  0.00    -0.000 C 
BRANCH  14  15
ATOM     15  C   UNL     1     -15.948  11.161   4.670  1.00  0.00    -0.000 C 
BRANCH  15  16
ATOM     16  C   UNL     1     -15.478   9.882   3.959  1.00  0.00    -0.000 C 
BRANCH  16  17
ATOM     17  C   UNL     1     -14.143   9.355   4.508  1.00  0.00    -0.000 C 
BRANCH  17  18
ATOM     18  C   UNL     1     -13.081  10.461   4.519  1.00  0.00    -0.003 C 
ATOM     19  C   UNL     1     -12.484  10.638   5.913  1.00  0.00     0.004 C 
ENDBRANCH  17  18
ENDBRANCH  16  17
ENDBRANCH  15  16
ENDBRANCH  14  15
ENDBRANCH  13  14
ENDBRANCH  12  13
ENDBRANCH   1  12
TORSDOF 14
ENDMDL
