MODEL 1
REMARK VINA RESULT:    -3.481      0.000      0.000
REMARK INTER + INTRA:          -4.579
REMARK INTER:                  -4.092
REMARK INTRA:                  -0.488
REMARK UNBOUND:                -0.488
REMARK SMILES CCCC[C@@H]1OC(=O)C2=C1CCC=C2
REMARK SMILES IDX 3 1 2 2 1 3 4 4 5 5 10 6 6 7 9 8 11 9 7 10 14 11 12 12 8 13
REMARK SMILES IDX 13 14
REMARK H PARENT
REMARK Flexibility Score: inf
ROOT
ATOM      1  C   UNL     1     -26.374  56.996  37.637  1.00  0.00     0.004 C 
ENDROOT
BRANCH   1   2
ATOM      2  C   UNL     1     -27.861  57.132  37.995  1.00  0.00    -0.003 C 
ATOM      3  C   UNL     1     -28.262  58.598  38.126  1.00  0.00     0.004 C 
ENDBRANCH   1   2
BRANCH   1   4
ATOM      4  C   UNL     1     -26.154  56.461  36.212  1.00  0.00     0.050 C 
BRANCH   4   5
ATOM      5  C   UNL     1     -27.465  56.272  35.431  1.00  0.00     0.204 C 
ATOM      6  C   UNL     1     -27.594  57.285  34.318  1.00  0.00    -0.015 C 
ATOM      7  O   UNL     1     -27.459  55.025  34.728  1.00  0.00    -0.454 OA
ATOM      8  C   UNL     1     -27.624  56.688  33.139  1.00  0.00     0.062 C 
ATOM      9  C   UNL     1     -27.529  58.784  34.438  1.00  0.00     0.040 C 
ATOM     10  C   UNL     1     -27.545  55.269  33.368  1.00  0.00     0.338 C 
ATOM     11  C   UNL     1     -27.682  57.428  31.873  1.00  0.00     0.011 C 
ATOM     12  C   UNL     1     -28.180  59.466  33.211  1.00  0.00     0.032 C 
ATOM     13  O   UNL     1     -27.548  54.374  32.484  1.00  0.00    -0.246 OA
ATOM     14  C   UNL     1     -27.869  58.755  31.909  1.00  0.00    -0.026 C 
ENDBRANCH   4   5
ENDBRANCH   1   4
TORSDOF 3
ENDMDL
MODEL 2
REMARK VINA RESULT:    -3.372      2.112      3.226
REMARK INTER + INTRA:          -4.451
REMARK INTER:                  -4.006
REMARK INTRA:                  -0.446
REMARK UNBOUND:                -0.488
REMARK SMILES CCCC[C@@H]1OC(=O)C2=C1CCC=C2
REMARK SMILES IDX 3 1 2 2 1 3 4 4 5 5 10 6 6 7 9 8 11 9 7 10 14 11 12 12 8 13
REMARK SMILES IDX 13 14
REMARK H PARENT
REMARK Flexibility Score: inf
ROOT
ATOM      1  C   UNL     1     -28.010  59.950  37.197  1.00  0.00     0.004 C 
ENDROOT
BRANCH   1   2
ATOM      2  C   UNL     1     -27.493  58.861  38.147  1.00  0.00    -0.003 C 
ATOM      3  C   UNL     1     -28.576  57.827  38.439  1.00  0.00     0.004 C 
ENDBRANCH   1   2
BRANCH   1   4
ATOM      4  C   UNL     1     -28.584  59.373  35.892  1.00  0.00     0.050 C 
BRANCH   4   5
ATOM      5  C   UNL     1     -27.502  59.055  34.847  1.00  0.00     0.204 C 
ATOM      6  C   UNL     1     -27.571  57.613  34.403  1.00  0.00    -0.015 C 
ATOM      7  O   UNL     1     -27.744  59.774  33.633  1.00  0.00    -0.454 OA
ATOM      8  C   UNL     1     -27.849  57.531  33.112  1.00  0.00     0.062 C 
ATOM      9  C   UNL     1     -27.517  56.387  35.274  1.00  0.00     0.040 C 
ATOM     10  C   UNL     1     -27.959  58.872  32.605  1.00  0.00     0.338 C 
ATOM     11  C   UNL     1     -28.039  56.251  32.420  1.00  0.00     0.011 C 
ATOM     12  C   UNL     1     -27.125  55.138  34.449  1.00  0.00     0.032 C 
ATOM     13  O   UNL     1     -28.213  59.197  31.416  1.00  0.00    -0.246 OA
ATOM     14  C   UNL     1     -27.769  55.114  33.077  1.00  0.00    -0.026 C 
ENDBRANCH   4   5
ENDBRANCH   1   4
TORSDOF 3
ENDMDL
MODEL 3
REMARK VINA RESULT:    -3.255      1.814      4.431
REMARK INTER + INTRA:          -4.314
REMARK INTER:                  -3.864
REMARK INTRA:                  -0.450
REMARK UNBOUND:                -0.488
REMARK SMILES CCCC[C@@H]1OC(=O)C2=C1CCC=C2
REMARK SMILES IDX 3 1 2 2 1 3 4 4 5 5 10 6 6 7 9 8 11 9 7 10 14 11 12 12 8 13
REMARK SMILES IDX 13 14
REMARK H PARENT
REMARK Flexibility Score: inf
ROOT
ATOM      1  C   UNL     1     -26.989  55.355  33.124  1.00  0.00     0.004 C 
ENDROOT
BRANCH   1   2
ATOM      2  C   UNL     1     -28.170  55.735  32.219  1.00  0.00    -0.003 C 
ATOM      3  C   UNL     1     -27.857  56.985  31.403  1.00  0.00     0.004 C 
ENDBRANCH   1   2
BRANCH   1   4
ATOM      4  C   UNL     1     -27.310  55.523  34.618  1.00  0.00     0.050 C 
BRANCH   4   5
ATOM      5  C   UNL     1     -26.513  56.658  35.282  1.00  0.00     0.204 C 
ATOM      6  C   UNL     1     -27.406  57.822  35.641  1.00  0.00    -0.015 C 
ATOM      7  O   UNL     1     -26.004  56.242  36.554  1.00  0.00    -0.454 OA
ATOM      8  C   UNL     1     -27.423  58.016  36.949  1.00  0.00     0.062 C 
ATOM      9  C   UNL     1     -28.315  58.592  34.721  1.00  0.00     0.040 C 
ATOM     10  C   UNL     1     -26.549  57.040  37.545  1.00  0.00     0.338 C 
ATOM     11  C   UNL     1     -28.256  59.040  37.590  1.00  0.00     0.011 C 
ATOM     12  C   UNL     1     -28.670  59.973  35.321  1.00  0.00     0.032 C 
ATOM     13  O   UNL     1     -26.307  56.913  38.774  1.00  0.00    -0.246 OA
ATOM     14  C   UNL     1     -28.907  59.921  36.817  1.00  0.00    -0.026 C 
ENDBRANCH   4   5
ENDBRANCH   1   4
TORSDOF 3
ENDMDL
MODEL 4
REMARK VINA RESULT:    -3.230      1.560      4.419
REMARK INTER + INTRA:          -4.284
REMARK INTER:                  -3.831
REMARK INTRA:                  -0.453
REMARK UNBOUND:                -0.488
REMARK SMILES CCCC[C@@H]1OC(=O)C2=C1CCC=C2
REMARK SMILES IDX 3 1 2 2 1 3 4 4 5 5 10 6 6 7 9 8 11 9 7 10 14 11 12 12 8 13
REMARK SMILES IDX 13 14
REMARK H PARENT
REMARK Flexibility Score: inf
ROOT
ATOM      1  C   UNL     1     -27.453  56.895  32.158  1.00  0.00     0.004 C 
ENDROOT
BRANCH   1   2
ATOM      2  C   UNL     1     -28.364  55.705  32.491  1.00  0.00    -0.003 C 
ATOM      3  C   UNL     1     -27.550  54.507  32.971  1.00  0.00     0.004 C 
ENDBRANCH   1   2
BRANCH   1   4
ATOM      4  C   UNL     1     -27.790  58.147  32.984  1.00  0.00     0.050 C 
BRANCH   4   5
ATOM      5  C   UNL     1     -26.772  58.425  34.102  1.00  0.00     0.204 C 
ATOM      6  C   UNL     1     -27.453  58.584  35.441  1.00  0.00    -0.015 C 
ATOM      7  O   UNL     1     -25.926  57.289  34.308  1.00  0.00    -0.454 OA
ATOM      8  C   UNL     1     -27.065  57.641  36.282  1.00  0.00     0.062 C 
ATOM      9  C   UNL     1     -28.556  59.546  35.793  1.00  0.00     0.040 C 
ATOM     10  C   UNL     1     -26.104  56.817  35.597  1.00  0.00     0.338 C 
ATOM     11  C   UNL     1     -27.611  57.511  37.638  1.00  0.00     0.011 C 
ATOM     12  C   UNL     1     -28.641  59.754  37.324  1.00  0.00     0.032 C 
ATOM     13  O   UNL     1     -25.509  55.816  36.077  1.00  0.00    -0.246 OA
ATOM     14  C   UNL     1     -28.418  58.473  38.105  1.00  0.00    -0.026 C 
ENDBRANCH   4   5
ENDBRANCH   1   4
TORSDOF 3
ENDMDL
MODEL 5
REMARK VINA RESULT:    -3.201      8.685     10.414
REMARK INTER + INTRA:          -4.250
REMARK INTER:                  -3.970
REMARK INTRA:                  -0.280
REMARK UNBOUND:                -0.488
REMARK SMILES CCCC[C@@H]1OC(=O)C2=C1CCC=C2
REMARK SMILES IDX 3 1 2 2 1 3 4 4 5 5 10 6 6 7 9 8 11 9 7 10 14 11 12 12 8 13
REMARK SMILES IDX 13 14
REMARK H PARENT
REMARK Flexibility Score: inf
ROOT
ATOM      1  C   UNL     1     -25.578  49.366  42.592  1.00  0.00     0.004 C 
ENDROOT
BRANCH   1   2
ATOM      2  C   UNL     1     -26.761  48.428  42.317  1.00  0.00    -0.003 C 
ATOM      3  C   UNL     1     -27.249  48.566  40.878  1.00  0.00     0.004 C 
ENDBRANCH   1   2
BRANCH   1   4
ATOM      4  C   UNL     1     -25.950  50.531  43.525  1.00  0.00     0.050 C 
BRANCH   4   5
ATOM      5  C   UNL     1     -26.461  51.768  42.769  1.00  0.00     0.204 C 
ATOM      6  C   UNL     1     -26.224  53.034  43.559  1.00  0.00    -0.015 C 
ATOM      7  O   UNL     1     -25.695  51.987  41.580  1.00  0.00    -0.454 OA
ATOM      8  C   UNL     1     -25.404  53.845  42.913  1.00  0.00     0.062 C 
ATOM      9  C   UNL     1     -26.678  53.330  44.963  1.00  0.00     0.040 C 
ATOM     10  C   UNL     1     -25.060  53.214  41.667  1.00  0.00     0.338 C 
ATOM     11  C   UNL     1     -24.946  55.123  43.472  1.00  0.00     0.011 C 
ATOM     12  C   UNL     1     -26.682  54.854  45.234  1.00  0.00     0.032 C 
ATOM     13  O   UNL     1     -24.300  53.686  40.781  1.00  0.00    -0.246 OA
ATOM     14  C   UNL     1     -25.497  55.565  44.611  1.00  0.00    -0.026 C 
ENDBRANCH   4   5
ENDBRANCH   1   4
TORSDOF 3
ENDMDL
MODEL 6
REMARK VINA RESULT:    -3.195      8.375     10.092
REMARK INTER + INTRA:          -4.243
REMARK INTER:                  -3.779
REMARK INTRA:                  -0.464
REMARK UNBOUND:                -0.488
REMARK SMILES CCCC[C@@H]1OC(=O)C2=C1CCC=C2
REMARK SMILES IDX 3 1 2 2 1 3 4 4 5 5 10 6 6 7 9 8 11 9 7 10 14 11 12 12 8 13
REMARK SMILES IDX 13 14
REMARK H PARENT
REMARK Flexibility Score: inf
ROOT
ATOM      1  C   UNL     1     -24.762  50.860  40.146  1.00  0.00     0.004 C 
ENDROOT
BRANCH   1   2
ATOM      2  C   UNL     1     -25.498  49.724  40.870  1.00  0.00    -0.003 C 
ATOM      3  C   UNL     1     -26.986  49.730  40.534  1.00  0.00     0.004 C 
ENDBRANCH   1   2
BRANCH   1   4
ATOM      4  C   UNL     1     -24.259  51.948  41.109  1.00  0.00     0.050 C 
BRANCH   4   5
ATOM      5  C   UNL     1     -25.232  53.131  41.242  1.00  0.00     0.204 C 
ATOM      6  C   UNL     1     -25.791  53.230  42.642  1.00  0.00    -0.015 C 
ATOM      7  O   UNL     1     -24.540  54.375  41.087  1.00  0.00    -0.454 OA
ATOM      8  C   UNL     1     -25.434  54.368  43.212  1.00  0.00     0.062 C 
ATOM      9  C   UNL     1     -26.514  52.158  43.412  1.00  0.00     0.040 C 
ATOM     10  C   UNL     1     -24.651  55.106  42.257  1.00  0.00     0.338 C 
ATOM     11  C   UNL     1     -25.781  54.707  44.597  1.00  0.00     0.011 C 
ATOM     12  C   UNL     1     -27.343  52.770  44.567  1.00  0.00     0.032 C 
ATOM     13  O   UNL     1     -24.136  56.241  42.438  1.00  0.00    -0.246 OA
ATOM     14  C   UNL     1     -26.627  53.910  45.265  1.00  0.00    -0.026 C 
ENDBRANCH   4   5
ENDBRANCH   1   4
TORSDOF 3
ENDMDL
MODEL 7
REMARK VINA RESULT:    -3.187      2.102      4.373
REMARK INTER + INTRA:          -4.233
REMARK INTER:                  -4.031
REMARK INTRA:                  -0.202
REMARK UNBOUND:                -0.488
REMARK SMILES CCCC[C@@H]1OC(=O)C2=C1CCC=C2
REMARK SMILES IDX 3 1 2 2 1 3 4 4 5 5 10 6 6 7 9 8 11 9 7 10 14 11 12 12 8 13
REMARK SMILES IDX 13 14
REMARK H PARENT
REMARK Flexibility Score: inf
ROOT
ATOM      1  C   UNL     1     -27.772  52.239  32.506  1.00  0.00     0.004 C 
ENDROOT
BRANCH   1   2
ATOM      2  C   UNL     1     -28.246  51.217  33.549  1.00  0.00    -0.003 C 
ATOM      3  C   UNL     1     -29.767  51.100  33.551  1.00  0.00     0.004 C 
ENDBRANCH   1   2
BRANCH   1   4
ATOM      4  C   UNL     1     -28.279  53.661  32.797  1.00  0.00     0.050 C 
BRANCH   4   5
ATOM      5  C   UNL     1     -27.162  54.619  33.243  1.00  0.00     0.204 C 
ATOM      6  C   UNL     1     -27.478  56.048  32.868  1.00  0.00    -0.015 C 
ATOM      7  O   UNL     1     -27.082  54.674  34.671  1.00  0.00    -0.454 OA
ATOM      8  C   UNL     1     -27.595  56.803  33.947  1.00  0.00     0.062 C 
ATOM      9  C   UNL     1     -27.803  56.580  31.498  1.00  0.00     0.040 C 
ATOM     10  C   UNL     1     -27.347  55.966  35.092  1.00  0.00     0.338 C 
ATOM     11  C   UNL     1     -27.962  58.223  33.889  1.00  0.00     0.011 C 
ATOM     12  C   UNL     1     -27.582  58.111  31.432  1.00  0.00     0.032 C 
ATOM     13  O   UNL     1     -27.367  56.332  36.296  1.00  0.00    -0.246 OA
ATOM     14  C   UNL     1     -28.029  58.824  32.693  1.00  0.00    -0.026 C 
ENDBRANCH   4   5
ENDBRANCH   1   4
TORSDOF 3
ENDMDL
MODEL 8
REMARK VINA RESULT:    -3.092      8.595     10.439
REMARK INTER + INTRA:          -4.122
REMARK INTER:                  -3.474
REMARK INTRA:                  -0.648
REMARK UNBOUND:                -0.488
REMARK SMILES CCCC[C@@H]1OC(=O)C2=C1CCC=C2
REMARK SMILES IDX 3 1 2 2 1 3 4 4 5 5 10 6 6 7 9 8 11 9 7 10 14 11 12 12 8 13
REMARK SMILES IDX 13 14
REMARK H PARENT
REMARK Flexibility Score: inf
ROOT
ATOM      1  C   UNL     1     -24.426  50.535  43.335  1.00  0.00     0.004 C 
ENDROOT
BRANCH   1   2
ATOM      2  C   UNL     1     -23.869  50.513  44.766  1.00  0.00    -0.003 C 
ATOM      3  C   UNL     1     -23.236  51.852  45.129  1.00  0.00     0.004 C 
ENDBRANCH   1   2
BRANCH   1   4
ATOM      4  C   UNL     1     -25.959  50.656  43.299  1.00  0.00     0.050 C 
BRANCH   4   5
ATOM      5  C   UNL     1     -26.445  51.949  42.623  1.00  0.00     0.204 C 
ATOM      6  C   UNL     1     -26.215  53.153  43.505  1.00  0.00    -0.015 C 
ATOM      7  O   UNL     1     -25.653  52.244  41.468  1.00  0.00    -0.454 OA
ATOM      8  C   UNL     1     -25.376  54.001  42.935  1.00  0.00     0.062 C 
ATOM      9  C   UNL     1     -26.695  53.353  44.918  1.00  0.00     0.040 C 
ATOM     10  C   UNL     1     -25.011  53.456  41.654  1.00  0.00     0.338 C 
ATOM     11  C   UNL     1     -24.919  55.232  43.592  1.00  0.00     0.011 C 
ATOM     12  C   UNL     1     -26.693  54.854  45.295  1.00  0.00     0.032 C 
ATOM     13  O   UNL     1     -24.229  53.982  40.819  1.00  0.00    -0.246 OA
ATOM     14  C   UNL     1     -25.490  55.597  44.748  1.00  0.00    -0.026 C 
ENDBRANCH   4   5
ENDBRANCH   1   4
TORSDOF 3
ENDMDL
MODEL 9
REMARK VINA RESULT:    -3.065      1.503      4.672
REMARK INTER + INTRA:          -4.090
REMARK INTER:                  -3.841
REMARK INTRA:                  -0.249
REMARK UNBOUND:                -0.488
REMARK SMILES CCCC[C@@H]1OC(=O)C2=C1CCC=C2
REMARK SMILES IDX 3 1 2 2 1 3 4 4 5 5 10 6 6 7 9 8 11 9 7 10 14 11 12 12 8 13
REMARK SMILES IDX 13 14
REMARK H PARENT
REMARK Flexibility Score: inf
ROOT
ATOM      1  C   UNL     1     -27.904  57.105  32.143  1.00  0.00     0.004 C 
ENDROOT
BRANCH   1   2
ATOM      2  C   UNL     1     -27.751  57.500  30.667  1.00  0.00    -0.003 C 
ATOM      3  C   UNL     1     -28.433  58.835  30.382  1.00  0.00     0.004 C 
ENDBRANCH   1   2
BRANCH   1   4
ATOM      4  C   UNL     1     -27.951  58.324  33.080  1.00  0.00     0.050 C 
BRANCH   4   5
ATOM      5  C   UNL     1     -26.845  58.306  34.147  1.00  0.00     0.204 C 
ATOM      6  C   UNL     1     -27.424  58.344  35.542  1.00  0.00    -0.015 C 
ATOM      7  O   UNL     1     -26.143  57.058  34.128  1.00  0.00    -0.454 OA
ATOM      8  C   UNL     1     -27.116  57.245  36.210  1.00  0.00     0.062 C 
ATOM      9  C   UNL     1     -28.371  59.368  36.108  1.00  0.00     0.040 C 
ATOM     10  C   UNL     1     -26.310  56.423  35.347  1.00  0.00     0.338 C 
ATOM     11  C   UNL     1     -27.598  56.980  37.571  1.00  0.00     0.011 C 
ATOM     12  C   UNL     1     -28.343  59.353  37.655  1.00  0.00     0.032 C 
ATOM     13  O   UNL     1     -25.825  55.298  35.635  1.00  0.00    -0.246 OA
ATOM     14  C   UNL     1     -28.246  57.953  38.228  1.00  0.00    -0.026 C 
ENDBRANCH   4   5
ENDBRANCH   1   4
TORSDOF 3
ENDMDL
