MODEL 1
REMARK VINA RESULT:    -4.880      0.000      0.000
REMARK INTER + INTRA:          -6.355
REMARK INTER:                  -6.877
REMARK INTRA:                   0.522
REMARK UNBOUND:                 0.522
REMARK SMILES CC1=CCC(=C(C)C)C(=O)CC(C)=CCC1
REMARK SMILES IDX 12 1 14 2 13 3 15 4 16 5 2 6 1 7 3 8 11 10 9 11 10 12 5 13
REMARK SMILES IDX 6 14 7 15 8 16 4 17
REMARK H PARENT
REMARK Flexibility Score: 60.00
ROOT
ATOM      1  C   UNL     1     -11.947 -16.866  32.083  1.00  0.00    -0.070 C 
ATOM      2  C   UNL     1     -12.069 -18.209  32.214  1.00  0.00    -0.027 C 
ATOM      3  C   UNL     1     -10.953 -16.167  32.977  1.00  0.00     0.039 C 
ENDROOT
BRANCH   2   4
ATOM      4  C   UNL     1     -12.918 -19.117  31.358  1.00  0.00     0.032 C 
BRANCH   4   5
ATOM      5  C   UNL     1     -12.143 -19.700  30.162  1.00  0.00     0.034 C 
BRANCH   5   6
ATOM      6  C   UNL     1     -12.964 -19.689  28.887  1.00  0.00    -0.077 C 
ATOM      7  C   UNL     1     -13.996 -20.772  28.693  1.00  0.00     0.039 C 
ATOM      8  C   UNL     1     -12.806 -18.780  27.900  1.00  0.00    -0.023 CG0
ATOM      9  G   UNL     1     -11.806 -17.648  27.894  1.00  0.00     0.000 G0
ENDBRANCH   5   6
ENDBRANCH   4   5
ENDBRANCH   2   4
BRANCH   1  10
ATOM     10  C   UNL     1     -12.702 -16.046  31.050  1.00  0.00     0.111 C 
BRANCH  10  11
ATOM     11  C   UNL     1     -11.917 -15.906  29.769  1.00  0.00     0.163 C 
ATOM     12  O   UNL     1     -10.805 -15.314  29.816  1.00  0.00    -0.294 OA
BRANCH  11  13
ATOM     13  C   UNL     1     -12.445 -16.399  28.459  1.00  0.00    -0.002 C 
ATOM     14  C   UNL     1     -13.410 -15.717  27.771  1.00  0.00    -0.069 C 
ATOM     15  C   UNL     1     -13.966 -16.241  26.464  1.00  0.00     0.039 C 
ATOM     16  C   UNL     1     -13.943 -14.389  28.260  1.00  0.00     0.039 C 
BRANCH  13  17
ATOM     17  C   UNL     1     -11.810 -17.653  27.887  1.00  0.00     0.066 CG0
ATOM     18  G   UNL     1     -12.810 -18.785  27.900  1.00  0.00     0.000 G0
ENDBRANCH  13  17
ENDBRANCH  11  13
ENDBRANCH  10  11
ENDBRANCH   1  10
TORSDOF 0
ENDMDL
MODEL 2
REMARK VINA RESULT:    -4.845      1.634      3.417
REMARK INTER + INTRA:          -6.306
REMARK INTER:                  -7.131
REMARK INTRA:                   0.825
REMARK UNBOUND:                 0.522
REMARK SMILES CC1=CCC(=C(C)C)C(=O)CC(C)=CCC1
REMARK SMILES IDX 12 1 14 2 13 3 15 4 16 5 2 6 1 7 3 8 11 10 9 11 10 12 5 13
REMARK SMILES IDX 6 14 7 15 8 16 4 17
REMARK H PARENT
REMARK Flexibility Score: 60.00
ROOT
ATOM      1  C   UNL     1     -12.879 -19.375  29.426  1.00  0.00    -0.070 C 
ATOM      2  C   UNL     1     -13.269 -19.626  30.699  1.00  0.00    -0.027 C 
ATOM      3  C   UNL     1     -13.884 -19.627  28.329  1.00  0.00     0.039 C 
ENDROOT
BRANCH   2   4
ATOM      4  C   UNL     1     -12.469 -19.349  31.950  1.00  0.00     0.032 C 
BRANCH   4   5
ATOM      5  C   UNL     1     -11.990 -17.888  32.035  1.00  0.00     0.034 C 
BRANCH   5   6
ATOM      6  C   UNL     1     -13.116 -16.901  31.795  1.00  0.00    -0.077 C 
ATOM      7  C   UNL     1     -14.339 -16.983  32.675  1.00  0.00     0.039 C 
ATOM      8  C   UNL     1     -13.100 -15.966  30.820  1.00  0.00    -0.023 CG0
ATOM      9  G   UNL     1     -11.987 -15.752  29.821  1.00  0.00     0.000 G0
ENDBRANCH   5   6
ENDBRANCH   4   5
ENDBRANCH   2   4
BRANCH   1  10
ATOM     10  C   UNL     1     -11.523 -18.799  29.056  1.00  0.00     0.111 C 
BRANCH  10  11
ATOM     11  C   UNL     1     -11.653 -17.642  28.096  1.00  0.00     0.163 C 
ATOM     12  O   UNL     1     -11.113 -17.750  26.961  1.00  0.00    -0.294 OA
BRANCH  11  13
ATOM     13  C   UNL     1     -12.350 -16.374  28.474  1.00  0.00    -0.002 C 
ATOM     14  C   UNL     1     -13.326 -15.828  27.688  1.00  0.00    -0.069 C 
ATOM     15  C   UNL     1     -14.001 -14.524  28.058  1.00  0.00     0.039 C 
ATOM     16  C   UNL     1     -13.808 -16.517  26.430  1.00  0.00     0.039 C 
BRANCH  13  17
ATOM     17  C   UNL     1     -11.978 -15.754  29.808  1.00  0.00     0.066 CG0
ATOM     18  G   UNL     1     -13.094 -15.975  30.803  1.00  0.00     0.000 G0
ENDBRANCH  13  17
ENDBRANCH  11  13
ENDBRANCH  10  11
ENDBRANCH   1  10
TORSDOF 0
ENDMDL
MODEL 3
REMARK VINA RESULT:    -4.763      2.311      3.049
REMARK INTER + INTRA:          -6.191
REMARK INTER:                  -6.994
REMARK INTRA:                   0.803
REMARK UNBOUND:                 0.522
REMARK SMILES CC1=CCC(=C(C)C)C(=O)CC(C)=CCC1
REMARK SMILES IDX 12 1 14 2 13 3 15 4 16 5 2 6 1 7 3 8 11 10 9 11 10 12 5 13
REMARK SMILES IDX 6 14 7 15 8 16 4 17
REMARK H PARENT
REMARK Flexibility Score: 60.00
ROOT
ATOM      1  C   UNL     1     -13.708 -15.503  31.529  1.00  0.00    -0.070 C 
ATOM      2  C   UNL     1     -12.866 -15.564  32.588  1.00  0.00    -0.027 C 
ATOM      3  C   UNL     1     -14.753 -14.414  31.534  1.00  0.00     0.039 C 
ENDROOT
BRANCH   2   4
ATOM      4  C   UNL     1     -11.689 -16.497  32.741  1.00  0.00     0.032 C 
BRANCH   4   5
ATOM      5  C   UNL     1     -10.572 -16.215  31.718  1.00  0.00     0.034 C 
BRANCH   5   6
ATOM      6  C   UNL     1     -10.281 -17.418  30.841  1.00  0.00    -0.077 C 
ATOM      7  C   UNL     1      -9.897 -18.714  31.510  1.00  0.00     0.039 C 
ATOM      8  C   UNL     1     -10.320 -17.390  29.491  1.00  0.00    -0.023 CG0
ATOM      9  G   UNL     1     -10.647 -16.183  28.643  1.00  0.00     0.000 G0
ENDBRANCH   5   6
ENDBRANCH   4   5
ENDBRANCH   2   4
BRANCH   1  10
ATOM     10  C   UNL     1     -13.615 -16.420  30.321  1.00  0.00     0.111 C 
BRANCH  10  11
ATOM     11  C   UNL     1     -13.138 -15.679  29.096  1.00  0.00     0.163 C 
ATOM     12  O   UNL     1     -13.674 -14.570  28.828  1.00  0.00    -0.294 OA
BRANCH  11  13
ATOM     13  C   UNL     1     -12.101 -16.248  28.180  1.00  0.00    -0.002 C 
ATOM     14  C   UNL     1     -12.424 -16.742  26.947  1.00  0.00    -0.069 C 
ATOM     15  C   UNL     1     -11.375 -17.350  26.041  1.00  0.00     0.039 C 
ATOM     16  C   UNL     1     -13.837 -16.672  26.411  1.00  0.00     0.039 C 
BRANCH  13  17
ATOM     17  C   UNL     1     -10.659 -16.186  28.648  1.00  0.00     0.066 CG0
ATOM     18  G   UNL     1     -10.343 -17.399  29.491  1.00  0.00     0.000 G0
ENDBRANCH  13  17
ENDBRANCH  11  13
ENDBRANCH  10  11
ENDBRANCH   1  10
TORSDOF 0
ENDMDL
MODEL 4
REMARK VINA RESULT:    -4.761      1.711      3.696
REMARK INTER + INTRA:          -6.188
REMARK INTER:                  -6.779
REMARK INTRA:                   0.590
REMARK UNBOUND:                 0.522
REMARK SMILES CC1=CCC(=C(C)C)C(=O)CC(C)=CCC1
REMARK SMILES IDX 12 1 14 2 13 3 15 4 16 5 2 6 1 7 3 8 11 10 9 11 10 12 5 13
REMARK SMILES IDX 6 14 7 15 8 16 4 17
REMARK H PARENT
REMARK Flexibility Score: 60.00
ROOT
ATOM      1  C   UNL     1     -10.378 -16.413  31.887  1.00  0.00    -0.070 C 
ATOM      2  C   UNL     1      -9.931 -15.736  30.803  1.00  0.00    -0.027 C 
ATOM      3  C   UNL     1     -10.379 -15.686  33.209  1.00  0.00     0.039 C 
ENDROOT
BRANCH   2   4
ATOM      4  C   UNL     1      -9.939 -16.228  29.375  1.00  0.00     0.032 C 
BRANCH   4   5
ATOM      5  C   UNL     1     -11.219 -15.828  28.618  1.00  0.00     0.034 C 
BRANCH   5   6
ATOM      6  C   UNL     1     -11.708 -16.930  27.698  1.00  0.00    -0.077 C 
ATOM      7  C   UNL     1     -11.007 -17.122  26.376  1.00  0.00     0.039 C 
ATOM      8  C   UNL     1     -12.756 -17.735  27.982  1.00  0.00    -0.023 CG0
ATOM      9  G   UNL     1     -13.602 -17.675  29.232  1.00  0.00     0.000 G0
ENDBRANCH   5   6
ENDBRANCH   4   5
ENDBRANCH   2   4
BRANCH   1  10
ATOM     10  C   UNL     1     -10.934 -17.826  31.831  1.00  0.00     0.111 C 
BRANCH  10  11
ATOM     11  C   UNL     1     -12.412 -17.831  31.526  1.00  0.00     0.163 C 
ATOM     12  O   UNL     1     -13.187 -17.260  32.339  1.00  0.00    -0.294 OA
BRANCH  11  13
ATOM     13  C   UNL     1     -12.971 -18.533  30.329  1.00  0.00    -0.002 C 
ATOM     14  C   UNL     1     -12.984 -19.897  30.236  1.00  0.00    -0.069 C 
ATOM     15  C   UNL     1     -13.516 -20.600  29.006  1.00  0.00     0.039 C 
ATOM     16  C   UNL     1     -12.501 -20.773  31.372  1.00  0.00     0.039 C 
BRANCH  13  17
ATOM     17  C   UNL     1     -13.593 -17.667  29.249  1.00  0.00     0.066 CG0
ATOM     18  G   UNL     1     -12.756 -17.733  27.994  1.00  0.00     0.000 G0
ENDBRANCH  13  17
ENDBRANCH  11  13
ENDBRANCH  10  11
ENDBRANCH   1  10
TORSDOF 0
ENDMDL
MODEL 5
REMARK VINA RESULT:    -4.754      1.789      4.171
REMARK INTER + INTRA:          -6.178
REMARK INTER:                  -7.449
REMARK INTRA:                   1.271
REMARK UNBOUND:                 0.522
REMARK SMILES CC1=CCC(=C(C)C)C(=O)CC(C)=CCC1
REMARK SMILES IDX 12 1 14 2 13 3 15 4 16 5 2 6 1 7 3 8 11 10 9 11 10 12 5 13
REMARK SMILES IDX 6 14 7 15 8 16 4 17
REMARK H PARENT
REMARK Flexibility Score: 60.00
ROOT
ATOM      1  C   UNL     1     -12.975 -15.504  29.376  1.00  0.00    -0.070 C 
ATOM      2  C   UNL     1     -13.744 -15.476  30.491  1.00  0.00    -0.027 C 
ATOM      3  C   UNL     1     -13.636 -15.148  28.067  1.00  0.00     0.039 C 
ENDROOT
BRANCH   2   4
ATOM      4  C   UNL     1     -13.272 -15.692  31.909  1.00  0.00     0.032 C 
BRANCH   4   5
ATOM      5  C   UNL     1     -12.633 -17.078  32.115  1.00  0.00     0.034 C 
BRANCH   5   6
ATOM      6  C   UNL     1     -11.138 -16.991  32.354  1.00  0.00    -0.077 C 
ATOM      7  C   UNL     1     -10.626 -15.935  33.301  1.00  0.00     0.039 C 
ATOM      8  C   UNL     1     -10.233 -17.788  31.745  1.00  0.00    -0.023 CG0
ATOM      9  G   UNL     1     -10.546 -18.873  30.742  1.00  0.00     0.000 G0
ENDBRANCH   5   6
ENDBRANCH   4   5
ENDBRANCH   2   4
BRANCH   1  10
ATOM     10  C   UNL     1     -11.486 -15.807  29.384  1.00  0.00     0.111 C 
BRANCH  10  11
ATOM     11  C   UNL     1     -11.202 -17.207  28.897  1.00  0.00     0.163 C 
ATOM     12  O   UNL     1     -10.696 -17.345  27.751  1.00  0.00    -0.294 OA
BRANCH  11  13
ATOM     13  C   UNL     1     -11.551 -18.414  29.709  1.00  0.00    -0.002 C 
ATOM     14  C   UNL     1     -12.709 -19.110  29.502  1.00  0.00    -0.069 C 
ATOM     15  C   UNL     1     -13.073 -20.308  30.352  1.00  0.00     0.039 C 
ATOM     16  C   UNL     1     -13.666 -18.742  28.390  1.00  0.00     0.039 C 
BRANCH  13  17
ATOM     17  C   UNL     1     -10.526 -18.880  30.728  1.00  0.00     0.066 CG0
ATOM     18  G   UNL     1     -10.261 -17.779  31.727  1.00  0.00     0.000 G0
ENDBRANCH  13  17
ENDBRANCH  11  13
ENDBRANCH  10  11
ENDBRANCH   1  10
TORSDOF 0
ENDMDL
MODEL 6
REMARK VINA RESULT:    -4.377      1.891      4.007
REMARK INTER + INTRA:          -5.647
REMARK INTER:                  -6.424
REMARK INTRA:                   0.777
REMARK UNBOUND:                 0.522
REMARK SMILES CC1=CCC(=C(C)C)C(=O)CC(C)=CCC1
REMARK SMILES IDX 12 1 14 2 13 3 15 4 16 5 2 6 1 7 3 8 11 10 9 11 10 12 5 13
REMARK SMILES IDX 6 14 7 15 8 16 4 17
REMARK H PARENT
REMARK Flexibility Score: 60.00
ROOT
ATOM      1  C   UNL     1     -14.002 -15.087  31.146  1.00  0.00    -0.070 C 
ATOM      2  C   UNL     1     -14.006 -14.869  29.809  1.00  0.00    -0.027 C 
ATOM      3  C   UNL     1     -15.217 -14.648  31.926  1.00  0.00     0.039 C 
ENDROOT
BRANCH   2   4
ATOM      4  C   UNL     1     -12.951 -15.318  28.827  1.00  0.00     0.032 C 
BRANCH   4   5
ATOM      5  C   UNL     1     -13.384 -16.552  28.014  1.00  0.00     0.034 C 
BRANCH   5   6
ATOM      6  C   UNL     1     -12.239 -17.520  27.787  1.00  0.00    -0.077 C 
ATOM      7  C   UNL     1     -11.388 -17.345  26.554  1.00  0.00     0.039 C 
ATOM      8  C   UNL     1     -11.951 -18.549  28.614  1.00  0.00    -0.023 CG0
ATOM      9  G   UNL     1     -12.705 -18.907  29.873  1.00  0.00     0.000 G0
ENDBRANCH   5   6
ENDBRANCH   4   5
ENDBRANCH   2   4
BRANCH   1  10
ATOM     10  C   UNL     1     -12.880 -15.800  31.882  1.00  0.00     0.111 C 
BRANCH  10  11
ATOM     11  C   UNL     1     -13.049 -17.298  31.838  1.00  0.00     0.163 C 
ATOM     12  O   UNL     1     -13.979 -17.810  32.518  1.00  0.00    -0.294 OA
BRANCH  11  13
ATOM     13  C   UNL     1     -12.121 -18.178  31.061  1.00  0.00    -0.002 C 
ATOM     14  C   UNL     1     -10.822 -18.366  31.442  1.00  0.00    -0.069 C 
ATOM     15  C   UNL     1      -9.878 -19.227  30.630  1.00  0.00     0.039 C 
ATOM     16  C   UNL     1     -10.272 -17.754  32.712  1.00  0.00     0.039 C 
BRANCH  13  17
ATOM     17  C   UNL     1     -12.704 -18.914  29.869  1.00  0.00     0.066 CG0
ATOM     18  G   UNL     1     -11.939 -18.551  28.619  1.00  0.00     0.000 G0
ENDBRANCH  13  17
ENDBRANCH  11  13
ENDBRANCH  10  11
ENDBRANCH   1  10
TORSDOF 0
ENDMDL
MODEL 7
REMARK VINA RESULT:    -4.305      1.400      3.642
REMARK INTER + INTRA:          -5.546
REMARK INTER:                  -6.654
REMARK INTRA:                   1.108
REMARK UNBOUND:                 0.522
REMARK SMILES CC1=CCC(=C(C)C)C(=O)CC(C)=CCC1
REMARK SMILES IDX 12 1 14 2 13 3 15 4 16 5 2 6 1 7 3 8 11 10 9 11 10 12 5 13
REMARK SMILES IDX 6 14 7 15 8 16 4 17
REMARK H PARENT
REMARK Flexibility Score: 60.00
ROOT
ATOM      1  C   UNL     1     -12.355 -17.080  31.707  1.00  0.00    -0.070 C 
ATOM      2  C   UNL     1     -11.972 -15.941  31.082  1.00  0.00    -0.027 C 
ATOM      3  C   UNL     1     -13.726 -17.102  32.336  1.00  0.00     0.039 C 
ENDROOT
BRANCH   2   4
ATOM      4  C   UNL     1     -10.696 -15.734  30.302  1.00  0.00     0.032 C 
BRANCH   4   5
ATOM      5  C   UNL     1     -10.948 -15.549  28.793  1.00  0.00     0.034 C 
BRANCH   5   6
ATOM      6  C   UNL     1     -12.386 -15.845  28.412  1.00  0.00    -0.077 C 
ATOM      7  C   UNL     1     -13.384 -14.715  28.459  1.00  0.00     0.039 C 
ATOM      8  C   UNL     1     -12.832 -17.070  28.058  1.00  0.00    -0.023 CG0
ATOM      9  G   UNL     1     -11.997 -18.326  27.986  1.00  0.00     0.000 G0
ENDBRANCH   5   6
ENDBRANCH   4   5
ENDBRANCH   2   4
BRANCH   1  10
ATOM     10  C   UNL     1     -11.512 -18.344  31.749  1.00  0.00     0.111 C 
BRANCH  10  11
ATOM     11  C   UNL     1     -11.108 -18.790  30.366  1.00  0.00     0.163 C 
ATOM     12  O   UNL     1      -9.877 -18.861  30.102  1.00  0.00    -0.294 OA
BRANCH  11  13
ATOM     13  C   UNL     1     -12.118 -19.093  29.304  1.00  0.00    -0.002 C 
ATOM     14  C   UNL     1     -13.146 -19.968  29.519  1.00  0.00    -0.069 C 
ATOM     15  C   UNL     1     -14.142 -20.297  28.427  1.00  0.00     0.039 C 
ATOM     16  C   UNL     1     -13.362 -20.622  30.866  1.00  0.00     0.039 C 
BRANCH  13  17
ATOM     17  C   UNL     1     -11.996 -18.328  27.999  1.00  0.00     0.066 CG0
ATOM     18  G   UNL     1     -12.839 -17.076  28.059  1.00  0.00     0.000 G0
ENDBRANCH  13  17
ENDBRANCH  11  13
ENDBRANCH  10  11
ENDBRANCH   1  10
TORSDOF 0
ENDMDL
MODEL 8
REMARK VINA RESULT:    -4.279      1.635      3.505
REMARK INTER + INTRA:          -5.509
REMARK INTER:                  -7.257
REMARK INTRA:                   1.748
REMARK UNBOUND:                 0.522
REMARK SMILES CC1=CCC(=C(C)C)C(=O)CC(C)=CCC1
REMARK SMILES IDX 12 1 14 2 13 3 15 4 16 5 2 6 1 7 3 8 11 10 9 11 10 12 5 13
REMARK SMILES IDX 6 14 7 15 8 16 4 17
REMARK H PARENT
REMARK Flexibility Score: 60.00
ROOT
ATOM      1  C   UNL     1     -12.507 -19.722  30.387  1.00  0.00    -0.070 C 
ATOM      2  C   UNL     1     -13.595 -19.748  29.581  1.00  0.00    -0.027 C 
ATOM      3  C   UNL     1     -12.515 -20.625  31.596  1.00  0.00     0.039 C 
ENDROOT
BRANCH   2   4
ATOM      4  C   UNL     1     -13.756 -19.011  28.273  1.00  0.00     0.032 C 
BRANCH   4   5
ATOM      5  C   UNL     1     -12.560 -18.094  27.958  1.00  0.00     0.034 C 
BRANCH   5   6
ATOM      6  C   UNL     1     -12.996 -16.686  27.602  1.00  0.00    -0.077 C 
ATOM      7  C   UNL     1     -13.918 -16.499  26.423  1.00  0.00     0.039 C 
ATOM      8  C   UNL     1     -12.584 -15.582  28.264  1.00  0.00    -0.023 CG0
ATOM      9  G   UNL     1     -11.638 -15.562  29.441  1.00  0.00     0.000 G0
ENDBRANCH   5   6
ENDBRANCH   4   5
ENDBRANCH   2   4
BRANCH   1  10
ATOM     10  C   UNL     1     -11.266 -18.890  30.106  1.00  0.00     0.111 C 
BRANCH  10  11
ATOM     11  C   UNL     1     -11.256 -17.616  30.914  1.00  0.00     0.163 C 
ATOM     12  O   UNL     1     -10.527 -17.571  31.941  1.00  0.00    -0.294 OA
BRANCH  11  13
ATOM     13  C   UNL     1     -12.119 -16.446  30.559  1.00  0.00    -0.002 C 
ATOM     14  C   UNL     1     -13.261 -16.158  31.254  1.00  0.00    -0.069 C 
ATOM     15  C   UNL     1     -14.149 -14.995  30.865  1.00  0.00     0.039 C 
ATOM     16  C   UNL     1     -13.675 -16.963  32.466  1.00  0.00     0.039 C 
BRANCH  13  17
ATOM     17  C   UNL     1     -11.633 -15.545  29.438  1.00  0.00     0.066 CG0
ATOM     18  G   UNL     1     -12.605 -15.597  28.283  1.00  0.00     0.000 G0
ENDBRANCH  13  17
ENDBRANCH  11  13
ENDBRANCH  10  11
ENDBRANCH   1  10
TORSDOF 0
ENDMDL
MODEL 9
REMARK VINA RESULT:    -4.175      2.167      3.410
REMARK INTER + INTRA:          -5.362
REMARK INTER:                  -5.938
REMARK INTRA:                   0.575
REMARK UNBOUND:                 0.522
REMARK SMILES CC1=CCC(=C(C)C)C(=O)CC(C)=CCC1
REMARK SMILES IDX 12 1 14 2 13 3 15 4 16 5 2 6 1 7 3 8 11 10 9 11 10 12 5 13
REMARK SMILES IDX 6 14 7 15 8 16 4 17
REMARK H PARENT
REMARK Flexibility Score: 60.00
ROOT
ATOM      1  C   UNL     1     -10.581 -17.295  31.737  1.00  0.00    -0.070 C 
ATOM      2  C   UNL     1     -10.034 -17.189  30.502  1.00  0.00    -0.027 C 
ATOM      3  C   UNL     1     -10.191 -18.490  32.571  1.00  0.00     0.039 C 
ENDROOT
BRANCH   2   4
ATOM      4  C   UNL     1     -10.201 -16.032  29.547  1.00  0.00     0.032 C 
BRANCH   4   5
ATOM      5  C   UNL     1     -10.819 -16.458  28.202  1.00  0.00     0.034 C 
BRANCH   5   6
ATOM      6  C   UNL     1     -12.121 -17.214  28.385  1.00  0.00    -0.077 C 
ATOM      7  C   UNL     1     -12.234 -18.597  27.793  1.00  0.00     0.039 C 
ATOM      8  C   UNL     1     -13.199 -16.710  29.026  1.00  0.00    -0.023 CG0
ATOM      9  G   UNL     1     -13.291 -15.338  29.651  1.00  0.00     0.000 G0
ENDBRANCH   5   6
ENDBRANCH   4   5
ENDBRANCH   2   4
BRANCH   1  10
ATOM     10  C   UNL     1     -11.505 -16.252  32.344  1.00  0.00     0.111 C 
BRANCH  10  11
ATOM     11  C   UNL     1     -12.944 -16.492  31.960  1.00  0.00     0.163 C 
ATOM     12  O   UNL     1     -13.480 -17.576  32.316  1.00  0.00    -0.294 OA
BRANCH  11  13
ATOM     13  C   UNL     1     -13.718 -15.513  31.134  1.00  0.00    -0.002 C 
ATOM     14  C   UNL     1     -14.717 -14.751  31.671  1.00  0.00    -0.069 C 
ATOM     15  C   UNL     1     -15.521 -13.790  30.822  1.00  0.00     0.039 C 
ATOM     16  C   UNL     1     -15.045 -14.801  33.147  1.00  0.00     0.039 C 
BRANCH  13  17
ATOM     17  C   UNL     1     -13.296 -15.348  29.685  1.00  0.00     0.066 CG0
ATOM     18  G   UNL     1     -13.204 -16.701  29.022  1.00  0.00     0.000 G0
ENDBRANCH  13  17
ENDBRANCH  11  13
ENDBRANCH  10  11
ENDBRANCH   1  10
TORSDOF 0
ENDMDL
