MODEL 1
REMARK VINA RESULT:    -8.963      0.000      0.000
REMARK INTER + INTRA:         -13.885
REMARK INTER:                 -13.155
REMARK INTRA:                  -0.730
REMARK UNBOUND:                -0.730
REMARK SMILES Cc1cc2c(C(C)C)c(O)c(O)c(C=O)c2c(O)c1-c1c(C)cc2c(C(C)C)c(O)c(O)c(C=O)c2c1O
REMARK SMILES IDX 1 1 2 2 3 3 4 4 16 5 13 6 11 7 9 8 5 9 17 10 19 11 20 12
REMARK SMILES IDX 37 13 21 14 36 15 23 16 22 17 24 18 33 19 25 20 31 21 29 22
REMARK SMILES IDX 38 23 34 25 35 26 26 27 27 28 28 29 32 30 30 32 18 34 6 36
REMARK SMILES IDX 7 37 8 38 14 39 15 40 10 41 12 43
REMARK H PARENT 38 24 32 31 30 33 18 35 10 42 12 44
REMARK Flexibility Score: inf
ROOT
ATOM      1  C   UNL     1       5.877  -8.785 -30.525  1.00  0.00     0.045 C 
ATOM      2  C   UNL     1       7.183  -9.478 -30.831  1.00  0.00    -0.039 A 
ATOM      3  C   UNL     1       7.700 -10.401 -29.921  1.00  0.00     0.013 A 
ATOM      4  C   UNL     1       8.918 -11.073 -30.144  1.00  0.00    -0.006 A 
ATOM      5  C   UNL     1       9.592 -10.866 -31.387  1.00  0.00     0.039 A 
ATOM      6  C   UNL     1      10.728 -11.673 -31.701  1.00  0.00     0.072 A 
ATOM      7  C   UNL     1      11.186 -12.629 -30.774  1.00  0.00     0.169 A 
ATOM      8  C   UNL     1      10.587 -12.748 -29.517  1.00  0.00     0.162 A 
ATOM      9  C   UNL     1       9.476 -11.951 -29.160  1.00  0.00     0.008 A 
ATOM     10  C   UNL     1       9.118  -9.845 -32.266  1.00  0.00     0.132 A 
ATOM     11  C   UNL     1       7.910  -9.170 -31.991  1.00  0.00     0.031 A 
ENDROOT
BRANCH  11  12
ATOM     12  C   UNL     1       7.401  -8.136 -32.929  1.00  0.00     0.031 A 
ATOM     13  C   UNL     1       6.808  -8.516 -34.152  1.00  0.00     0.132 A 
ATOM     14  C   UNL     1       7.492  -6.777 -32.586  1.00  0.00    -0.039 A 
ATOM     15  C   UNL     1       6.272  -7.529 -35.033  1.00  0.00     0.039 A 
ATOM     16  C   UNL     1       7.060  -5.808 -33.493  1.00  0.00     0.013 A 
ATOM     17  C   UNL     1       8.049  -6.348 -31.250  1.00  0.00     0.045 C 
ATOM     18  C   UNL     1       6.518  -6.154 -34.750  1.00  0.00    -0.006 A 
ATOM     19  C   UNL     1       5.520  -7.869 -36.195  1.00  0.00     0.072 A 
ATOM     20  C   UNL     1       6.189  -5.153 -35.713  1.00  0.00     0.008 A 
ATOM     21  C   UNL     1       5.080  -6.861 -37.072  1.00  0.00     0.169 A 
ATOM     22  C   UNL     1       5.380  -5.509 -36.815  1.00  0.00     0.162 A 
BRANCH  13  23
ATOM     23  O   UNL     1       6.782  -9.870 -34.509  1.00  0.00    -0.507 OA
ATOM     24  H   UNL     1       6.190 -10.250 -35.237  1.00  0.00     0.293 HD
ENDBRANCH  13  23
BRANCH  19  25
ATOM     25  C   UNL     1       5.058  -9.254 -36.458  1.00  0.00     0.264 C 
ATOM     26  O   UNL     1       5.609  -9.966 -37.338  1.00  0.00    -0.298 OA
ENDBRANCH  19  25
BRANCH  20  27
ATOM     27  C   UNL     1       6.680  -3.701 -35.563  1.00  0.00     0.017 C 
ATOM     28  C   UNL     1       5.512  -2.753 -35.273  1.00  0.00     0.012 C 
ATOM     29  C   UNL     1       7.524  -3.206 -36.753  1.00  0.00     0.012 C 
ENDBRANCH  20  27
BRANCH  21  30
ATOM     30  O   UNL     1       4.336  -7.237 -38.199  1.00  0.00    -0.504 OA
ATOM     31  H   UNL     1       4.247  -6.687 -39.039  1.00  0.00     0.293 HD
ENDBRANCH  21  30
BRANCH  22  32
ATOM     32  O   UNL     1       4.852  -4.493 -37.617  1.00  0.00    -0.504 OA
ATOM     33  H   UNL     1       5.375  -3.967 -38.302  1.00  0.00     0.293 HD
ENDBRANCH  22  32
ENDBRANCH  11  12
BRANCH  10  34
ATOM     34  O   UNL     1       9.862  -9.479 -33.394  1.00  0.00    -0.507 OA
ATOM     35  H   UNL     1      10.049  -8.521 -33.662  1.00  0.00     0.293 HD
ENDBRANCH  10  34
BRANCH   9  36
ATOM     36  C   UNL     1       8.945 -12.082 -27.719  1.00  0.00     0.017 C 
ATOM     37  C   UNL     1       9.922 -11.504 -26.686  1.00  0.00     0.012 C 
ATOM     38  C   UNL     1       8.440 -13.493 -27.352  1.00  0.00     0.012 C 
ENDBRANCH   9  36
BRANCH   6  39
ATOM     39  C   UNL     1      11.397 -11.596 -33.017  1.00  0.00     0.264 C 
ATOM     40  O   UNL     1      12.328 -10.772 -33.217  1.00  0.00    -0.298 OA
ENDBRANCH   6  39
BRANCH   8  41
ATOM     41  O   UNL     1      11.086 -13.689 -28.610  1.00  0.00    -0.504 OA
ATOM     42  H   UNL     1      10.636 -13.899 -27.726  1.00  0.00     0.293 HD
ENDBRANCH   8  41
BRANCH   7  43
ATOM     43  O   UNL     1      12.237 -13.504 -31.083  1.00  0.00    -0.504 OA
ATOM     44  H   UNL     1      13.215 -13.283 -30.960  1.00  0.00     0.293 HD
ENDBRANCH   7  43
TORSDOF 11
ENDMDL
MODEL 2
REMARK VINA RESULT:    -8.759      4.779     10.724
REMARK INTER + INTRA:         -13.585
REMARK INTER:                 -12.397
REMARK INTRA:                  -1.188
REMARK UNBOUND:                -0.730
REMARK SMILES Cc1cc2c(C(C)C)c(O)c(O)c(C=O)c2c(O)c1-c1c(C)cc2c(C(C)C)c(O)c(O)c(C=O)c2c1O
REMARK SMILES IDX 1 1 2 2 3 3 4 4 16 5 13 6 11 7 9 8 5 9 17 10 19 11 20 12
REMARK SMILES IDX 37 13 21 14 36 15 23 16 22 17 24 18 33 19 25 20 31 21 29 22
REMARK SMILES IDX 38 23 34 25 35 26 26 27 27 28 28 29 32 30 30 32 18 34 6 36
REMARK SMILES IDX 7 37 8 38 14 39 15 40 10 41 12 43
REMARK H PARENT 38 24 32 31 30 33 18 35 10 42 12 44
REMARK Flexibility Score: inf
ROOT
ATOM      1  C   UNL     1       9.963  -6.685 -26.831  1.00  0.00     0.045 C 
ATOM      2  C   UNL     1      10.043  -7.616 -28.017  1.00  0.00    -0.039 A 
ATOM      3  C   UNL     1       9.146  -7.458 -29.075  1.00  0.00     0.013 A 
ATOM      4  C   UNL     1       9.162  -8.300 -30.204  1.00  0.00    -0.006 A 
ATOM      5  C   UNL     1      10.193  -9.286 -30.304  1.00  0.00     0.039 A 
ATOM      6  C   UNL     1      10.331 -10.022 -31.519  1.00  0.00     0.072 A 
ATOM      7  C   UNL     1       9.435  -9.796 -32.582  1.00  0.00     0.169 A 
ATOM      8  C   UNL     1       8.364  -8.909 -32.435  1.00  0.00     0.162 A 
ATOM      9  C   UNL     1       8.181  -8.179 -31.239  1.00  0.00     0.008 A 
ATOM     10  C   UNL     1      11.040  -9.513 -29.176  1.00  0.00     0.132 A 
ATOM     11  C   UNL     1      10.970  -8.669 -28.049  1.00  0.00     0.031 A 
ENDROOT
BRANCH  11  12
ATOM     12  C   UNL     1      11.880  -8.885 -26.894  1.00  0.00     0.031 A 
ATOM     13  C   UNL     1      13.040  -8.096 -26.745  1.00  0.00     0.132 A 
ATOM     14  C   UNL     1      11.572  -9.867 -25.937  1.00  0.00    -0.039 A 
ATOM     15  C   UNL     1      13.890  -8.267 -25.612  1.00  0.00     0.039 A 
ATOM     16  C   UNL     1      12.456 -10.102 -24.883  1.00  0.00     0.013 A 
ATOM     17  C   UNL     1      10.297 -10.669 -26.030  1.00  0.00     0.045 C 
ATOM     18  C   UNL     1      13.656  -9.371 -24.741  1.00  0.00    -0.006 A 
ATOM     19  C   UNL     1      14.977  -7.388 -25.332  1.00  0.00     0.072 A 
ATOM     20  C   UNL     1      14.606  -9.701 -23.727  1.00  0.00     0.008 A 
ATOM     21  C   UNL     1      15.833  -7.645 -24.245  1.00  0.00     0.169 A 
ATOM     22  C   UNL     1      15.627  -8.773 -23.426  1.00  0.00     0.162 A 
BRANCH  13  23
ATOM     23  O   UNL     1      13.369  -7.167 -27.740  1.00  0.00    -0.507 OA
ATOM     24  H   UNL     1      12.705  -6.801 -28.411  1.00  0.00     0.293 HD
ENDBRANCH  13  23
BRANCH  19  25
ATOM     25  C   UNL     1      15.173  -6.117 -26.070  1.00  0.00     0.264 C 
ATOM     26  O   UNL     1      16.320  -5.752 -26.441  1.00  0.00    -0.298 OA
ENDBRANCH  19  25
BRANCH  20  27
ATOM     27  C   UNL     1      14.525 -11.028 -22.953  1.00  0.00     0.017 C 
ATOM     28  C   UNL     1      14.460 -12.222 -23.911  1.00  0.00     0.012 C 
ATOM     29  C   UNL     1      13.383 -11.075 -21.920  1.00  0.00     0.012 C 
ENDBRANCH  20  27
BRANCH  21  30
ATOM     30  O   UNL     1      16.883  -6.752 -23.999  1.00  0.00    -0.504 OA
ATOM     31  H   UNL     1      16.817  -5.749 -24.084  1.00  0.00     0.293 HD
ENDBRANCH  21  30
BRANCH  22  32
ATOM     32  O   UNL     1      16.400  -8.974 -22.278  1.00  0.00    -0.504 OA
ATOM     33  H   UNL     1      16.978  -9.785 -22.106  1.00  0.00     0.293 HD
ENDBRANCH  22  32
ENDBRANCH  11  12
BRANCH  10  34
ATOM     34  O   UNL     1      11.926 -10.597 -29.163  1.00  0.00    -0.507 OA
ATOM     35  H   UNL     1      11.657 -11.549 -29.374  1.00  0.00     0.293 HD
ENDBRANCH  10  34
BRANCH   9  36
ATOM     36  C   UNL     1       6.917  -7.301 -31.132  1.00  0.00     0.017 C 
ATOM     37  C   UNL     1       7.241  -5.804 -31.240  1.00  0.00     0.012 C 
ATOM     38  C   UNL     1       6.007  -7.639 -29.933  1.00  0.00     0.012 C 
ENDBRANCH   9  36
BRANCH   6  39
ATOM     39  C   UNL     1      11.448 -10.967 -31.734  1.00  0.00     0.264 C 
ATOM     40  O   UNL     1      11.241 -12.209 -31.768  1.00  0.00    -0.298 OA
ENDBRANCH   6  39
BRANCH   8  41
ATOM     41  O   UNL     1       7.476  -8.729 -33.501  1.00  0.00    -0.504 OA
ATOM     42  H   UNL     1       7.421  -7.870 -34.036  1.00  0.00     0.293 HD
ENDBRANCH   8  41
BRANCH   7  43
ATOM     43  O   UNL     1       9.593 -10.428 -33.822  1.00  0.00    -0.504 OA
ATOM     44  H   UNL     1       9.975 -11.356 -33.942  1.00  0.00     0.293 HD
ENDBRANCH   7  43
TORSDOF 11
ENDMDL
MODEL 3
REMARK VINA RESULT:    -8.577      4.043     10.005
REMARK INTER + INTRA:         -13.318
REMARK INTER:                 -12.318
REMARK INTRA:                  -1.000
REMARK UNBOUND:                -0.730
REMARK SMILES Cc1cc2c(C(C)C)c(O)c(O)c(C=O)c2c(O)c1-c1c(C)cc2c(C(C)C)c(O)c(O)c(C=O)c2c1O
REMARK SMILES IDX 1 1 2 2 3 3 4 4 16 5 13 6 11 7 9 8 5 9 17 10 19 11 20 12
REMARK SMILES IDX 37 13 21 14 36 15 23 16 22 17 24 18 33 19 25 20 31 21 29 22
REMARK SMILES IDX 38 23 34 25 35 26 26 27 27 28 28 29 32 30 30 32 18 34 6 36
REMARK SMILES IDX 7 37 8 38 14 39 15 40 10 41 12 43
REMARK H PARENT 38 24 32 31 30 33 18 35 10 42 12 44
REMARK Flexibility Score: inf
ROOT
ATOM      1  C   UNL     1      10.739 -12.592 -29.912  1.00  0.00     0.045 C 
ATOM      2  C   UNL     1       9.543 -11.683 -30.065  1.00  0.00    -0.039 A 
ATOM      3  C   UNL     1       8.744 -11.787 -31.204  1.00  0.00     0.013 A 
ATOM      4  C   UNL     1       7.621 -10.961 -31.411  1.00  0.00    -0.006 A 
ATOM      5  C   UNL     1       7.241 -10.056 -30.371  1.00  0.00     0.039 A 
ATOM      6  C   UNL     1       6.009  -9.345 -30.488  1.00  0.00     0.072 A 
ATOM      7  C   UNL     1       5.207  -9.517 -31.633  1.00  0.00     0.169 A 
ATOM      8  C   UNL     1       5.639 -10.321 -32.692  1.00  0.00     0.162 A 
ATOM      9  C   UNL     1       6.864 -11.021 -32.624  1.00  0.00     0.008 A 
ATOM     10  C   UNL     1       8.119  -9.878 -29.258  1.00  0.00     0.132 A 
ATOM     11  C   UNL     1       9.253 -10.702 -29.104  1.00  0.00     0.031 A 
ENDROOT
BRANCH  11  12
ATOM     12  C   UNL     1      10.141 -10.540 -27.924  1.00  0.00     0.031 A 
ATOM     13  C   UNL     1      11.112  -9.517 -27.900  1.00  0.00     0.132 A 
ATOM     14  C   UNL     1       9.998 -11.397 -26.820  1.00  0.00    -0.039 A 
ATOM     15  C   UNL     1      11.934  -9.327 -26.749  1.00  0.00     0.039 A 
ATOM     16  C   UNL     1      10.869 -11.275 -25.736  1.00  0.00     0.013 A 
ATOM     17  C   UNL     1       8.915 -12.448 -26.786  1.00  0.00     0.045 C 
ATOM     18  C   UNL     1      11.891 -10.301 -25.709  1.00  0.00    -0.006 A 
ATOM     19  C   UNL     1      12.810  -8.211 -26.611  1.00  0.00     0.072 A 
ATOM     20  C   UNL     1      12.847 -10.262 -24.649  1.00  0.00     0.008 A 
ATOM     21  C   UNL     1      13.656  -8.110 -25.492  1.00  0.00     0.169 A 
ATOM     22  C   UNL     1      13.649  -9.109 -24.499  1.00  0.00     0.162 A 
BRANCH  13  23
ATOM     23  O   UNL     1      11.287  -8.712 -29.033  1.00  0.00    -0.507 OA
ATOM     24  H   UNL     1      11.908  -7.914 -29.067  1.00  0.00     0.293 HD
ENDBRANCH  13  23
BRANCH  19  25
ATOM     25  C   UNL     1      12.776  -7.062 -27.548  1.00  0.00     0.264 C 
ATOM     26  O   UNL     1      11.812  -6.252 -27.549  1.00  0.00    -0.298 OA
ENDBRANCH  19  25
BRANCH  20  27
ATOM     27  C   UNL     1      13.004 -11.436 -23.666  1.00  0.00     0.017 C 
ATOM     28  C   UNL     1      12.677 -11.002 -22.234  1.00  0.00     0.012 C 
ATOM     29  C   UNL     1      14.377 -12.130 -23.744  1.00  0.00     0.012 C 
ENDBRANCH  20  27
BRANCH  21  30
ATOM     30  O   UNL     1      14.495  -6.992 -25.390  1.00  0.00    -0.504 OA
ATOM     31  H   UNL     1      14.543  -6.246 -26.066  1.00  0.00     0.293 HD
ENDBRANCH  21  30
BRANCH  22  32
ATOM     32  O   UNL     1      14.400  -8.961 -23.329  1.00  0.00    -0.504 OA
ATOM     33  H   UNL     1      14.848  -9.717 -22.831  1.00  0.00     0.293 HD
ENDBRANCH  22  32
ENDBRANCH  11  12
BRANCH  10  34
ATOM     34  O   UNL     1       7.881  -8.863 -28.324  1.00  0.00    -0.507 OA
ATOM     35  H   UNL     1       7.359  -8.994 -27.467  1.00  0.00     0.293 HD
ENDBRANCH  10  34
BRANCH   9  36
ATOM     36  C   UNL     1       7.304 -11.802 -33.879  1.00  0.00     0.017 C 
ATOM     37  C   UNL     1       7.664 -10.871 -35.045  1.00  0.00     0.012 C 
ATOM     38  C   UNL     1       6.348 -12.942 -34.287  1.00  0.00     0.012 C 
ENDBRANCH   9  36
BRANCH   6  39
ATOM     39  C   UNL     1       5.497  -8.488 -29.398  1.00  0.00     0.264 C 
ATOM     40  O   UNL     1       5.547  -7.233 -29.490  1.00  0.00    -0.298 OA
ENDBRANCH   6  39
BRANCH   8  41
ATOM     41  O   UNL     1       4.830 -10.447 -33.827  1.00  0.00    -0.504 OA
ATOM     42  H   UNL     1       4.238 -11.251 -33.999  1.00  0.00     0.293 HD
ENDBRANCH   8  41
BRANCH   7  43
ATOM     43  O   UNL     1       3.947  -8.913 -31.744  1.00  0.00    -0.504 OA
ATOM     44  H   UNL     1       3.325  -8.748 -30.964  1.00  0.00     0.293 HD
ENDBRANCH   7  43
TORSDOF 11
ENDMDL
MODEL 4
REMARK VINA RESULT:    -8.541      3.673      6.747
REMARK INTER + INTRA:         -13.266
REMARK INTER:                 -12.309
REMARK INTRA:                  -0.957
REMARK UNBOUND:                -0.730
REMARK SMILES Cc1cc2c(C(C)C)c(O)c(O)c(C=O)c2c(O)c1-c1c(C)cc2c(C(C)C)c(O)c(O)c(C=O)c2c1O
REMARK SMILES IDX 1 1 2 2 3 3 4 4 16 5 13 6 11 7 9 8 5 9 17 10 19 11 20 12
REMARK SMILES IDX 37 13 21 14 36 15 23 16 22 17 24 18 33 19 25 20 31 21 29 22
REMARK SMILES IDX 38 23 34 25 35 26 26 27 27 28 28 29 32 30 30 32 18 34 6 36
REMARK SMILES IDX 7 37 8 38 14 39 15 40 10 41 12 43
REMARK H PARENT 38 24 32 31 30 33 18 35 10 42 12 44
REMARK Flexibility Score: inf
ROOT
ATOM      1  C   UNL     1       9.105 -12.656 -27.134  1.00  0.00     0.045 C 
ATOM      2  C   UNL     1       9.821 -11.334 -26.991  1.00  0.00    -0.039 A 
ATOM      3  C   UNL     1      10.405 -11.000 -25.769  1.00  0.00     0.013 A 
ATOM      4  C   UNL     1      11.078  -9.777 -25.568  1.00  0.00    -0.006 A 
ATOM      5  C   UNL     1      11.244  -8.901 -26.685  1.00  0.00     0.039 A 
ATOM      6  C   UNL     1      12.075  -7.749 -26.543  1.00  0.00     0.072 A 
ATOM      7  C   UNL     1      12.687  -7.474 -25.304  1.00  0.00     0.169 A 
ATOM      8  C   UNL     1      12.431  -8.278 -24.190  1.00  0.00     0.162 A 
ATOM      9  C   UNL     1      11.595  -9.413 -24.285  1.00  0.00     0.008 A 
ATOM     10  C   UNL     1      10.556  -9.197 -27.902  1.00  0.00     0.132 A 
ATOM     11  C   UNL     1       9.864 -10.417 -28.052  1.00  0.00     0.031 A 
ENDROOT
BRANCH  11  12
ATOM     12  C   UNL     1       9.182 -10.738 -29.333  1.00  0.00     0.031 A 
ATOM     13  C   UNL     1       9.787 -11.614 -30.259  1.00  0.00     0.132 A 
ATOM     14  C   UNL     1       7.923 -10.182 -29.612  1.00  0.00    -0.039 A 
ATOM     15  C   UNL     1       9.114 -11.963 -31.468  1.00  0.00     0.039 A 
ATOM     16  C   UNL     1       7.311 -10.444 -30.839  1.00  0.00     0.013 A 
ATOM     17  C   UNL     1       7.219  -9.306 -28.604  1.00  0.00     0.045 C 
ATOM     18  C   UNL     1       7.919 -11.268 -31.813  1.00  0.00    -0.006 A 
ATOM     19  C   UNL     1       9.606 -12.967 -32.354  1.00  0.00     0.072 A 
ATOM     20  C   UNL     1       7.338 -11.434 -33.106  1.00  0.00     0.008 A 
ATOM     21  C   UNL     1       8.947 -13.220 -33.571  1.00  0.00     0.169 A 
ATOM     22  C   UNL     1       7.800 -12.485 -33.929  1.00  0.00     0.162 A 
BRANCH  13  23
ATOM     23  O   UNL     1      11.070 -12.109 -29.997  1.00  0.00    -0.507 OA
ATOM     24  H   UNL     1      11.285 -12.745 -29.240  1.00  0.00     0.293 HD
ENDBRANCH  13  23
BRANCH  19  25
ATOM     25  C   UNL     1      10.726 -13.865 -31.983  1.00  0.00     0.264 C 
ATOM     26  O   UNL     1      11.876 -13.704 -32.472  1.00  0.00    -0.298 OA
ENDBRANCH  19  25
BRANCH  20  27
ATOM     27  C   UNL     1       6.215 -10.507 -33.607  1.00  0.00     0.017 C 
ATOM     28  C   UNL     1       4.918 -11.289 -33.836  1.00  0.00     0.012 C 
ATOM     29  C   UNL     1       6.601  -9.682 -34.850  1.00  0.00     0.012 C 
ENDBRANCH  20  27
BRANCH  21  30
ATOM     30  O   UNL     1       9.457 -14.221 -34.408  1.00  0.00    -0.504 OA
ATOM     31  H   UNL     1       9.206 -15.197 -34.358  1.00  0.00     0.293 HD
ENDBRANCH  21  30
BRANCH  22  32
ATOM     32  O   UNL     1       7.074 -12.806 -35.079  1.00  0.00    -0.504 OA
ATOM     33  H   UNL     1       6.107 -12.560 -35.239  1.00  0.00     0.293 HD
ENDBRANCH  22  32
ENDBRANCH  11  12
BRANCH  10  34
ATOM     34  O   UNL     1      10.533  -8.266 -28.947  1.00  0.00    -0.507 OA
ATOM     35  H   UNL     1      10.702  -7.276 -28.826  1.00  0.00     0.293 HD
ENDBRANCH  10  34
BRANCH   9  36
ATOM     36  C   UNL     1      11.292 -10.180 -22.982  1.00  0.00     0.017 C 
ATOM     37  C   UNL     1      10.649  -9.282 -21.916  1.00  0.00     0.012 C 
ATOM     38  C   UNL     1      12.476 -11.010 -22.441  1.00  0.00     0.012 C 
ENDBRANCH   9  36
BRANCH   6  39
ATOM     39  C   UNL     1      12.387  -6.867 -27.688  1.00  0.00     0.264 C 
ATOM     40  O   UNL     1      13.555  -6.431 -27.863  1.00  0.00    -0.298 OA
ENDBRANCH   6  39
BRANCH   8  41
ATOM     41  O   UNL     1      13.033  -7.960 -22.967  1.00  0.00    -0.504 OA
ATOM     42  H   UNL     1      12.544  -8.006 -22.080  1.00  0.00     0.293 HD
ENDBRANCH   8  41
BRANCH   7  43
ATOM     43  O   UNL     1      13.584  -6.409 -25.150  1.00  0.00    -0.504 OA
ATOM     44  H   UNL     1      14.563  -6.450 -25.398  1.00  0.00     0.293 HD
ENDBRANCH   7  43
TORSDOF 11
ENDMDL
MODEL 5
REMARK VINA RESULT:    -8.473      3.500      5.696
REMARK INTER + INTRA:         -13.165
REMARK INTER:                 -13.659
REMARK INTRA:                   0.494
REMARK UNBOUND:                -0.730
REMARK SMILES Cc1cc2c(C(C)C)c(O)c(O)c(C=O)c2c(O)c1-c1c(C)cc2c(C(C)C)c(O)c(O)c(C=O)c2c1O
REMARK SMILES IDX 1 1 2 2 3 3 4 4 16 5 13 6 11 7 9 8 5 9 17 10 19 11 20 12
REMARK SMILES IDX 37 13 21 14 36 15 23 16 22 17 24 18 33 19 25 20 31 21 29 22
REMARK SMILES IDX 38 23 34 25 35 26 26 27 27 28 28 29 32 30 30 32 18 34 6 36
REMARK SMILES IDX 7 37 8 38 14 39 15 40 10 41 12 43
REMARK H PARENT 38 24 32 31 30 33 18 35 10 42 12 44
REMARK Flexibility Score: inf
ROOT
ATOM      1  C   UNL     1       8.814  -7.374 -29.905  1.00  0.00     0.045 C 
ATOM      2  C   UNL     1       9.158  -8.487 -28.944  1.00  0.00    -0.039 A 
ATOM      3  C   UNL     1      10.056  -8.243 -27.905  1.00  0.00     0.013 A 
ATOM      4  C   UNL     1      10.425  -9.242 -26.982  1.00  0.00    -0.006 A 
ATOM      5  C   UNL     1       9.781 -10.516 -27.064  1.00  0.00     0.039 A 
ATOM      6  C   UNL     1      10.010 -11.474 -26.031  1.00  0.00     0.072 A 
ATOM      7  C   UNL     1      10.886 -11.168 -24.972  1.00  0.00     0.169 A 
ATOM      8  C   UNL     1      11.594  -9.963 -24.958  1.00  0.00     0.162 A 
ATOM      9  C   UNL     1      11.413  -8.999 -25.975  1.00  0.00     0.008 A 
ATOM     10  C   UNL     1       8.945 -10.794 -28.188  1.00  0.00     0.132 A 
ATOM     11  C   UNL     1       8.626  -9.775 -29.110  1.00  0.00     0.031 A 
ENDROOT
BRANCH  11  12
ATOM     12  C   UNL     1       7.724 -10.059 -30.257  1.00  0.00     0.031 A 
ATOM     13  C   UNL     1       8.194 -10.795 -31.365  1.00  0.00     0.132 A 
ATOM     14  C   UNL     1       6.394  -9.610 -30.226  1.00  0.00    -0.039 A 
ATOM     15  C   UNL     1       7.318 -11.112 -32.446  1.00  0.00     0.039 A 
ATOM     16  C   UNL     1       5.566  -9.833 -31.328  1.00  0.00     0.013 A 
ATOM     17  C   UNL     1       5.844  -8.891 -29.018  1.00  0.00     0.045 C 
ATOM     18  C   UNL     1       6.025 -10.513 -32.478  1.00  0.00    -0.006 A 
ATOM     19  C   UNL     1       7.696 -11.989 -33.505  1.00  0.00     0.072 A 
ATOM     20  C   UNL     1       5.206 -10.632 -33.641  1.00  0.00     0.008 A 
ATOM     21  C   UNL     1       6.824 -12.208 -34.587  1.00  0.00     0.169 A 
ATOM     22  C   UNL     1       5.572 -11.564 -34.637  1.00  0.00     0.162 A 
BRANCH  13  23
ATOM     23  O   UNL     1       9.540 -11.181 -31.411  1.00  0.00    -0.507 OA
ATOM     24  H   UNL     1      10.305 -10.538 -31.571  1.00  0.00     0.293 HD
ENDBRANCH  13  23
BRANCH  19  25
ATOM     25  C   UNL     1       8.938 -12.798 -33.453  1.00  0.00     0.264 C 
ATOM     26  O   UNL     1       8.895 -14.056 -33.498  1.00  0.00    -0.298 OA
ENDBRANCH  19  25
BRANCH  20  27
ATOM     27  C   UNL     1       3.933  -9.784 -33.817  1.00  0.00     0.017 C 
ATOM     28  C   UNL     1       3.601  -9.592 -35.301  1.00  0.00     0.012 C 
ATOM     29  C   UNL     1       3.979  -8.436 -33.073  1.00  0.00     0.012 C 
ENDBRANCH  20  27
BRANCH  21  30
ATOM     30  O   UNL     1       7.230 -13.084 -35.602  1.00  0.00    -0.504 OA
ATOM     31  H   UNL     1       7.534 -14.035 -35.455  1.00  0.00     0.293 HD
ENDBRANCH  21  30
BRANCH  22  32
ATOM     32  O   UNL     1       4.653 -11.863 -35.647  1.00  0.00    -0.504 OA
ATOM     33  H   UNL     1       4.845 -11.809 -36.638  1.00  0.00     0.293 HD
ENDBRANCH  22  32
ENDBRANCH  11  12
BRANCH  10  34
ATOM     34  O   UNL     1       8.459 -12.088 -28.407  1.00  0.00    -0.507 OA
ATOM     35  H   UNL     1       8.206 -12.730 -27.666  1.00  0.00     0.293 HD
ENDBRANCH  10  34
BRANCH   9  36
ATOM     36  C   UNL     1      12.309  -7.745 -25.929  1.00  0.00     0.017 C 
ATOM     37  C   UNL     1      11.624  -6.569 -25.218  1.00  0.00     0.012 C 
ATOM     38  C   UNL     1      12.926  -7.354 -27.288  1.00  0.00     0.012 C 
ENDBRANCH   9  36
BRANCH   6  39
ATOM     39  C   UNL     1       9.284 -12.762 -25.989  1.00  0.00     0.264 C 
ATOM     40  O   UNL     1       8.828 -13.207 -24.904  1.00  0.00    -0.298 OA
ENDBRANCH   6  39
BRANCH   8  41
ATOM     41  O   UNL     1      12.478  -9.703 -23.905  1.00  0.00    -0.504 OA
ATOM     42  H   UNL     1      13.486  -9.728 -24.010  1.00  0.00     0.293 HD
ENDBRANCH   8  41
BRANCH   7  43
ATOM     43  O   UNL     1      11.064 -12.043 -23.891  1.00  0.00    -0.504 OA
ATOM     44  H   UNL     1      10.358 -12.683 -23.556  1.00  0.00     0.293 HD
ENDBRANCH   7  43
TORSDOF 11
ENDMDL
MODEL 6
REMARK VINA RESULT:    -8.433      4.120      6.407
REMARK INTER + INTRA:         -13.108
REMARK INTER:                 -12.130
REMARK INTRA:                  -0.978
REMARK UNBOUND:                -0.730
REMARK SMILES Cc1cc2c(C(C)C)c(O)c(O)c(C=O)c2c(O)c1-c1c(C)cc2c(C(C)C)c(O)c(O)c(C=O)c2c1O
REMARK SMILES IDX 1 1 2 2 3 3 4 4 16 5 13 6 11 7 9 8 5 9 17 10 19 11 20 12
REMARK SMILES IDX 37 13 21 14 36 15 23 16 22 17 24 18 33 19 25 20 31 21 29 22
REMARK SMILES IDX 38 23 34 25 35 26 26 27 27 28 28 29 32 30 30 32 18 34 6 36
REMARK SMILES IDX 7 37 8 38 14 39 15 40 10 41 12 43
REMARK H PARENT 38 24 32 31 30 33 18 35 10 42 12 44
REMARK Flexibility Score: inf
ROOT
ATOM      1  C   UNL     1       9.064 -12.694 -27.554  1.00  0.00     0.045 C 
ATOM      2  C   UNL     1       9.773 -11.381 -27.325  1.00  0.00    -0.039 A 
ATOM      3  C   UNL     1      10.409 -11.148 -26.106  1.00  0.00     0.013 A 
ATOM      4  C   UNL     1      11.078  -9.939 -25.827  1.00  0.00    -0.006 A 
ATOM      5  C   UNL     1      11.184  -8.964 -26.867  1.00  0.00     0.039 A 
ATOM      6  C   UNL     1      12.009  -7.818 -26.659  1.00  0.00     0.072 A 
ATOM      7  C   UNL     1      12.674  -7.647 -25.429  1.00  0.00     0.169 A 
ATOM      8  C   UNL     1      12.478  -8.550 -24.381  1.00  0.00     0.162 A 
ATOM      9  C   UNL     1      11.650  -9.683 -24.540  1.00  0.00     0.008 A 
ATOM     10  C   UNL     1      10.444  -9.161 -28.073  1.00  0.00     0.132 A 
ATOM     11  C   UNL     1       9.758 -10.372 -28.301  1.00  0.00     0.031 A 
ENDROOT
BRANCH  11  12
ATOM     12  C   UNL     1       9.023 -10.587 -29.574  1.00  0.00     0.031 A 
ATOM     13  C   UNL     1       7.699 -10.119 -29.718  1.00  0.00     0.132 A 
ATOM     14  C   UNL     1       9.656 -11.241 -30.644  1.00  0.00    -0.039 A 
ATOM     15  C   UNL     1       7.007 -10.280 -30.956  1.00  0.00     0.039 A 
ATOM     16  C   UNL     1       8.944 -11.488 -31.819  1.00  0.00     0.013 A 
ATOM     17  C   UNL     1      11.097 -11.680 -30.543  1.00  0.00     0.045 C 
ATOM     18  C   UNL     1       7.598 -11.087 -31.971  1.00  0.00    -0.006 A 
ATOM     19  C   UNL     1       5.737  -9.682 -31.204  1.00  0.00     0.072 A 
ATOM     20  C   UNL     1       6.847 -11.447 -33.130  1.00  0.00     0.008 A 
ATOM     21  C   UNL     1       5.060  -9.935 -32.411  1.00  0.00     0.169 A 
ATOM     22  C   UNL     1       5.627 -10.781 -33.384  1.00  0.00     0.162 A 
BRANCH  13  23
ATOM     23  O   UNL     1       7.059  -9.527 -28.623  1.00  0.00    -0.507 OA
ATOM     24  H   UNL     1       7.442  -9.512 -27.686  1.00  0.00     0.293 HD
ENDBRANCH  13  23
BRANCH  19  25
ATOM     25  C   UNL     1       5.143  -8.681 -30.285  1.00  0.00     0.264 C 
ATOM     26  O   UNL     1       5.529  -7.482 -30.293  1.00  0.00    -0.298 OA
ENDBRANCH  19  25
BRANCH  20  27
ATOM     27  C   UNL     1       7.348 -12.525 -34.109  1.00  0.00     0.017 C 
ATOM     28  C   UNL     1       7.737 -11.907 -35.456  1.00  0.00     0.012 C 
ATOM     29  C   UNL     1       6.368 -13.699 -34.292  1.00  0.00     0.012 C 
ENDBRANCH  20  27
BRANCH  21  30
ATOM     30  O   UNL     1       3.818  -9.320 -32.620  1.00  0.00    -0.504 OA
ATOM     31  H   UNL     1       3.162  -9.579 -33.341  1.00  0.00     0.293 HD
ENDBRANCH  21  30
BRANCH  22  32
ATOM     32  O   UNL     1       5.018 -10.947 -34.631  1.00  0.00    -0.504 OA
ATOM     33  H   UNL     1       4.558 -11.791 -34.942  1.00  0.00     0.293 HD
ENDBRANCH  22  32
ENDBRANCH  11  12
BRANCH  10  34
ATOM     34  O   UNL     1      10.364  -8.141 -29.029  1.00  0.00    -0.507 OA
ATOM     35  H   UNL     1      11.041  -7.394 -29.116  1.00  0.00     0.293 HD
ENDBRANCH  10  34
BRANCH   9  36
ATOM     36  C   UNL     1      11.414 -10.568 -23.299  1.00  0.00     0.017 C 
ATOM     37  C   UNL     1      10.891  -9.761 -22.102  1.00  0.00     0.012 C 
ATOM     38  C   UNL     1      12.599 -11.487 -22.937  1.00  0.00     0.012 C 
ENDBRANCH   9  36
BRANCH   6  39
ATOM     39  C   UNL     1      12.260  -6.834 -27.734  1.00  0.00     0.264 C 
ATOM     40  O   UNL     1      13.419  -6.387 -27.937  1.00  0.00    -0.298 OA
ENDBRANCH   6  39
BRANCH   8  41
ATOM     41  O   UNL     1      13.132  -8.333 -23.163  1.00  0.00    -0.504 OA
ATOM     42  H   UNL     1      14.022  -8.758 -22.930  1.00  0.00     0.293 HD
ENDBRANCH   8  41
BRANCH   7  43
ATOM     43  O   UNL     1      13.567  -6.587 -25.220  1.00  0.00    -0.504 OA
ATOM     44  H   UNL     1      14.458  -6.678 -24.752  1.00  0.00     0.293 HD
ENDBRANCH   7  43
TORSDOF 11
ENDMDL
MODEL 7
REMARK VINA RESULT:    -8.230      3.912      8.949
REMARK INTER + INTRA:         -12.810
REMARK INTER:                 -11.849
REMARK INTRA:                  -0.961
REMARK UNBOUND:                -0.730
REMARK SMILES Cc1cc2c(C(C)C)c(O)c(O)c(C=O)c2c(O)c1-c1c(C)cc2c(C(C)C)c(O)c(O)c(C=O)c2c1O
REMARK SMILES IDX 1 1 2 2 3 3 4 4 16 5 13 6 11 7 9 8 5 9 17 10 19 11 20 12
REMARK SMILES IDX 37 13 21 14 36 15 23 16 22 17 24 18 33 19 25 20 31 21 29 22
REMARK SMILES IDX 38 23 34 25 35 26 26 27 27 28 28 29 32 30 30 32 18 34 6 36
REMARK SMILES IDX 7 37 8 38 14 39 15 40 10 41 12 43
REMARK H PARENT 38 24 32 31 30 33 18 35 10 42 12 44
REMARK Flexibility Score: inf
ROOT
ATOM      1  C   UNL     1      10.107 -12.837 -31.647  1.00  0.00     0.045 C 
ATOM      2  C   UNL     1       8.840 -12.112 -32.035  1.00  0.00    -0.039 A 
ATOM      3  C   UNL     1       8.170 -12.479 -33.202  1.00  0.00     0.013 A 
ATOM      4  C   UNL     1       6.990 -11.834 -33.624  1.00  0.00    -0.006 A 
ATOM      5  C   UNL     1       6.416 -10.839 -32.773  1.00  0.00     0.039 A 
ATOM      6  C   UNL     1       5.131 -10.309 -33.097  1.00  0.00     0.072 A 
ATOM      7  C   UNL     1       4.467 -10.743 -34.261  1.00  0.00     0.169 A 
ATOM      8  C   UNL     1       5.083 -11.636 -35.143  1.00  0.00     0.162 A 
ATOM      9  C   UNL     1       6.364 -12.164 -34.869  1.00  0.00     0.008 A 
ATOM     10  C   UNL     1       7.158 -10.395 -31.636  1.00  0.00     0.132 A 
ATOM     11  C   UNL     1       8.354 -11.043 -31.266  1.00  0.00     0.031 A 
ENDROOT
BRANCH  11  12
ATOM     12  C   UNL     1       9.102 -10.603 -30.059  1.00  0.00     0.031 A 
ATOM     13  C   UNL     1       8.960 -11.300 -28.841  1.00  0.00     0.132 A 
ATOM     14  C   UNL     1       9.968  -9.500 -30.140  1.00  0.00    -0.039 A 
ATOM     15  C   UNL     1       9.714 -10.910 -27.693  1.00  0.00     0.039 A 
ATOM     16  C   UNL     1      10.628  -9.057 -28.991  1.00  0.00     0.013 A 
ATOM     17  C   UNL     1      10.200  -8.786 -31.450  1.00  0.00     0.045 C 
ATOM     18  C   UNL     1      10.459  -9.696 -27.743  1.00  0.00    -0.006 A 
ATOM     19  C   UNL     1       9.730 -11.679 -26.493  1.00  0.00     0.072 A 
ATOM     20  C   UNL     1      11.046  -9.165 -26.556  1.00  0.00     0.008 A 
ATOM     21  C   UNL     1      10.427 -11.212 -25.364  1.00  0.00     0.169 A 
ATOM     22  C   UNL     1      11.111  -9.981 -25.405  1.00  0.00     0.162 A 
BRANCH  13  23
ATOM     23  O   UNL     1       8.045 -12.356 -28.759  1.00  0.00    -0.507 OA
ATOM     24  H   UNL     1       7.972 -13.094 -29.448  1.00  0.00     0.293 HD
ENDBRANCH  13  23
BRANCH  19  25
ATOM     25  C   UNL     1       9.143 -13.039 -26.420  1.00  0.00     0.264 C 
ATOM     26  O   UNL     1       8.475 -13.405 -25.417  1.00  0.00    -0.298 OA
ENDBRANCH  19  25
BRANCH  20  27
ATOM     27  C   UNL     1      11.621  -7.737 -26.515  1.00  0.00     0.017 C 
ATOM     28  C   UNL     1      10.541  -6.699 -26.837  1.00  0.00     0.012 C 
ATOM     29  C   UNL     1      12.867  -7.545 -27.401  1.00  0.00     0.012 C 
ENDBRANCH  20  27
BRANCH  21  30
ATOM     30  O   UNL     1      10.426 -12.002 -24.206  1.00  0.00    -0.504 OA
ATOM     31  H   UNL     1      10.982 -12.834 -24.078  1.00  0.00     0.293 HD
ENDBRANCH  21  30
BRANCH  22  32
ATOM     32  O   UNL     1      11.900  -9.564 -24.329  1.00  0.00    -0.504 OA
ATOM     33  H   UNL     1      12.783  -9.081 -24.413  1.00  0.00     0.293 HD
ENDBRANCH  22  32
ENDBRANCH  11  12
BRANCH  10  34
ATOM     34  O   UNL     1       6.724  -9.289 -30.895  1.00  0.00    -0.507 OA
ATOM     35  H   UNL     1       6.021  -8.635 -31.215  1.00  0.00     0.293 HD
ENDBRANCH  10  34
BRANCH   9  36
ATOM     36  C   UNL     1       7.005 -13.062 -35.946  1.00  0.00     0.017 C 
ATOM     37  C   UNL     1       7.076 -12.367 -37.313  1.00  0.00     0.012 C 
ATOM     38  C   UNL     1       6.417 -14.487 -36.020  1.00  0.00     0.012 C 
ENDBRANCH   9  36
BRANCH   6  39
ATOM     39  C   UNL     1       4.428  -9.369 -32.199  1.00  0.00     0.264 C 
ATOM     40  O   UNL     1       4.308  -8.154 -32.507  1.00  0.00    -0.298 OA
ENDBRANCH   6  39
BRANCH   8  41
ATOM     41  O   UNL     1       4.406 -12.025 -36.303  1.00  0.00    -0.504 OA
ATOM     42  H   UNL     1       4.023 -11.363 -36.969  1.00  0.00     0.293 HD
ENDBRANCH   8  41
BRANCH   7  43
ATOM     43  O   UNL     1       3.166 -10.319 -34.564  1.00  0.00    -0.504 OA
ATOM     44  H   UNL     1       2.518  -9.944 -33.885  1.00  0.00     0.293 HD
ENDBRANCH   7  43
TORSDOF 11
ENDMDL
MODEL 8
REMARK VINA RESULT:    -8.129      3.805      6.074
REMARK INTER + INTRA:         -12.660
REMARK INTER:                 -12.148
REMARK INTRA:                  -0.513
REMARK UNBOUND:                -0.730
REMARK SMILES Cc1cc2c(C(C)C)c(O)c(O)c(C=O)c2c(O)c1-c1c(C)cc2c(C(C)C)c(O)c(O)c(C=O)c2c1O
REMARK SMILES IDX 1 1 2 2 3 3 4 4 16 5 13 6 11 7 9 8 5 9 17 10 19 11 20 12
REMARK SMILES IDX 37 13 21 14 36 15 23 16 22 17 24 18 33 19 25 20 31 21 29 22
REMARK SMILES IDX 38 23 34 25 35 26 26 27 27 28 28 29 32 30 30 32 18 34 6 36
REMARK SMILES IDX 7 37 8 38 14 39 15 40 10 41 12 43
REMARK H PARENT 38 24 32 31 30 33 18 35 10 42 12 44
REMARK Flexibility Score: inf
ROOT
ATOM      1  C   UNL     1       9.437  -8.402 -31.091  1.00  0.00     0.045 C 
ATOM      2  C   UNL     1       9.536  -9.340 -29.912  1.00  0.00    -0.039 A 
ATOM      3  C   UNL     1      10.222  -8.933 -28.767  1.00  0.00     0.013 A 
ATOM      4  C   UNL     1      10.359  -9.766 -27.639  1.00  0.00    -0.006 A 
ATOM      5  C   UNL     1       9.690 -11.029 -27.640  1.00  0.00     0.039 A 
ATOM      6  C   UNL     1       9.670 -11.802 -26.440  1.00  0.00     0.072 A 
ATOM      7  C   UNL     1      10.333 -11.331 -25.291  1.00  0.00     0.169 A 
ATOM      8  C   UNL     1      11.074 -10.146 -25.331  1.00  0.00     0.162 A 
ATOM      9  C   UNL     1      11.138  -9.366 -26.507  1.00  0.00     0.008 A 
ATOM     10  C   UNL     1       9.081 -11.485 -28.849  1.00  0.00     0.132 A 
ATOM     11  C   UNL     1       8.994 -10.633 -29.970  1.00  0.00     0.031 A 
ENDROOT
BRANCH  11  12
ATOM     12  C   UNL     1       8.325 -11.098 -31.213  1.00  0.00     0.031 A 
ATOM     13  C   UNL     1       7.011 -10.678 -31.512  1.00  0.00     0.132 A 
ATOM     14  C   UNL     1       9.011 -11.942 -32.101  1.00  0.00    -0.039 A 
ATOM     15  C   UNL     1       6.383 -11.082 -32.728  1.00  0.00     0.039 A 
ATOM     16  C   UNL     1       8.359 -12.418 -33.241  1.00  0.00     0.013 A 
ATOM     17  C   UNL     1      10.444 -12.341 -31.845  1.00  0.00     0.045 C 
ATOM     18  C   UNL     1       7.024 -12.065 -33.536  1.00  0.00    -0.006 A 
ATOM     19  C   UNL     1       5.129 -10.554 -33.152  1.00  0.00     0.072 A 
ATOM     20  C   UNL     1       6.333 -12.651 -34.640  1.00  0.00     0.008 A 
ATOM     21  C   UNL     1       4.514 -11.042 -34.320  1.00  0.00     0.169 A 
ATOM     22  C   UNL     1       5.129 -12.057 -35.080  1.00  0.00     0.162 A 
BRANCH  13  23
ATOM     23  O   UNL     1       6.316  -9.890 -30.587  1.00  0.00    -0.507 OA
ATOM     24  H   UNL     1       6.506  -8.908 -30.426  1.00  0.00     0.293 HD
ENDBRANCH  13  23
BRANCH  19  25
ATOM     25  C   UNL     1       4.490  -9.399 -32.476  1.00  0.00     0.264 C 
ATOM     26  O   UNL     1       4.329  -8.303 -33.076  1.00  0.00    -0.298 OA
ENDBRANCH  19  25
BRANCH  20  27
ATOM     27  C   UNL     1       6.882 -13.893 -35.364  1.00  0.00     0.017 C 
ATOM     28  C   UNL     1       7.216 -13.576 -36.825  1.00  0.00     0.012 C 
ATOM     29  C   UNL     1       5.969 -15.130 -35.252  1.00  0.00     0.012 C 
ENDBRANCH  20  27
BRANCH  21  30
ATOM     30  O   UNL     1       3.286 -10.490 -34.707  1.00  0.00    -0.504 OA
ATOM     31  H   UNL     1       2.809  -9.748 -34.218  1.00  0.00     0.293 HD
ENDBRANCH  21  30
BRANCH  22  32
ATOM     32  O   UNL     1       4.585 -12.467 -36.300  1.00  0.00    -0.504 OA
ATOM     33  H   UNL     1       3.618 -12.354 -36.569  1.00  0.00     0.293 HD
ENDBRANCH  22  32
ENDBRANCH  11  12
BRANCH  10  34
ATOM     34  O   UNL     1       8.593 -12.793 -28.947  1.00  0.00    -0.507 OA
ATOM     35  H   UNL     1       9.040 -13.524 -29.485  1.00  0.00     0.293 HD
ENDBRANCH  10  34
BRANCH   9  36
ATOM     36  C   UNL     1      12.060  -8.130 -26.487  1.00  0.00     0.017 C 
ATOM     37  C   UNL     1      13.490  -8.479 -26.049  1.00  0.00     0.012 C 
ATOM     38  C   UNL     1      11.478  -6.913 -25.738  1.00  0.00     0.012 C 
ENDBRANCH   9  36
BRANCH   6  39
ATOM     39  C   UNL     1       8.897 -13.058 -26.336  1.00  0.00     0.264 C 
ATOM     40  O   UNL     1       8.503 -13.479 -25.217  1.00  0.00    -0.298 OA
ENDBRANCH   6  39
BRANCH   8  41
ATOM     41  O   UNL     1      11.744  -9.721 -24.179  1.00  0.00    -0.504 OA
ATOM     42  H   UNL     1      11.776  -8.752 -23.882  1.00  0.00     0.293 HD
ENDBRANCH   8  41
BRANCH   7  43
ATOM     43  O   UNL     1      10.257 -12.012 -24.069  1.00  0.00    -0.504 OA
ATOM     44  H   UNL     1      10.643 -12.932 -23.906  1.00  0.00     0.293 HD
ENDBRANCH   7  43
TORSDOF 11
ENDMDL
MODEL 9
REMARK VINA RESULT:    -8.012      4.699      7.136
REMARK INTER + INTRA:         -12.489
REMARK INTER:                 -12.058
REMARK INTRA:                  -0.431
REMARK UNBOUND:                -0.730
REMARK SMILES Cc1cc2c(C(C)C)c(O)c(O)c(C=O)c2c(O)c1-c1c(C)cc2c(C(C)C)c(O)c(O)c(C=O)c2c1O
REMARK SMILES IDX 1 1 2 2 3 3 4 4 16 5 13 6 11 7 9 8 5 9 17 10 19 11 20 12
REMARK SMILES IDX 37 13 21 14 36 15 23 16 22 17 24 18 33 19 25 20 31 21 29 22
REMARK SMILES IDX 38 23 34 25 35 26 26 27 27 28 28 29 32 30 30 32 18 34 6 36
REMARK SMILES IDX 7 37 8 38 14 39 15 40 10 41 12 43
REMARK H PARENT 38 24 32 31 30 33 18 35 10 42 12 44
REMARK Flexibility Score: inf
ROOT
ATOM      1  C   UNL     1      10.456 -11.049 -26.456  1.00  0.00     0.045 C 
ATOM      2  C   UNL     1      11.536 -10.022 -26.216  1.00  0.00    -0.039 A 
ATOM      3  C   UNL     1      12.323 -10.110 -25.067  1.00  0.00     0.013 A 
ATOM      4  C   UNL     1      13.339  -9.176 -24.781  1.00  0.00    -0.006 A 
ATOM      5  C   UNL     1      13.629  -8.167 -25.751  1.00  0.00     0.039 A 
ATOM      6  C   UNL     1      14.770  -7.330 -25.559  1.00  0.00     0.072 A 
ATOM      7  C   UNL     1      15.567  -7.485 -24.408  1.00  0.00     0.169 A 
ATOM      8  C   UNL     1      15.213  -8.401 -23.413  1.00  0.00     0.162 A 
ATOM      9  C   UNL     1      14.078  -9.230 -23.556  1.00  0.00     0.008 A 
ATOM     10  C   UNL     1      12.756  -8.017 -26.872  1.00  0.00     0.132 A 
ATOM     11  C   UNL     1      11.727  -8.953 -27.105  1.00  0.00     0.031 A 
ENDROOT
BRANCH  11  12
ATOM     12  C   UNL     1      10.846  -8.815 -28.294  1.00  0.00     0.031 A 
ATOM     13  C   UNL     1      11.000  -9.682 -29.397  1.00  0.00     0.132 A 
ATOM     14  C   UNL     1       9.843  -7.832 -28.309  1.00  0.00    -0.039 A 
ATOM     15  C   UNL     1      10.124  -9.585 -30.520  1.00  0.00     0.039 A 
ATOM     16  C   UNL     1       9.053  -7.672 -29.449  1.00  0.00     0.013 A 
ATOM     17  C   UNL     1       9.605  -6.946 -27.110  1.00  0.00     0.045 C 
ATOM     18  C   UNL     1       9.224  -8.482 -30.592  1.00  0.00    -0.006 A 
ATOM     19  C   UNL     1      10.133 -10.538 -31.580  1.00  0.00     0.072 A 
ATOM     20  C   UNL     1       8.490  -8.232 -31.791  1.00  0.00     0.008 A 
ATOM     21  C   UNL     1       9.303 -10.355 -32.702  1.00  0.00     0.169 A 
ATOM     22  C   UNL     1       8.460  -9.230 -32.791  1.00  0.00     0.162 A 
BRANCH  13  23
ATOM     23  O   UNL     1      12.045 -10.614 -29.395  1.00  0.00    -0.507 OA
ATOM     24  H   UNL     1      13.008 -10.382 -29.602  1.00  0.00     0.293 HD
ENDBRANCH  13  23
BRANCH  19  25
ATOM     25  C   UNL     1      10.895 -11.807 -31.493  1.00  0.00     0.264 C 
ATOM     26  O   UNL     1      11.596 -12.210 -32.459  1.00  0.00    -0.298 OA
ENDBRANCH  19  25
BRANCH  20  27
ATOM     27  C   UNL     1       7.722  -6.915 -32.002  1.00  0.00     0.017 C 
ATOM     28  C   UNL     1       6.227  -7.098 -31.718  1.00  0.00     0.012 C 
ATOM     29  C   UNL     1       7.957  -6.275 -33.384  1.00  0.00     0.012 C 
ENDBRANCH  20  27
BRANCH  21  30
ATOM     30  O   UNL     1       9.335 -11.320 -33.718  1.00  0.00    -0.504 OA
ATOM     31  H   UNL     1       9.592 -11.137 -34.676  1.00  0.00     0.293 HD
ENDBRANCH  21  30
BRANCH  22  32
ATOM     32  O   UNL     1       7.551  -9.098 -33.844  1.00  0.00    -0.504 OA
ATOM     33  H   UNL     1       6.824  -8.399 -33.895  1.00  0.00     0.293 HD
ENDBRANCH  22  32
ENDBRANCH  11  12
BRANCH  10  34
ATOM     34  O   UNL     1      12.890  -6.921 -27.733  1.00  0.00    -0.507 OA
ATOM     35  H   UNL     1      12.833  -5.957 -27.432  1.00  0.00     0.293 HD
ENDBRANCH  10  34
BRANCH   9  36
ATOM     36  C   UNL     1      13.709 -10.138 -22.365  1.00  0.00     0.017 C 
ATOM     37  C   UNL     1      14.115 -11.599 -22.603  1.00  0.00     0.012 C 
ATOM     38  C   UNL     1      12.254  -9.985 -21.875  1.00  0.00     0.012 C 
ENDBRANCH   9  36
BRANCH   6  39
ATOM     39  C   UNL     1      15.197  -6.350 -26.580  1.00  0.00     0.264 C 
ATOM     40  O   UNL     1      16.080  -5.492 -26.316  1.00  0.00    -0.298 OA
ENDBRANCH   6  39
BRANCH   8  41
ATOM     41  O   UNL     1      16.011  -8.509 -22.270  1.00  0.00    -0.504 OA
ATOM     42  H   UNL     1      15.758  -9.077 -21.469  1.00  0.00     0.293 HD
ENDBRANCH   8  41
BRANCH   7  43
ATOM     43  O   UNL     1      16.746  -6.749 -24.228  1.00  0.00    -0.504 OA
ATOM     44  H   UNL     1      17.642  -7.159 -24.000  1.00  0.00     0.293 HD
ENDBRANCH   7  43
TORSDOF 11
ENDMDL
