MODEL 1
REMARK VINA RESULT:    -2.699      0.000      0.000
REMARK INTER + INTRA:          -2.699
REMARK INTER:                  -2.699
REMARK INTRA:                   0.000
REMARK UNBOUND:                 0.000
REMARK SMILES CC1(C)C(=O)[C@]2(C)CC[C@H]1C2
REMARK SMILES IDX 1 1 2 2 10 3 9 4 8 5 6 6 11 7 4 8 5 9 7 10 3 11
REMARK H PARENT
REMARK Flexibility Score: inf
ROOT
ATOM      1  C   UNL     1     123.778 127.231 119.078  1.00  0.00     0.020 C 
ATOM      2  C   UNL     1     124.965 128.106 119.533  1.00  0.00     0.027 C 
ATOM      3  C   UNL     1     125.612 128.876 118.326  1.00  0.00     0.003 C 
ATOM      4  C   UNL     1     126.679 129.887 118.817  1.00  0.00     0.005 C 
ATOM      5  C   UNL     1     127.808 128.974 119.348  1.00  0.00     0.015 C 
ATOM      6  C   UNL     1     127.290 127.564 119.003  1.00  0.00     0.027 C 
ATOM      7  C   UNL     1     126.535 127.824 117.715  1.00  0.00     0.019 C 
ATOM      8  C   UNL     1     126.142 127.262 119.928  1.00  0.00     0.144 C 
ATOM      9  O   UNL     1     126.184 126.510 120.890  1.00  0.00    -0.298 OA
ATOM     10  C   UNL     1     128.361 126.476 118.912  1.00  0.00     0.020 C 
ATOM     11  C   UNL     1     124.506 129.016 120.694  1.00  0.00     0.020 C 
ENDROOT
TORSDOF 0
ENDMDL
MODEL 2
REMARK VINA RESULT:    -2.642     13.792     15.481
REMARK INTER + INTRA:          -2.642
REMARK INTER:                  -2.642
REMARK INTRA:                   0.000
REMARK UNBOUND:                 0.000
REMARK SMILES CC1(C)C(=O)[C@]2(C)CC[C@H]1C2
REMARK SMILES IDX 1 1 2 2 10 3 9 4 8 5 6 6 11 7 4 8 5 9 7 10 3 11
REMARK H PARENT
REMARK Flexibility Score: inf
ROOT
ATOM      1  C   UNL     1     127.333 115.138 119.617  1.00  0.00     0.020 C 
ATOM      2  C   UNL     1     128.351 113.994 119.812  1.00  0.00     0.027 C 
ATOM      3  C   UNL     1     128.977 113.537 118.445  1.00  0.00     0.003 C 
ATOM      4  C   UNL     1     130.125 112.520 118.669  1.00  0.00     0.005 C 
ATOM      5  C   UNL     1     129.387 111.270 119.199  1.00  0.00     0.015 C 
ATOM      6  C   UNL     1     127.907 111.693 119.115  1.00  0.00     0.027 C 
ATOM      7  C   UNL     1     127.915 112.588 117.893  1.00  0.00     0.019 C 
ATOM      8  C   UNL     1     127.664 112.714 120.191  1.00  0.00     0.144 C 
ATOM      9  O   UNL     1     127.070 112.514 121.241  1.00  0.00    -0.298 OA
ATOM     10  C   UNL     1     126.898 110.544 119.063  1.00  0.00     0.020 C 
ATOM     11  C   UNL     1     129.389 114.416 120.875  1.00  0.00     0.020 C 
ENDROOT
TORSDOF 0
ENDMDL
MODEL 3
REMARK VINA RESULT:    -2.575      1.280      3.177
REMARK INTER + INTRA:          -2.575
REMARK INTER:                  -2.575
REMARK INTRA:                   0.000
REMARK UNBOUND:                 0.000
REMARK SMILES CC1(C)C(=O)[C@]2(C)CC[C@H]1C2
REMARK SMILES IDX 1 1 2 2 10 3 9 4 8 5 6 6 11 7 4 8 5 9 7 10 3 11
REMARK H PARENT
REMARK Flexibility Score: inf
ROOT
ATOM      1  C   UNL     1     128.185 129.557 118.424  1.00  0.00     0.020 C 
ATOM      2  C   UNL     1     127.043 128.525 118.541  1.00  0.00     0.027 C 
ATOM      3  C   UNL     1     125.638 129.224 118.626  1.00  0.00     0.003 C 
ATOM      4  C   UNL     1     124.492 128.182 118.559  1.00  0.00     0.005 C 
ATOM      5  C   UNL     1     124.632 127.421 119.896  1.00  0.00     0.015 C 
ATOM      6  C   UNL     1     125.770 128.185 120.601  1.00  0.00     0.027 C 
ATOM      7  C   UNL     1     125.541 129.598 120.104  1.00  0.00     0.019 C 
ATOM      8  C   UNL     1     127.051 127.856 119.884  1.00  0.00     0.144 C 
ATOM      9  O   UNL     1     127.923 127.104 120.296  1.00  0.00    -0.298 OA
ATOM     10  C   UNL     1     125.815 128.040 122.123  1.00  0.00     0.020 C 
ATOM     11  C   UNL     1     127.172 127.497 117.395  1.00  0.00     0.020 C 
ENDROOT
TORSDOF 0
ENDMDL
MODEL 4
REMARK VINA RESULT:    -2.566     13.979     15.604
REMARK INTER + INTRA:          -2.566
REMARK INTER:                  -2.566
REMARK INTRA:                   0.000
REMARK UNBOUND:                 0.000
REMARK SMILES CC1(C)C(=O)[C@]2(C)CC[C@H]1C2
REMARK SMILES IDX 1 1 2 2 10 3 9 4 8 5 6 6 11 7 4 8 5 9 7 10 3 11
REMARK H PARENT
REMARK Flexibility Score: inf
ROOT
ATOM      1  C   UNL     1     129.531 110.860 118.417  1.00  0.00     0.020 C 
ATOM      2  C   UNL     1     128.505 112.003 118.568  1.00  0.00     0.027 C 
ATOM      3  C   UNL     1     129.208 113.406 118.638  1.00  0.00     0.003 C 
ATOM      4  C   UNL     1     128.167 114.554 118.605  1.00  0.00     0.005 C 
ATOM      5  C   UNL     1     127.446 114.411 119.964  1.00  0.00     0.015 C 
ATOM      6  C   UNL     1     128.228 113.269 120.641  1.00  0.00     0.027 C 
ATOM      7  C   UNL     1     129.626 113.498 120.104  1.00  0.00     0.019 C 
ATOM      8  C   UNL     1     127.876 111.992 119.931  1.00  0.00     0.144 C 
ATOM      9  O   UNL     1     127.135 111.120 120.362  1.00  0.00    -0.298 OA
ATOM     10  C   UNL     1     128.128 113.220 122.167  1.00  0.00     0.020 C 
ATOM     11  C   UNL     1     127.443 111.880 117.453  1.00  0.00     0.020 C 
ENDROOT
TORSDOF 0
ENDMDL
MODEL 5
REMARK VINA RESULT:    -2.406      2.843      3.801
REMARK INTER + INTRA:          -2.406
REMARK INTER:                  -2.406
REMARK INTRA:                   0.000
REMARK UNBOUND:                 0.000
REMARK SMILES CC1(C)C(=O)[C@]2(C)CC[C@H]1C2
REMARK SMILES IDX 1 1 2 2 10 3 9 4 8 5 6 6 11 7 4 8 5 9 7 10 3 11
REMARK H PARENT
REMARK Flexibility Score: inf
ROOT
ATOM      1  C   UNL     1     127.336 125.415 119.761  1.00  0.00     0.020 C 
ATOM      2  C   UNL     1     128.442 126.159 118.983  1.00  0.00     0.027 C 
ATOM      3  C   UNL     1     128.007 127.624 118.618  1.00  0.00     0.003 C 
ATOM      4  C   UNL     1     129.186 128.419 118.001  1.00  0.00     0.005 C 
ATOM      5  C   UNL     1     129.402 127.724 116.638  1.00  0.00     0.015 C 
ATOM      6  C   UNL     1     128.260 126.690 116.603  1.00  0.00     0.027 C 
ATOM      7  C   UNL     1     127.167 127.419 117.359  1.00  0.00     0.019 C 
ATOM      8  C   UNL     1     128.593 125.610 117.594  1.00  0.00     0.144 C 
ATOM      9  O   UNL     1     128.997 124.490 117.316  1.00  0.00    -0.298 OA
ATOM     10  C   UNL     1     127.859 126.201 115.210  1.00  0.00     0.020 C 
ATOM     11  C   UNL     1     129.766 126.069 119.775  1.00  0.00     0.020 C 
ENDROOT
TORSDOF 0
ENDMDL
MODEL 6
REMARK VINA RESULT:    -2.388      1.185      2.322
REMARK INTER + INTRA:          -2.388
REMARK INTER:                  -2.388
REMARK INTRA:                   0.000
REMARK UNBOUND:                 0.000
REMARK SMILES CC1(C)C(=O)[C@]2(C)CC[C@H]1C2
REMARK SMILES IDX 1 1 2 2 10 3 9 4 8 5 6 6 11 7 4 8 5 9 7 10 3 11
REMARK H PARENT
REMARK Flexibility Score: inf
ROOT
ATOM      1  C   UNL     1     124.925 130.125 120.865  1.00  0.00     0.020 C 
ATOM      2  C   UNL     1     125.980 129.294 120.103  1.00  0.00     0.027 C 
ATOM      3  C   UNL     1     125.452 128.845 118.693  1.00  0.00     0.003 C 
ATOM      4  C   UNL     1     126.577 128.171 117.865  1.00  0.00     0.005 C 
ATOM      5  C   UNL     1     126.829 126.851 118.627  1.00  0.00     0.015 C 
ATOM      6  C   UNL     1     125.753 126.888 119.730  1.00  0.00     0.027 C 
ATOM      7  C   UNL     1     124.620 127.607 119.027  1.00  0.00     0.019 C 
ATOM      8  C   UNL     1     126.159 127.940 120.726  1.00  0.00     0.144 C 
ATOM      9  O   UNL     1     126.630 127.727 121.834  1.00  0.00    -0.298 OA
ATOM     10  C   UNL     1     125.379 125.531 120.328  1.00  0.00     0.020 C 
ATOM     11  C   UNL     1     127.309 130.079 120.062  1.00  0.00     0.020 C 
ENDROOT
TORSDOF 0
ENDMDL
MODEL 7
REMARK VINA RESULT:    -2.387     13.501     15.263
REMARK INTER + INTRA:          -2.387
REMARK INTER:                  -2.387
REMARK INTRA:                   0.000
REMARK UNBOUND:                 0.000
REMARK SMILES CC1(C)C(=O)[C@]2(C)CC[C@H]1C2
REMARK SMILES IDX 1 1 2 2 10 3 9 4 8 5 6 6 11 7 4 8 5 9 7 10 3 11
REMARK H PARENT
REMARK Flexibility Score: inf
ROOT
ATOM      1  C   UNL     1     127.791 112.093 122.229  1.00  0.00     0.020 C 
ATOM      2  C   UNL     1     128.155 112.167 120.731  1.00  0.00     0.027 C 
ATOM      3  C   UNL     1     129.478 112.982 120.497  1.00  0.00     0.003 C 
ATOM      4  C   UNL     1     129.932 112.896 119.018  1.00  0.00     0.005 C 
ATOM      5  C   UNL     1     128.843 113.697 118.270  1.00  0.00     0.015 C 
ATOM      6  C   UNL     1     127.963 114.223 119.421  1.00  0.00     0.027 C 
ATOM      7  C   UNL     1     128.987 114.429 120.518  1.00  0.00     0.019 C 
ATOM      8  C   UNL     1     127.202 113.053 119.983  1.00  0.00     0.144 C 
ATOM      9  O   UNL     1     126.016 112.821 119.797  1.00  0.00    -0.298 OA
ATOM     10  C   UNL     1     127.119 115.456 119.092  1.00  0.00     0.020 C 
ATOM     11  C   UNL     1     128.178 110.738 120.145  1.00  0.00     0.020 C 
ENDROOT
TORSDOF 0
ENDMDL
MODEL 8
REMARK VINA RESULT:    -2.370      1.157      3.000
REMARK INTER + INTRA:          -2.370
REMARK INTER:                  -2.370
REMARK INTRA:                   0.000
REMARK UNBOUND:                 0.000
REMARK SMILES CC1(C)C(=O)[C@]2(C)CC[C@H]1C2
REMARK SMILES IDX 1 1 2 2 10 3 9 4 8 5 6 6 11 7 4 8 5 9 7 10 3 11
REMARK H PARENT
REMARK Flexibility Score: inf
ROOT
ATOM      1  C   UNL     1     127.164 128.037 122.185  1.00  0.00     0.020 C 
ATOM      2  C   UNL     1     127.002 128.238 120.663  1.00  0.00     0.027 C 
ATOM      3  C   UNL     1     126.186 129.539 120.335  1.00  0.00     0.003 C 
ATOM      4  C   UNL     1     126.185 129.829 118.812  1.00  0.00     0.005 C 
ATOM      5  C   UNL     1     125.331 128.677 118.237  1.00  0.00     0.015 C 
ATOM      6  C   UNL     1     124.869 127.935 119.507  1.00  0.00     0.027 C 
ATOM      7  C   UNL     1     124.739 129.076 120.496  1.00  0.00     0.019 C 
ATOM      8  C   UNL     1     126.064 127.223 120.077  1.00  0.00     0.144 C 
ATOM      9  O   UNL     1     126.275 126.020 120.008  1.00  0.00    -0.298 OA
ATOM     10  C   UNL     1     123.611 127.079 119.346  1.00  0.00     0.020 C 
ATOM     11  C   UNL     1     128.393 128.176 119.993  1.00  0.00     0.020 C 
ENDROOT
TORSDOF 0
ENDMDL
