MODEL 1
REMARK VINA RESULT:    -5.510      0.000      0.000
REMARK INTER + INTRA:          -6.873
REMARK INTER:                  -6.638
REMARK INTRA:                  -0.235
REMARK UNBOUND:                -0.235
REMARK SMILES O=c1c(O)c(-c2ccc(O)c(O)c2)oc2cc(O)cc(O)c12
REMARK SMILES IDX 5 1 3 2 2 3 1 4 22 5 20 6 19 7 17 8 16 9 15 10 14 11 6 12
REMARK SMILES IDX 7 13 8 14 9 15 13 16 11 17 10 18 12 20 4 22 21 24 18 26
REMARK H PARENT 10 19 12 21 4 23 21 25 18 27
REMARK Flexibility Score: inf
ROOT
ATOM      1  C   UNL     1     156.309 161.541 158.592  1.00  0.00     0.180 A 
ATOM      2  C   UNL     1     157.581 162.014 158.966  1.00  0.00     0.208 A 
ATOM      3  C   UNL     1     158.622 161.092 159.147  1.00  0.00     0.238 A 
ATOM      4  O   UNL     1     159.769 161.504 159.470  1.00  0.00    -0.285 OA
ATOM      5  C   UNL     1     158.371 159.714 158.972  1.00  0.00     0.111 A 
ATOM      6  C   UNL     1     159.364 158.719 159.140  1.00  0.00     0.134 A 
ATOM      7  C   UNL     1     159.033 157.369 158.956  1.00  0.00     0.093 A 
ATOM      8  C   UNL     1     157.732 156.994 158.611  1.00  0.00     0.123 A 
ATOM      9  C   UNL     1     156.747 157.973 158.445  1.00  0.00     0.094 A 
ATOM     10  C   UNL     1     157.058 159.325 158.621  1.00  0.00     0.146 A 
ATOM     11  O   UNL     1     156.106 160.234 158.450  1.00  0.00    -0.452 OA
ENDROOT
BRANCH   1  12
ATOM     12  C   UNL     1     155.165 162.454 158.364  1.00  0.00     0.025 A 
ATOM     13  C   UNL     1     155.132 163.324 157.262  1.00  0.00     0.016 A 
ATOM     14  C   UNL     1     154.031 164.159 157.054  1.00  0.00     0.051 A 
ATOM     15  C   UNL     1     152.943 164.128 157.932  1.00  0.00     0.157 A 
ATOM     16  C   UNL     1     154.062 162.409 159.233  1.00  0.00     0.062 A 
ATOM     17  C   UNL     1     152.956 163.248 159.026  1.00  0.00     0.158 A 
BRANCH  15  18
ATOM     18  O   UNL     1     151.860 164.974 157.700  1.00  0.00    -0.504 OA
ATOM     19  H   UNL     1     151.768 165.871 158.163  1.00  0.00     0.293 HD
ENDBRANCH  15  18
BRANCH  17  20
ATOM     20  O   UNL     1     151.872 163.207 159.903  1.00  0.00    -0.504 OA
ATOM     21  H   UNL     1     151.567 162.340 160.330  1.00  0.00     0.293 HD
ENDBRANCH  17  20
ENDBRANCH   1  12
BRANCH   2  22
ATOM     22  O   UNL     1     157.791 163.379 159.181  1.00  0.00    -0.502 OA
ATOM     23  H   UNL     1     157.484 163.849 160.024  1.00  0.00     0.293 HD
ENDBRANCH   2  22
BRANCH   6  24
ATOM     24  O   UNL     1     160.673 159.061 159.485  1.00  0.00    -0.507 OA
ATOM     25  H   UNL     1     161.434 158.995 158.818  1.00  0.00     0.293 HD
ENDBRANCH   6  24
BRANCH   8  26
ATOM     26  O   UNL     1     157.430 155.646 158.437  1.00  0.00    -0.508 OA
ATOM     27  H   UNL     1     157.994 154.917 158.858  1.00  0.00     0.293 HD
ENDBRANCH   8  26
TORSDOF 6
ENDMDL
MODEL 2
REMARK VINA RESULT:    -5.466      3.070      7.309
REMARK INTER + INTRA:          -6.819
REMARK INTER:                  -6.766
REMARK INTRA:                  -0.053
REMARK UNBOUND:                -0.235
REMARK SMILES O=c1c(O)c(-c2ccc(O)c(O)c2)oc2cc(O)cc(O)c12
REMARK SMILES IDX 5 1 3 2 2 3 1 4 22 5 20 6 19 7 17 8 16 9 15 10 14 11 6 12
REMARK SMILES IDX 7 13 8 14 9 15 13 16 11 17 10 18 12 20 4 22 21 24 18 26
REMARK H PARENT 10 19 12 21 4 23 21 25 18 27
REMARK Flexibility Score: inf
ROOT
ATOM      1  C   UNL     1     153.767 163.785 157.982  1.00  0.00     0.180 A 
ATOM      2  C   UNL     1     153.162 164.973 158.433  1.00  0.00     0.208 A 
ATOM      3  C   UNL     1     151.768 165.010 158.584  1.00  0.00     0.238 A 
ATOM      4  O   UNL     1     151.215 166.065 158.998  1.00  0.00    -0.285 OA
ATOM      5  C   UNL     1     151.002 163.868 158.264  1.00  0.00     0.111 A 
ATOM      6  C   UNL     1     149.592 163.824 158.384  1.00  0.00     0.134 A 
ATOM      7  C   UNL     1     148.901 162.653 158.038  1.00  0.00     0.093 A 
ATOM      8  C   UNL     1     149.590 161.530 157.573  1.00  0.00     0.123 A 
ATOM      9  C   UNL     1     150.983 161.569 157.452  1.00  0.00     0.094 A 
ATOM     10  C   UNL     1     151.690 162.725 157.795  1.00  0.00     0.146 A 
ATOM     11  O   UNL     1     153.012 162.733 157.676  1.00  0.00    -0.452 OA
ENDROOT
BRANCH   1  12
ATOM     12  C   UNL     1     155.234 163.663 157.815  1.00  0.00     0.025 A 
ATOM     13  C   UNL     1     155.957 164.563 157.016  1.00  0.00     0.016 A 
ATOM     14  C   UNL     1     157.344 164.443 156.893  1.00  0.00     0.051 A 
ATOM     15  C   UNL     1     158.030 163.433 157.574  1.00  0.00     0.157 A 
ATOM     16  C   UNL     1     155.928 162.663 158.516  1.00  0.00     0.062 A 
ATOM     17  C   UNL     1     157.320 162.540 158.393  1.00  0.00     0.158 A 
BRANCH  15  18
ATOM     18  O   UNL     1     159.413 163.337 157.430  1.00  0.00    -0.504 OA
ATOM     19  H   UNL     1     159.967 164.089 157.037  1.00  0.00     0.293 HD
ENDBRANCH  15  18
BRANCH  17  20
ATOM     20  O   UNL     1     157.998 161.534 159.082  1.00  0.00    -0.504 OA
ATOM     21  H   UNL     1     158.155 161.588 160.082  1.00  0.00     0.293 HD
ENDBRANCH  17  20
ENDBRANCH   1  12
BRANCH   2  22
ATOM     22  O   UNL     1     153.938 166.105 158.695  1.00  0.00    -0.502 OA
ATOM     23  H   UNL     1     154.356 166.660 157.958  1.00  0.00     0.293 HD
ENDBRANCH   2  22
BRANCH   6  24
ATOM     24  O   UNL     1     148.875 164.929 158.844  1.00  0.00    -0.507 OA
ATOM     25  H   UNL     1     147.892 165.054 158.629  1.00  0.00     0.293 HD
ENDBRANCH   6  24
BRANCH   8  26
ATOM     26  O   UNL     1     148.880 160.381 157.234  1.00  0.00    -0.508 OA
ATOM     27  H   UNL     1     149.256 159.456 157.405  1.00  0.00     0.293 HD
ENDBRANCH   8  26
TORSDOF 6
ENDMDL
MODEL 3
REMARK VINA RESULT:    -5.463      6.995     10.184
REMARK INTER + INTRA:          -6.817
REMARK INTER:                  -6.578
REMARK INTRA:                  -0.239
REMARK UNBOUND:                -0.235
REMARK SMILES O=c1c(O)c(-c2ccc(O)c(O)c2)oc2cc(O)cc(O)c12
REMARK SMILES IDX 5 1 3 2 2 3 1 4 22 5 20 6 19 7 17 8 16 9 15 10 14 11 6 12
REMARK SMILES IDX 7 13 8 14 9 15 13 16 11 17 10 18 12 20 4 22 21 24 18 26
REMARK H PARENT 10 19 12 21 4 23 21 25 18 27
REMARK Flexibility Score: inf
ROOT
ATOM      1  C   UNL     1     165.625 161.834 157.928  1.00  0.00     0.180 A 
ATOM      2  C   UNL     1     166.193 160.603 157.549  1.00  0.00     0.208 A 
ATOM      3  C   UNL     1     165.391 159.452 157.565  1.00  0.00     0.238 A 
ATOM      4  O   UNL     1     165.885 158.345 157.217  1.00  0.00    -0.285 OA
ATOM      5  C   UNL     1     164.045 159.546 157.978  1.00  0.00     0.111 A 
ATOM      6  C   UNL     1     163.171 158.433 158.027  1.00  0.00     0.134 A 
ATOM      7  C   UNL     1     161.847 158.607 158.457  1.00  0.00     0.093 A 
ATOM      8  C   UNL     1     161.382 159.868 158.840  1.00  0.00     0.123 A 
ATOM      9  C   UNL     1     162.241 160.970 158.794  1.00  0.00     0.094 A 
ATOM     10  C   UNL     1     163.563 160.818 158.365  1.00  0.00     0.146 A 
ATOM     11  O   UNL     1     164.356 161.882 158.325  1.00  0.00    -0.452 OA
ENDROOT
BRANCH   1  12
ATOM     12  C   UNL     1     166.401 163.095 157.919  1.00  0.00     0.025 A 
ATOM     13  C   UNL     1     166.159 164.097 156.964  1.00  0.00     0.016 A 
ATOM     14  C   UNL     1     166.887 165.289 156.990  1.00  0.00     0.051 A 
ATOM     15  C   UNL     1     167.856 165.505 157.974  1.00  0.00     0.157 A 
ATOM     16  C   UNL     1     167.360 163.323 158.919  1.00  0.00     0.062 A 
ATOM     17  C   UNL     1     168.093 164.520 158.947  1.00  0.00     0.158 A 
BRANCH  15  18
ATOM     18  O   UNL     1     168.568 166.704 157.973  1.00  0.00    -0.504 OA
ATOM     19  H   UNL     1     168.291 167.494 157.402  1.00  0.00     0.293 HD
ENDBRANCH  15  18
BRANCH  17  20
ATOM     20  O   UNL     1     169.053 164.731 159.936  1.00  0.00    -0.504 OA
ATOM     21  H   UNL     1     169.913 164.195 159.964  1.00  0.00     0.293 HD
ENDBRANCH  17  20
ENDBRANCH   1  12
BRANCH   2  22
ATOM     22  O   UNL     1     167.542 160.528 157.192  1.00  0.00    -0.502 OA
ATOM     23  H   UNL     1     168.085 161.347 156.950  1.00  0.00     0.293 HD
ENDBRANCH   2  22
BRANCH   6  24
ATOM     24  O   UNL     1     163.606 157.161 157.652  1.00  0.00    -0.507 OA
ATOM     25  H   UNL     1     163.761 156.916 156.680  1.00  0.00     0.293 HD
ENDBRANCH   6  24
BRANCH   8  26
ATOM     26  O   UNL     1     160.063 160.013 159.265  1.00  0.00    -0.508 OA
ATOM     27  H   UNL     1     159.776 159.749 160.200  1.00  0.00     0.293 HD
ENDBRANCH   8  26
TORSDOF 6
ENDMDL
MODEL 4
REMARK VINA RESULT:    -5.396      4.741      9.111
REMARK INTER + INTRA:          -6.735
REMARK INTER:                  -6.609
REMARK INTRA:                  -0.127
REMARK UNBOUND:                -0.235
REMARK SMILES O=c1c(O)c(-c2ccc(O)c(O)c2)oc2cc(O)cc(O)c12
REMARK SMILES IDX 5 1 3 2 2 3 1 4 22 5 20 6 19 7 17 8 16 9 15 10 14 11 6 12
REMARK SMILES IDX 7 13 8 14 9 15 13 16 11 17 10 18 12 20 4 22 21 24 18 26
REMARK H PARENT 10 19 12 21 4 23 21 25 18 27
REMARK Flexibility Score: inf
ROOT
ATOM      1  C   UNL     1     158.360 154.566 158.264  1.00  0.00     0.180 A 
ATOM      2  C   UNL     1     157.271 155.417 158.533  1.00  0.00     0.208 A 
ATOM      3  C   UNL     1     157.490 156.802 158.592  1.00  0.00     0.238 A 
ATOM      4  O   UNL     1     156.521 157.576 158.820  1.00  0.00    -0.285 OA
ATOM      5  C   UNL     1     158.793 157.310 158.401  1.00  0.00     0.111 A 
ATOM      6  C   UNL     1     159.100 158.691 158.449  1.00  0.00     0.134 A 
ATOM      7  C   UNL     1     160.423 159.117 158.259  1.00  0.00     0.093 A 
ATOM      8  C   UNL     1     161.442 158.191 158.024  1.00  0.00     0.123 A 
ATOM      9  C   UNL     1     161.145 156.826 157.976  1.00  0.00     0.094 A 
ATOM     10  C   UNL     1     159.832 156.381 158.161  1.00  0.00     0.146 A 
ATOM     11  O   UNL     1     159.577 155.080 158.104  1.00  0.00    -0.452 OA
ENDROOT
BRANCH   1  12
ATOM     12  C   UNL     1     158.205 153.096 158.167  1.00  0.00     0.025 A 
ATOM     13  C   UNL     1     157.331 152.512 157.234  1.00  0.00     0.016 A 
ATOM     14  C   UNL     1     157.220 151.123 157.145  1.00  0.00     0.051 A 
ATOM     15  C   UNL     1     157.985 150.296 157.973  1.00  0.00     0.157 A 
ATOM     16  C   UNL     1     158.988 152.264 158.983  1.00  0.00     0.062 A 
ATOM     17  C   UNL     1     158.877 150.868 158.896  1.00  0.00     0.158 A 
BRANCH  15  18
ATOM     18  O   UNL     1     157.851 148.913 157.862  1.00  0.00    -0.504 OA
ATOM     19  H   UNL     1     158.129 148.283 158.606  1.00  0.00     0.293 HD
ENDBRANCH  15  18
BRANCH  17  20
ATOM     20  O   UNL     1     159.649 150.051 159.720  1.00  0.00    -0.504 OA
ATOM     21  H   UNL     1     159.340 149.123 159.988  1.00  0.00     0.293 HD
ENDBRANCH  17  20
ENDBRANCH   1  12
BRANCH   2  22
ATOM     22  O   UNL     1     156.000 154.886 158.766  1.00  0.00    -0.502 OA
ATOM     23  H   UNL     1     155.157 155.322 158.416  1.00  0.00     0.293 HD
ENDBRANCH   2  22
BRANCH   6  24
ATOM     24  O   UNL     1     158.104 159.640 158.683  1.00  0.00    -0.507 OA
ATOM     25  H   UNL     1     157.137 159.373 158.829  1.00  0.00     0.293 HD
ENDBRANCH   6  24
BRANCH   8  26
ATOM     26  O   UNL     1     162.748 158.640 157.840  1.00  0.00    -0.508 OA
ATOM     27  H   UNL     1     162.996 159.241 157.062  1.00  0.00     0.293 HD
ENDBRANCH   8  26
TORSDOF 6
ENDMDL
MODEL 5
REMARK VINA RESULT:    -5.274      4.654      8.712
REMARK INTER + INTRA:          -6.589
REMARK INTER:                  -6.365
REMARK INTRA:                  -0.224
REMARK UNBOUND:                -0.235
REMARK SMILES O=c1c(O)c(-c2ccc(O)c(O)c2)oc2cc(O)cc(O)c12
REMARK SMILES IDX 5 1 3 2 2 3 1 4 22 5 20 6 19 7 17 8 16 9 15 10 14 11 6 12
REMARK SMILES IDX 7 13 8 14 9 15 13 16 11 17 10 18 12 20 4 22 21 24 18 26
REMARK H PARENT 10 19 12 21 4 23 21 25 18 27
REMARK Flexibility Score: inf
ROOT
ATOM      1  C   UNL     1     162.826 160.701 158.658  1.00  0.00     0.180 A 
ATOM      2  C   UNL     1     162.480 159.402 159.074  1.00  0.00     0.208 A 
ATOM      3  C   UNL     1     161.123 159.071 159.209  1.00  0.00     0.238 A 
ATOM      4  O   UNL     1     160.801 157.906 159.571  1.00  0.00    -0.285 OA
ATOM      5  C   UNL     1     160.139 160.046 158.946  1.00  0.00     0.111 A 
ATOM      6  C   UNL     1     158.750 159.795 159.063  1.00  0.00     0.134 A 
ATOM      7  C   UNL     1     157.833 160.821 158.791  1.00  0.00     0.093 A 
ATOM      8  C   UNL     1     158.275 162.090 158.410  1.00  0.00     0.123 A 
ATOM      9  C   UNL     1     159.645 162.344 158.293  1.00  0.00     0.094 A 
ATOM     10  C   UNL     1     160.575 161.333 158.556  1.00  0.00     0.146 A 
ATOM     11  O   UNL     1     161.870 161.599 158.432  1.00  0.00    -0.452 OA
ENDROOT
BRANCH   1  12
ATOM     12  C   UNL     1     164.234 161.121 158.474  1.00  0.00     0.025 A 
ATOM     13  C   UNL     1     165.028 160.588 157.444  1.00  0.00     0.016 A 
ATOM     14  C   UNL     1     166.347 161.017 157.275  1.00  0.00     0.051 A 
ATOM     15  C   UNL     1     166.889 161.990 158.120  1.00  0.00     0.157 A 
ATOM     16  C   UNL     1     164.774 162.113 159.308  1.00  0.00     0.062 A 
ATOM     17  C   UNL     1     166.098 162.545 159.140  1.00  0.00     0.158 A 
BRANCH  15  18
ATOM     18  O   UNL     1     168.208 162.396 157.928  1.00  0.00    -0.504 OA
ATOM     19  H   UNL     1     168.485 163.370 157.979  1.00  0.00     0.293 HD
ENDBRANCH  15  18
BRANCH  17  20
ATOM     20  O   UNL     1     166.630 163.521 159.983  1.00  0.00    -0.504 OA
ATOM     21  H   UNL     1     166.224 163.717 160.890  1.00  0.00     0.293 HD
ENDBRANCH  17  20
ENDBRANCH   1  12
BRANCH   2  22
ATOM     22  O   UNL     1     163.476 158.469 159.376  1.00  0.00    -0.502 OA
ATOM     23  H   UNL     1     163.263 157.540 159.719  1.00  0.00     0.293 HD
ENDBRANCH   2  22
BRANCH   6  24
ATOM     24  O   UNL     1     158.277 158.539 159.443  1.00  0.00    -0.507 OA
ATOM     25  H   UNL     1     158.838 157.702 159.330  1.00  0.00     0.293 HD
ENDBRANCH   6  24
BRANCH   8  26
ATOM     26  O   UNL     1     157.343 163.092 158.148  1.00  0.00    -0.508 OA
ATOM     27  H   UNL     1     157.565 164.071 158.283  1.00  0.00     0.293 HD
ENDBRANCH   8  26
TORSDOF 6
ENDMDL
MODEL 6
REMARK VINA RESULT:    -5.224      1.662      6.497
REMARK INTER + INTRA:          -6.528
REMARK INTER:                  -6.507
REMARK INTRA:                  -0.021
REMARK UNBOUND:                -0.235
REMARK SMILES O=c1c(O)c(-c2ccc(O)c(O)c2)oc2cc(O)cc(O)c12
REMARK SMILES IDX 5 1 3 2 2 3 1 4 22 5 20 6 19 7 17 8 16 9 15 10 14 11 6 12
REMARK SMILES IDX 7 13 8 14 9 15 13 16 11 17 10 18 12 20 4 22 21 24 18 26
REMARK H PARENT 10 19 12 21 4 23 21 25 18 27
REMARK Flexibility Score: inf
ROOT
ATOM      1  C   UNL     1     156.371 159.933 158.021  1.00  0.00     0.180 A 
ATOM      2  C   UNL     1     157.508 160.697 158.341  1.00  0.00     0.208 A 
ATOM      3  C   UNL     1     157.412 162.097 158.328  1.00  0.00     0.238 A 
ATOM      4  O   UNL     1     158.421 162.793 158.625  1.00  0.00    -0.285 OA
ATOM      5  C   UNL     1     156.190 162.708 157.977  1.00  0.00     0.111 A 
ATOM      6  C   UNL     1     156.010 164.112 157.935  1.00  0.00     0.134 A 
ATOM      7  C   UNL     1     154.765 164.643 157.567  1.00  0.00     0.093 A 
ATOM      8  C   UNL     1     153.700 163.800 157.239  1.00  0.00     0.123 A 
ATOM      9  C   UNL     1     153.872 162.413 157.279  1.00  0.00     0.094 A 
ATOM     10  C   UNL     1     155.104 161.864 157.645  1.00  0.00     0.146 A 
ATOM     11  O   UNL     1     155.239 160.544 157.680  1.00  0.00    -0.452 OA
ENDROOT
BRANCH   1  12
ATOM     12  C   UNL     1     156.389 158.452 158.031  1.00  0.00     0.025 A 
ATOM     13  C   UNL     1     156.019 157.708 156.897  1.00  0.00     0.016 A 
ATOM     14  C   UNL     1     156.067 156.313 156.922  1.00  0.00     0.051 A 
ATOM     15  C   UNL     1     156.496 155.639 158.070  1.00  0.00     0.157 A 
ATOM     16  C   UNL     1     156.840 157.775 159.175  1.00  0.00     0.062 A 
ATOM     17  C   UNL     1     156.888 156.373 159.202  1.00  0.00     0.158 A 
BRANCH  15  18
ATOM     18  O   UNL     1     156.531 154.246 158.065  1.00  0.00    -0.504 OA
ATOM     19  H   UNL     1     155.744 153.688 157.755  1.00  0.00     0.293 HD
ENDBRANCH  15  18
BRANCH  17  20
ATOM     20  O   UNL     1     157.323 155.708 160.349  1.00  0.00    -0.504 OA
ATOM     21  H   UNL     1     158.272 155.365 160.435  1.00  0.00     0.293 HD
ENDBRANCH  17  20
ENDBRANCH   1  12
BRANCH   2  22
ATOM     22  O   UNL     1     158.721 160.068 158.637  1.00  0.00    -0.502 OA
ATOM     23  H   UNL     1     159.494 160.558 159.071  1.00  0.00     0.293 HD
ENDBRANCH   2  22
BRANCH   6  24
ATOM     24  O   UNL     1     157.054 164.980 158.256  1.00  0.00    -0.507 OA
ATOM     25  H   UNL     1     157.033 165.553 159.093  1.00  0.00     0.293 HD
ENDBRANCH   6  24
BRANCH   8  26
ATOM     26  O   UNL     1     152.474 164.354 156.876  1.00  0.00    -0.508 OA
ATOM     27  H   UNL     1     151.607 163.842 156.991  1.00  0.00     0.293 HD
ENDBRANCH   8  26
TORSDOF 6
ENDMDL
MODEL 7
REMARK VINA RESULT:    -5.186      1.812      3.508
REMARK INTER + INTRA:          -6.483
REMARK INTER:                  -6.160
REMARK INTRA:                  -0.323
REMARK UNBOUND:                -0.235
REMARK SMILES O=c1c(O)c(-c2ccc(O)c(O)c2)oc2cc(O)cc(O)c12
REMARK SMILES IDX 5 1 3 2 2 3 1 4 22 5 20 6 19 7 17 8 16 9 15 10 14 11 6 12
REMARK SMILES IDX 7 13 8 14 9 15 13 16 11 17 10 18 12 20 4 22 21 24 18 26
REMARK H PARENT 10 19 12 21 4 23 21 25 18 27
REMARK Flexibility Score: inf
ROOT
ATOM      1  C   UNL     1     155.101 162.106 158.249  1.00  0.00     0.180 A 
ATOM      2  C   UNL     1     154.947 160.868 157.599  1.00  0.00     0.208 A 
ATOM      3  C   UNL     1     156.062 160.027 157.466  1.00  0.00     0.238 A 
ATOM      4  O   UNL     1     155.935 158.910 156.896  1.00  0.00    -0.285 OA
ATOM      5  C   UNL     1     157.313 160.446 157.966  1.00  0.00     0.111 A 
ATOM      6  C   UNL     1     158.488 159.661 157.869  1.00  0.00     0.134 A 
ATOM      7  C   UNL     1     159.697 160.152 158.384  1.00  0.00     0.093 A 
ATOM      8  C   UNL     1     159.755 161.410 158.989  1.00  0.00     0.123 A 
ATOM      9  C   UNL     1     158.599 162.189 159.087  1.00  0.00     0.094 A 
ATOM     10  C   UNL     1     157.383 161.716 158.583  1.00  0.00     0.146 A 
ATOM     11  O   UNL     1     156.299 162.474 158.695  1.00  0.00    -0.452 OA
ENDROOT
BRANCH   1  12
ATOM     12  C   UNL     1     153.967 163.040 158.444  1.00  0.00     0.025 A 
ATOM     13  C   UNL     1     153.072 162.890 159.517  1.00  0.00     0.016 A 
ATOM     14  C   UNL     1     152.025 163.796 159.695  1.00  0.00     0.051 A 
ATOM     15  C   UNL     1     151.862 164.871 158.816  1.00  0.00     0.157 A 
ATOM     16  C   UNL     1     153.815 164.132 157.575  1.00  0.00     0.062 A 
ATOM     17  C   UNL     1     152.763 165.043 157.752  1.00  0.00     0.158 A 
BRANCH  15  18
ATOM     18  O   UNL     1     150.806 165.759 159.018  1.00  0.00    -0.504 OA
ATOM     19  H   UNL     1     149.920 165.661 158.536  1.00  0.00     0.293 HD
ENDBRANCH  15  18
BRANCH  17  20
ATOM     20  O   UNL     1     152.611 166.117 156.875  1.00  0.00    -0.504 OA
ATOM     21  H   UNL     1     152.105 166.022 156.002  1.00  0.00     0.293 HD
ENDBRANCH  17  20
ENDBRANCH   1  12
BRANCH   2  22
ATOM     22  O   UNL     1     153.708 160.498 157.068  1.00  0.00    -0.502 OA
ATOM     23  H   UNL     1     153.419 159.531 156.988  1.00  0.00     0.293 HD
ENDBRANCH   2  22
BRANCH   6  24
ATOM     24  O   UNL     1     158.462 158.401 157.269  1.00  0.00    -0.507 OA
ATOM     25  H   UNL     1     159.305 157.849 157.153  1.00  0.00     0.293 HD
ENDBRANCH   6  24
BRANCH   8  26
ATOM     26  O   UNL     1     160.969 161.874 159.490  1.00  0.00    -0.508 OA
ATOM     27  H   UNL     1     161.256 161.685 160.444  1.00  0.00     0.293 HD
ENDBRANCH   8  26
TORSDOF 6
ENDMDL
MODEL 8
REMARK VINA RESULT:    -5.172      1.750      2.572
REMARK INTER + INTRA:          -6.466
REMARK INTER:                  -6.377
REMARK INTRA:                  -0.089
REMARK UNBOUND:                -0.235
REMARK SMILES O=c1c(O)c(-c2ccc(O)c(O)c2)oc2cc(O)cc(O)c12
REMARK SMILES IDX 5 1 3 2 2 3 1 4 22 5 20 6 19 7 17 8 16 9 15 10 14 11 6 12
REMARK SMILES IDX 7 13 8 14 9 15 13 16 11 17 10 18 12 20 4 22 21 24 18 26
REMARK H PARENT 10 19 12 21 4 23 21 25 18 27
REMARK Flexibility Score: inf
ROOT
ATOM      1  C   UNL     1     154.514 162.395 158.263  1.00  0.00     0.180 A 
ATOM      2  C   UNL     1     155.516 163.347 157.997  1.00  0.00     0.208 A 
ATOM      3  C   UNL     1     156.849 162.921 157.896  1.00  0.00     0.238 A 
ATOM      4  O   UNL     1     157.754 163.763 157.646  1.00  0.00    -0.285 OA
ATOM      5  C   UNL     1     157.160 161.557 158.081  1.00  0.00     0.111 A 
ATOM      6  C   UNL     1     158.478 161.046 158.001  1.00  0.00     0.134 A 
ATOM      7  C   UNL     1     158.706 159.677 158.207  1.00  0.00     0.093 A 
ATOM      8  C   UNL     1     157.647 158.813 158.494  1.00  0.00     0.123 A 
ATOM      9  C   UNL     1     156.344 159.313 158.575  1.00  0.00     0.094 A 
ATOM     10  C   UNL     1     156.095 160.673 158.370  1.00  0.00     0.146 A 
ATOM     11  O   UNL     1     154.847 161.120 158.447  1.00  0.00    -0.452 OA
ENDROOT
BRANCH   1  12
ATOM     12  C   UNL     1     153.084 162.765 158.366  1.00  0.00     0.025 A 
ATOM     13  C   UNL     1     152.114 162.174 157.539  1.00  0.00     0.016 A 
ATOM     14  C   UNL     1     150.767 162.520 157.670  1.00  0.00     0.051 A 
ATOM     15  C   UNL     1     150.366 163.449 158.635  1.00  0.00     0.157 A 
ATOM     16  C   UNL     1     152.676 163.681 159.349  1.00  0.00     0.062 A 
ATOM     17  C   UNL     1     151.324 164.031 159.482  1.00  0.00     0.158 A 
BRANCH  15  18
ATOM     18  O   UNL     1     149.015 163.776 158.741  1.00  0.00    -0.504 OA
ATOM     19  H   UNL     1     148.282 163.135 158.462  1.00  0.00     0.293 HD
ENDBRANCH  15  18
BRANCH  17  20
ATOM     20  O   UNL     1     150.931 164.954 160.451  1.00  0.00    -0.504 OA
ATOM     21  H   UNL     1     149.963 165.234 160.556  1.00  0.00     0.293 HD
ENDBRANCH  17  20
ENDBRANCH   1  12
BRANCH   2  22
ATOM     22  O   UNL     1     155.188 164.700 157.866  1.00  0.00    -0.502 OA
ATOM     23  H   UNL     1     154.358 165.099 158.284  1.00  0.00     0.293 HD
ENDBRANCH   2  22
BRANCH   6  24
ATOM     24  O   UNL     1     159.557 161.884 157.717  1.00  0.00    -0.507 OA
ATOM     25  H   UNL     1     160.312 162.023 158.380  1.00  0.00     0.293 HD
ENDBRANCH   6  24
BRANCH   8  26
ATOM     26  O   UNL     1     157.902 157.458 158.696  1.00  0.00    -0.508 OA
ATOM     27  H   UNL     1     158.797 157.134 159.043  1.00  0.00     0.293 HD
ENDBRANCH   8  26
TORSDOF 6
ENDMDL
