MODEL 1
REMARK VINA RESULT:     6.114      0.000      0.000
REMARK INTER + INTRA:          10.686
REMARK INTER:                   8.973
REMARK INTRA:                   1.713
REMARK UNBOUND:                 1.713
REMARK SMILES O=c1c(O[C@@H]2O[C@@H](CO)[C@@H](O)[C@H](O)[C@H]2O)c(-c2ccc(O)c(O)c2)oc2cc(O)cc(O)c12
REMARK SMILES IDX 4 1 3 2 16 3 25 4 2 5 26 6 1 7 33 8 27 9 31 10 28 11 30 12
REMARK SMILES IDX 17 13 18 14 19 15 20 16 24 17 22 18 21 19 23 21 32 23 29 25
REMARK SMILES IDX 5 27 14 28 6 29 12 30 7 31 10 32 15 33 13 35 8 37 9 38 11 40
REMARK H PARENT 21 20 23 22 32 24 29 26 15 34 13 36 9 39 11 41
REMARK Flexibility Score: inf
ROOT
ATOM      1  O   UNL     1      15.692  -1.804  28.914  1.00  0.00    -0.454 OA
ENDROOT
BRANCH   1   2
ATOM      2  C   UNL     1      15.301  -1.172  27.720  1.00  0.00     0.214 A 
ATOM      3  C   UNL     1      15.080  -1.840  26.471  1.00  0.00     0.180 A 
ATOM      4  O   UNL     1      14.702  -1.132  25.409  1.00  0.00    -0.452 OA
ATOM      5  C   UNL     1      15.202   0.228  27.725  1.00  0.00     0.239 A 
ATOM      6  C   UNL     1      14.617   0.189  25.388  1.00  0.00     0.146 A 
ATOM      7  O   UNL     1      15.399   0.847  28.813  1.00  0.00    -0.285 OA
ATOM      8  C   UNL     1      14.919   0.936  26.538  1.00  0.00     0.111 A 
ATOM      9  C   UNL     1      14.315   0.834  24.179  1.00  0.00     0.094 A 
ATOM     10  C   UNL     1      14.960   2.343  26.445  1.00  0.00     0.134 A 
ATOM     11  C   UNL     1      14.396   2.231  24.077  1.00  0.00     0.123 A 
ATOM     12  C   UNL     1      14.737   2.972  25.217  1.00  0.00     0.093 A 
BRANCH   3  13
ATOM     13  C   UNL     1      15.578  -3.342  26.064  1.00  0.00     0.025 A 
ATOM     14  C   UNL     1      16.998  -3.702  26.395  1.00  0.00     0.016 A 
ATOM     15  C   UNL     1      17.439  -4.997  26.157  1.00  0.00     0.051 A 
ATOM     16  C   UNL     1      16.545  -6.040  25.843  1.00  0.00     0.157 A 
ATOM     17  C   UNL     1      14.618  -4.533  25.632  1.00  0.00     0.062 A 
ATOM     18  C   UNL     1      15.170  -5.815  25.601  1.00  0.00     0.158 A 
BRANCH  16  19
ATOM     19  O   UNL     1      17.037  -7.347  25.746  1.00  0.00    -0.504 OA
ATOM     20  H   UNL     1      16.940  -8.003  26.513  1.00  0.00     0.293 HD
ENDBRANCH  16  19
BRANCH  18  21
ATOM     21  O   UNL     1      14.309  -6.889  25.327  1.00  0.00    -0.504 OA
ATOM     22  H   UNL     1      13.331  -6.869  25.613  1.00  0.00     0.293 HD
ENDBRANCH  18  21
ENDBRANCH   3  13
BRANCH  10  23
ATOM     23  O   UNL     1      15.225   3.125  27.576  1.00  0.00    -0.507 OA
ATOM     24  H   UNL     1      14.526   3.737  27.977  1.00  0.00     0.293 HD
ENDBRANCH  10  23
BRANCH  11  25
ATOM     25  O   UNL     1      14.174   2.883  22.866  1.00  0.00    -0.508 OA
ATOM     26  H   UNL     1      14.254   3.884  22.801  1.00  0.00     0.293 HD
ENDBRANCH  11  25
ENDBRANCH   1   2
BRANCH   1  27
ATOM     27  C   UNL     1      16.787  -1.400  29.738  1.00  0.00     0.339 C 
ATOM     28  C   UNL     1      17.254  -2.617  30.580  1.00  0.00     0.214 C 
ATOM     29  O   UNL     1      17.847  -0.824  28.987  1.00  0.00    -0.332 OA
ATOM     30  C   UNL     1      18.053  -3.622  29.709  1.00  0.00     0.180 C 
ATOM     31  C   UNL     1      18.445  -1.719  28.067  1.00  0.00     0.179 C 
ATOM     32  C   UNL     1      19.103  -2.921  28.807  1.00  0.00     0.177 C 
BRANCH  28  33
ATOM     33  O   UNL     1      17.989  -2.224  31.727  1.00  0.00    -0.384 OA
ATOM     34  H   UNL     1      17.351  -1.929  32.432  1.00  0.00     0.211 HD
ENDBRANCH  28  33
BRANCH  30  35
ATOM     35  O   UNL     1      17.145  -4.346  28.913  1.00  0.00    -0.387 OA
ATOM     36  H   UNL     1      16.409  -4.657  29.511  1.00  0.00     0.211 HD
ENDBRANCH  30  35
BRANCH  31  37
ATOM     37  C   UNL     1      19.440  -0.919  27.209  1.00  0.00     0.191 C 
BRANCH  37  38
ATOM     38  O   UNL     1      18.859  -0.549  25.990  1.00  0.00    -0.394 OA
ATOM     39  H   UNL     1      18.626  -1.360  25.508  1.00  0.00     0.210 HD
ENDBRANCH  37  38
ENDBRANCH  31  37
BRANCH  32  40
ATOM     40  O   UNL     1      20.181  -2.489  29.608  1.00  0.00    -0.387 OA
ATOM     41  H   UNL     1      20.082  -1.523  29.802  1.00  0.00     0.211 HD
ENDBRANCH  32  40
ENDBRANCH   1  27
TORSDOF 12
ENDMDL
MODEL 2
REMARK VINA RESULT:     6.681      1.621      6.499
REMARK INTER + INTRA:          11.519
REMARK INTER:                  10.708
REMARK INTRA:                   0.811
REMARK UNBOUND:                 1.713
REMARK SMILES O=c1c(O[C@@H]2O[C@@H](CO)[C@@H](O)[C@H](O)[C@H]2O)c(-c2ccc(O)c(O)c2)oc2cc(O)cc(O)c12
REMARK SMILES IDX 4 1 3 2 16 3 25 4 2 5 26 6 1 7 33 8 27 9 31 10 28 11 30 12
REMARK SMILES IDX 17 13 18 14 19 15 20 16 24 17 22 18 21 19 23 21 32 23 29 25
REMARK SMILES IDX 5 27 14 28 6 29 12 30 7 31 10 32 15 33 13 35 8 37 9 38 11 40
REMARK H PARENT 21 20 23 22 32 24 29 26 15 34 13 36 9 39 11 41
REMARK Flexibility Score: inf
ROOT
ATOM      1  O   UNL     1      18.278  -3.420  26.199  1.00  0.00    -0.454 OA
ENDROOT
BRANCH   1   2
ATOM      2  C   UNL     1      17.068  -4.130  26.095  1.00  0.00     0.214 A 
ATOM      3  C   UNL     1      15.767  -3.531  26.037  1.00  0.00     0.180 A 
ATOM      4  O   UNL     1      14.693  -4.310  25.930  1.00  0.00    -0.452 OA
ATOM      5  C   UNL     1      17.128  -5.531  26.138  1.00  0.00     0.239 A 
ATOM      6  C   UNL     1      14.726  -5.633  25.983  1.00  0.00     0.146 A 
ATOM      7  O   UNL     1      18.264  -6.089  26.196  1.00  0.00    -0.285 OA
ATOM      8  C   UNL     1      15.947  -6.305  26.146  1.00  0.00     0.111 A 
ATOM      9  C   UNL     1      13.518  -6.346  25.971  1.00  0.00     0.094 A 
ATOM     10  C   UNL     1      15.936  -7.701  26.344  1.00  0.00     0.134 A 
ATOM     11  C   UNL     1      13.503  -7.728  26.209  1.00  0.00     0.123 A 
ATOM     12  C   UNL     1      14.722  -8.391  26.411  1.00  0.00     0.093 A 
BRANCH   3  13
ATOM     13  C   UNL     1      15.376  -1.998  26.448  1.00  0.00     0.025 A 
ATOM     14  C   UNL     1      15.241  -1.699  27.913  1.00  0.00     0.016 A 
ATOM     15  C   UNL     1      15.007  -0.390  28.316  1.00  0.00     0.051 A 
ATOM     16  C   UNL     1      15.128   0.694  27.425  1.00  0.00     0.157 A 
ATOM     17  C   UNL     1      15.425  -0.752  25.462  1.00  0.00     0.062 A 
ATOM     18  C   UNL     1      15.345   0.517  26.038  1.00  0.00     0.158 A 
BRANCH  16  19
ATOM     19  O   UNL     1      15.009   1.996  27.923  1.00  0.00    -0.504 OA
ATOM     20  H   UNL     1      15.769   2.437  28.429  1.00  0.00     0.293 HD
ENDBRANCH  16  19
BRANCH  18  21
ATOM     21  O   UNL     1      15.495   1.628  25.192  1.00  0.00    -0.504 OA
ATOM     22  H   UNL     1      14.686   2.102  24.796  1.00  0.00     0.293 HD
ENDBRANCH  18  21
ENDBRANCH   3  13
BRANCH  10  23
ATOM     23  O   UNL     1      17.135  -8.412  26.478  1.00  0.00    -0.507 OA
ATOM     24  H   UNL     1      17.178  -9.415  26.352  1.00  0.00     0.293 HD
ENDBRANCH  10  23
BRANCH  11  25
ATOM     25  O   UNL     1      12.308  -8.440  26.276  1.00  0.00    -0.508 OA
ATOM     26  H   UNL     1      11.985  -8.820  27.150  1.00  0.00     0.293 HD
ENDBRANCH  11  25
ENDBRANCH   1   2
BRANCH   1  27
ATOM     27  C   UNL     1      19.189  -3.504  27.296  1.00  0.00     0.339 C 
ATOM     28  C   UNL     1      20.337  -2.485  27.071  1.00  0.00     0.214 C 
ATOM     29  O   UNL     1      18.546  -3.324  28.550  1.00  0.00    -0.332 OA
ATOM     30  C   UNL     1      19.859  -1.036  27.353  1.00  0.00     0.180 C 
ATOM     31  C   UNL     1      17.959  -2.045  28.711  1.00  0.00     0.179 C 
ATOM     32  C   UNL     1      19.043  -0.928  28.668  1.00  0.00     0.177 C 
BRANCH  28  33
ATOM     33  O   UNL     1      21.494  -2.806  27.825  1.00  0.00    -0.384 OA
ATOM     34  H   UNL     1      21.421  -2.381  28.723  1.00  0.00     0.211 HD
ENDBRANCH  28  33
BRANCH  30  35
ATOM     35  O   UNL     1      19.076  -0.604  26.266  1.00  0.00    -0.387 OA
ATOM     36  H   UNL     1      18.119  -0.696  26.534  1.00  0.00     0.211 HD
ENDBRANCH  30  35
BRANCH  31  37
ATOM     37  C   UNL     1      17.155  -2.057  30.022  1.00  0.00     0.191 C 
BRANCH  37  38
ATOM     38  O   UNL     1      17.320  -3.274  30.695  1.00  0.00    -0.394 OA
ATOM     39  H   UNL     1      16.481  -3.493  31.133  1.00  0.00     0.210 HD
ENDBRANCH  37  38
ENDBRANCH  31  37
BRANCH  32  40
ATOM     40  O   UNL     1      19.923  -1.037  29.764  1.00  0.00    -0.387 OA
ATOM     41  H   UNL     1      20.464  -1.862  29.673  1.00  0.00     0.211 HD
ENDBRANCH  32  40
ENDBRANCH   1  27
TORSDOF 12
ENDMDL
MODEL 3
REMARK VINA RESULT:     7.207      7.191     12.353
REMARK INTER + INTRA:          12.291
REMARK INTER:                   8.236
REMARK INTRA:                   4.055
REMARK UNBOUND:                 1.713
REMARK SMILES O=c1c(O[C@@H]2O[C@@H](CO)[C@@H](O)[C@H](O)[C@H]2O)c(-c2ccc(O)c(O)c2)oc2cc(O)cc(O)c12
REMARK SMILES IDX 4 1 3 2 16 3 25 4 2 5 26 6 1 7 33 8 27 9 31 10 28 11 30 12
REMARK SMILES IDX 17 13 18 14 19 15 20 16 24 17 22 18 21 19 23 21 32 23 29 25
REMARK SMILES IDX 5 27 14 28 6 29 12 30 7 31 10 32 15 33 13 35 8 37 9 38 11 40
REMARK H PARENT 21 20 23 22 32 24 29 26 15 34 13 36 9 39 11 41
REMARK Flexibility Score: inf
ROOT
ATOM      1  O   UNL     1      13.973 -10.743  29.719  1.00  0.00    -0.454 OA
ENDROOT
BRANCH   1   2
ATOM      2  C   UNL     1      14.543 -11.720  28.884  1.00  0.00     0.214 A 
ATOM      3  C   UNL     1      15.066 -11.476  27.572  1.00  0.00     0.180 A 
ATOM      4  O   UNL     1      15.591 -12.485  26.879  1.00  0.00    -0.452 OA
ATOM      5  C   UNL     1      14.524 -13.051  29.329  1.00  0.00     0.239 A 
ATOM      6  C   UNL     1      15.570 -13.748  27.274  1.00  0.00     0.146 A 
ATOM      7  O   UNL     1      14.062 -13.299  30.483  1.00  0.00    -0.285 OA
ATOM      8  C   UNL     1      14.982 -14.097  28.500  1.00  0.00     0.111 A 
ATOM      9  C   UNL     1      16.055 -14.741  26.410  1.00  0.00     0.094 A 
ATOM     10  C   UNL     1      14.845 -15.462  28.826  1.00  0.00     0.134 A 
ATOM     11  C   UNL     1      15.882 -16.099  26.715  1.00  0.00     0.123 A 
ATOM     12  C   UNL     1      15.259 -16.445  27.922  1.00  0.00     0.093 A 
BRANCH   3  13
ATOM     13  C   UNL     1      14.785 -10.167  26.635  1.00  0.00     0.025 A 
ATOM     14  C   UNL     1      14.717  -8.836  27.328  1.00  0.00     0.016 A 
ATOM     15  C   UNL     1      14.578  -7.684  26.564  1.00  0.00     0.051 A 
ATOM     16  C   UNL     1      14.737  -7.697  25.164  1.00  0.00     0.157 A 
ATOM     17  C   UNL     1      14.879 -10.146  25.048  1.00  0.00     0.062 A 
ATOM     18  C   UNL     1      14.897  -8.895  24.429  1.00  0.00     0.158 A 
BRANCH  16  19
ATOM     19  O   UNL     1      14.716  -6.482  24.469  1.00  0.00    -0.504 OA
ATOM     20  H   UNL     1      15.514  -6.173  23.926  1.00  0.00     0.293 HD
ENDBRANCH  16  19
BRANCH  18  21
ATOM     21  O   UNL     1      15.088  -8.858  23.039  1.00  0.00    -0.504 OA
ATOM     22  H   UNL     1      15.506  -9.643  22.542  1.00  0.00     0.293 HD
ENDBRANCH  18  21
ENDBRANCH   3  13
BRANCH  10  23
ATOM     23  O   UNL     1      14.294 -15.850  30.054  1.00  0.00    -0.507 OA
ATOM     24  H   UNL     1      13.518 -16.497  30.110  1.00  0.00     0.293 HD
ENDBRANCH  10  23
BRANCH  11  25
ATOM     25  O   UNL     1      16.289 -17.098  25.834  1.00  0.00    -0.508 OA
ATOM     26  H   UNL     1      15.870 -17.181  24.922  1.00  0.00     0.293 HD
ENDBRANCH  11  25
ENDBRANCH   1   2
BRANCH   1  27
ATOM     27  C   UNL     1      12.698 -10.848  30.356  1.00  0.00     0.339 C 
ATOM     28  C   UNL     1      11.838  -9.620  29.955  1.00  0.00     0.214 C 
ATOM     29  O   UNL     1      12.049 -12.079  30.071  1.00  0.00    -0.332 OA
ATOM     30  C   UNL     1      11.317  -9.757  28.500  1.00  0.00     0.180 C 
ATOM     31  C   UNL     1      11.743 -12.257  28.699  1.00  0.00     0.179 C 
ATOM     32  C   UNL     1      10.744 -11.169  28.207  1.00  0.00     0.177 C 
BRANCH  28  33
ATOM     33  O   UNL     1      10.777  -9.389  30.867  1.00  0.00    -0.384 OA
ATOM     34  H   UNL     1      10.272  -8.582  30.575  1.00  0.00     0.211 HD
ENDBRANCH  28  33
BRANCH  30  35
ATOM     35  O   UNL     1      12.376  -9.476  27.617  1.00  0.00    -0.387 OA
ATOM     36  H   UNL     1      12.975 -10.275  27.609  1.00  0.00     0.211 HD
ENDBRANCH  30  35
BRANCH  31  37
ATOM     37  C   UNL     1      11.215 -13.690  28.517  1.00  0.00     0.191 C 
BRANCH  37  38
ATOM     38  O   UNL     1      10.263 -13.741  27.492  1.00  0.00    -0.394 OA
ATOM     39  H   UNL     1       9.712 -12.943  27.551  1.00  0.00     0.210 HD
ENDBRANCH  37  38
ENDBRANCH  31  37
BRANCH  32  40
ATOM     40  O   UNL     1       9.497 -11.302  28.851  1.00  0.00    -0.387 OA
ATOM     41  H   UNL     1       8.945 -10.499  28.672  1.00  0.00     0.211 HD
ENDBRANCH  32  40
ENDBRANCH   1  27
TORSDOF 12
ENDMDL
MODEL 4
REMARK VINA RESULT:     8.445      1.213      2.646
REMARK INTER + INTRA:          14.108
REMARK INTER:                  11.733
REMARK INTRA:                   2.375
REMARK UNBOUND:                 1.713
REMARK SMILES O=c1c(O[C@@H]2O[C@@H](CO)[C@@H](O)[C@H](O)[C@H]2O)c(-c2ccc(O)c(O)c2)oc2cc(O)cc(O)c12
REMARK SMILES IDX 4 1 3 2 16 3 25 4 2 5 26 6 1 7 33 8 27 9 31 10 28 11 30 12
REMARK SMILES IDX 17 13 18 14 19 15 20 16 24 17 22 18 21 19 23 21 32 23 29 25
REMARK SMILES IDX 5 27 14 28 6 29 12 30 7 31 10 32 15 33 13 35 8 37 9 38 11 40
REMARK H PARENT 21 20 23 22 32 24 29 26 15 34 13 36 9 39 11 41
REMARK Flexibility Score: inf
ROOT
ATOM      1  O   UNL     1      15.616  -1.813  29.112  1.00  0.00    -0.454 OA
ENDROOT
BRANCH   1   2
ATOM      2  C   UNL     1      15.285  -1.170  27.906  1.00  0.00     0.214 A 
ATOM      3  C   UNL     1      15.164  -1.821  26.635  1.00  0.00     0.180 A 
ATOM      4  O   UNL     1      14.835  -1.105  25.562  1.00  0.00    -0.452 OA
ATOM      5  C   UNL     1      15.146   0.226  27.927  1.00  0.00     0.239 A 
ATOM      6  C   UNL     1      14.714   0.214  25.557  1.00  0.00     0.146 A 
ATOM      7  O   UNL     1      15.255   0.831  29.036  1.00  0.00    -0.285 OA
ATOM      8  C   UNL     1      14.920   0.948  26.736  1.00  0.00     0.111 A 
ATOM      9  C   UNL     1      14.473   0.872  24.342  1.00  0.00     0.094 A 
ATOM     10  C   UNL     1      14.928   2.357  26.669  1.00  0.00     0.134 A 
ATOM     11  C   UNL     1      14.521   2.272  24.267  1.00  0.00     0.123 A 
ATOM     12  C   UNL     1      14.766   3.002  25.439  1.00  0.00     0.093 A 
BRANCH   3  13
ATOM     13  C   UNL     1      15.729  -3.301  26.236  1.00  0.00     0.025 A 
ATOM     14  C   UNL     1      17.059  -3.700  26.809  1.00  0.00     0.016 A 
ATOM     15  C   UNL     1      17.536  -4.984  26.579  1.00  0.00     0.051 A 
ATOM     16  C   UNL     1      16.718  -5.993  26.034  1.00  0.00     0.157 A 
ATOM     17  C   UNL     1      14.869  -4.451  25.553  1.00  0.00     0.062 A 
ATOM     18  C   UNL     1      15.415  -5.735  25.548  1.00  0.00     0.158 A 
BRANCH  16  19
ATOM     19  O   UNL     1      17.218  -7.298  25.951  1.00  0.00    -0.504 OA
ATOM     20  H   UNL     1      16.780  -8.062  26.454  1.00  0.00     0.293 HD
ENDBRANCH  16  19
BRANCH  18  21
ATOM     21  O   UNL     1      14.622  -6.779  25.046  1.00  0.00    -0.504 OA
ATOM     22  H   UNL     1      13.701  -6.599  24.649  1.00  0.00     0.293 HD
ENDBRANCH  18  21
ENDBRANCH   3  13
BRANCH  10  23
ATOM     23  O   UNL     1      15.097   3.125  27.827  1.00  0.00    -0.507 OA
ATOM     24  H   UNL     1      14.309   3.516  28.328  1.00  0.00     0.293 HD
ENDBRANCH  10  23
BRANCH  11  25
ATOM     25  O   UNL     1      14.359   2.940  23.056  1.00  0.00    -0.508 OA
ATOM     26  H   UNL     1      13.561   3.533  22.899  1.00  0.00     0.293 HD
ENDBRANCH  11  25
ENDBRANCH   1   2
BRANCH   1  27
ATOM     27  C   UNL     1      16.939  -2.168  29.519  1.00  0.00     0.339 C 
ATOM     28  C   UNL     1      17.835  -0.903  29.458  1.00  0.00     0.214 C 
ATOM     29  O   UNL     1      16.966  -2.788  30.797  1.00  0.00    -0.332 OA
ATOM     30  C   UNL     1      17.537   0.048  30.647  1.00  0.00     0.180 C 
ATOM     31  C   UNL     1      16.517  -1.950  31.847  1.00  0.00     0.179 C 
ATOM     32  C   UNL     1      17.442  -0.707  32.000  1.00  0.00     0.177 C 
BRANCH  28  33
ATOM     33  O   UNL     1      19.213  -1.226  29.384  1.00  0.00    -0.384 OA
ATOM     34  H   UNL     1      19.309  -2.216  29.326  1.00  0.00     0.211 HD
ENDBRANCH  28  33
BRANCH  30  35
ATOM     35  O   UNL     1      16.329   0.723  30.389  1.00  0.00    -0.387 OA
ATOM     36  H   UNL     1      16.461   1.258  29.557  1.00  0.00     0.211 HD
ENDBRANCH  30  35
BRANCH  31  37
ATOM     37  C   UNL     1      16.430  -2.801  33.125  1.00  0.00     0.191 C 
BRANCH  37  38
ATOM     38  O   UNL     1      15.628  -3.929  32.917  1.00  0.00    -0.394 OA
ATOM     39  H   UNL     1      15.561  -4.411  33.758  1.00  0.00     0.210 HD
ENDBRANCH  37  38
ENDBRANCH  31  37
BRANCH  32  40
ATOM     40  O   UNL     1      18.737  -1.090  32.404  1.00  0.00    -0.387 OA
ATOM     41  H   UNL     1      19.245  -1.417  31.618  1.00  0.00     0.211 HD
ENDBRANCH  32  40
ENDBRANCH   1  27
TORSDOF 12
ENDMDL
MODEL 5
REMARK VINA RESULT:     8.631      6.398     10.219
REMARK INTER + INTRA:          14.380
REMARK INTER:                  12.809
REMARK INTRA:                   1.571
REMARK UNBOUND:                 1.713
REMARK SMILES O=c1c(O[C@@H]2O[C@@H](CO)[C@@H](O)[C@H](O)[C@H]2O)c(-c2ccc(O)c(O)c2)oc2cc(O)cc(O)c12
REMARK SMILES IDX 4 1 3 2 16 3 25 4 2 5 26 6 1 7 33 8 27 9 31 10 28 11 30 12
REMARK SMILES IDX 17 13 18 14 19 15 20 16 24 17 22 18 21 19 23 21 32 23 29 25
REMARK SMILES IDX 5 27 14 28 6 29 12 30 7 31 10 32 15 33 13 35 8 37 9 38 11 40
REMARK H PARENT 21 20 23 22 32 24 29 26 15 34 13 36 9 39 11 41
REMARK Flexibility Score: inf
ROOT
ATOM      1  O   UNL     1      12.086 -10.631  27.228  1.00  0.00    -0.454 OA
ENDROOT
BRANCH   1   2
ATOM      2  C   UNL     1      13.332 -10.042  26.945  1.00  0.00     0.214 A 
ATOM      3  C   UNL     1      14.602 -10.682  27.120  1.00  0.00     0.180 A 
ATOM      4  O   UNL     1      15.716 -10.023  26.808  1.00  0.00    -0.452 OA
ATOM      5  C   UNL     1      13.341  -8.698  26.542  1.00  0.00     0.239 A 
ATOM      6  C   UNL     1      15.748  -8.752  26.440  1.00  0.00     0.146 A 
ATOM      7  O   UNL     1      12.234  -8.102  26.385  1.00  0.00    -0.285 OA
ATOM      8  C   UNL     1      14.559  -8.012  26.344  1.00  0.00     0.111 A 
ATOM      9  C   UNL     1      16.990  -8.130  26.242  1.00  0.00     0.094 A 
ATOM     10  C   UNL     1      14.636  -6.626  26.093  1.00  0.00     0.134 A 
ATOM     11  C   UNL     1      17.070  -6.746  26.033  1.00  0.00     0.123 A 
ATOM     12  C   UNL     1      15.882  -6.003  25.977  1.00  0.00     0.093 A 
BRANCH   3  13
ATOM     13  C   UNL     1      14.908 -12.022  28.005  1.00  0.00     0.025 A 
ATOM     14  C   UNL     1      15.009 -11.847  29.493  1.00  0.00     0.016 A 
ATOM     15  C   UNL     1      15.171 -12.970  30.295  1.00  0.00     0.051 A 
ATOM     16  C   UNL     1      15.006 -14.274  29.789  1.00  0.00     0.157 A 
ATOM     17  C   UNL     1      14.808 -13.513  27.462  1.00  0.00     0.062 A 
ATOM     18  C   UNL     1      14.816 -14.536  28.412  1.00  0.00     0.158 A 
BRANCH  16  19
ATOM     19  O   UNL     1      15.052 -15.355  30.677  1.00  0.00    -0.504 OA
ATOM     20  H   UNL     1      14.205 -15.740  31.081  1.00  0.00     0.293 HD
ENDBRANCH  16  19
BRANCH  18  21
ATOM     21  O   UNL     1      14.620 -15.850  27.956  1.00  0.00    -0.504 OA
ATOM     22  H   UNL     1      14.947 -16.650  28.496  1.00  0.00     0.293 HD
ENDBRANCH  18  21
ENDBRANCH   3  13
BRANCH  10  23
ATOM     23  O   UNL     1      13.473  -5.860  25.957  1.00  0.00    -0.507 OA
ATOM     24  H   UNL     1      13.506  -4.874  25.733  1.00  0.00     0.293 HD
ENDBRANCH  10  23
BRANCH  11  25
ATOM     25  O   UNL     1      18.298  -6.100  25.911  1.00  0.00    -0.508 OA
ATOM     26  H   UNL     1      18.908  -6.300  25.135  1.00  0.00     0.293 HD
ENDBRANCH  11  25
ENDBRANCH   1   2
BRANCH   1  27
ATOM     27  C   UNL     1      11.196 -10.213  28.264  1.00  0.00     0.339 C 
ATOM     28  C   UNL     1      10.034 -11.236  28.367  1.00  0.00     0.214 C 
ATOM     29  O   UNL     1      11.859 -10.023  29.506  1.00  0.00    -0.332 OA
ATOM     30  C   UNL     1      10.503 -12.543  29.059  1.00  0.00     0.180 C 
ATOM     31  C   UNL     1      12.436 -11.205  30.031  1.00  0.00     0.179 C 
ATOM     32  C   UNL     1      11.342 -12.269  30.336  1.00  0.00     0.177 C 
BRANCH  28  33
ATOM     33  O   UNL     1       8.894 -10.689  29.009  1.00  0.00    -0.384 OA
ATOM     34  H   UNL     1       8.875 -11.004  29.953  1.00  0.00     0.211 HD
ENDBRANCH  28  33
BRANCH  30  35
ATOM     35  O   UNL     1      11.263 -13.289  28.138  1.00  0.00    -0.387 OA
ATOM     36  H   UNL     1      10.694 -13.431  27.330  1.00  0.00     0.211 HD
ENDBRANCH  30  35
BRANCH  31  37
ATOM     37  C   UNL     1      13.264 -10.817  31.268  1.00  0.00     0.191 C 
BRANCH  37  38
ATOM     38  O   UNL     1      12.814  -9.605  31.806  1.00  0.00    -0.394 OA
ATOM     39  H   UNL     1      13.583  -9.127  32.159  1.00  0.00     0.210 HD
ENDBRANCH  37  38
ENDBRANCH  31  37
BRANCH  32  40
ATOM     40  O   UNL     1      10.482 -11.828  31.363  1.00  0.00    -0.387 OA
ATOM     41  H   UNL     1      11.021 -11.485  32.120  1.00  0.00     0.211 HD
ENDBRANCH  32  40
ENDBRANCH   1  27
TORSDOF 12
ENDMDL
