MODEL 1
REMARK VINA RESULT:    -4.063      0.000      0.000
REMARK INTER + INTRA:          -4.381
REMARK INTER:                  -5.013
REMARK INTRA:                   0.632
REMARK UNBOUND:                 0.632
REMARK SMILES C=C1[C@H]2CC[C@@H]3[C@H]2C(C)(C)CCC[C@]13C
REMARK SMILES IDX 14 1 6 2 7 3 3 4 2 5 1 6 4 7 5 8 15 9 8 10 9 11 10 12 11 13
REMARK SMILES IDX 13 15 12 16
REMARK H PARENT
REMARK Flexibility Score: 80.00
ROOT
ATOM      1  C   UNL     1       1.209  15.380  -0.530  1.00  0.00    -0.008 C 
ATOM      2  C   UNL     1       1.693  13.878  -0.447  1.00  0.00     0.003 C 
ATOM      3  C   UNL     1       1.166  13.372   0.912  1.00  0.00     0.006 C 
ATOM      4  C   UNL     1      -0.269  13.822   0.633  1.00  0.00     0.019 C 
ATOM      5  C   UNL     1      -0.078  15.262   0.246  1.00  0.00    -0.068 C 
ATOM      6  C   UNL     1      -0.957  16.244   0.479  1.00  0.00     0.009 C 
ATOM      7  C   UNL     1      -0.570  13.051  -0.674  1.00  0.00     0.008 C 
ATOM      8  C   UNL     1       0.811  12.997  -1.374  1.00  0.00     0.005 C 
ATOM      9  C   UNL     1       0.933  15.862  -1.980  1.00  0.00     0.016 C 
ENDROOT
BRANCH   3  10
ATOM     10  C   UNL     1       1.888  13.816   2.256  1.00  0.00    -0.032 C 
ATOM     11  C   UNL     1       0.860  14.147   3.370  1.00  0.00     0.011 C 
ATOM     12  C   UNL     1       2.712  12.606   2.776  1.00  0.00     0.011 C 
BRANCH  10  13
ATOM     13  C   UNL     1       2.914  14.974   2.100  1.00  0.00     0.007 CG0
ATOM     14  G   UNL     1       2.346  16.306   1.615  1.00  0.00     0.000 G0
ENDBRANCH  10  13
ENDBRANCH   3  10
BRANCH   1  15
ATOM     15  C   UNL     1       2.220  16.372   0.104  1.00  0.00     0.011 C 
BRANCH  15  16
ATOM     16  C   UNL     1       2.353  16.311   1.624  1.00  0.00     0.001 CG0
ATOM     17  G   UNL     1       2.910  14.973   2.106  1.00  0.00     0.000 G0
ENDBRANCH  15  16
ENDBRANCH   1  15
TORSDOF 0
ENDMDL
MODEL 2
REMARK VINA RESULT:    -3.506      2.133      3.999
REMARK INTER + INTRA:          -3.694
REMARK INTER:                  -4.332
REMARK INTRA:                   0.637
REMARK UNBOUND:                 0.632
REMARK SMILES C=C1[C@H]2CC[C@@H]3[C@H]2C(C)(C)CCC[C@]13C
REMARK SMILES IDX 14 1 6 2 7 3 3 4 2 5 1 6 4 7 5 8 15 9 8 10 9 11 10 12 11 13
REMARK SMILES IDX 13 15 12 16
REMARK H PARENT
REMARK Flexibility Score: 80.00
ROOT
ATOM      1  C   UNL     1       1.036  15.123  -0.830  1.00  0.00    -0.008 C 
ATOM      2  C   UNL     1       0.861  15.962   0.497  1.00  0.00     0.003 C 
ATOM      3  C   UNL     1      -0.275  15.250   1.261  1.00  0.00     0.006 C 
ATOM      4  C   UNL     1       0.390  13.877   1.167  1.00  0.00     0.019 C 
ATOM      5  C   UNL     1       0.665  13.760  -0.306  1.00  0.00    -0.068 C 
ATOM      6  C   UNL     1       0.666  12.615  -1.000  1.00  0.00     0.009 C 
ATOM      7  C   UNL     1       1.750  14.162   1.848  1.00  0.00     0.008 C 
ATOM      8  C   UNL     1       2.026  15.639   1.472  1.00  0.00     0.005 C 
ATOM      9  C   UNL     1       2.490  15.125  -1.376  1.00  0.00     0.016 C 
ENDROOT
BRANCH   3  10
ATOM     10  C   UNL     1      -1.782  15.433   0.790  1.00  0.00    -0.032 C 
ATOM     11  C   UNL     1      -2.561  14.094   0.847  1.00  0.00     0.011 C 
ATOM     12  C   UNL     1      -2.484  16.383   1.801  1.00  0.00     0.011 C 
BRANCH  10  13
ATOM     13  C   UNL     1      -1.959  16.110  -0.598  1.00  0.00     0.007 CG0
ATOM     14  G   UNL     1      -1.377  15.350  -1.788  1.00  0.00     0.000 G0
ENDBRANCH  10  13
ENDBRANCH   3  10
BRANCH   1  15
ATOM     15  C   UNL     1       0.111  15.613  -1.977  1.00  0.00     0.011 C 
BRANCH  15  16
ATOM     16  C   UNL     1      -1.381  15.354  -1.788  1.00  0.00     0.001 CG0
ATOM     17  G   UNL     1      -1.956  16.109  -0.591  1.00  0.00     0.000 G0
ENDBRANCH  15  16
ENDBRANCH   1  15
TORSDOF 0
ENDMDL
MODEL 3
REMARK VINA RESULT:    -3.489      1.741      3.366
REMARK INTER + INTRA:          -3.673
REMARK INTER:                  -4.308
REMARK INTRA:                   0.635
REMARK UNBOUND:                 0.632
REMARK SMILES C=C1[C@H]2CC[C@@H]3[C@H]2C(C)(C)CCC[C@]13C
REMARK SMILES IDX 14 1 6 2 7 3 3 4 2 5 1 6 4 7 5 8 15 9 8 10 9 11 10 12 11 13
REMARK SMILES IDX 13 15 12 16
REMARK H PARENT
REMARK Flexibility Score: 80.00
ROOT
ATOM      1  C   UNL     1      -1.489  14.017  -0.434  1.00  0.00    -0.008 C 
ATOM      2  C   UNL     1      -1.439  14.126   1.141  1.00  0.00     0.003 C 
ATOM      3  C   UNL     1      -0.323  15.152   1.426  1.00  0.00     0.006 C 
ATOM      4  C   UNL     1      -0.915  16.204   0.488  1.00  0.00     0.019 C 
ATOM      5  C   UNL     1      -1.088  15.426  -0.787  1.00  0.00    -0.068 C 
ATOM      6  C   UNL     1      -0.991  15.940  -2.020  1.00  0.00     0.009 C 
ATOM      7  C   UNL     1      -2.328  16.376   1.094  1.00  0.00     0.008 C 
ATOM      8  C   UNL     1      -2.649  14.963   1.641  1.00  0.00     0.005 C 
ATOM      9  C   UNL     1      -2.902  13.692  -0.989  1.00  0.00     0.016 C 
ENDROOT
BRANCH   3  10
ATOM     10  C   UNL     1       1.201  14.727   1.277  1.00  0.00    -0.032 C 
ATOM     11  C   UNL     1       2.037  15.842   0.597  1.00  0.00     0.011 C 
ATOM     12  C   UNL     1       1.789  14.557   2.705  1.00  0.00     0.011 C 
BRANCH  10  13
ATOM     13  C   UNL     1       1.436  13.362   0.572  1.00  0.00     0.007 CG0
ATOM     14  G   UNL     1       0.972  13.273  -0.880  1.00  0.00     0.000 G0
ENDBRANCH  10  13
ENDBRANCH   3  10
BRANCH   1  15
ATOM     15  C   UNL     1      -0.515  12.945  -0.993  1.00  0.00     0.011 C 
BRANCH  15  16
ATOM     16  C   UNL     1       0.973  13.267  -0.876  1.00  0.00     0.001 CG0
ATOM     17  G   UNL     1       1.436  13.360   0.576  1.00  0.00     0.000 G0
ENDBRANCH  15  16
ENDBRANCH   1  15
TORSDOF 0
ENDMDL
MODEL 4
REMARK VINA RESULT:    -3.430      1.777      4.763
REMARK INTER + INTRA:          -3.600
REMARK INTER:                  -4.232
REMARK INTRA:                   0.632
REMARK UNBOUND:                 0.632
REMARK SMILES C=C1[C@H]2CC[C@@H]3[C@H]2C(C)(C)CCC[C@]13C
REMARK SMILES IDX 14 1 6 2 7 3 3 4 2 5 1 6 4 7 5 8 15 9 8 10 9 11 10 12 11 13
REMARK SMILES IDX 13 15 12 16
REMARK H PARENT
REMARK Flexibility Score: 80.00
ROOT
ATOM      1  C   UNL     1       2.902  13.897   4.740  1.00  0.00    -0.008 C 
ATOM      2  C   UNL     1       1.413  14.423   4.748  1.00  0.00     0.003 C 
ATOM      3  C   UNL     1       0.772  13.798   3.491  1.00  0.00     0.006 C 
ATOM      4  C   UNL     1       1.207  12.378   3.856  1.00  0.00     0.019 C 
ATOM      5  C   UNL     1       2.681  12.553   4.095  1.00  0.00    -0.068 C 
ATOM      6  C   UNL     1       3.614  11.623   3.856  1.00  0.00     0.009 C 
ATOM      7  C   UNL     1       0.551  12.217   5.247  1.00  0.00     0.008 C 
ATOM      8  C   UNL     1       0.597  13.654   5.824  1.00  0.00     0.005 C 
ATOM      9  C   UNL     1       3.507  13.731   6.161  1.00  0.00     0.016 C 
ENDROOT
BRANCH   3  10
ATOM     10  C   UNL     1       1.111  14.385   2.054  1.00  0.00    -0.032 C 
ATOM     11  C   UNL     1       1.319  13.254   1.013  1.00  0.00     0.011 C 
ATOM     12  C   UNL     1      -0.123  15.196   1.568  1.00  0.00     0.011 C 
BRANCH  10  13
ATOM     13  C   UNL     1       2.299  15.386   2.017  1.00  0.00     0.007 CG0
ATOM     14  G   UNL     1       3.658  14.823   2.428  1.00  0.00     0.000 G0
ENDBRANCH  10  13
ENDBRANCH   3  10
BRANCH   1  15
ATOM     15  C   UNL     1       3.859  14.815   3.934  1.00  0.00     0.011 C 
BRANCH  15  16
ATOM     16  C   UNL     1       3.657  14.826   2.420  1.00  0.00     0.001 CG0
ATOM     17  G   UNL     1       2.296  15.390   2.019  1.00  0.00     0.000 G0
ENDBRANCH  15  16
ENDBRANCH   1  15
TORSDOF 0
ENDMDL
MODEL 5
REMARK VINA RESULT:    -3.196      1.467      2.737
REMARK INTER + INTRA:          -3.311
REMARK INTER:                  -3.943
REMARK INTRA:                   0.632
REMARK UNBOUND:                 0.632
REMARK SMILES C=C1[C@H]2CC[C@@H]3[C@H]2C(C)(C)CCC[C@]13C
REMARK SMILES IDX 14 1 6 2 7 3 3 4 2 5 1 6 4 7 5 8 15 9 8 10 9 11 10 12 11 13
REMARK SMILES IDX 13 15 12 16
REMARK H PARENT
REMARK Flexibility Score: 80.00
ROOT
ATOM      1  C   UNL     1      -0.296  15.159  -0.214  1.00  0.00    -0.008 C 
ATOM      2  C   UNL     1       1.048  15.953   0.025  1.00  0.00     0.003 C 
ATOM      3  C   UNL     1       2.065  14.878   0.463  1.00  0.00     0.006 C 
ATOM      4  C   UNL     1       1.775  13.975  -0.736  1.00  0.00     0.019 C 
ATOM      5  C   UNL     1       0.278  13.845  -0.678  1.00  0.00    -0.068 C 
ATOM      6  C   UNL     1      -0.415  12.767  -1.065  1.00  0.00     0.009 C 
ATOM      7  C   UNL     1       2.088  14.935  -1.909  1.00  0.00     0.008 C 
ATOM      8  C   UNL     1       1.684  16.320  -1.346  1.00  0.00     0.005 C 
ATOM      9  C   UNL     1      -1.197  15.783  -1.314  1.00  0.00     0.016 C 
ENDROOT
BRANCH   3  10
ATOM     10  C   UNL     1       2.002  14.283   1.935  1.00  0.00    -0.032 C 
ATOM     11  C   UNL     1       2.236  12.750   1.938  1.00  0.00     0.011 C 
ATOM     12  C   UNL     1       3.174  14.900   2.748  1.00  0.00     0.011 C 
BRANCH  10  13
ATOM     13  C   UNL     1       0.717  14.640   2.734  1.00  0.00     0.007 CG0
ATOM     14  G   UNL     1      -0.595  14.116   2.155  1.00  0.00     0.000 G0
ENDBRANCH  10  13
ENDBRANCH   3  10
BRANCH   1  15
ATOM     15  C   UNL     1      -1.155  15.033   1.072  1.00  0.00     0.011 C 
BRANCH  15  16
ATOM     16  C   UNL     1      -0.594  14.127   2.165  1.00  0.00     0.001 CG0
ATOM     17  G   UNL     1       0.724  14.648   2.733  1.00  0.00     0.000 G0
ENDBRANCH  15  16
ENDBRANCH   1  15
TORSDOF 0
ENDMDL
MODEL 6
REMARK VINA RESULT:    -3.147      3.388      4.922
REMARK INTER + INTRA:          -3.251
REMARK INTER:                  -3.883
REMARK INTRA:                   0.632
REMARK UNBOUND:                 0.632
REMARK SMILES C=C1[C@H]2CC[C@@H]3[C@H]2C(C)(C)CCC[C@]13C
REMARK SMILES IDX 14 1 6 2 7 3 3 4 2 5 1 6 4 7 5 8 15 9 8 10 9 11 10 12 11 13
REMARK SMILES IDX 13 15 12 16
REMARK H PARENT
REMARK Flexibility Score: 80.00
ROOT
ATOM      1  C   UNL     1      -4.050  14.197  -1.432  1.00  0.00    -0.008 C 
ATOM      2  C   UNL     1      -3.343  12.924  -2.045  1.00  0.00     0.003 C 
ATOM      3  C   UNL     1      -2.201  12.599  -1.060  1.00  0.00     0.006 C 
ATOM      4  C   UNL     1      -3.123  12.594   0.160  1.00  0.00     0.019 C 
ATOM      5  C   UNL     1      -3.822  13.919   0.032  1.00  0.00    -0.068 C 
ATOM      6  C   UNL     1      -4.247  14.666   1.058  1.00  0.00     0.009 C 
ATOM      7  C   UNL     1      -4.149  11.512  -0.253  1.00  0.00     0.008 C 
ATOM      8  C   UNL     1      -4.224  11.669  -1.792  1.00  0.00     0.005 C 
ATOM      9  C   UNL     1      -5.569  14.273  -1.747  1.00  0.00     0.016 C 
ENDROOT
BRANCH   3  10
ATOM     10  C   UNL     1      -0.884  13.489  -1.053  1.00  0.00    -0.032 C 
ATOM     11  C   UNL     1      -0.398  13.773   0.392  1.00  0.00     0.011 C 
ATOM     12  C   UNL     1       0.246  12.671  -1.736  1.00  0.00     0.011 C 
BRANCH  10  13
ATOM     13  C   UNL     1      -0.981  14.812  -1.865  1.00  0.00     0.007 CG0
ATOM     14  G   UNL     1      -2.005  15.827  -1.365  1.00  0.00     0.000 G0
ENDBRANCH  10  13
ENDBRANCH   3  10
BRANCH   1  15
ATOM     15  C   UNL     1      -3.411  15.528  -1.911  1.00  0.00     0.011 C 
BRANCH  15  16
ATOM     16  C   UNL     1      -2.013  15.828  -1.376  1.00  0.00     0.001 CG0
ATOM     17  G   UNL     1      -0.975  14.819  -1.862  1.00  0.00     0.000 G0
ENDBRANCH  15  16
ENDBRANCH   1  15
TORSDOF 0
ENDMDL
MODEL 7
REMARK VINA RESULT:    -3.133      2.229      4.243
REMARK INTER + INTRA:          -3.234
REMARK INTER:                  -3.867
REMARK INTRA:                   0.633
REMARK UNBOUND:                 0.632
REMARK SMILES C=C1[C@H]2CC[C@@H]3[C@H]2C(C)(C)CCC[C@]13C
REMARK SMILES IDX 14 1 6 2 7 3 3 4 2 5 1 6 4 7 5 8 15 9 8 10 9 11 10 12 11 13
REMARK SMILES IDX 13 15 12 16
REMARK H PARENT
REMARK Flexibility Score: 80.00
ROOT
ATOM      1  C   UNL     1       0.223  14.161   0.915  1.00  0.00    -0.008 C 
ATOM      2  C   UNL     1      -0.485  13.361  -0.248  1.00  0.00     0.003 C 
ATOM      3  C   UNL     1      -0.970  14.449  -1.230  1.00  0.00     0.006 C 
ATOM      4  C   UNL     1       0.403  15.113  -1.326  1.00  0.00     0.019 C 
ATOM      5  C   UNL     1       0.750  15.328   0.122  1.00  0.00    -0.068 C 
ATOM      6  C   UNL     1       1.485  16.343   0.594  1.00  0.00     0.009 C 
ATOM      7  C   UNL     1       1.270  13.929  -1.815  1.00  0.00     0.008 C 
ATOM      8  C   UNL     1       0.592  12.703  -1.155  1.00  0.00     0.005 C 
ATOM      9  C   UNL     1       1.387  13.380   1.584  1.00  0.00     0.016 C 
ENDROOT
BRANCH   3  10
ATOM     10  C   UNL     1      -2.249  15.322  -0.875  1.00  0.00    -0.032 C 
ATOM     11  C   UNL     1      -2.038  16.814  -1.242  1.00  0.00     0.011 C 
ATOM     12  C   UNL     1      -3.426  14.824  -1.759  1.00  0.00     0.011 C 
BRANCH  10  13
ATOM     13  C   UNL     1      -2.752  15.187   0.590  1.00  0.00     0.007 CG0
ATOM     14  G   UNL     1      -1.779  15.648   1.673  1.00  0.00     0.000 G0
ENDBRANCH  10  13
ENDBRANCH   3  10
BRANCH   1  15
ATOM     15  C   UNL     1      -0.761  14.579   2.041  1.00  0.00     0.011 C 
BRANCH  15  16
ATOM     16  C   UNL     1      -1.784  15.650   1.672  1.00  0.00     0.001 CG0
ATOM     17  G   UNL     1      -2.752  15.181   0.589  1.00  0.00     0.000 G0
ENDBRANCH  15  16
ENDBRANCH   1  15
TORSDOF 0
ENDMDL
MODEL 8
REMARK VINA RESULT:    -3.071      2.453      4.629
REMARK INTER + INTRA:          -3.157
REMARK INTER:                  -3.785
REMARK INTRA:                   0.628
REMARK UNBOUND:                 0.632
REMARK SMILES C=C1[C@H]2CC[C@@H]3[C@H]2C(C)(C)CCC[C@]13C
REMARK SMILES IDX 14 1 6 2 7 3 3 4 2 5 1 6 4 7 5 8 15 9 8 10 9 11 10 12 11 13
REMARK SMILES IDX 13 15 12 16
REMARK H PARENT
REMARK Flexibility Score: 80.00
ROOT
ATOM      1  C   UNL     1      -0.093  13.756  -0.359  1.00  0.00    -0.008 C 
ATOM      2  C   UNL     1      -0.095  14.942  -1.402  1.00  0.00     0.003 C 
ATOM      3  C   UNL     1      -0.606  16.161  -0.606  1.00  0.00     0.006 C 
ATOM      4  C   UNL     1       0.414  15.977   0.519  1.00  0.00     0.019 C 
ATOM      5  C   UNL     1       0.212  14.535   0.895  1.00  0.00    -0.068 C 
ATOM      6  C   UNL     1       0.372  14.032   2.124  1.00  0.00     0.009 C 
ATOM      7  C   UNL     1       1.741  16.044  -0.274  1.00  0.00     0.008 C 
ATOM      8  C   UNL     1       1.363  15.423  -1.642  1.00  0.00     0.005 C 
ATOM      9  C   UNL     1       1.010  12.696  -0.628  1.00  0.00     0.016 C 
ENDROOT
BRANCH   3  10
ATOM     10  C   UNL     1      -2.152  16.289  -0.259  1.00  0.00    -0.032 C 
ATOM     11  C   UNL     1      -2.368  16.800   1.189  1.00  0.00     0.011 C 
ATOM     12  C   UNL     1      -2.760  17.371  -1.194  1.00  0.00     0.011 C 
BRANCH  10  13
ATOM     13  C   UNL     1      -2.991  15.006  -0.517  1.00  0.00     0.007 CG0
ATOM     14  G   UNL     1      -2.611  13.783   0.314  1.00  0.00     0.000 G0
ENDBRANCH  10  13
ENDBRANCH   3  10
BRANCH   1  15
ATOM     15  C   UNL     1      -1.450  13.005  -0.300  1.00  0.00     0.011 C 
BRANCH  15  16
ATOM     16  C   UNL     1      -2.615  13.778   0.316  1.00  0.00     0.001 CG0
ATOM     17  G   UNL     1      -3.006  14.999  -0.512  1.00  0.00     0.000 G0
ENDBRANCH  15  16
ENDBRANCH   1  15
TORSDOF 0
ENDMDL
MODEL 9
REMARK VINA RESULT:    -3.010      1.535      3.648
REMARK INTER + INTRA:          -3.082
REMARK INTER:                  -3.715
REMARK INTRA:                   0.632
REMARK UNBOUND:                 0.632
REMARK SMILES C=C1[C@H]2CC[C@@H]3[C@H]2C(C)(C)CCC[C@]13C
REMARK SMILES IDX 14 1 6 2 7 3 3 4 2 5 1 6 4 7 5 8 15 9 8 10 9 11 10 12 11 13
REMARK SMILES IDX 13 15 12 16
REMARK H PARENT
REMARK Flexibility Score: 80.00
ROOT
ATOM      1  C   UNL     1      -1.045  14.651   0.566  1.00  0.00    -0.008 C 
ATOM      2  C   UNL     1      -0.724  16.126   0.099  1.00  0.00     0.003 C 
ATOM      3  C   UNL     1       0.174  15.955  -1.144  1.00  0.00     0.006 C 
ATOM      4  C   UNL     1      -0.800  15.003  -1.838  1.00  0.00     0.019 C 
ATOM      5  C   UNL     1      -1.036  13.965  -0.776  1.00  0.00    -0.068 C 
ATOM      6  C   UNL     1      -1.288  12.671  -1.008  1.00  0.00     0.009 C 
ATOM      7  C   UNL     1      -2.076  15.876  -1.893  1.00  0.00     0.008 C 
ATOM      8  C   UNL     1      -1.971  16.730  -0.605  1.00  0.00     0.005 C 
ATOM      9  C   UNL     1      -2.432  14.506   1.249  1.00  0.00     0.016 C 
ENDROOT
BRANCH   3  10
ATOM     10  C   UNL     1       1.698  15.539  -0.969  1.00  0.00    -0.032 C 
ATOM     11  C   UNL     1       2.127  14.495  -2.031  1.00  0.00     0.011 C 
ATOM     12  C   UNL     1       2.568  16.800  -1.228  1.00  0.00     0.011 C 
BRANCH  10  13
ATOM     13  C   UNL     1       2.088  15.059   0.458  1.00  0.00     0.007 CG0
ATOM     14  G   UNL     1       1.387  13.795   0.950  1.00  0.00     0.000 G0
ENDBRANCH  10  13
ENDBRANCH   3  10
BRANCH   1  15
ATOM     15  C   UNL     1       0.016  14.089   1.550  1.00  0.00     0.011 C 
BRANCH  15  16
ATOM     16  C   UNL     1       1.390  13.793   0.953  1.00  0.00     0.001 CG0
ATOM     17  G   UNL     1       2.093  15.054   0.455  1.00  0.00     0.000 G0
ENDBRANCH  15  16
ENDBRANCH   1  15
TORSDOF 0
ENDMDL
