MODEL 1
REMARK VINA RESULT:     3.249      0.000      0.000
REMARK INTER + INTRA:           5.052
REMARK INTER:                   4.578
REMARK INTRA:                   0.473
REMARK UNBOUND:                 0.473
REMARK SMILES CC1=CCC(=C(C)C)C(=O)CC(C)=CCC1
REMARK SMILES IDX 12 1 14 2 13 3 15 4 16 5 2 6 1 7 3 8 11 10 9 11 10 12 5 13
REMARK SMILES IDX 6 14 7 15 8 16 4 17
REMARK H PARENT
REMARK Flexibility Score: 60.00
ROOT
ATOM      1  C   UNL     1      -7.509 -23.491  22.925  1.00  0.00    -0.070 C 
ATOM      2  C   UNL     1      -7.854 -23.643  21.627  1.00  0.00    -0.027 C 
ATOM      3  C   UNL     1      -6.914 -24.678  23.639  1.00  0.00     0.039 C 
ENDROOT
BRANCH   2   4
ATOM      4  C   UNL     1      -8.372 -22.550  20.717  1.00  0.00     0.032 C 
BRANCH   4   5
ATOM      5  C   UNL     1      -9.880 -22.251  20.858  1.00  0.00     0.034 C 
BRANCH   5   6
ATOM      6  C   UNL     1     -10.693 -23.465  21.272  1.00  0.00    -0.077 C 
ATOM      7  C   UNL     1     -10.971 -24.514  20.225  1.00  0.00     0.039 C 
ATOM      8  C   UNL     1     -11.125 -23.700  22.536  1.00  0.00    -0.023 CG0
ATOM      9  G   UNL     1     -10.980 -22.786  23.737  1.00  0.00     0.000 G0
ENDBRANCH   5   6
ENDBRANCH   4   5
ENDBRANCH   2   4
BRANCH   1  10
ATOM     10  C   UNL     1      -7.607 -22.172  23.662  1.00  0.00     0.111 C 
BRANCH  10  11
ATOM     11  C   UNL     1      -8.683 -22.202  24.715  1.00  0.00     0.163 C 
ATOM     12  O   UNL     1      -8.619 -21.362  25.654  1.00  0.00    -0.294 OA
BRANCH  11  13
ATOM     13  C   UNL     1      -9.842 -23.140  24.649  1.00  0.00    -0.002 C 
ATOM     14  C   UNL     1      -9.895 -24.244  25.455  1.00  0.00    -0.069 C 
ATOM     15  C   UNL     1      -8.721 -24.638  26.324  1.00  0.00     0.039 C 
ATOM     16  C   UNL     1     -11.123 -25.125  25.527  1.00  0.00     0.039 C 
BRANCH  13  17
ATOM     17  C   UNL     1     -10.990 -22.766  23.726  1.00  0.00     0.066 CG0
ATOM     18  G   UNL     1     -11.087 -23.686  22.525  1.00  0.00     0.000 G0
ENDBRANCH  13  17
ENDBRANCH  11  13
ENDBRANCH  10  11
ENDBRANCH   1  10
TORSDOF 0
ENDMDL
MODEL 2
REMARK VINA RESULT:     5.768      1.631      2.405
REMARK INTER + INTRA:           8.602
REMARK INTER:                   7.751
REMARK INTRA:                   0.851
REMARK UNBOUND:                 0.473
REMARK SMILES CC1=CCC(=C(C)C)C(=O)CC(C)=CCC1
REMARK SMILES IDX 12 1 14 2 13 3 15 4 16 5 2 6 1 7 3 8 11 10 9 11 10 12 5 13
REMARK SMILES IDX 6 14 7 15 8 16 4 17
REMARK H PARENT
REMARK Flexibility Score: 60.00
ROOT
ATOM      1  C   UNL     1      -8.336 -24.633  24.175  1.00  0.00    -0.070 C 
ATOM      2  C   UNL     1      -8.554 -25.009  22.894  1.00  0.00    -0.027 C 
ATOM      3  C   UNL     1      -9.301 -25.119  25.226  1.00  0.00     0.039 C 
ENDROOT
BRANCH   2   4
ATOM      4  C   UNL     1      -7.650 -24.706  21.719  1.00  0.00     0.032 C 
BRANCH   4   5
ATOM      5  C   UNL     1      -7.730 -23.255  21.198  1.00  0.00     0.034 C 
BRANCH   5   6
ATOM      6  C   UNL     1      -9.138 -22.688  21.226  1.00  0.00    -0.077 C 
ATOM      7  C   UNL     1     -10.135 -23.237  20.237  1.00  0.00     0.039 C 
ATOM      8  C   UNL     1      -9.574 -21.771  22.124  1.00  0.00    -0.023 CG0
ATOM      9  G   UNL     1      -8.753 -21.071  23.189  1.00  0.00     0.000 G0
ENDBRANCH   5   6
ENDBRANCH   4   5
ENDBRANCH   2   4
BRANCH   1  10
ATOM     10  C   UNL     1      -7.128 -23.830  24.611  1.00  0.00     0.111 C 
BRANCH  10  11
ATOM     11  C   UNL     1      -7.504 -22.420  24.985  1.00  0.00     0.163 C 
ATOM     12  O   UNL     1      -6.687 -21.753  25.677  1.00  0.00    -0.294 OA
BRANCH  11  13
ATOM     13  C   UNL     1      -8.765 -21.776  24.515  1.00  0.00    -0.002 C 
ATOM     14  C   UNL     1      -9.883 -21.772  25.303  1.00  0.00    -0.069 C 
ATOM     15  C   UNL     1      -9.931 -22.548  26.600  1.00  0.00     0.039 C 
ATOM     16  C   UNL     1     -11.125 -20.994  24.926  1.00  0.00     0.039 C 
BRANCH  13  17
ATOM     17  C   UNL     1      -8.722 -21.052  23.179  1.00  0.00     0.066 CG0
ATOM     18  G   UNL     1      -9.603 -21.712  22.137  1.00  0.00     0.000 G0
ENDBRANCH  13  17
ENDBRANCH  11  13
ENDBRANCH  10  11
ENDBRANCH   1  10
TORSDOF 0
ENDMDL
