MODEL 1
REMARK VINA RESULT:    -4.286      0.000      0.000
REMARK INTER + INTRA:          -5.754
REMARK INTER:                  -5.288
REMARK INTRA:                  -0.465
REMARK UNBOUND:                -0.465
REMARK SMILES CCCCC=CC(C)=O
REMARK SMILES IDX 4 1 3 2 2 3 1 4 5 5 6 6 7 7 9 8 8 9
REMARK H PARENT
REMARK Flexibility Score: inf
ROOT
ATOM      1  C   UNL     1     -12.348 -16.502  29.708  1.00  0.00     0.027 C 
ENDROOT
BRANCH   1   2
ATOM      2  C   UNL     1     -12.346 -15.821  28.327  1.00  0.00     0.004 C 
BRANCH   2   3
ATOM      3  C   UNL     1     -12.607 -16.783  27.154  1.00  0.00    -0.003 C 
ATOM      4  C   UNL     1     -11.337 -17.140  26.382  1.00  0.00     0.004 C 
ENDBRANCH   2   3
ENDBRANCH   1   2
BRANCH   1   5
ATOM      5  C   UNL     1     -11.141 -17.378  29.926  1.00  0.00    -0.023 C 
ATOM      6  C   UNL     1     -11.158 -18.696  30.184  1.00  0.00     0.042 C 
BRANCH   6   7
ATOM      7  C   UNL     1     -12.355 -19.566  30.240  1.00  0.00     0.152 C 
ATOM      8  O   UNL     1     -12.944 -19.811  31.326  1.00  0.00    -0.295 OA
ATOM      9  C   UNL     1     -12.929 -20.102  28.969  1.00  0.00     0.093 C 
ENDBRANCH   6   7
ENDBRANCH   1   5
TORSDOF 4
ENDMDL
MODEL 2
REMARK VINA RESULT:    -4.195      2.024      3.781
REMARK INTER + INTRA:          -5.642
REMARK INTER:                  -5.063
REMARK INTRA:                  -0.579
REMARK UNBOUND:                -0.465
REMARK SMILES CCCCC=CC(C)=O
REMARK SMILES IDX 4 1 3 2 2 3 1 4 5 5 6 6 7 7 9 8 8 9
REMARK H PARENT
REMARK Flexibility Score: inf
ROOT
ATOM      1  C   UNL     1     -12.816 -17.504  30.066  1.00  0.00     0.027 C 
ENDROOT
BRANCH   1   2
ATOM      2  C   UNL     1     -11.735 -18.599  30.101  1.00  0.00     0.004 C 
BRANCH   2   3
ATOM      3  C   UNL     1     -12.167 -19.926  29.450  1.00  0.00    -0.003 C 
ATOM      4  C   UNL     1     -13.482 -19.810  28.680  1.00  0.00     0.004 C 
ENDBRANCH   2   3
ENDBRANCH   1   2
BRANCH   1   5
ATOM      5  C   UNL     1     -12.277 -16.168  29.624  1.00  0.00    -0.023 C 
ATOM      6  C   UNL     1     -12.040 -15.793  28.356  1.00  0.00     0.042 C 
BRANCH   6   7
ATOM      7  C   UNL     1     -12.318 -16.586  27.137  1.00  0.00     0.152 C 
ATOM      8  O   UNL     1     -13.456 -16.592  26.597  1.00  0.00    -0.295 OA
ATOM      9  C   UNL     1     -11.203 -17.336  26.483  1.00  0.00     0.093 C 
ENDBRANCH   6   7
ENDBRANCH   1   5
TORSDOF 4
ENDMDL
MODEL 3
REMARK VINA RESULT:    -4.173      2.476      4.058
REMARK INTER + INTRA:          -5.614
REMARK INTER:                  -5.491
REMARK INTRA:                  -0.123
REMARK UNBOUND:                -0.465
REMARK SMILES CCCCC=CC(C)=O
REMARK SMILES IDX 4 1 3 2 2 3 1 4 5 5 6 6 7 7 9 8 8 9
REMARK H PARENT
REMARK Flexibility Score: inf
ROOT
ATOM      1  C   UNL     1     -12.788 -15.742  29.500  1.00  0.00     0.027 C 
ENDROOT
BRANCH   1   2
ATOM      2  C   UNL     1     -13.184 -16.084  30.948  1.00  0.00     0.004 C 
BRANCH   2   3
ATOM      3  C   UNL     1     -14.184 -15.094  31.573  1.00  0.00    -0.003 C 
ATOM      4  C   UNL     1     -14.102 -15.049  33.099  1.00  0.00     0.004 C 
ENDBRANCH   2   3
ENDBRANCH   1   2
BRANCH   1   5
ATOM      5  C   UNL     1     -11.295 -15.730  29.293  1.00  0.00    -0.023 C 
ATOM      6  C   UNL     1     -10.607 -16.530  28.463  1.00  0.00     0.042 C 
BRANCH   6   7
ATOM      7  C   UNL     1     -11.175 -17.539  27.539  1.00  0.00     0.152 C 
ATOM      8  O   UNL     1     -11.820 -18.534  27.963  1.00  0.00    -0.295 OA
ATOM      9  C   UNL     1     -11.052 -17.330  26.065  1.00  0.00     0.093 C 
ENDBRANCH   6   7
ENDBRANCH   1   5
TORSDOF 4
ENDMDL
MODEL 4
REMARK VINA RESULT:    -4.088      1.765      3.113
REMARK INTER + INTRA:          -5.510
REMARK INTER:                  -5.264
REMARK INTRA:                  -0.246
REMARK UNBOUND:                -0.465
REMARK SMILES CCCCC=CC(C)=O
REMARK SMILES IDX 4 1 3 2 2 3 1 4 5 5 6 6 7 7 9 8 8 9
REMARK H PARENT
REMARK Flexibility Score: inf
ROOT
ATOM      1  C   UNL     1     -12.703 -16.499  29.655  1.00  0.00     0.027 C 
ENDROOT
BRANCH   1   2
ATOM      2  C   UNL     1     -12.991 -16.132  31.122  1.00  0.00     0.004 C 
BRANCH   2   3
ATOM      3  C   UNL     1     -14.080 -15.058  31.297  1.00  0.00    -0.003 C 
ATOM      4  C   UNL     1     -14.798 -15.150  32.643  1.00  0.00     0.004 C 
ENDBRANCH   2   3
ENDBRANCH   1   2
BRANCH   1   5
ATOM      5  C   UNL     1     -11.487 -17.376  29.502  1.00  0.00    -0.023 C 
ATOM      6  C   UNL     1     -11.456 -18.713  29.629  1.00  0.00     0.042 C 
BRANCH   6   7
ATOM      7  C   UNL     1     -12.615 -19.600  29.878  1.00  0.00     0.152 C 
ATOM      8  O   UNL     1     -12.968 -19.914  31.045  1.00  0.00    -0.295 OA
ATOM      9  C   UNL     1     -13.437 -20.071  28.722  1.00  0.00     0.093 C 
ENDBRANCH   6   7
ENDBRANCH   1   5
TORSDOF 4
ENDMDL
MODEL 5
REMARK VINA RESULT:    -4.066      1.879      4.136
REMARK INTER + INTRA:          -5.482
REMARK INTER:                  -5.100
REMARK INTRA:                  -0.383
REMARK UNBOUND:                -0.465
REMARK SMILES CCCCC=CC(C)=O
REMARK SMILES IDX 4 1 3 2 2 3 1 4 5 5 6 6 7 7 9 8 8 9
REMARK H PARENT
REMARK Flexibility Score: inf
ROOT
ATOM      1  C   UNL     1     -13.131 -18.947  28.423  1.00  0.00     0.027 C 
ENDROOT
BRANCH   1   2
ATOM      2  C   UNL     1     -13.118 -20.113  29.427  1.00  0.00     0.004 C 
BRANCH   2   3
ATOM      3  C   UNL     1     -12.867 -19.683  30.884  1.00  0.00    -0.003 C 
ATOM      4  C   UNL     1     -11.938 -20.637  31.635  1.00  0.00     0.004 C 
ENDBRANCH   2   3
ENDBRANCH   1   2
BRANCH   1   5
ATOM      5  C   UNL     1     -11.768 -18.337  28.221  1.00  0.00    -0.023 C 
ATOM      6  C   UNL     1     -11.396 -17.098  28.581  1.00  0.00     0.042 C 
BRANCH   6   7
ATOM      7  C   UNL     1     -12.224 -16.105  29.303  1.00  0.00     0.152 C 
ATOM      8  O   UNL     1     -12.305 -16.101  30.560  1.00  0.00    -0.295 OA
ATOM      9  C   UNL     1     -12.917 -15.031  28.530  1.00  0.00     0.093 C 
ENDBRANCH   6   7
ENDBRANCH   1   5
TORSDOF 4
ENDMDL
MODEL 6
REMARK VINA RESULT:    -3.865      1.838      2.700
REMARK INTER + INTRA:          -5.234
REMARK INTER:                  -4.986
REMARK INTRA:                  -0.247
REMARK UNBOUND:                -0.465
REMARK SMILES CCCCC=CC(C)=O
REMARK SMILES IDX 4 1 3 2 2 3 1 4 5 5 6 6 7 7 9 8 8 9
REMARK H PARENT
REMARK Flexibility Score: inf
ROOT
ATOM      1  C   UNL     1     -12.918 -16.177  27.591  1.00  0.00     0.027 C 
ENDROOT
BRANCH   1   2
ATOM      2  C   UNL     1     -13.102 -15.023  28.594  1.00  0.00     0.004 C 
BRANCH   2   3
ATOM      3  C   UNL     1     -14.140 -13.974  28.156  1.00  0.00    -0.003 C 
ATOM      4  C   UNL     1     -15.062 -13.539  29.295  1.00  0.00     0.004 C 
ENDBRANCH   2   3
ENDBRANCH   1   2
BRANCH   1   5
ATOM      5  C   UNL     1     -11.614 -16.909  27.778  1.00  0.00    -0.023 C 
ATOM      6  C   UNL     1     -11.415 -17.978  28.567  1.00  0.00     0.042 C 
BRANCH   6   7
ATOM      7  C   UNL     1     -12.443 -18.691  29.359  1.00  0.00     0.152 C 
ATOM      8  O   UNL     1     -12.731 -18.343  30.535  1.00  0.00    -0.295 OA
ATOM      9  C   UNL     1     -13.216 -19.799  28.721  1.00  0.00     0.093 C 
ENDBRANCH   6   7
ENDBRANCH   1   5
TORSDOF 4
ENDMDL
MODEL 7
REMARK VINA RESULT:    -3.861      2.338      3.936
REMARK INTER + INTRA:          -5.229
REMARK INTER:                  -4.882
REMARK INTRA:                  -0.347
REMARK UNBOUND:                -0.465
REMARK SMILES CCCCC=CC(C)=O
REMARK SMILES IDX 4 1 3 2 2 3 1 4 5 5 6 6 7 7 9 8 8 9
REMARK H PARENT
REMARK Flexibility Score: inf
ROOT
ATOM      1  C   UNL     1     -11.547 -18.374  28.381  1.00  0.00     0.027 C 
ENDROOT
BRANCH   1   2
ATOM      2  C   UNL     1     -11.609 -19.185  29.689  1.00  0.00     0.004 C 
BRANCH   2   3
ATOM      3  C   UNL     1     -12.919 -19.971  29.877  1.00  0.00    -0.003 C 
ATOM      4  C   UNL     1     -13.635 -20.260  28.558  1.00  0.00     0.004 C 
ENDBRANCH   2   3
ENDBRANCH   1   2
BRANCH   1   5
ATOM      5  C   UNL     1     -10.699 -17.135  28.504  1.00  0.00    -0.023 C 
ATOM      6  C   UNL     1     -11.140 -15.902  28.806  1.00  0.00     0.042 C 
BRANCH   6   7
ATOM      7  C   UNL     1     -12.531 -15.524  29.142  1.00  0.00     0.152 C 
ATOM      8  O   UNL     1     -13.285 -14.963  28.304  1.00  0.00    -0.295 OA
ATOM      9  C   UNL     1     -13.083 -15.888  30.483  1.00  0.00     0.093 C 
ENDBRANCH   6   7
ENDBRANCH   1   5
TORSDOF 4
ENDMDL
MODEL 8
REMARK VINA RESULT:    -3.796      1.212      2.041
REMARK INTER + INTRA:          -5.149
REMARK INTER:                  -4.818
REMARK INTRA:                  -0.331
REMARK UNBOUND:                -0.465
REMARK SMILES CCCCC=CC(C)=O
REMARK SMILES IDX 4 1 3 2 2 3 1 4 5 5 6 6 7 7 9 8 8 9
REMARK H PARENT
REMARK Flexibility Score: inf
ROOT
ATOM      1  C   UNL     1     -11.071 -17.362  28.488  1.00  0.00     0.027 C 
ENDROOT
BRANCH   1   2
ATOM      2  C   UNL     1     -11.386 -15.927  28.948  1.00  0.00     0.004 C 
BRANCH   2   3
ATOM      3  C   UNL     1     -12.852 -15.711  29.363  1.00  0.00    -0.003 C 
ATOM      4  C   UNL     1     -13.100 -15.989  30.845  1.00  0.00     0.004 C 
ENDBRANCH   2   3
ENDBRANCH   1   2
BRANCH   1   5
ATOM      5  C   UNL     1     -10.323 -18.156  29.527  1.00  0.00    -0.023 C 
ATOM      6  C   UNL     1     -10.845 -19.104  30.324  1.00  0.00     0.042 C 
BRANCH   6   7
ATOM      7  C   UNL     1     -12.238 -19.604  30.299  1.00  0.00     0.152 C 
ATOM      8  O   UNL     1     -12.996 -19.500  31.300  1.00  0.00    -0.295 OA
ATOM      9  C   UNL     1     -12.786 -20.175  29.032  1.00  0.00     0.093 C 
ENDBRANCH   6   7
ENDBRANCH   1   5
TORSDOF 4
ENDMDL
MODEL 9
REMARK VINA RESULT:    -3.679      2.649      3.610
REMARK INTER + INTRA:          -5.005
REMARK INTER:                  -4.675
REMARK INTRA:                  -0.330
REMARK UNBOUND:                -0.465
REMARK SMILES CCCCC=CC(C)=O
REMARK SMILES IDX 4 1 3 2 2 3 1 4 5 5 6 6 7 7 9 8 8 9
REMARK H PARENT
REMARK Flexibility Score: inf
ROOT
ATOM      1  C   UNL     1     -11.454 -16.087  30.044  1.00  0.00     0.027 C 
ENDROOT
BRANCH   1   2
ATOM      2  C   UNL     1     -11.449 -16.042  28.504  1.00  0.00     0.004 C 
BRANCH   2   3
ATOM      3  C   UNL     1     -12.789 -15.603  27.887  1.00  0.00    -0.003 C 
ATOM      4  C   UNL     1     -13.191 -16.446  26.677  1.00  0.00     0.004 C 
ENDBRANCH   2   3
ENDBRANCH   1   2
BRANCH   1   5
ATOM      5  C   UNL     1     -12.456 -17.069  30.594  1.00  0.00    -0.023 C 
ATOM      6  C   UNL     1     -13.509 -16.770  31.373  1.00  0.00     0.042 C 
BRANCH   6   7
ATOM      7  C   UNL     1     -13.934 -15.416  31.796  1.00  0.00     0.152 C 
ATOM      8  O   UNL     1     -14.365 -14.570  30.968  1.00  0.00    -0.295 OA
ATOM      9  C   UNL     1     -13.929 -15.070  33.249  1.00  0.00     0.093 C 
ENDBRANCH   6   7
ENDBRANCH   1   5
TORSDOF 4
ENDMDL
