MODEL 1
REMARK VINA RESULT:    -6.685      0.000      0.000
REMARK INTER + INTRA:          -8.879
REMARK INTER:                  -8.444
REMARK INTRA:                  -0.436
REMARK UNBOUND:                -0.436
REMARK SMILES Oc1ccc(CCc2cc(O)cc(O)c2)cc1
REMARK SMILES IDX 6 1 5 2 4 3 3 4 2 5 16 6 17 7 1 8 7 10 8 11 15 12 9 13 13 14
REMARK SMILES IDX 10 15 12 16 14 17 11 19
REMARK H PARENT 1 9 14 18 11 20
REMARK Flexibility Score: inf
ROOT
ATOM      1  C   UNL     1       6.954   9.081  80.382  1.00  0.00     0.040 C 
ENDROOT
BRANCH   1   2
ATOM      2  C   UNL     1       7.668   7.807  80.019  1.00  0.00    -0.047 A 
ATOM      3  C   UNL     1       7.035   6.565  80.197  1.00  0.00     0.007 A 
ATOM      4  C   UNL     1       7.711   5.380  79.890  1.00  0.00     0.046 A 
ATOM      5  C   UNL     1       9.027   5.423  79.412  1.00  0.00     0.115 A 
ATOM      6  C   UNL     1       8.992   7.844  79.551  1.00  0.00     0.007 A 
ATOM      7  C   UNL     1       9.664   6.657  79.245  1.00  0.00     0.046 A 
BRANCH   5   8
ATOM      8  O   UNL     1       9.710   4.249  79.103  1.00  0.00    -0.508 OA
ATOM      9  H   UNL     1       9.536   3.387  79.608  1.00  0.00     0.293 HD
ENDBRANCH   5   8
ENDBRANCH   1   2
BRANCH   1  10
ATOM     10  C   UNL     1       6.519   9.054  81.849  1.00  0.00     0.040 C 
BRANCH  10  11
ATOM     11  C   UNL     1       5.183   9.727  82.016  1.00  0.00    -0.040 A 
ATOM     12  C   UNL     1       4.974  11.022  81.515  1.00  0.00     0.050 A 
ATOM     13  C   UNL     1       4.117   9.043  82.625  1.00  0.00     0.050 A 
ATOM     14  C   UNL     1       3.723  11.636  81.641  1.00  0.00     0.119 A 
ATOM     15  C   UNL     1       2.863   9.657  82.752  1.00  0.00     0.119 A 
ATOM     16  C   UNL     1       2.670  10.952  82.261  1.00  0.00     0.092 A 
BRANCH  14  17
ATOM     17  O   UNL     1       3.537  12.924  81.143  1.00  0.00    -0.508 OA
ATOM     18  H   UNL     1       2.846  13.121  80.429  1.00  0.00     0.293 HD
ENDBRANCH  14  17
BRANCH  15  19
ATOM     19  O   UNL     1       1.804   8.987  83.360  1.00  0.00    -0.508 OA
ATOM     20  H   UNL     1       1.962   8.239  84.025  1.00  0.00     0.293 HD
ENDBRANCH  15  19
ENDBRANCH  10  11
ENDBRANCH   1  10
TORSDOF 6
ENDMDL
MODEL 2
REMARK VINA RESULT:    -6.684      0.112      2.036
REMARK INTER + INTRA:          -8.878
REMARK INTER:                  -8.436
REMARK INTRA:                  -0.441
REMARK UNBOUND:                -0.436
REMARK SMILES Oc1ccc(CCc2cc(O)cc(O)c2)cc1
REMARK SMILES IDX 6 1 5 2 4 3 3 4 2 5 16 6 17 7 1 8 7 10 8 11 15 12 9 13 13 14
REMARK SMILES IDX 10 15 12 16 14 17 11 19
REMARK H PARENT 1 9 14 18 11 20
REMARK Flexibility Score: inf
ROOT
ATOM      1  C   UNL     1       7.023   9.086  80.335  1.00  0.00     0.040 C 
ENDROOT
BRANCH   1   2
ATOM      2  C   UNL     1       7.716   7.797  79.982  1.00  0.00    -0.047 A 
ATOM      3  C   UNL     1       7.069   6.568  80.182  1.00  0.00     0.007 A 
ATOM      4  C   UNL     1       7.725   5.369  79.885  1.00  0.00     0.046 A 
ATOM      5  C   UNL     1       9.038   5.388  79.395  1.00  0.00     0.115 A 
ATOM      6  C   UNL     1       9.037   7.810  79.503  1.00  0.00     0.007 A 
ATOM      7  C   UNL     1       9.690   6.611  79.206  1.00  0.00     0.046 A 
BRANCH   5   8
ATOM      8  O   UNL     1       9.701   4.201  79.095  1.00  0.00    -0.508 OA
ATOM      9  H   UNL     1      10.470   4.176  78.436  1.00  0.00     0.293 HD
ENDBRANCH   5   8
ENDBRANCH   1   2
BRANCH   1  10
ATOM     10  C   UNL     1       6.609   9.088  81.809  1.00  0.00     0.040 C 
BRANCH  10  11
ATOM     11  C   UNL     1       5.238   9.688  81.972  1.00  0.00    -0.040 A 
ATOM     12  C   UNL     1       4.221   8.965  82.616  1.00  0.00     0.050 A 
ATOM     13  C   UNL     1       4.982  10.998  81.533  1.00  0.00     0.050 A 
ATOM     14  C   UNL     1       2.955   9.533  82.797  1.00  0.00     0.119 A 
ATOM     15  C   UNL     1       3.715  11.569  81.715  1.00  0.00     0.119 A 
ATOM     16  C   UNL     1       2.704  10.835  82.344  1.00  0.00     0.092 A 
BRANCH  14  17
ATOM     17  O   UNL     1       1.957   8.798  83.432  1.00  0.00    -0.508 OA
ATOM     18  H   UNL     1       1.965   7.785  83.433  1.00  0.00     0.293 HD
ENDBRANCH  14  17
BRANCH  15  19
ATOM     19  O   UNL     1       3.451  12.865  81.276  1.00  0.00    -0.508 OA
ATOM     20  H   UNL     1       3.123  13.050  80.335  1.00  0.00     0.293 HD
ENDBRANCH  15  19
ENDBRANCH  10  11
ENDBRANCH   1  10
TORSDOF 6
ENDMDL
MODEL 3
REMARK VINA RESULT:    -6.612      0.145      2.353
REMARK INTER + INTRA:          -8.788
REMARK INTER:                  -8.361
REMARK INTRA:                  -0.426
REMARK UNBOUND:                -0.436
REMARK SMILES Oc1ccc(CCc2cc(O)cc(O)c2)cc1
REMARK SMILES IDX 6 1 5 2 4 3 3 4 2 5 16 6 17 7 1 8 7 10 8 11 15 12 9 13 13 14
REMARK SMILES IDX 10 15 12 16 14 17 11 19
REMARK H PARENT 1 9 14 18 11 20
REMARK Flexibility Score: inf
ROOT
ATOM      1  C   UNL     1       6.964   9.151  80.526  1.00  0.00     0.040 C 
ENDROOT
BRANCH   1   2
ATOM      2  C   UNL     1       7.680   7.879  80.158  1.00  0.00    -0.047 A 
ATOM      3  C   UNL     1       9.003   7.921  79.691  1.00  0.00     0.007 A 
ATOM      4  C   UNL     1       9.657   6.743  79.318  1.00  0.00     0.046 A 
ATOM      5  C   UNL     1       8.991   5.512  79.399  1.00  0.00     0.115 A 
ATOM      6  C   UNL     1       7.013   6.645  80.226  1.00  0.00     0.007 A 
ATOM      7  C   UNL     1       7.668   5.468  79.853  1.00  0.00     0.046 A 
BRANCH   5   8
ATOM      8  O   UNL     1       9.631   4.332  79.031  1.00  0.00    -0.508 OA
ATOM      9  H   UNL     1       9.592   3.983  78.080  1.00  0.00     0.293 HD
ENDBRANCH   5   8
ENDBRANCH   1   2
BRANCH   1  10
ATOM     10  C   UNL     1       6.385   9.053  81.940  1.00  0.00     0.040 C 
BRANCH  10  11
ATOM     11  C   UNL     1       5.051   9.745  82.014  1.00  0.00    -0.040 A 
ATOM     12  C   UNL     1       3.947   9.095  82.589  1.00  0.00     0.050 A 
ATOM     13  C   UNL     1       4.914  11.068  81.562  1.00  0.00     0.050 A 
ATOM     14  C   UNL     1       2.714   9.748  82.688  1.00  0.00     0.119 A 
ATOM     15  C   UNL     1       3.679  11.725  81.661  1.00  0.00     0.119 A 
ATOM     16  C   UNL     1       2.582  11.063  82.222  1.00  0.00     0.092 A 
BRANCH  14  17
ATOM     17  O   UNL     1       1.628   9.085  83.255  1.00  0.00    -0.508 OA
ATOM     18  H   UNL     1       0.755   9.562  83.444  1.00  0.00     0.293 HD
ENDBRANCH  14  17
BRANCH  15  19
ATOM     19  O   UNL     1       3.534  13.034  81.208  1.00  0.00    -0.508 OA
ATOM     20  H   UNL     1       2.623  13.472  81.134  1.00  0.00     0.293 HD
ENDBRANCH  15  19
ENDBRANCH  10  11
ENDBRANCH   1  10
TORSDOF 6
ENDMDL
MODEL 4
REMARK VINA RESULT:    -6.575      1.399      7.035
REMARK INTER + INTRA:          -8.740
REMARK INTER:                  -8.310
REMARK INTRA:                  -0.431
REMARK UNBOUND:                -0.436
REMARK SMILES Oc1ccc(CCc2cc(O)cc(O)c2)cc1
REMARK SMILES IDX 6 1 5 2 4 3 3 4 2 5 16 6 17 7 1 8 7 10 8 11 15 12 9 13 13 14
REMARK SMILES IDX 10 15 12 16 14 17 11 19
REMARK H PARENT 1 9 14 18 11 20
REMARK Flexibility Score: inf
ROOT
ATOM      1  C   UNL     1       5.938   9.079  82.094  1.00  0.00     0.040 C 
ENDROOT
BRANCH   1   2
ATOM      2  C   UNL     1       4.598   9.755  82.211  1.00  0.00    -0.047 A 
ATOM      3  C   UNL     1       4.416  11.057  81.717  1.00  0.00     0.007 A 
ATOM      4  C   UNL     1       3.181  11.697  81.855  1.00  0.00     0.046 A 
ATOM      5  C   UNL     1       2.118  11.046  82.497  1.00  0.00     0.115 A 
ATOM      6  C   UNL     1       3.534   9.111  82.864  1.00  0.00     0.007 A 
ATOM      7  C   UNL     1       2.299   9.754  83.001  1.00  0.00     0.046 A 
BRANCH   5   8
ATOM      8  O   UNL     1       0.883  11.674  82.640  1.00  0.00    -0.508 OA
ATOM      9  H   UNL     1       0.726  12.377  83.353  1.00  0.00     0.293 HD
ENDBRANCH   5   8
ENDBRANCH   1   2
BRANCH   1  10
ATOM     10  C   UNL     1       6.592   9.410  80.751  1.00  0.00     0.040 C 
BRANCH  10  11
ATOM     11  C   UNL     1       7.388   8.237  80.247  1.00  0.00    -0.040 A 
ATOM     12  C   UNL     1       8.679   8.428  79.727  1.00  0.00     0.050 A 
ATOM     13  C   UNL     1       6.870   6.935  80.344  1.00  0.00     0.050 A 
ATOM     14  C   UNL     1       9.434   7.335  79.288  1.00  0.00     0.119 A 
ATOM     15  C   UNL     1       7.625   5.838  79.904  1.00  0.00     0.119 A 
ATOM     16  C   UNL     1       8.903   6.041  79.376  1.00  0.00     0.092 A 
BRANCH  14  17
ATOM     17  O   UNL     1      10.709   7.544  78.769  1.00  0.00    -0.508 OA
ATOM     18  H   UNL     1      11.354   6.777  78.621  1.00  0.00     0.293 HD
ENDBRANCH  14  17
BRANCH  15  19
ATOM     19  O   UNL     1       7.114   4.545  79.992  1.00  0.00    -0.508 OA
ATOM     20  H   UNL     1       7.462   3.883  80.676  1.00  0.00     0.293 HD
ENDBRANCH  15  19
ENDBRANCH  10  11
ENDBRANCH   1  10
TORSDOF 6
ENDMDL
MODEL 5
REMARK VINA RESULT:    -6.559      1.820      6.997
REMARK INTER + INTRA:          -8.720
REMARK INTER:                  -8.174
REMARK INTRA:                  -0.545
REMARK UNBOUND:                -0.436
REMARK SMILES Oc1ccc(CCc2cc(O)cc(O)c2)cc1
REMARK SMILES IDX 6 1 5 2 4 3 3 4 2 5 16 6 17 7 1 8 7 10 8 11 15 12 9 13 13 14
REMARK SMILES IDX 10 15 12 16 14 17 11 19
REMARK H PARENT 1 9 14 18 11 20
REMARK Flexibility Score: inf
ROOT
ATOM      1  C   UNL     1       5.732   9.490  82.376  1.00  0.00     0.040 C 
ENDROOT
BRANCH   1   2
ATOM      2  C   UNL     1       4.724  10.490  81.877  1.00  0.00    -0.047 A 
ATOM      3  C   UNL     1       3.408  10.474  82.368  1.00  0.00     0.007 A 
ATOM      4  C   UNL     1       2.463  11.382  81.880  1.00  0.00     0.046 A 
ATOM      5  C   UNL     1       2.820  12.306  80.889  1.00  0.00     0.115 A 
ATOM      6  C   UNL     1       5.074  11.410  80.875  1.00  0.00     0.007 A 
ATOM      7  C   UNL     1       4.126  12.317  80.389  1.00  0.00     0.046 A 
BRANCH   5   8
ATOM      8  O   UNL     1       1.887  13.215  80.396  1.00  0.00    -0.508 OA
ATOM      9  H   UNL     1       1.971  14.209  80.575  1.00  0.00     0.293 HD
ENDBRANCH   5   8
ENDBRANCH   1   2
BRANCH   1  10
ATOM     10  C   UNL     1       5.745   8.247  81.483  1.00  0.00     0.040 C 
BRANCH  10  11
ATOM     11  C   UNL     1       7.067   8.118  80.774  1.00  0.00    -0.040 A 
ATOM     12  C   UNL     1       7.332   7.000  79.967  1.00  0.00     0.050 A 
ATOM     13  C   UNL     1       8.024   9.142  80.870  1.00  0.00     0.050 A 
ATOM     14  C   UNL     1       8.547   6.893  79.282  1.00  0.00     0.119 A 
ATOM     15  C   UNL     1       9.242   9.037  80.184  1.00  0.00     0.119 A 
ATOM     16  C   UNL     1       9.501   7.913  79.394  1.00  0.00     0.092 A 
BRANCH  14  17
ATOM     17  O   UNL     1       8.794   5.774  78.492  1.00  0.00    -0.508 OA
ATOM     18  H   UNL     1       9.483   5.791  77.749  1.00  0.00     0.293 HD
ENDBRANCH  14  17
BRANCH  15  19
ATOM     19  O   UNL     1      10.198  10.046  80.279  1.00  0.00    -0.508 OA
ATOM     20  H   UNL     1      10.437  10.627  79.483  1.00  0.00     0.293 HD
ENDBRANCH  15  19
ENDBRANCH  10  11
ENDBRANCH   1  10
TORSDOF 6
ENDMDL
MODEL 6
REMARK VINA RESULT:    -6.538      1.773      6.795
REMARK INTER + INTRA:          -8.694
REMARK INTER:                  -8.148
REMARK INTRA:                  -0.546
REMARK UNBOUND:                -0.436
REMARK SMILES Oc1ccc(CCc2cc(O)cc(O)c2)cc1
REMARK SMILES IDX 6 1 5 2 4 3 3 4 2 5 16 6 17 7 1 8 7 10 8 11 15 12 9 13 13 14
REMARK SMILES IDX 10 15 12 16 14 17 11 19
REMARK H PARENT 1 9 14 18 11 20
REMARK Flexibility Score: inf
ROOT
ATOM      1  C   UNL     1       5.774   9.503  82.364  1.00  0.00     0.040 C 
ENDROOT
BRANCH   1   2
ATOM      2  C   UNL     1       4.767  10.504  81.861  1.00  0.00    -0.047 A 
ATOM      3  C   UNL     1       3.467  10.527  82.391  1.00  0.00     0.007 A 
ATOM      4  C   UNL     1       2.523  11.435  81.900  1.00  0.00     0.046 A 
ATOM      5  C   UNL     1       2.866  12.320  80.869  1.00  0.00     0.115 A 
ATOM      6  C   UNL     1       5.103  11.385  80.820  1.00  0.00     0.007 A 
ATOM      7  C   UNL     1       4.157  12.291  80.331  1.00  0.00     0.046 A 
BRANCH   5   8
ATOM      8  O   UNL     1       1.934  13.228  80.373  1.00  0.00    -0.508 OA
ATOM      9  H   UNL     1       1.435  13.862  80.986  1.00  0.00     0.293 HD
ENDBRANCH   5   8
ENDBRANCH   1   2
BRANCH   1  10
ATOM     10  C   UNL     1       5.733   8.228  81.519  1.00  0.00     0.040 C 
BRANCH  10  11
ATOM     11  C   UNL     1       7.015   8.064  80.747  1.00  0.00    -0.040 A 
ATOM     12  C   UNL     1       8.004   9.060  80.798  1.00  0.00     0.050 A 
ATOM     13  C   UNL     1       7.255   6.889  80.017  1.00  0.00     0.050 A 
ATOM     14  C   UNL     1       9.210   8.895  80.107  1.00  0.00     0.119 A 
ATOM     15  C   UNL     1       8.463   6.721  79.324  1.00  0.00     0.119 A 
ATOM     16  C   UNL     1       9.436   7.725  79.369  1.00  0.00     0.092 A 
BRANCH  14  17
ATOM     17  O   UNL     1      10.176   9.896  80.164  1.00  0.00    -0.508 OA
ATOM     18  H   UNL     1      10.367  10.493  79.368  1.00  0.00     0.293 HD
ENDBRANCH  14  17
BRANCH  15  19
ATOM     19  O   UNL     1       8.706   5.561  78.592  1.00  0.00    -0.508 OA
ATOM     20  H   UNL     1       9.648   5.219  78.439  1.00  0.00     0.293 HD
ENDBRANCH  15  19
ENDBRANCH  10  11
ENDBRANCH   1  10
TORSDOF 6
ENDMDL
MODEL 7
REMARK VINA RESULT:    -6.299      2.626      7.052
REMARK INTER + INTRA:          -8.392
REMARK INTER:                  -7.980
REMARK INTRA:                  -0.412
REMARK UNBOUND:                -0.436
REMARK SMILES Oc1ccc(CCc2cc(O)cc(O)c2)cc1
REMARK SMILES IDX 6 1 5 2 4 3 3 4 2 5 16 6 17 7 1 8 7 10 8 11 15 12 9 13 13 14
REMARK SMILES IDX 10 15 12 16 14 17 11 19
REMARK H PARENT 1 9 14 18 11 20
REMARK Flexibility Score: inf
ROOT
ATOM      1  C   UNL     1       7.266  10.703  79.607  1.00  0.00     0.040 C 
ENDROOT
BRANCH   1   2
ATOM      2  C   UNL     1       6.147  11.692  79.419  1.00  0.00    -0.047 A 
ATOM      3  C   UNL     1       5.086  11.745  80.338  1.00  0.00     0.007 A 
ATOM      4  C   UNL     1       4.030  12.641  80.146  1.00  0.00     0.046 A 
ATOM      5  C   UNL     1       4.019  13.485  79.027  1.00  0.00     0.115 A 
ATOM      6  C   UNL     1       6.124  12.532  78.293  1.00  0.00     0.007 A 
ATOM      7  C   UNL     1       5.067  13.427  78.103  1.00  0.00     0.046 A 
BRANCH   5   8
ATOM      8  O   UNL     1       2.972  14.382  78.825  1.00  0.00    -0.508 OA
ATOM      9  H   UNL     1       2.728  14.709  77.898  1.00  0.00     0.293 HD
ENDBRANCH   5   8
ENDBRANCH   1   2
BRANCH   1  10
ATOM     10  C   UNL     1       6.787   9.497  80.418  1.00  0.00     0.040 C 
BRANCH  10  11
ATOM     11  C   UNL     1       7.569   8.266  80.045  1.00  0.00    -0.040 A 
ATOM     12  C   UNL     1       8.882   8.381  79.559  1.00  0.00     0.050 A 
ATOM     13  C   UNL     1       7.013   6.990  80.235  1.00  0.00     0.050 A 
ATOM     14  C   UNL     1       9.622   7.237  79.243  1.00  0.00     0.119 A 
ATOM     15  C   UNL     1       7.754   5.842  79.918  1.00  0.00     0.119 A 
ATOM     16  C   UNL     1       9.055   5.968  79.422  1.00  0.00     0.092 A 
BRANCH  14  17
ATOM     17  O   UNL     1      10.920   7.371  78.756  1.00  0.00    -0.508 OA
ATOM     18  H   UNL     1      11.495   8.171  78.993  1.00  0.00     0.293 HD
ENDBRANCH  14  17
BRANCH  15  19
ATOM     19  O   UNL     1       7.206   4.573  80.097  1.00  0.00    -0.508 OA
ATOM     20  H   UNL     1       6.430   4.415  80.730  1.00  0.00     0.293 HD
ENDBRANCH  15  19
ENDBRANCH  10  11
ENDBRANCH   1  10
TORSDOF 6
ENDMDL
MODEL 8
REMARK VINA RESULT:    -6.256      2.579      7.383
REMARK INTER + INTRA:          -8.338
REMARK INTER:                  -7.931
REMARK INTRA:                  -0.407
REMARK UNBOUND:                -0.436
REMARK SMILES Oc1ccc(CCc2cc(O)cc(O)c2)cc1
REMARK SMILES IDX 6 1 5 2 4 3 3 4 2 5 16 6 17 7 1 8 7 10 8 11 15 12 9 13 13 14
REMARK SMILES IDX 10 15 12 16 14 17 11 19
REMARK H PARENT 1 9 14 18 11 20
REMARK Flexibility Score: inf
ROOT
ATOM      1  C   UNL     1       7.157  10.728  79.671  1.00  0.00     0.040 C 
ENDROOT
BRANCH   1   2
ATOM      2  C   UNL     1       6.027  11.708  79.500  1.00  0.00    -0.047 A 
ATOM      3  C   UNL     1       5.999  12.570  78.392  1.00  0.00     0.007 A 
ATOM      4  C   UNL     1       4.967  13.503  78.250  1.00  0.00     0.046 A 
ATOM      5  C   UNL     1       3.959  13.589  79.220  1.00  0.00     0.115 A 
ATOM      6  C   UNL     1       5.021  11.807  80.475  1.00  0.00     0.007 A 
ATOM      7  C   UNL     1       3.990  12.741  80.331  1.00  0.00     0.046 A 
BRANCH   5   8
ATOM      8  O   UNL     1       2.925  14.514  79.090  1.00  0.00    -0.508 OA
ATOM      9  H   UNL     1       3.111  15.494  78.910  1.00  0.00     0.293 HD
ENDBRANCH   5   8
ENDBRANCH   1   2
BRANCH   1  10
ATOM     10  C   UNL     1       6.700   9.517  80.487  1.00  0.00     0.040 C 
BRANCH  10  11
ATOM     11  C   UNL     1       7.520   8.304  80.138  1.00  0.00    -0.040 A 
ATOM     12  C   UNL     1       6.974   7.017  80.273  1.00  0.00     0.050 A 
ATOM     13  C   UNL     1       8.817   8.452  79.621  1.00  0.00     0.050 A 
ATOM     14  C   UNL     1       7.723   5.890  79.919  1.00  0.00     0.119 A 
ATOM     15  C   UNL     1       9.569   7.323  79.265  1.00  0.00     0.119 A 
ATOM     16  C   UNL     1       9.021   6.046  79.417  1.00  0.00     0.092 A 
BRANCH  14  17
ATOM     17  O   UNL     1       7.167   4.621  80.067  1.00  0.00    -0.508 OA
ATOM     18  H   UNL     1       7.340   3.885  79.393  1.00  0.00     0.293 HD
ENDBRANCH  14  17
BRANCH  15  19
ATOM     19  O   UNL     1      10.859   7.462  78.757  1.00  0.00    -0.508 OA
ATOM     20  H   UNL     1      11.058   7.332  77.772  1.00  0.00     0.293 HD
ENDBRANCH  15  19
ENDBRANCH  10  11
ENDBRANCH   1  10
TORSDOF 6
ENDMDL
MODEL 9
REMARK VINA RESULT:    -6.235      1.261      2.560
REMARK INTER + INTRA:          -8.311
REMARK INTER:                  -7.914
REMARK INTRA:                  -0.397
REMARK UNBOUND:                -0.436
REMARK SMILES Oc1ccc(CCc2cc(O)cc(O)c2)cc1
REMARK SMILES IDX 6 1 5 2 4 3 3 4 2 5 16 6 17 7 1 8 7 10 8 11 15 12 9 13 13 14
REMARK SMILES IDX 10 15 12 16 14 17 11 19
REMARK H PARENT 1 9 14 18 11 20
REMARK Flexibility Score: inf
ROOT
ATOM      1  C   UNL     1       5.646   8.256  81.513  1.00  0.00     0.040 C 
ENDROOT
BRANCH   1   2
ATOM      2  C   UNL     1       6.904   7.962  80.741  1.00  0.00    -0.047 A 
ATOM      3  C   UNL     1       7.088   6.707  80.138  1.00  0.00     0.007 A 
ATOM      4  C   UNL     1       8.272   6.422  79.450  1.00  0.00     0.046 A 
ATOM      5  C   UNL     1       9.286   7.386  79.365  1.00  0.00     0.115 A 
ATOM      6  C   UNL     1       7.929   8.919  80.664  1.00  0.00     0.007 A 
ATOM      7  C   UNL     1       9.111   8.633  79.974  1.00  0.00     0.046 A 
BRANCH   5   8
ATOM      8  O   UNL     1      10.468   7.114  78.681  1.00  0.00    -0.508 OA
ATOM      9  H   UNL     1      10.847   6.175  78.631  1.00  0.00     0.293 HD
ENDBRANCH   5   8
ENDBRANCH   1   2
BRANCH   1  10
ATOM     10  C   UNL     1       5.604   9.727  81.932  1.00  0.00     0.040 C 
BRANCH  10  11
ATOM     11  C   UNL     1       4.219  10.110  82.380  1.00  0.00    -0.040 A 
ATOM     12  C   UNL     1       3.377   9.155  82.972  1.00  0.00     0.050 A 
ATOM     13  C   UNL     1       3.778  11.439  82.260  1.00  0.00     0.050 A 
ATOM     14  C   UNL     1       2.101   9.516  83.418  1.00  0.00     0.119 A 
ATOM     15  C   UNL     1       2.500  11.802  82.707  1.00  0.00     0.119 A 
ATOM     16  C   UNL     1       1.664  10.841  83.282  1.00  0.00     0.092 A 
BRANCH  14  17
ATOM     17  O   UNL     1       1.277   8.554  83.997  1.00  0.00    -0.508 OA
ATOM     18  H   UNL     1       1.506   8.127  84.887  1.00  0.00     0.293 HD
ENDBRANCH  14  17
BRANCH  15  19
ATOM     19  O   UNL     1       2.054  13.117  82.586  1.00  0.00    -0.508 OA
ATOM     20  H   UNL     1       1.449  13.538  83.281  1.00  0.00     0.293 HD
ENDBRANCH  15  19
ENDBRANCH  10  11
ENDBRANCH   1  10
TORSDOF 6
ENDMDL
