MODEL 1
REMARK VINA RESULT:    -3.819      0.000      0.000
REMARK INTER + INTRA:          -4.792
REMARK INTER:                  -4.712
REMARK INTRA:                  -0.080
REMARK UNBOUND:                -0.080
REMARK SMILES CCCCCC=O
REMARK SMILES IDX 4 1 3 2 2 3 1 4 5 5 6 6 7 7
REMARK H PARENT
REMARK Flexibility Score: inf
ROOT
ATOM      1  C   UNL     1      81.564   0.803   0.104  1.00  0.00     0.008 C 
ENDROOT
BRANCH   1   2
ATOM      2  C   UNL     1      81.051   2.251   0.041  1.00  0.00     0.000 C 
BRANCH   2   3
ATOM      3  C   UNL     1      82.010   3.186  -0.708  1.00  0.00    -0.003 C 
ATOM      4  C   UNL     1      81.449   4.603  -0.783  1.00  0.00     0.004 C 
ENDBRANCH   2   3
ENDBRANCH   1   2
BRANCH   1   5
ATOM      5  C   UNL     1      80.428  -0.228   0.049  1.00  0.00     0.072 C 
BRANCH   5   6
ATOM      6  C   UNL     1      79.150   0.408  -0.411  1.00  0.00     0.224 C 
ATOM      7  O   UNL     1      78.170  -0.279  -0.657  1.00  0.00    -0.303 OA
ENDBRANCH   5   6
ENDBRANCH   1   5
TORSDOF 4
ENDMDL
MODEL 2
REMARK VINA RESULT:    -3.819      2.435      4.018
REMARK INTER + INTRA:          -4.791
REMARK INTER:                  -4.714
REMARK INTRA:                  -0.078
REMARK UNBOUND:                -0.080
REMARK SMILES CCCCCC=O
REMARK SMILES IDX 4 1 3 2 2 3 1 4 5 5 6 6 7 7
REMARK H PARENT
REMARK Flexibility Score: inf
ROOT
ATOM      1  C   UNL     1      81.716   0.975   0.298  1.00  0.00     0.008 C 
ENDROOT
BRANCH   1   2
ATOM      2  C   UNL     1      80.232   1.197  -0.038  1.00  0.00     0.000 C 
BRANCH   2   3
ATOM      3  C   UNL     1      79.495  -0.112  -0.353  1.00  0.00    -0.003 C 
ATOM      4  C   UNL     1      78.004   0.134  -0.565  1.00  0.00     0.004 C 
ENDBRANCH   2   3
ENDBRANCH   1   2
BRANCH   1   5
ATOM      5  C   UNL     1      82.592   2.179  -0.080  1.00  0.00     0.072 C 
BRANCH   5   6
ATOM      6  C   UNL     1      81.747   3.375  -0.403  1.00  0.00     0.224 C 
ATOM      7  O   UNL     1      82.118   4.188  -1.236  1.00  0.00    -0.303 OA
ENDBRANCH   5   6
ENDBRANCH   1   5
TORSDOF 4
ENDMDL
MODEL 3
REMARK VINA RESULT:    -3.818      9.908     10.674
REMARK INTER + INTRA:          -4.790
REMARK INTER:                  -4.683
REMARK INTRA:                  -0.107
REMARK UNBOUND:                -0.080
REMARK SMILES CCCCCC=O
REMARK SMILES IDX 4 1 3 2 2 3 1 4 5 5 6 6 7 7
REMARK H PARENT
REMARK Flexibility Score: inf
ROOT
ATOM      1  C   UNL     1      69.945   0.148  -4.350  1.00  0.00     0.008 C 
ENDROOT
BRANCH   1   2
ATOM      2  C   UNL     1      69.608   1.504  -3.712  1.00  0.00     0.000 C 
BRANCH   2   3
ATOM      3  C   UNL     1      70.472   1.810  -2.481  1.00  0.00    -0.003 C 
ATOM      4  C   UNL     1      71.262   3.102  -2.670  1.00  0.00     0.004 C 
ENDBRANCH   2   3
ENDBRANCH   1   2
BRANCH   1   5
ATOM      5  C   UNL     1      70.947  -0.664  -3.517  1.00  0.00     0.072 C 
BRANCH   5   6
ATOM      6  C   UNL     1      70.745  -2.135  -3.722  1.00  0.00     0.224 C 
ATOM      7  O   UNL     1      71.699  -2.899  -3.712  1.00  0.00    -0.303 OA
ENDBRANCH   5   6
ENDBRANCH   1   5
TORSDOF 4
ENDMDL
MODEL 4
REMARK VINA RESULT:    -3.798      1.355      2.125
REMARK INTER + INTRA:          -4.766
REMARK INTER:                  -4.684
REMARK INTRA:                  -0.082
REMARK UNBOUND:                -0.080
REMARK SMILES CCCCCC=O
REMARK SMILES IDX 4 1 3 2 2 3 1 4 5 5 6 6 7 7
REMARK H PARENT
REMARK Flexibility Score: inf
ROOT
ATOM      1  C   UNL     1      79.920   1.679  -0.081  1.00  0.00     0.008 C 
ENDROOT
BRANCH   1   2
ATOM      2  C   UNL     1      81.407   2.063  -0.011  1.00  0.00     0.000 C 
BRANCH   2   3
ATOM      3  C   UNL     1      82.281   0.943   0.568  1.00  0.00    -0.003 C 
ATOM      4  C   UNL     1      83.724   1.407   0.746  1.00  0.00     0.004 C 
ENDBRANCH   2   3
ENDBRANCH   1   2
BRANCH   1   5
ATOM      5  C   UNL     1      79.709   0.169  -0.262  1.00  0.00     0.072 C 
BRANCH   5   6
ATOM      6  C   UNL     1      78.276  -0.136  -0.579  1.00  0.00     0.224 C 
ATOM      7  O   UNL     1      77.418   0.726  -0.463  1.00  0.00    -0.303 OA
ENDBRANCH   5   6
ENDBRANCH   1   5
TORSDOF 4
ENDMDL
MODEL 5
REMARK VINA RESULT:    -3.680     10.233     11.187
REMARK INTER + INTRA:          -4.621
REMARK INTER:                  -4.513
REMARK INTRA:                  -0.108
REMARK UNBOUND:                -0.080
REMARK SMILES CCCCCC=O
REMARK SMILES IDX 4 1 3 2 2 3 1 4 5 5 6 6 7 7
REMARK H PARENT
REMARK Flexibility Score: inf
ROOT
ATOM      1  C   UNL     1      69.823   1.469  -3.754  1.00  0.00     0.008 C 
ENDROOT
BRANCH   1   2
ATOM      2  C   UNL     1      69.927  -0.002  -4.187  1.00  0.00     0.000 C 
BRANCH   2   3
ATOM      3  C   UNL     1      70.945  -0.794  -3.354  1.00  0.00    -0.003 C 
ATOM      4  C   UNL     1      70.963  -2.265  -3.761  1.00  0.00     0.004 C 
ENDBRANCH   2   3
ENDBRANCH   1   2
BRANCH   1   5
ATOM      5  C   UNL     1      70.039   1.657  -2.246  1.00  0.00     0.072 C 
BRANCH   5   6
ATOM      6  C   UNL     1      70.727   2.958  -1.962  1.00  0.00     0.224 C 
ATOM      7  O   UNL     1      71.218   3.611  -2.871  1.00  0.00    -0.303 OA
ENDBRANCH   5   6
ENDBRANCH   1   5
TORSDOF 4
ENDMDL
MODEL 6
REMARK VINA RESULT:    -3.677      1.531      1.965
REMARK INTER + INTRA:          -4.617
REMARK INTER:                  -4.500
REMARK INTRA:                  -0.118
REMARK UNBOUND:                -0.080
REMARK SMILES CCCCCC=O
REMARK SMILES IDX 4 1 3 2 2 3 1 4 5 5 6 6 7 7
REMARK H PARENT
REMARK Flexibility Score: inf
ROOT
ATOM      1  C   UNL     1      80.259   2.172   0.439  1.00  0.00     0.008 C 
ENDROOT
BRANCH   1   2
ATOM      2  C   UNL     1      80.144   3.511  -0.306  1.00  0.00     0.000 C 
BRANCH   2   3
ATOM      3  C   UNL     1      81.507   4.065  -0.744  1.00  0.00    -0.003 C 
ATOM      4  C   UNL     1      82.550   2.954  -0.830  1.00  0.00     0.004 C 
ENDBRANCH   2   3
ENDBRANCH   1   2
BRANCH   1   5
ATOM      5  C   UNL     1      79.569   1.021  -0.307  1.00  0.00     0.072 C 
BRANCH   5   6
ATOM      6  C   UNL     1      80.297  -0.271  -0.086  1.00  0.00     0.224 C 
ATOM      7  O   UNL     1      81.363  -0.288   0.510  1.00  0.00    -0.303 OA
ENDBRANCH   5   6
ENDBRANCH   1   5
TORSDOF 4
ENDMDL
MODEL 7
REMARK VINA RESULT:    -3.621      2.105      3.113
REMARK INTER + INTRA:          -4.548
REMARK INTER:                  -4.407
REMARK INTRA:                  -0.141
REMARK UNBOUND:                -0.080
REMARK SMILES CCCCCC=O
REMARK SMILES IDX 4 1 3 2 2 3 1 4 5 5 6 6 7 7
REMARK H PARENT
REMARK Flexibility Score: inf
ROOT
ATOM      1  C   UNL     1      81.795   3.721  -0.763  1.00  0.00     0.008 C 
ENDROOT
BRANCH   1   2
ATOM      2  C   UNL     1      82.196   2.237  -0.738  1.00  0.00     0.000 C 
BRANCH   2   3
ATOM      3  C   UNL     1      83.639   2.022  -0.262  1.00  0.00    -0.003 C 
ATOM      4  C   UNL     1      83.672   1.394   1.128  1.00  0.00     0.004 C 
ENDBRANCH   2   3
ENDBRANCH   1   2
BRANCH   1   5
ATOM      5  C   UNL     1      80.445   3.978  -0.078  1.00  0.00     0.072 C 
BRANCH   5   6
ATOM      6  C   UNL     1      79.797   2.688   0.329  1.00  0.00     0.224 C 
ATOM      7  O   UNL     1      78.581   2.604   0.408  1.00  0.00    -0.303 OA
ENDBRANCH   5   6
ENDBRANCH   1   5
TORSDOF 4
ENDMDL
MODEL 8
REMARK VINA RESULT:    -3.559      8.631     10.387
REMARK INTER + INTRA:          -4.472
REMARK INTER:                  -4.342
REMARK INTRA:                  -0.130
REMARK UNBOUND:                -0.080
REMARK SMILES CCCCCC=O
REMARK SMILES IDX 4 1 3 2 2 3 1 4 5 5 6 6 7 7
REMARK H PARENT
REMARK Flexibility Score: inf
ROOT
ATOM      1  C   UNL     1      71.051   2.957  -2.588  1.00  0.00     0.008 C 
ENDROOT
BRANCH   1   2
ATOM      2  C   UNL     1      69.874   1.981  -2.736  1.00  0.00     0.000 C 
BRANCH   2   3
ATOM      3  C   UNL     1      70.165   0.849  -3.731  1.00  0.00    -0.003 C 
ATOM      4  C   UNL     1      69.111   0.800  -4.833  1.00  0.00     0.004 C 
ENDBRANCH   2   3
ENDBRANCH   1   2
BRANCH   1   5
ATOM      5  C   UNL     1      72.410   2.244  -2.568  1.00  0.00     0.072 C 
BRANCH   5   6
ATOM      6  C   UNL     1      72.751   1.781  -1.183  1.00  0.00     0.224 C 
ATOM      7  O   UNL     1      72.330   2.383  -0.207  1.00  0.00    -0.303 OA
ENDBRANCH   5   6
ENDBRANCH   1   5
TORSDOF 4
ENDMDL
MODEL 9
REMARK VINA RESULT:    -3.537      8.658     10.135
REMARK INTER + INTRA:          -4.444
REMARK INTER:                  -4.222
REMARK INTRA:                  -0.222
REMARK UNBOUND:                -0.080
REMARK SMILES CCCCCC=O
REMARK SMILES IDX 4 1 3 2 2 3 1 4 5 5 6 6 7 7
REMARK H PARENT
REMARK Flexibility Score: inf
ROOT
ATOM      1  C   UNL     1      69.933   1.846  -2.620  1.00  0.00     0.008 C 
ENDROOT
BRANCH   1   2
ATOM      2  C   UNL     1      70.926   3.015  -2.709  1.00  0.00     0.000 C 
BRANCH   2   3
ATOM      3  C   UNL     1      72.389   2.558  -2.625  1.00  0.00    -0.003 C 
ATOM      4  C   UNL     1      72.683   1.904  -1.278  1.00  0.00     0.004 C 
ENDBRANCH   2   3
ENDBRANCH   1   2
BRANCH   1   5
ATOM      5  C   UNL     1      69.713   1.155  -3.974  1.00  0.00     0.072 C 
BRANCH   5   6
ATOM      6  C   UNL     1      70.273  -0.236  -3.962  1.00  0.00     0.224 C 
ATOM      7  O   UNL     1      70.869  -0.656  -2.981  1.00  0.00    -0.303 OA
ENDBRANCH   5   6
ENDBRANCH   1   5
TORSDOF 4
ENDMDL
