MODEL 1
REMARK VINA RESULT:    -2.731      0.000      0.000
REMARK INTER + INTRA:          -8.253
REMARK INTER:                  -6.243
REMARK INTRA:                  -2.009
REMARK UNBOUND:                -2.009
REMARK SMILES CCCCCCCCCCCCCCCCCCCCCCCC(=O)[O-]
REMARK SMILES IDX 13 1 14 2 15 3 16 4 17 5 18 6 19 7 20 8 21 9 22 10 23 11
REMARK SMILES IDX 24 12 25 13 26 14 12 15 11 16 10 17 9 18 8 19 7 20 6 21 5 22
REMARK SMILES IDX 4 23 3 24 2 25 1 26
REMARK H PARENT
REMARK Flexibility Score: inf
ROOT
ATOM      1  C   UNL     1      10.598 -31.023  13.362  1.00  0.00     0.000 C 
ENDROOT
BRANCH   1   2
ATOM      2  C   UNL     1      10.595 -29.530  12.978  1.00  0.00     0.000 C 
BRANCH   2   3
ATOM      3  C   UNL     1       9.300 -29.049  12.297  1.00  0.00     0.000 C 
BRANCH   3   4
ATOM      4  C   UNL     1       8.335 -30.199  11.968  1.00  0.00     0.000 C 
BRANCH   4   5
ATOM      5  C   UNL     1       6.921 -29.888  12.478  1.00  0.00     0.000 C 
BRANCH   5   6
ATOM      6  C   UNL     1       6.871 -29.657  13.999  1.00  0.00     0.000 C 
BRANCH   6   7
ATOM      7  C   UNL     1       7.636 -30.698  14.840  1.00  0.00     0.000 C 
BRANCH   7   8
ATOM      8  C   UNL     1       6.974 -31.068  16.181  1.00  0.00     0.000 C 
BRANCH   8   9
ATOM      9  C   UNL     1       6.018 -29.981  16.694  1.00  0.00     0.000 C 
BRANCH   9  10
ATOM     10  C   UNL     1       6.622 -29.241  17.894  1.00  0.00     0.006 C 
BRANCH  10  11
ATOM     11  C   UNL     1       7.871 -29.960  18.413  1.00  0.00     0.053 C 
BRANCH  11  12
ATOM     12  C   UNL     1       9.001 -28.993  18.575  1.00  0.00     0.041 C 
ATOM     13  O   UNL     1       9.258 -28.502  19.706  1.00  0.00    -0.550 OA
ATOM     14  O   UNL     1       9.812 -28.687  17.490  1.00  0.00    -0.550 OA
ENDBRANCH  11  12
ENDBRANCH  10  11
ENDBRANCH   9  10
ENDBRANCH   8   9
ENDBRANCH   7   8
ENDBRANCH   6   7
ENDBRANCH   5   6
ENDBRANCH   4   5
ENDBRANCH   3   4
ENDBRANCH   2   3
ENDBRANCH   1   2
BRANCH   1  15
ATOM     15  C   UNL     1      11.982 -31.675  13.200  1.00  0.00     0.000 C 
BRANCH  15  16
ATOM     16  C   UNL     1      11.912 -33.209  13.145  1.00  0.00     0.000 C 
BRANCH  16  17
ATOM     17  C   UNL     1      11.081 -33.725  11.956  1.00  0.00     0.000 C 
BRANCH  17  18
ATOM     18  C   UNL     1       9.568 -33.632  12.218  1.00  0.00    -0.000 C 
BRANCH  18  19
ATOM     19  C   UNL     1       8.876 -35.006  12.156  1.00  0.00    -0.000 C 
BRANCH  19  20
ATOM     20  C   UNL     1       7.461 -34.987  12.763  1.00  0.00    -0.000 C 
BRANCH  20  21
ATOM     21  C   UNL     1       7.291 -33.978  13.919  1.00  0.00    -0.000 C 
BRANCH  21  22
ATOM     22  C   UNL     1       5.905 -34.015  14.594  1.00  0.00    -0.000 C 
BRANCH  22  23
ATOM     23  C   UNL     1       5.875 -34.903  15.847  1.00  0.00    -0.000 C 
BRANCH  23  24
ATOM     24  C   UNL     1       6.836 -34.368  16.920  1.00  0.00    -0.000 C 
BRANCH  24  25
ATOM     25  C   UNL     1       6.685 -35.095  18.266  1.00  0.00    -0.003 C 
ATOM     26  C   UNL     1       7.736 -34.671  19.291  1.00  0.00     0.004 C 
ENDBRANCH  24  25
ENDBRANCH  23  24
ENDBRANCH  22  23
ENDBRANCH  21  22
ENDBRANCH  20  21
ENDBRANCH  19  20
ENDBRANCH  18  19
ENDBRANCH  17  18
ENDBRANCH  16  17
ENDBRANCH  15  16
ENDBRANCH   1  15
TORSDOF 22
ENDMDL
MODEL 2
REMARK VINA RESULT:    -2.701      2.162      4.425
REMARK INTER + INTRA:          -8.184
REMARK INTER:                  -5.851
REMARK INTRA:                  -2.334
REMARK UNBOUND:                -2.009
REMARK SMILES CCCCCCCCCCCCCCCCCCCCCCCC(=O)[O-]
REMARK SMILES IDX 13 1 14 2 15 3 16 4 17 5 18 6 19 7 20 8 21 9 22 10 23 11
REMARK SMILES IDX 24 12 25 13 26 14 12 15 11 16 10 17 9 18 8 19 7 20 6 21 5 22
REMARK SMILES IDX 4 23 3 24 2 25 1 26
REMARK H PARENT
REMARK Flexibility Score: inf
ROOT
ATOM      1  C   UNL     1       9.701 -29.549  14.726  1.00  0.00     0.000 C 
ENDROOT
BRANCH   1   2
ATOM      2  C   UNL     1      11.006 -28.736  14.623  1.00  0.00     0.000 C 
BRANCH   2   3
ATOM      3  C   UNL     1      11.503 -28.155  15.960  1.00  0.00     0.000 C 
BRANCH   3   4
ATOM      4  C   UNL     1      10.355 -27.756  16.902  1.00  0.00     0.000 C 
BRANCH   4   5
ATOM      5  C   UNL     1      10.094 -28.855  17.940  1.00  0.00     0.000 C 
BRANCH   5   6
ATOM      6  C   UNL     1       8.914 -28.528  18.872  1.00  0.00     0.000 C 
BRANCH   6   7
ATOM      7  C   UNL     1       7.881 -29.661  19.038  1.00  0.00     0.000 C 
BRANCH   7   8
ATOM      8  C   UNL     1       6.576 -29.476  18.241  1.00  0.00     0.000 C 
BRANCH   8   9
ATOM      9  C   UNL     1       6.766 -29.667  16.729  1.00  0.00     0.000 C 
BRANCH   9  10
ATOM     10  C   UNL     1       6.549 -31.131  16.330  1.00  0.00     0.006 C 
BRANCH  10  11
ATOM     11  C   UNL     1       7.786 -31.978  16.645  1.00  0.00     0.053 C 
BRANCH  11  12
ATOM     12  C   UNL     1       7.402 -33.185  17.442  1.00  0.00     0.041 C 
ATOM     13  O   UNL     1       7.605 -33.216  18.684  1.00  0.00    -0.550 OA
ATOM     14  O   UNL     1       6.757 -34.248  16.823  1.00  0.00    -0.550 OA
ENDBRANCH  11  12
ENDBRANCH  10  11
ENDBRANCH   9  10
ENDBRANCH   8   9
ENDBRANCH   7   8
ENDBRANCH   6   7
ENDBRANCH   5   6
ENDBRANCH   4   5
ENDBRANCH   3   4
ENDBRANCH   2   3
ENDBRANCH   1   2
BRANCH   1  15
ATOM     15  C   UNL     1       8.885 -29.529  13.422  1.00  0.00     0.000 C 
BRANCH  15  16
ATOM     16  C   UNL     1       8.335 -30.914  13.044  1.00  0.00     0.000 C 
BRANCH  16  17
ATOM     17  C   UNL     1       7.333 -30.859  11.877  1.00  0.00     0.000 C 
BRANCH  17  18
ATOM     18  C   UNL     1       5.904 -31.222  12.319  1.00  0.00    -0.000 C 
BRANCH  18  19
ATOM     19  C   UNL     1       5.880 -31.982  13.658  1.00  0.00    -0.000 C 
BRANCH  19  20
ATOM     20  C   UNL     1       5.955 -33.509  13.475  1.00  0.00    -0.000 C 
BRANCH  20  21
ATOM     21  C   UNL     1       6.240 -33.953  12.024  1.00  0.00    -0.000 C 
BRANCH  21  22
ATOM     22  C   UNL     1       7.435 -34.916  11.878  1.00  0.00    -0.000 C 
BRANCH  22  23
ATOM     23  C   UNL     1       8.466 -34.763  13.007  1.00  0.00    -0.000 C 
BRANCH  23  24
ATOM     24  C   UNL     1       9.785 -34.188  12.469  1.00  0.00    -0.000 C 
BRANCH  24  25
ATOM     25  C   UNL     1      11.004 -34.630  13.295  1.00  0.00    -0.003 C 
ATOM     26  C   UNL     1      11.821 -33.451  13.823  1.00  0.00     0.004 C 
ENDBRANCH  24  25
ENDBRANCH  23  24
ENDBRANCH  22  23
ENDBRANCH  21  22
ENDBRANCH  20  21
ENDBRANCH  19  20
ENDBRANCH  18  19
ENDBRANCH  17  18
ENDBRANCH  16  17
ENDBRANCH  15  16
ENDBRANCH   1  15
TORSDOF 22
ENDMDL
MODEL 3
REMARK VINA RESULT:    -2.646      2.360      5.002
REMARK INTER + INTRA:          -8.058
REMARK INTER:                  -6.200
REMARK INTRA:                  -1.858
REMARK UNBOUND:                -2.009
REMARK SMILES CCCCCCCCCCCCCCCCCCCCCCCC(=O)[O-]
REMARK SMILES IDX 13 1 14 2 15 3 16 4 17 5 18 6 19 7 20 8 21 9 22 10 23 11
REMARK SMILES IDX 24 12 25 13 26 14 12 15 11 16 10 17 9 18 8 19 7 20 6 21 5 22
REMARK SMILES IDX 4 23 3 24 2 25 1 26
REMARK H PARENT
REMARK Flexibility Score: inf
ROOT
ATOM      1  C   UNL     1      11.049 -28.745  14.547  1.00  0.00     0.000 C 
ENDROOT
BRANCH   1   2
ATOM      2  C   UNL     1      10.751 -28.739  13.035  1.00  0.00     0.000 C 
BRANCH   2   3
ATOM      3  C   UNL     1       9.624 -29.696  12.604  1.00  0.00     0.000 C 
BRANCH   3   4
ATOM      4  C   UNL     1       8.539 -29.865  13.680  1.00  0.00     0.000 C 
BRANCH   4   5
ATOM      5  C   UNL     1       7.137 -29.757  13.064  1.00  0.00     0.000 C 
BRANCH   5   6
ATOM      6  C   UNL     1       6.817 -30.914  12.101  1.00  0.00     0.000 C 
BRANCH   6   7
ATOM      7  C   UNL     1       5.972 -32.052  12.709  1.00  0.00     0.000 C 
BRANCH   7   8
ATOM      8  C   UNL     1       6.546 -33.468  12.511  1.00  0.00     0.000 C 
BRANCH   8   9
ATOM      9  C   UNL     1       8.074 -33.477  12.359  1.00  0.00     0.000 C 
BRANCH   9  10
ATOM     10  C   UNL     1       8.751 -33.962  13.646  1.00  0.00     0.006 C 
BRANCH  10  11
ATOM     11  C   UNL     1       9.766 -32.934  14.156  1.00  0.00     0.053 C 
BRANCH  11  12
ATOM     12  C   UNL     1      11.138 -33.265  13.658  1.00  0.00     0.041 C 
ATOM     13  O   UNL     1      11.603 -34.426  13.805  1.00  0.00    -0.550 OA
ATOM     14  O   UNL     1      11.875 -32.309  12.971  1.00  0.00    -0.550 OA
ENDBRANCH  11  12
ENDBRANCH  10  11
ENDBRANCH   9  10
ENDBRANCH   8   9
ENDBRANCH   7   8
ENDBRANCH   6   7
ENDBRANCH   5   6
ENDBRANCH   4   5
ENDBRANCH   3   4
ENDBRANCH   2   3
ENDBRANCH   1   2
BRANCH   1  15
ATOM     15  C   UNL     1       9.852 -29.225  15.386  1.00  0.00     0.000 C 
BRANCH  15  16
ATOM     16  C   UNL     1       9.753 -28.510  16.743  1.00  0.00     0.000 C 
BRANCH  16  17
ATOM     17  C   UNL     1       9.316 -29.450  17.882  1.00  0.00     0.000 C 
BRANCH  17  18
ATOM     18  C   UNL     1       8.235 -28.819  18.776  1.00  0.00    -0.000 C 
BRANCH  18  19
ATOM     19  C   UNL     1       6.816 -29.277  18.390  1.00  0.00    -0.000 C 
BRANCH  19  20
ATOM     20  C   UNL     1       6.664 -29.530  16.879  1.00  0.00    -0.000 C 
BRANCH  20  21
ATOM     21  C   UNL     1       5.875 -30.812  16.535  1.00  0.00    -0.000 C 
BRANCH  21  22
ATOM     22  C   UNL     1       6.758 -32.014  16.148  1.00  0.00    -0.000 C 
BRANCH  22  23
ATOM     23  C   UNL     1       5.989 -33.345  16.152  1.00  0.00    -0.000 C 
BRANCH  23  24
ATOM     24  C   UNL     1       6.737 -34.407  16.972  1.00  0.00    -0.000 C 
BRANCH  24  25
ATOM     25  C   UNL     1       7.783 -33.796  17.918  1.00  0.00    -0.003 C 
ATOM     26  C   UNL     1       7.713 -34.372  19.332  1.00  0.00     0.004 C 
ENDBRANCH  24  25
ENDBRANCH  23  24
ENDBRANCH  22  23
ENDBRANCH  21  22
ENDBRANCH  20  21
ENDBRANCH  19  20
ENDBRANCH  18  19
ENDBRANCH  17  18
ENDBRANCH  16  17
ENDBRANCH  15  16
ENDBRANCH   1  15
TORSDOF 22
ENDMDL
MODEL 4
REMARK VINA RESULT:    -2.617      2.097      5.396
REMARK INTER + INTRA:          -7.991
REMARK INTER:                  -5.533
REMARK INTRA:                  -2.459
REMARK UNBOUND:                -2.009
REMARK SMILES CCCCCCCCCCCCCCCCCCCCCCCC(=O)[O-]
REMARK SMILES IDX 13 1 14 2 15 3 16 4 17 5 18 6 19 7 20 8 21 9 22 10 23 11
REMARK SMILES IDX 24 12 25 13 26 14 12 15 11 16 10 17 9 18 8 19 7 20 6 21 5 22
REMARK SMILES IDX 4 23 3 24 2 25 1 26
REMARK H PARENT
REMARK Flexibility Score: inf
ROOT
ATOM      1  C   UNL     1      10.279 -29.604  13.602  1.00  0.00     0.000 C 
ENDROOT
BRANCH   1   2
ATOM      2  C   UNL     1      10.224 -30.011  12.116  1.00  0.00     0.000 C 
BRANCH   2   3
ATOM      3  C   UNL     1      10.097 -31.527  11.875  1.00  0.00     0.000 C 
BRANCH   3   4
ATOM      4  C   UNL     1      11.431 -32.274  12.042  1.00  0.00     0.000 C 
BRANCH   4   5
ATOM      5  C   UNL     1      11.564 -32.841  13.462  1.00  0.00     0.000 C 
BRANCH   5   6
ATOM      6  C   UNL     1      10.262 -33.484  13.973  1.00  0.00     0.000 C 
BRANCH   6   7
ATOM      7  C   UNL     1       9.573 -34.440  12.979  1.00  0.00     0.000 C 
BRANCH   7   8
ATOM      8  C   UNL     1       8.069 -34.663  13.224  1.00  0.00     0.000 C 
BRANCH   8   9
ATOM      9  C   UNL     1       7.190 -34.077  12.109  1.00  0.00     0.000 C 
BRANCH   9  10
ATOM     10  C   UNL     1       6.301 -32.949  12.648  1.00  0.00     0.006 C 
BRANCH  10  11
ATOM     11  C   UNL     1       6.536 -31.646  11.877  1.00  0.00     0.053 C 
BRANCH  11  12
ATOM     12  C   UNL     1       6.693 -30.500  12.826  1.00  0.00     0.041 C 
ATOM     13  O   UNL     1       6.804 -29.325  12.388  1.00  0.00    -0.550 OA
ATOM     14  O   UNL     1       6.647 -30.723  14.196  1.00  0.00    -0.550 OA
ENDBRANCH  11  12
ENDBRANCH  10  11
ENDBRANCH   9  10
ENDBRANCH   8   9
ENDBRANCH   7   8
ENDBRANCH   6   7
ENDBRANCH   5   6
ENDBRANCH   4   5
ENDBRANCH   3   4
ENDBRANCH   2   3
ENDBRANCH   1   2
BRANCH   1  15
ATOM     15  C   UNL     1      11.507 -28.738  13.935  1.00  0.00     0.000 C 
BRANCH  15  16
ATOM     16  C   UNL     1      11.406 -28.072  15.316  1.00  0.00     0.000 C 
BRANCH  16  17
ATOM     17  C   UNL     1      10.300 -28.685  16.194  1.00  0.00     0.000 C 
BRANCH  17  18
ATOM     18  C   UNL     1      10.332 -28.144  17.634  1.00  0.00    -0.000 C 
BRANCH  18  19
ATOM     19  C   UNL     1       8.992 -28.347  18.366  1.00  0.00    -0.000 C 
BRANCH  19  20
ATOM     20  C   UNL     1       7.908 -28.960  17.460  1.00  0.00    -0.000 C 
BRANCH  20  21
ATOM     21  C   UNL     1       6.757 -29.640  18.234  1.00  0.00    -0.000 C 
BRANCH  21  22
ATOM     22  C   UNL     1       6.578 -31.137  17.917  1.00  0.00    -0.000 C 
BRANCH  22  23
ATOM     23  C   UNL     1       7.681 -31.690  17.002  1.00  0.00    -0.000 C 
BRANCH  23  24
ATOM     24  C   UNL     1       7.996 -33.154  17.347  1.00  0.00    -0.000 C 
BRANCH  24  25
ATOM     25  C   UNL     1       6.748 -34.050  17.320  1.00  0.00    -0.003 C 
ATOM     26  C   UNL     1       6.188 -34.245  15.911  1.00  0.00     0.004 C 
ENDBRANCH  24  25
ENDBRANCH  23  24
ENDBRANCH  22  23
ENDBRANCH  21  22
ENDBRANCH  20  21
ENDBRANCH  19  20
ENDBRANCH  18  19
ENDBRANCH  17  18
ENDBRANCH  16  17
ENDBRANCH  15  16
ENDBRANCH   1  15
TORSDOF 22
ENDMDL
MODEL 5
REMARK VINA RESULT:    -2.310      2.143      4.885
REMARK INTER + INTRA:          -7.290
REMARK INTER:                  -4.548
REMARK INTRA:                  -2.742
REMARK UNBOUND:                -2.009
REMARK SMILES CCCCCCCCCCCCCCCCCCCCCCCC(=O)[O-]
REMARK SMILES IDX 13 1 14 2 15 3 16 4 17 5 18 6 19 7 20 8 21 9 22 10 23 11
REMARK SMILES IDX 24 12 25 13 26 14 12 15 11 16 10 17 9 18 8 19 7 20 6 21 5 22
REMARK SMILES IDX 4 23 3 24 2 25 1 26
REMARK H PARENT
REMARK Flexibility Score: inf
ROOT
ATOM      1  C   UNL     1      11.295 -28.539  16.147  1.00  0.00     0.000 C 
ENDROOT
BRANCH   1   2
ATOM      2  C   UNL     1       9.976 -28.090  16.806  1.00  0.00     0.000 C 
BRANCH   2   3
ATOM      3  C   UNL     1       9.783 -28.591  18.250  1.00  0.00     0.000 C 
BRANCH   3   4
ATOM      4  C   UNL     1       8.635 -29.605  18.382  1.00  0.00     0.000 C 
BRANCH   4   5
ATOM      5  C   UNL     1       8.111 -30.020  17.000  1.00  0.00     0.000 C 
BRANCH   5   6
ATOM      6  C   UNL     1       6.578 -29.936  16.893  1.00  0.00     0.000 C 
BRANCH   6   7
ATOM      7  C   UNL     1       5.875 -31.265  16.552  1.00  0.00     0.000 C 
BRANCH   7   8
ATOM      8  C   UNL     1       6.643 -32.179  15.579  1.00  0.00     0.000 C 
BRANCH   8   9
ATOM      9  C   UNL     1       5.934 -33.519  15.332  1.00  0.00     0.000 C 
BRANCH   9  10
ATOM     10  C   UNL     1       6.592 -34.644  16.140  1.00  0.00     0.006 C 
BRANCH  10  11
ATOM     11  C   UNL     1       6.232 -34.540  17.625  1.00  0.00     0.053 C 
BRANCH  11  12
ATOM     12  C   UNL     1       7.463 -34.313  18.445  1.00  0.00     0.041 C 
ATOM     13  O   UNL     1       8.310 -33.449  18.092  1.00  0.00    -0.550 OA
ATOM     14  O   UNL     1       7.641 -35.006  19.635  1.00  0.00    -0.550 OA
ENDBRANCH  11  12
ENDBRANCH  10  11
ENDBRANCH   9  10
ENDBRANCH   8   9
ENDBRANCH   7   8
ENDBRANCH   6   7
ENDBRANCH   5   6
ENDBRANCH   4   5
ENDBRANCH   3   4
ENDBRANCH   2   3
ENDBRANCH   1   2
BRANCH   1  15
ATOM     15  C   UNL     1      11.436 -28.035  14.699  1.00  0.00     0.000 C 
BRANCH  15  16
ATOM     16  C   UNL     1      11.867 -29.143  13.725  1.00  0.00     0.000 C 
BRANCH  16  17
ATOM     17  C   UNL     1      10.691 -30.023  13.265  1.00  0.00     0.000 C 
BRANCH  17  18
ATOM     18  C   UNL     1       9.452 -29.191  12.889  1.00  0.00    -0.000 C 
BRANCH  18  19
ATOM     19  C   UNL     1       8.222 -29.552  13.741  1.00  0.00    -0.000 C 
BRANCH  19  20
ATOM     20  C   UNL     1       6.976 -29.851  12.887  1.00  0.00    -0.000 C 
BRANCH  20  21
ATOM     21  C   UNL     1       7.172 -31.001  11.875  1.00  0.00    -0.000 C 
BRANCH  21  22
ATOM     22  C   UNL     1       7.388 -32.384  12.520  1.00  0.00    -0.000 C 
BRANCH  22  23
ATOM     23  C   UNL     1       8.687 -33.061  12.057  1.00  0.00    -0.000 C 
BRANCH  23  24
ATOM     24  C   UNL     1       9.483 -33.597  13.258  1.00  0.00    -0.000 C 
BRANCH  24  25
ATOM     25  C   UNL     1      10.505 -34.673  12.857  1.00  0.00    -0.003 C 
ATOM     26  C   UNL     1      11.927 -34.335  13.303  1.00  0.00     0.004 C 
ENDBRANCH  24  25
ENDBRANCH  23  24
ENDBRANCH  22  23
ENDBRANCH  21  22
ENDBRANCH  20  21
ENDBRANCH  19  20
ENDBRANCH  18  19
ENDBRANCH  17  18
ENDBRANCH  16  17
ENDBRANCH  15  16
ENDBRANCH   1  15
TORSDOF 22
ENDMDL
MODEL 6
REMARK VINA RESULT:    -2.238      2.057      5.054
REMARK INTER + INTRA:          -7.125
REMARK INTER:                  -4.008
REMARK INTRA:                  -3.117
REMARK UNBOUND:                -2.009
REMARK SMILES CCCCCCCCCCCCCCCCCCCCCCCC(=O)[O-]
REMARK SMILES IDX 13 1 14 2 15 3 16 4 17 5 18 6 19 7 20 8 21 9 22 10 23 11
REMARK SMILES IDX 24 12 25 13 26 14 12 15 11 16 10 17 9 18 8 19 7 20 6 21 5 22
REMARK SMILES IDX 4 23 3 24 2 25 1 26
REMARK H PARENT
REMARK Flexibility Score: inf
ROOT
ATOM      1  C   UNL     1       8.497 -29.170  13.256  1.00  0.00     0.000 C 
ENDROOT
BRANCH   1   2
ATOM      2  C   UNL     1       7.123 -29.860  13.156  1.00  0.00     0.000 C 
BRANCH   2   3
ATOM      3  C   UNL     1       6.917 -30.689  11.875  1.00  0.00     0.000 C 
BRANCH   3   4
ATOM      4  C   UNL     1       5.893 -31.822  12.054  1.00  0.00     0.000 C 
BRANCH   4   5
ATOM      5  C   UNL     1       6.574 -33.194  11.955  1.00  0.00     0.000 C 
BRANCH   5   6
ATOM      6  C   UNL     1       8.083 -33.135  12.253  1.00  0.00     0.000 C 
BRANCH   6   7
ATOM      7  C   UNL     1       8.494 -33.667  13.641  1.00  0.00     0.000 C 
BRANCH   7   8
ATOM      8  C   UNL     1       7.736 -34.923  14.109  1.00  0.00     0.000 C 
BRANCH   8   9
ATOM      9  C   UNL     1       6.384 -34.596  14.760  1.00  0.00     0.000 C 
BRANCH   9  10
ATOM     10  C   UNL     1       6.452 -33.274  15.534  1.00  0.00     0.006 C 
BRANCH  10  11
ATOM     11  C   UNL     1       6.315 -33.510  17.041  1.00  0.00     0.053 C 
BRANCH  11  12
ATOM     12  C   UNL     1       7.648 -33.398  17.711  1.00  0.00     0.041 C 
ATOM     13  O   UNL     1       7.816 -33.861  18.870  1.00  0.00    -0.550 OA
ATOM     14  O   UNL     1       8.722 -32.845  17.027  1.00  0.00    -0.550 OA
ENDBRANCH  11  12
ENDBRANCH  10  11
ENDBRANCH   9  10
ENDBRANCH   8   9
ENDBRANCH   7   8
ENDBRANCH   6   7
ENDBRANCH   5   6
ENDBRANCH   4   5
ENDBRANCH   3   4
ENDBRANCH   2   3
ENDBRANCH   1   2
BRANCH   1  15
ATOM     15  C   UNL     1       9.371 -29.405  12.011  1.00  0.00     0.000 C 
BRANCH  15  16
ATOM     16  C   UNL     1      10.418 -30.511  12.222  1.00  0.00     0.000 C 
BRANCH  16  17
ATOM     17  C   UNL     1      11.027 -30.493  13.635  1.00  0.00     0.000 C 
BRANCH  17  18
ATOM     18  C   UNL     1      12.435 -29.873  13.656  1.00  0.00    -0.000 C 
BRANCH  18  19
ATOM     19  C   UNL     1      12.431 -28.429  14.190  1.00  0.00    -0.000 C 
BRANCH  19  20
ATOM     20  C   UNL     1      11.130 -28.075  14.935  1.00  0.00    -0.000 C 
BRANCH  20  21
ATOM     21  C   UNL     1      11.260 -28.110  16.473  1.00  0.00    -0.000 C 
BRANCH  21  22
ATOM     22  C   UNL     1       9.920 -27.997  17.226  1.00  0.00    -0.000 C 
BRANCH  22  23
ATOM     23  C   UNL     1       8.969 -29.166  16.930  1.00  0.00    -0.000 C 
BRANCH  23  24
ATOM     24  C   UNL     1       8.466 -29.806  18.234  1.00  0.00    -0.000 C 
BRANCH  24  25
ATOM     25  C   UNL     1       6.936 -29.946  18.273  1.00  0.00    -0.003 C 
ATOM     26  C   UNL     1       6.277 -29.623  16.932  1.00  0.00     0.004 C 
ENDBRANCH  24  25
ENDBRANCH  23  24
ENDBRANCH  22  23
ENDBRANCH  21  22
ENDBRANCH  20  21
ENDBRANCH  19  20
ENDBRANCH  18  19
ENDBRANCH  17  18
ENDBRANCH  16  17
ENDBRANCH  15  16
ENDBRANCH   1  15
TORSDOF 22
ENDMDL
MODEL 7
REMARK VINA RESULT:    -1.080      1.539      3.259
REMARK INTER + INTRA:          -4.478
REMARK INTER:                  -1.608
REMARK INTRA:                  -2.870
REMARK UNBOUND:                -2.009
REMARK SMILES CCCCCCCCCCCCCCCCCCCCCCCC(=O)[O-]
REMARK SMILES IDX 13 1 14 2 15 3 16 4 17 5 18 6 19 7 20 8 21 9 22 10 23 11
REMARK SMILES IDX 24 12 25 13 26 14 12 15 11 16 10 17 9 18 8 19 7 20 6 21 5 22
REMARK SMILES IDX 4 23 3 24 2 25 1 26
REMARK H PARENT
REMARK Flexibility Score: inf
ROOT
ATOM      1  C   UNL     1       9.152 -29.927  13.780  1.00  0.00     0.000 C 
ENDROOT
BRANCH   1   2
ATOM      2  C   UNL     1       7.661 -29.537  13.811  1.00  0.00     0.000 C 
BRANCH   2   3
ATOM      3  C   UNL     1       6.720 -30.655  14.298  1.00  0.00     0.000 C 
BRANCH   3   4
ATOM      4  C   UNL     1       5.983 -30.293  15.597  1.00  0.00     0.000 C 
BRANCH   4   5
ATOM      5  C   UNL     1       6.131 -31.411  16.639  1.00  0.00     0.000 C 
BRANCH   5   6
ATOM      6  C   UNL     1       7.597 -31.810  16.882  1.00  0.00     0.000 C 
BRANCH   6   7
ATOM      7  C   UNL     1       8.136 -31.485  18.289  1.00  0.00     0.000 C 
BRANCH   7   8
ATOM      8  C   UNL     1       7.340 -30.417  19.062  1.00  0.00     0.000 C 
BRANCH   8   9
ATOM      9  C   UNL     1       8.154 -29.141  19.327  1.00  0.00     0.000 C 
BRANCH   9  10
ATOM     10  C   UNL     1       9.467 -29.154  18.536  1.00  0.00     0.006 C 
BRANCH  10  11
ATOM     11  C   UNL     1       9.256 -28.641  17.108  1.00  0.00     0.053 C 
BRANCH  11  12
ATOM     12  C   UNL     1      10.492 -27.958  16.611  1.00  0.00     0.041 C 
ATOM     13  O   UNL     1      10.858 -26.864  17.116  1.00  0.00    -0.550 OA
ATOM     14  O   UNL     1      11.275 -28.566  15.639  1.00  0.00    -0.550 OA
ENDBRANCH  11  12
ENDBRANCH  10  11
ENDBRANCH   9  10
ENDBRANCH   8   9
ENDBRANCH   7   8
ENDBRANCH   6   7
ENDBRANCH   5   6
ENDBRANCH   4   5
ENDBRANCH   3   4
ENDBRANCH   2   3
ENDBRANCH   1   2
BRANCH   1  15
ATOM     15  C   UNL     1       9.778 -29.767  12.383  1.00  0.00     0.000 C 
BRANCH  15  16
ATOM     16  C   UNL     1      10.444 -31.057  11.880  1.00  0.00     0.000 C 
BRANCH  16  17
ATOM     17  C   UNL     1      11.698 -31.436  12.689  1.00  0.00     0.000 C 
BRANCH  17  18
ATOM     18  C   UNL     1      11.898 -32.959  12.774  1.00  0.00    -0.000 C 
BRANCH  18  19
ATOM     19  C   UNL     1      11.106 -33.590  13.934  1.00  0.00    -0.000 C 
BRANCH  19  20
ATOM     20  C   UNL     1      10.085 -34.639  13.454  1.00  0.00    -0.000 C 
BRANCH  20  21
ATOM     21  C   UNL     1       9.550 -34.384  12.029  1.00  0.00    -0.000 C 
BRANCH  21  22
ATOM     22  C   UNL     1       8.031 -34.594  11.875  1.00  0.00    -0.000 C 
BRANCH  22  23
ATOM     23  C   UNL     1       7.204 -33.490  12.551  1.00  0.00    -0.000 C 
BRANCH  23  24
ATOM     24  C   UNL     1       6.096 -34.094  13.428  1.00  0.00    -0.000 C 
BRANCH  24  25
ATOM     25  C   UNL     1       6.634 -35.125  14.433  1.00  0.00    -0.003 C 
ATOM     26  C   UNL     1       6.089 -34.916  15.846  1.00  0.00     0.004 C 
ENDBRANCH  24  25
ENDBRANCH  23  24
ENDBRANCH  22  23
ENDBRANCH  21  22
ENDBRANCH  20  21
ENDBRANCH  19  20
ENDBRANCH  18  19
ENDBRANCH  17  18
ENDBRANCH  16  17
ENDBRANCH  15  16
ENDBRANCH   1  15
TORSDOF 22
ENDMDL
