MODEL 1
REMARK VINA RESULT:    -2.731      0.000      0.000
REMARK INTER + INTRA:          -2.731
REMARK INTER:                  -2.731
REMARK INTRA:                   0.000
REMARK UNBOUND:                 0.000
REMARK SMILES CC(=O)[O-]
REMARK SMILES IDX 1 1 2 2 3 3 4 4
REMARK H PARENT
REMARK Flexibility Score: inf
ROOT
ATOM      1  C   UNL     1      13.514 -12.902 -27.252  1.00  0.00     0.063 C 
ATOM      2  C   UNL     1      12.470 -13.796 -26.674  1.00  0.00     0.038 C 
ATOM      3  O   UNL     1      12.411 -13.977 -25.431  1.00  0.00    -0.550 OA
ATOM      4  O   UNL     1      11.526 -14.389 -27.503  1.00  0.00    -0.550 OA
ENDROOT
TORSDOF 0
ENDMDL
MODEL 2
REMARK VINA RESULT:    -2.715      1.454      1.866
REMARK INTER + INTRA:          -2.715
REMARK INTER:                  -2.715
REMARK INTRA:                   0.000
REMARK UNBOUND:                 0.000
REMARK SMILES CC(=O)[O-]
REMARK SMILES IDX 1 1 2 2 3 3 4 4
REMARK H PARENT
REMARK Flexibility Score: inf
ROOT
ATOM      1  C   UNL     1      14.723 -12.720 -27.061  1.00  0.00     0.063 C 
ATOM      2  C   UNL     1      13.301 -13.137 -27.224  1.00  0.00     0.038 C 
ATOM      3  O   UNL     1      12.510 -12.432 -27.902  1.00  0.00    -0.550 OA
ATOM      4  O   UNL     1      12.859 -14.332 -26.671  1.00  0.00    -0.550 OA
ENDROOT
TORSDOF 0
ENDMDL
MODEL 3
REMARK VINA RESULT:    -2.708      2.382      2.435
REMARK INTER + INTRA:          -2.708
REMARK INTER:                  -2.708
REMARK INTRA:                   0.000
REMARK UNBOUND:                 0.000
REMARK SMILES CC(=O)[O-]
REMARK SMILES IDX 1 1 2 2 3 3 4 4
REMARK H PARENT
REMARK Flexibility Score: inf
ROOT
ATOM      1  C   UNL     1      10.707 -12.430 -28.886  1.00  0.00     0.063 C 
ATOM      2  C   UNL     1      11.016 -12.664 -27.447  1.00  0.00     0.038 C 
ATOM      3  O   UNL     1      11.265 -11.691 -26.688  1.00  0.00    -0.550 OA
ATOM      4  O   UNL     1      10.979 -13.952 -26.927  1.00  0.00    -0.550 OA
ENDROOT
TORSDOF 0
ENDMDL
MODEL 4
REMARK VINA RESULT:    -2.708      1.945      2.184
REMARK INTER + INTRA:          -2.708
REMARK INTER:                  -2.708
REMARK INTRA:                   0.000
REMARK UNBOUND:                 0.000
REMARK SMILES CC(=O)[O-]
REMARK SMILES IDX 1 1 2 2 3 3 4 4
REMARK H PARENT
REMARK Flexibility Score: inf
ROOT
ATOM      1  C   UNL     1      10.745 -12.426 -28.526  1.00  0.00     0.063 C 
ATOM      2  C   UNL     1      11.491 -13.174 -27.474  1.00  0.00     0.038 C 
ATOM      3  O   UNL     1      10.880 -13.955 -26.700  1.00  0.00    -0.550 OA
ATOM      4  O   UNL     1      12.872 -13.051 -27.380  1.00  0.00    -0.550 OA
ENDROOT
TORSDOF 0
ENDMDL
MODEL 5
REMARK VINA RESULT:    -2.703      0.986      1.670
REMARK INTER + INTRA:          -2.703
REMARK INTER:                  -2.703
REMARK INTRA:                   0.000
REMARK UNBOUND:                 0.000
REMARK SMILES CC(=O)[O-]
REMARK SMILES IDX 1 1 2 2 3 3 4 4
REMARK H PARENT
REMARK Flexibility Score: inf
ROOT
ATOM      1  C   UNL     1      14.322 -12.870 -27.045  1.00  0.00     0.063 C 
ATOM      2  C   UNL     1      13.020 -13.418 -26.568  1.00  0.00     0.038 C 
ATOM      3  O   UNL     1      12.566 -14.484 -27.057  1.00  0.00    -0.550 OA
ATOM      4  O   UNL     1      12.330 -12.781 -25.544  1.00  0.00    -0.550 OA
ENDROOT
TORSDOF 0
ENDMDL
MODEL 6
REMARK VINA RESULT:    -2.644      2.040      2.625
REMARK INTER + INTRA:          -2.644
REMARK INTER:                  -2.644
REMARK INTRA:                   0.000
REMARK UNBOUND:                 0.000
REMARK SMILES CC(=O)[O-]
REMARK SMILES IDX 1 1 2 2 3 3 4 4
REMARK H PARENT
REMARK Flexibility Score: inf
ROOT
ATOM      1  C   UNL     1      11.406 -11.574 -26.700  1.00  0.00     0.063 C 
ATOM      2  C   UNL     1      11.008 -12.711 -27.579  1.00  0.00     0.038 C 
ATOM      3  O   UNL     1      10.647 -12.496 -28.765  1.00  0.00    -0.550 OA
ATOM      4  O   UNL     1      11.085 -14.015 -27.107  1.00  0.00    -0.550 OA
ENDROOT
TORSDOF 0
ENDMDL
MODEL 7
REMARK VINA RESULT:    -2.602      2.973      3.188
REMARK INTER + INTRA:          -2.602
REMARK INTER:                  -2.602
REMARK INTRA:                   0.000
REMARK UNBOUND:                 0.000
REMARK SMILES CC(=O)[O-]
REMARK SMILES IDX 1 1 2 2 3 3 4 4
REMARK H PARENT
REMARK Flexibility Score: inf
ROOT
ATOM      1  C   UNL     1      10.913 -12.366 -28.444  1.00  0.00     0.063 C 
ATOM      2  C   UNL     1      12.220 -11.738 -28.096  1.00  0.00     0.038 C 
ATOM      3  O   UNL     1      13.203 -12.459 -27.784  1.00  0.00    -0.550 OA
ATOM      4  O   UNL     1      12.370 -10.359 -28.168  1.00  0.00    -0.550 OA
ENDROOT
TORSDOF 0
ENDMDL
MODEL 8
REMARK VINA RESULT:    -2.570      1.562      2.087
REMARK INTER + INTRA:          -2.570
REMARK INTER:                  -2.570
REMARK INTRA:                   0.000
REMARK UNBOUND:                 0.000
REMARK SMILES CC(=O)[O-]
REMARK SMILES IDX 1 1 2 2 3 3 4 4
REMARK H PARENT
REMARK Flexibility Score: inf
ROOT
ATOM      1  C   UNL     1      12.972 -12.555 -26.708  1.00  0.00     0.063 C 
ATOM      2  C   UNL     1      12.019 -12.804 -25.588  1.00  0.00     0.038 C 
ATOM      3  O   UNL     1      11.748 -13.982 -25.240  1.00  0.00    -0.550 OA
ATOM      4  O   UNL     1      11.471 -11.735 -24.890  1.00  0.00    -0.550 OA
ENDROOT
TORSDOF 0
ENDMDL
MODEL 9
REMARK VINA RESULT:    -2.492      3.450      3.684
REMARK INTER + INTRA:          -2.492
REMARK INTER:                  -2.492
REMARK INTRA:                   0.000
REMARK UNBOUND:                 0.000
REMARK SMILES CC(=O)[O-]
REMARK SMILES IDX 1 1 2 2 3 3 4 4
REMARK H PARENT
REMARK Flexibility Score: inf
ROOT
ATOM      1  C   UNL     1      12.500 -11.890 -27.776  1.00  0.00     0.063 C 
ATOM      2  C   UNL     1      12.107 -10.599 -27.143  1.00  0.00     0.038 C 
ATOM      3  O   UNL     1      12.514  -9.509 -27.624  1.00  0.00    -0.550 OA
ATOM      4  O   UNL     1      11.247 -10.592 -26.052  1.00  0.00    -0.550 OA
ENDROOT
TORSDOF 0
ENDMDL
