MODEL 1
REMARK VINA RESULT:    -8.693      0.000      0.000
REMARK INTER + INTRA:         -13.140
REMARK INTER:                 -12.251
REMARK INTRA:                  -0.889
REMARK UNBOUND:                -0.889
REMARK SMILES COc1c(O[C@H]2O[C@H](C(=O)[O-])[C@@H](O)[C@@H](O)[C@H]2O)cc(O)c2c(=O)cc(-c3ccccc3)oc12
REMARK SMILES IDX 5 1 6 2 8 3 12 4 7 5 14 6 16 7 9 8 10 9 11 10 13 11 15 13
REMARK SMILES IDX 17 15 4 17 3 18 18 19 33 20 19 21 21 22 32 23 22 24 25 25
REMARK SMILES IDX 24 26 23 27 2 28 1 29 20 30 26 32 27 33 31 34 28 35 30 36
REMARK SMILES IDX 29 37
REMARK H PARENT 13 12 15 14 17 16 20 31
REMARK Flexibility Score: inf
ROOT
ATOM      1  O   UNL     1       2.680 -46.729 -38.258  1.00  0.00    -0.458 OA
ENDROOT
BRANCH   1   2
ATOM      2  C   UNL     1       2.658 -45.910 -39.434  1.00  0.00     0.339 C 
ATOM      3  C   UNL     1       3.822 -44.201 -40.591  1.00  0.00     0.199 C 
ATOM      4  C   UNL     1       2.764 -44.416 -41.716  1.00  0.00     0.180 C 
ATOM      5  O   UNL     1       3.889 -45.234 -39.613  1.00  0.00    -0.328 OA
ATOM      6  C   UNL     1       2.567 -45.917 -41.997  1.00  0.00     0.181 C 
ATOM      7  C   UNL     1       2.210 -46.690 -40.698  1.00  0.00     0.214 C 
BRANCH   3   8
ATOM      8  C   UNL     1       3.645 -42.871 -39.912  1.00  0.00     0.073 C 
ATOM      9  O   UNL     1       3.045 -41.929 -40.497  1.00  0.00    -0.547 OA
ATOM     10  O   UNL     1       4.125 -42.678 -38.621  1.00  0.00    -0.547 OA
ENDBRANCH   3   8
BRANCH   4  11
ATOM     11  O   UNL     1       3.160 -43.763 -42.895  1.00  0.00    -0.387 OA
ATOM     12  H   UNL     1       2.807 -44.302 -43.651  1.00  0.00     0.211 HD
ENDBRANCH   4  11
BRANCH   6  13
ATOM     13  O   UNL     1       3.695 -46.458 -42.646  1.00  0.00    -0.387 OA
ATOM     14  H   UNL     1       4.384 -45.751 -42.702  1.00  0.00     0.211 HD
ENDBRANCH   6  13
BRANCH   7  15
ATOM     15  O   UNL     1       2.748 -47.987 -40.718  1.00  0.00    -0.384 OA
ATOM     16  H   UNL     1       3.136 -48.122 -41.624  1.00  0.00     0.211 HD
ENDBRANCH   7  15
ENDBRANCH   1   2
BRANCH   1  17
ATOM     17  C   UNL     1       1.822 -46.773 -37.135  1.00  0.00     0.172 A 
ATOM     18  C   UNL     1       0.785 -45.845 -36.849  1.00  0.00     0.205 A 
ATOM     19  C   UNL     1       2.033 -47.851 -36.272  1.00  0.00     0.097 A 
ATOM     20  C   UNL     1       0.021 -46.006 -35.662  1.00  0.00     0.188 A 
ATOM     21  C   UNL     1       1.278 -48.024 -35.111  1.00  0.00     0.134 A 
ATOM     22  C   UNL     1       0.268 -47.097 -34.790  1.00  0.00     0.111 A 
ATOM     23  O   UNL     1      -0.929 -45.126 -35.354  1.00  0.00    -0.452 OA
ATOM     24  C   UNL     1      -0.529 -47.214 -33.630  1.00  0.00     0.197 A 
ATOM     25  C   UNL     1      -1.687 -45.199 -34.265  1.00  0.00     0.138 A 
ATOM     26  C   UNL     1      -1.511 -46.262 -33.372  1.00  0.00     0.100 A 
ATOM     27  O   UNL     1      -0.377 -48.169 -32.821  1.00  0.00    -0.289 OA
BRANCH  18  28
ATOM     28  O   UNL     1       0.541 -44.797 -37.751  1.00  0.00    -0.490 OA
ATOM     29  C   UNL     1       0.846 -43.420 -37.556  1.00  0.00     0.278 C 
ENDBRANCH  18  28
BRANCH  21  30
ATOM     30  O   UNL     1       1.538 -49.121 -34.289  1.00  0.00    -0.507 OA
ATOM     31  H   UNL     1       1.778 -50.030 -34.670  1.00  0.00     0.293 HD
ENDBRANCH  21  30
BRANCH  25  32
ATOM     32  C   UNL     1      -2.709 -44.152 -34.026  1.00  0.00     0.017 A 
ATOM     33  C   UNL     1      -2.712 -42.990 -34.818  1.00  0.00     0.012 A 
ATOM     34  C   UNL     1      -3.666 -44.279 -32.999  1.00  0.00     0.012 A 
ATOM     35  C   UNL     1      -3.657 -41.983 -34.595  1.00  0.00     0.001 A 
ATOM     36  C   UNL     1      -4.608 -43.268 -32.781  1.00  0.00     0.001 A 
ATOM     37  C   UNL     1      -4.603 -42.122 -33.578  1.00  0.00     0.000 A 
ENDBRANCH  25  32
ENDBRANCH   1  17
TORSDOF 9
ENDMDL
MODEL 2
REMARK VINA RESULT:    -8.370      2.559      7.895
REMARK INTER + INTRA:         -12.685
REMARK INTER:                 -11.684
REMARK INTRA:                  -1.000
REMARK UNBOUND:                -0.889
REMARK SMILES COc1c(O[C@H]2O[C@H](C(=O)[O-])[C@@H](O)[C@@H](O)[C@H]2O)cc(O)c2c(=O)cc(-c3ccccc3)oc12
REMARK SMILES IDX 5 1 6 2 8 3 12 4 7 5 14 6 16 7 9 8 10 9 11 10 13 11 15 13
REMARK SMILES IDX 17 15 4 17 3 18 18 19 33 20 19 21 21 22 32 23 22 24 25 25
REMARK SMILES IDX 24 26 23 27 2 28 1 29 20 30 26 32 27 33 31 34 28 35 30 36
REMARK SMILES IDX 29 37
REMARK H PARENT 13 12 15 14 17 16 20 31
REMARK Flexibility Score: inf
ROOT
ATOM      1  O   UNL     1      -1.050 -43.970 -33.150  1.00  0.00    -0.458 OA
ENDROOT
BRANCH   1   2
ATOM      2  C   UNL     1      -2.168 -43.076 -33.238  1.00  0.00     0.339 C 
ATOM      3  C   UNL     1      -3.679 -42.052 -34.748  1.00  0.00     0.199 C 
ATOM      4  C   UNL     1      -4.382 -41.497 -33.472  1.00  0.00     0.180 C 
ATOM      5  O   UNL     1      -2.760 -43.116 -34.523  1.00  0.00    -0.328 OA
ATOM      6  C   UNL     1      -4.553 -42.608 -32.419  1.00  0.00     0.181 C 
ATOM      7  C   UNL     1      -3.194 -43.289 -32.094  1.00  0.00     0.214 C 
BRANCH   3   8
ATOM      8  C   UNL     1      -3.005 -40.957 -35.528  1.00  0.00     0.073 C 
ATOM      9  O   UNL     1      -2.767 -39.842 -34.991  1.00  0.00    -0.547 OA
ATOM     10  O   UNL     1      -2.621 -41.176 -36.847  1.00  0.00    -0.547 OA
ENDBRANCH   3   8
BRANCH   4  11
ATOM     11  O   UNL     1      -5.637 -40.958 -33.796  1.00  0.00    -0.387 OA
ATOM     12  H   UNL     1      -5.981 -40.521 -32.974  1.00  0.00     0.211 HD
ENDBRANCH   4  11
BRANCH   6  13
ATOM     13  O   UNL     1      -5.530 -43.539 -32.825  1.00  0.00    -0.387 OA
ATOM     14  H   UNL     1      -5.084 -44.229 -33.376  1.00  0.00     0.211 HD
ENDBRANCH   6  13
BRANCH   7  15
ATOM     15  O   UNL     1      -3.368 -44.652 -31.807  1.00  0.00    -0.384 OA
ATOM     16  H   UNL     1      -2.993 -45.157 -32.577  1.00  0.00     0.211 HD
ENDBRANCH   7  15
ENDBRANCH   1   2
BRANCH   1  17
ATOM     17  C   UNL     1      -0.560 -44.942 -34.052  1.00  0.00     0.172 A 
ATOM     18  C   UNL     1      -0.193 -44.706 -35.404  1.00  0.00     0.205 A 
ATOM     19  C   UNL     1      -0.415 -46.224 -33.518  1.00  0.00     0.097 A 
ATOM     20  C   UNL     1       0.260 -45.794 -36.199  1.00  0.00     0.188 A 
ATOM     21  C   UNL     1       0.043 -47.295 -34.286  1.00  0.00     0.134 A 
ATOM     22  C   UNL     1       0.377 -47.092 -35.639  1.00  0.00     0.111 A 
ATOM     23  O   UNL     1       0.570 -45.603 -37.478  1.00  0.00    -0.452 OA
ATOM     24  C   UNL     1       0.844 -48.133 -36.471  1.00  0.00     0.197 A 
ATOM     25  C   UNL     1       0.999 -46.563 -38.291  1.00  0.00     0.138 A 
ATOM     26  C   UNL     1       1.158 -47.863 -37.799  1.00  0.00     0.100 A 
ATOM     27  O   UNL     1       0.992 -49.307 -36.035  1.00  0.00    -0.289 OA
BRANCH  18  28
ATOM     28  O   UNL     1      -0.286 -43.402 -35.918  1.00  0.00    -0.490 OA
ATOM     29  C   UNL     1       0.630 -42.335 -35.699  1.00  0.00     0.278 C 
ENDBRANCH  18  28
BRANCH  21  30
ATOM     30  O   UNL     1       0.164 -48.554 -33.695  1.00  0.00    -0.507 OA
ATOM     31  H   UNL     1       0.748 -48.707 -32.880  1.00  0.00     0.293 HD
ENDBRANCH  21  30
BRANCH  25  32
ATOM     32  C   UNL     1       1.305 -46.229 -39.703  1.00  0.00     0.017 A 
ATOM     33  C   UNL     1       0.860 -47.078 -40.731  1.00  0.00     0.012 A 
ATOM     34  C   UNL     1       2.062 -45.089 -40.041  1.00  0.00     0.012 A 
ATOM     35  C   UNL     1       1.154 -46.789 -42.068  1.00  0.00     0.001 A 
ATOM     36  C   UNL     1       2.355 -44.805 -41.380  1.00  0.00     0.001 A 
ATOM     37  C   UNL     1       1.902 -45.654 -42.391  1.00  0.00     0.000 A 
ENDBRANCH  25  32
ENDBRANCH   1  17
TORSDOF 9
ENDMDL
MODEL 3
REMARK VINA RESULT:    -8.342      2.864      7.993
REMARK INTER + INTRA:         -12.644
REMARK INTER:                 -11.312
REMARK INTRA:                  -1.332
REMARK UNBOUND:                -0.889
REMARK SMILES COc1c(O[C@H]2O[C@H](C(=O)[O-])[C@@H](O)[C@@H](O)[C@H]2O)cc(O)c2c(=O)cc(-c3ccccc3)oc12
REMARK SMILES IDX 5 1 6 2 8 3 12 4 7 5 14 6 16 7 9 8 10 9 11 10 13 11 15 13
REMARK SMILES IDX 17 15 4 17 3 18 18 19 33 20 19 21 21 22 32 23 22 24 25 25
REMARK SMILES IDX 24 26 23 27 2 28 1 29 20 30 26 32 27 33 31 34 28 35 30 36
REMARK SMILES IDX 29 37
REMARK H PARENT 13 12 15 14 17 16 20 31
REMARK Flexibility Score: inf
ROOT
ATOM      1  O   UNL     1      -2.489 -44.473 -34.008  1.00  0.00    -0.458 OA
ENDROOT
BRANCH   1   2
ATOM      2  C   UNL     1      -2.373 -43.074 -33.719  1.00  0.00     0.339 C 
ATOM      3  C   UNL     1      -3.067 -40.918 -34.414  1.00  0.00     0.199 C 
ATOM      4  C   UNL     1      -2.316 -40.406 -33.147  1.00  0.00     0.180 C 
ATOM      5  O   UNL     1      -3.325 -42.318 -34.444  1.00  0.00    -0.328 OA
ATOM      6  C   UNL     1      -2.668 -41.269 -31.921  1.00  0.00     0.181 C 
ATOM      7  C   UNL     1      -2.398 -42.774 -32.197  1.00  0.00     0.214 C 
BRANCH   3   8
ATOM      8  C   UNL     1      -2.363 -40.504 -35.677  1.00  0.00     0.073 C 
ATOM      9  O   UNL     1      -1.567 -39.527 -35.676  1.00  0.00    -0.547 OA
ATOM     10  O   UNL     1      -2.572 -41.214 -36.855  1.00  0.00    -0.547 OA
ENDBRANCH   3   8
BRANCH   4  11
ATOM     11  O   UNL     1      -2.645 -39.065 -32.889  1.00  0.00    -0.387 OA
ATOM     12  H   UNL     1      -2.424 -38.896 -31.935  1.00  0.00     0.211 HD
ENDBRANCH   4  11
BRANCH   6  13
ATOM     13  O   UNL     1      -3.994 -41.034 -31.505  1.00  0.00    -0.387 OA
ATOM     14  H   UNL     1      -4.181 -40.069 -31.612  1.00  0.00     0.211 HD
ENDBRANCH   6  13
BRANCH   7  15
ATOM     15  O   UNL     1      -3.329 -43.585 -31.529  1.00  0.00    -0.384 OA
ATOM     16  H   UNL     1      -3.951 -43.937 -32.221  1.00  0.00     0.211 HD
ENDBRANCH   7  15
ENDBRANCH   1   2
BRANCH   1  17
ATOM     17  C   UNL     1      -1.508 -45.455 -34.279  1.00  0.00     0.172 A 
ATOM     18  C   UNL     1      -0.692 -45.511 -35.440  1.00  0.00     0.205 A 
ATOM     19  C   UNL     1      -1.344 -46.418 -33.280  1.00  0.00     0.097 A 
ATOM     20  C   UNL     1       0.234 -46.579 -35.585  1.00  0.00     0.188 A 
ATOM     21  C   UNL     1      -0.428 -47.462 -33.407  1.00  0.00     0.134 A 
ATOM     22  C   UNL     1       0.366 -47.558 -34.566  1.00  0.00     0.111 A 
ATOM     23  O   UNL     1       0.979 -46.674 -36.683  1.00  0.00    -0.452 OA
ATOM     24  C   UNL     1       1.311 -48.590 -34.757  1.00  0.00     0.197 A 
ATOM     25  C   UNL     1       1.867 -47.640 -36.899  1.00  0.00     0.138 A 
ATOM     26  C   UNL     1       2.063 -48.626 -35.926  1.00  0.00     0.100 A 
ATOM     27  O   UNL     1       1.495 -49.483 -33.885  1.00  0.00    -0.289 OA
BRANCH  18  28
ATOM     28  O   UNL     1      -0.822 -44.507 -36.414  1.00  0.00    -0.490 OA
ATOM     29  C   UNL     1       0.075 -43.426 -36.644  1.00  0.00     0.278 C 
ENDBRANCH  18  28
BRANCH  21  30
ATOM     30  O   UNL     1      -0.312 -48.394 -32.375  1.00  0.00    -0.507 OA
ATOM     31  H   UNL     1      -0.802 -49.282 -32.399  1.00  0.00     0.293 HD
ENDBRANCH  21  30
BRANCH  25  32
ATOM     32  C   UNL     1       2.633 -47.643 -38.168  1.00  0.00     0.017 A 
ATOM     33  C   UNL     1       2.549 -46.538 -39.034  1.00  0.00     0.012 A 
ATOM     34  C   UNL     1       3.426 -48.746 -38.545  1.00  0.00     0.012 A 
ATOM     35  C   UNL     1       3.252 -46.531 -40.244  1.00  0.00     0.001 A 
ATOM     36  C   UNL     1       4.125 -48.733 -39.758  1.00  0.00     0.001 A 
ATOM     37  C   UNL     1       4.037 -47.627 -40.605  1.00  0.00     0.000 A 
ENDBRANCH  25  32
ENDBRANCH   1  17
TORSDOF 9
ENDMDL
MODEL 4
REMARK VINA RESULT:    -8.310      2.211      4.588
REMARK INTER + INTRA:         -12.599
REMARK INTER:                 -11.421
REMARK INTRA:                  -1.179
REMARK UNBOUND:                -0.889
REMARK SMILES COc1c(O[C@H]2O[C@H](C(=O)[O-])[C@@H](O)[C@@H](O)[C@H]2O)cc(O)c2c(=O)cc(-c3ccccc3)oc12
REMARK SMILES IDX 5 1 6 2 8 3 12 4 7 5 14 6 16 7 9 8 10 9 11 10 13 11 15 13
REMARK SMILES IDX 17 15 4 17 3 18 18 19 33 20 19 21 21 22 32 23 22 24 25 25
REMARK SMILES IDX 24 26 23 27 2 28 1 29 20 30 26 32 27 33 31 34 28 35 30 36
REMARK SMILES IDX 29 37
REMARK H PARENT 13 12 15 14 17 16 20 31
REMARK Flexibility Score: inf
ROOT
ATOM      1  O   UNL     1       0.756 -46.553 -39.076  1.00  0.00    -0.458 OA
ENDROOT
BRANCH   1   2
ATOM      2  C   UNL     1       1.390 -45.660 -40.002  1.00  0.00     0.339 C 
ATOM      3  C   UNL     1       3.242 -44.212 -40.293  1.00  0.00     0.199 C 
ATOM      4  C   UNL     1       2.731 -44.058 -41.758  1.00  0.00     0.180 C 
ATOM      5  O   UNL     1       2.690 -45.306 -39.567  1.00  0.00    -0.328 OA
ATOM      6  C   UNL     1       2.378 -45.431 -42.357  1.00  0.00     0.181 C 
ATOM      7  C   UNL     1       1.366 -46.194 -41.458  1.00  0.00     0.214 C 
BRANCH   3   8
ATOM      8  C   UNL     1       3.063 -42.942 -39.509  1.00  0.00     0.073 C 
ATOM      9  O   UNL     1       2.964 -42.973 -38.253  1.00  0.00    -0.547 OA
ATOM     10  O   UNL     1       3.027 -41.716 -40.166  1.00  0.00    -0.547 OA
ENDBRANCH   3   8
BRANCH   4  11
ATOM     11  O   UNL     1       3.703 -43.431 -42.554  1.00  0.00    -0.387 OA
ATOM     12  H   UNL     1       3.219 -42.803 -43.153  1.00  0.00     0.211 HD
ENDBRANCH   4  11
BRANCH   6  13
ATOM     13  O   UNL     1       3.542 -46.185 -42.606  1.00  0.00    -0.387 OA
ATOM     14  H   UNL     1       3.877 -45.942 -43.505  1.00  0.00     0.211 HD
ENDBRANCH   6  13
BRANCH   7  15
ATOM     15  O   UNL     1       1.596 -47.579 -41.501  1.00  0.00    -0.384 OA
ATOM     16  H   UNL     1       2.438 -47.745 -40.999  1.00  0.00     0.211 HD
ENDBRANCH   7  15
ENDBRANCH   1   2
BRANCH   1  17
ATOM     17  C   UNL     1       0.499 -46.434 -37.691  1.00  0.00     0.172 A 
ATOM     18  C   UNL     1       1.243 -47.056 -36.654  1.00  0.00     0.205 A 
ATOM     19  C   UNL     1      -0.574 -45.602 -37.359  1.00  0.00     0.097 A 
ATOM     20  C   UNL     1       0.845 -46.862 -35.304  1.00  0.00     0.188 A 
ATOM     21  C   UNL     1      -0.964 -45.395 -36.036  1.00  0.00     0.134 A 
ATOM     22  C   UNL     1      -0.262 -46.031 -34.993  1.00  0.00     0.111 A 
ATOM     23  O   UNL     1       1.504 -47.468 -34.320  1.00  0.00    -0.452 OA
ATOM     24  C   UNL     1      -0.606 -45.865 -33.634  1.00  0.00     0.197 A 
ATOM     25  C   UNL     1       1.198 -47.344 -33.032  1.00  0.00     0.138 A 
ATOM     26  C   UNL     1       0.130 -46.523 -32.653  1.00  0.00     0.100 A 
ATOM     27  O   UNL     1      -1.566 -45.126 -33.284  1.00  0.00    -0.289 OA
BRANCH  18  28
ATOM     28  O   UNL     1       2.356 -47.843 -36.993  1.00  0.00    -0.490 OA
ATOM     29  C   UNL     1       3.640 -47.374 -37.388  1.00  0.00     0.278 C 
ENDBRANCH  18  28
BRANCH  21  30
ATOM     30  O   UNL     1      -2.045 -44.555 -35.768  1.00  0.00    -0.507 OA
ATOM     31  H   UNL     1      -2.731 -44.777 -35.055  1.00  0.00     0.293 HD
ENDBRANCH  21  30
BRANCH  25  32
ATOM     32  C   UNL     1       2.002 -48.078 -32.026  1.00  0.00     0.017 A 
ATOM     33  C   UNL     1       1.393 -48.525 -30.840  1.00  0.00     0.012 A 
ATOM     34  C   UNL     1       3.379 -48.313 -32.215  1.00  0.00     0.012 A 
ATOM     35  C   UNL     1       2.141 -49.203 -29.871  1.00  0.00     0.001 A 
ATOM     36  C   UNL     1       4.122 -48.991 -31.242  1.00  0.00     0.001 A 
ATOM     37  C   UNL     1       3.503 -49.434 -30.071  1.00  0.00     0.000 A 
ENDBRANCH  25  32
ENDBRANCH   1  17
TORSDOF 9
ENDMDL
MODEL 5
REMARK VINA RESULT:    -8.295      3.047      8.821
REMARK INTER + INTRA:         -12.579
REMARK INTER:                 -11.575
REMARK INTRA:                  -1.004
REMARK UNBOUND:                -0.889
REMARK SMILES COc1c(O[C@H]2O[C@H](C(=O)[O-])[C@@H](O)[C@@H](O)[C@H]2O)cc(O)c2c(=O)cc(-c3ccccc3)oc12
REMARK SMILES IDX 5 1 6 2 8 3 12 4 7 5 14 6 16 7 9 8 10 9 11 10 13 11 15 13
REMARK SMILES IDX 17 15 4 17 3 18 18 19 33 20 19 21 21 22 32 23 22 24 25 25
REMARK SMILES IDX 24 26 23 27 2 28 1 29 20 30 26 32 27 33 31 34 28 35 30 36
REMARK SMILES IDX 29 37
REMARK H PARENT 13 12 15 14 17 16 20 31
REMARK Flexibility Score: inf
ROOT
ATOM      1  O   UNL     1      -1.288 -42.636 -33.241  1.00  0.00    -0.458 OA
ENDROOT
BRANCH   1   2
ATOM      2  C   UNL     1      -2.482 -42.385 -32.489  1.00  0.00     0.339 C 
ATOM      3  C   UNL     1      -4.720 -43.095 -32.170  1.00  0.00     0.199 C 
ATOM      4  C   UNL     1      -4.747 -42.065 -31.000  1.00  0.00     0.180 C 
ATOM      5  O   UNL     1      -3.424 -43.429 -32.657  1.00  0.00    -0.328 OA
ATOM      6  C   UNL     1      -3.480 -42.193 -30.134  1.00  0.00     0.181 C 
ATOM      7  C   UNL     1      -2.194 -42.069 -30.998  1.00  0.00     0.214 C 
BRANCH   3   8
ATOM      8  C   UNL     1      -5.594 -42.657 -33.312  1.00  0.00     0.073 C 
ATOM      9  O   UNL     1      -5.960 -41.455 -33.414  1.00  0.00    -0.547 OA
ATOM     10  O   UNL     1      -5.989 -43.575 -34.279  1.00  0.00    -0.547 OA
ENDBRANCH   3   8
BRANCH   4  11
ATOM     11  O   UNL     1      -5.885 -42.258 -30.200  1.00  0.00    -0.387 OA
ATOM     12  H   UNL     1      -6.558 -41.590 -30.496  1.00  0.00     0.211 HD
ENDBRANCH   4  11
BRANCH   6  13
ATOM     13  O   UNL     1      -3.503 -43.385 -29.383  1.00  0.00    -0.387 OA
ATOM     14  H   UNL     1      -3.473 -44.145 -30.015  1.00  0.00     0.211 HD
ENDBRANCH   6  13
BRANCH   7  15
ATOM     15  O   UNL     1      -1.165 -42.878 -30.491  1.00  0.00    -0.384 OA
ATOM     16  H   UNL     1      -0.449 -42.897 -31.180  1.00  0.00     0.211 HD
ENDBRANCH   7  15
ENDBRANCH   1   2
BRANCH   1  17
ATOM     17  C   UNL     1      -0.831 -43.794 -33.911  1.00  0.00     0.172 A 
ATOM     18  C   UNL     1      -0.456 -43.864 -35.279  1.00  0.00     0.205 A 
ATOM     19  C   UNL     1      -0.733 -44.937 -33.115  1.00  0.00     0.097 A 
ATOM     20  C   UNL     1      -0.041 -45.112 -35.820  1.00  0.00     0.188 A 
ATOM     21  C   UNL     1      -0.314 -46.163 -33.634  1.00  0.00     0.134 A 
ATOM     22  C   UNL     1       0.029 -46.264 -34.996  1.00  0.00     0.111 A 
ATOM     23  O   UNL     1       0.277 -45.209 -37.108  1.00  0.00    -0.452 OA
ATOM     24  C   UNL     1       0.458 -47.474 -35.583  1.00  0.00     0.197 A 
ATOM     25  C   UNL     1       0.671 -46.335 -37.695  1.00  0.00     0.138 A 
ATOM     26  C   UNL     1       0.783 -47.505 -36.936  1.00  0.00     0.100 A 
ATOM     27  O   UNL     1       0.563 -48.533 -34.906  1.00  0.00    -0.289 OA
BRANCH  18  28
ATOM     28  O   UNL     1      -0.501 -42.697 -36.060  1.00  0.00    -0.490 OA
ATOM     29  C   UNL     1       0.538 -41.738 -36.214  1.00  0.00     0.278 C 
ENDBRANCH  18  28
BRANCH  21  30
ATOM     30  O   UNL     1      -0.239 -47.270 -32.787  1.00  0.00    -0.507 OA
ATOM     31  H   UNL     1      -0.897 -48.039 -32.853  1.00  0.00     0.293 HD
ENDBRANCH  21  30
BRANCH  25  32
ATOM     32  C   UNL     1       0.990 -46.320 -39.142  1.00  0.00     0.017 A 
ATOM     33  C   UNL     1       0.428 -47.292 -39.988  1.00  0.00     0.012 A 
ATOM     34  C   UNL     1       1.873 -45.368 -39.691  1.00  0.00     0.012 A 
ATOM     35  C   UNL     1       0.732 -47.305 -41.354  1.00  0.00     0.001 A 
ATOM     36  C   UNL     1       2.174 -45.386 -41.058  1.00  0.00     0.001 A 
ATOM     37  C   UNL     1       1.604 -46.354 -41.887  1.00  0.00     0.000 A 
ENDBRANCH  25  32
ENDBRANCH   1  17
TORSDOF 9
ENDMDL
MODEL 6
REMARK VINA RESULT:    -8.255      3.281      8.979
REMARK INTER + INTRA:         -12.522
REMARK INTER:                 -11.314
REMARK INTRA:                  -1.208
REMARK UNBOUND:                -0.889
REMARK SMILES COc1c(O[C@H]2O[C@H](C(=O)[O-])[C@@H](O)[C@@H](O)[C@H]2O)cc(O)c2c(=O)cc(-c3ccccc3)oc12
REMARK SMILES IDX 5 1 6 2 8 3 12 4 7 5 14 6 16 7 9 8 10 9 11 10 13 11 15 13
REMARK SMILES IDX 17 15 4 17 3 18 18 19 33 20 19 21 21 22 32 23 22 24 25 25
REMARK SMILES IDX 24 26 23 27 2 28 1 29 20 30 26 32 27 33 31 34 28 35 30 36
REMARK SMILES IDX 29 37
REMARK H PARENT 13 12 15 14 17 16 20 31
REMARK Flexibility Score: inf
ROOT
ATOM      1  O   UNL     1      -2.248 -42.671 -33.888  1.00  0.00    -0.458 OA
ENDROOT
BRANCH   1   2
ATOM      2  C   UNL     1      -3.260 -42.435 -32.901  1.00  0.00     0.339 C 
ATOM      3  C   UNL     1      -3.673 -41.435 -30.793  1.00  0.00     0.199 C 
ATOM      4  C   UNL     1      -5.163 -41.823 -31.042  1.00  0.00     0.180 C 
ATOM      5  O   UNL     1      -2.830 -41.489 -31.940  1.00  0.00    -0.328 OA
ATOM      6  C   UNL     1      -5.589 -41.450 -32.474  1.00  0.00     0.181 C 
ATOM      7  C   UNL     1      -4.634 -42.078 -33.527  1.00  0.00     0.214 C 
BRANCH   3   8
ATOM      8  C   UNL     1      -3.070 -42.248 -29.681  1.00  0.00     0.073 C 
ATOM      9  O   UNL     1      -3.806 -42.837 -28.846  1.00  0.00    -0.547 OA
ATOM     10  O   UNL     1      -1.688 -42.371 -29.580  1.00  0.00    -0.547 OA
ENDBRANCH   3   8
BRANCH   4  11
ATOM     11  O   UNL     1      -6.000 -41.178 -30.118  1.00  0.00    -0.387 OA
ATOM     12  H   UNL     1      -6.794 -40.861 -30.625  1.00  0.00     0.211 HD
ENDBRANCH   4  11
BRANCH   6  13
ATOM     13  O   UNL     1      -5.695 -40.052 -32.619  1.00  0.00    -0.387 OA
ATOM     14  H   UNL     1      -6.267 -39.712 -31.886  1.00  0.00     0.211 HD
ENDBRANCH   6  13
BRANCH   7  15
ATOM     15  O   UNL     1      -4.486 -41.235 -34.640  1.00  0.00    -0.384 OA
ATOM     16  H   UNL     1      -3.603 -40.788 -34.547  1.00  0.00     0.211 HD
ENDBRANCH   7  15
ENDBRANCH   1   2
BRANCH   1  17
ATOM     17  C   UNL     1      -1.616 -43.863 -34.312  1.00  0.00     0.172 A 
ATOM     18  C   UNL     1      -0.919 -44.040 -35.537  1.00  0.00     0.205 A 
ATOM     19  C   UNL     1      -1.687 -44.924 -33.406  1.00  0.00     0.097 A 
ATOM     20  C   UNL     1      -0.357 -45.310 -35.836  1.00  0.00     0.188 A 
ATOM     21  C   UNL     1      -1.127 -46.171 -33.685  1.00  0.00     0.134 A 
ATOM     22  C   UNL     1      -0.462 -46.379 -34.909  1.00  0.00     0.111 A 
ATOM     23  O   UNL     1       0.265 -45.509 -36.995  1.00  0.00    -0.452 OA
ATOM     24  C   UNL     1       0.125 -47.616 -35.254  1.00  0.00     0.197 A 
ATOM     25  C   UNL     1       0.815 -46.664 -37.356  1.00  0.00     0.138 A 
ATOM     26  C   UNL     1       0.767 -47.754 -36.480  1.00  0.00     0.100 A 
ATOM     27  O   UNL     1       0.087 -48.603 -34.470  1.00  0.00    -0.289 OA
BRANCH  18  28
ATOM     28  O   UNL     1      -0.802 -42.952 -36.417  1.00  0.00    -0.490 OA
ATOM     29  C   UNL     1       0.219 -41.960 -36.411  1.00  0.00     0.278 C 
ENDBRANCH  18  28
BRANCH  21  30
ATOM     30  O   UNL     1      -1.233 -47.191 -32.740  1.00  0.00    -0.507 OA
ATOM     31  H   UNL     1      -2.113 -47.410 -32.285  1.00  0.00     0.293 HD
ENDBRANCH  21  30
BRANCH  25  32
ATOM     32  C   UNL     1       1.475 -46.766 -38.680  1.00  0.00     0.017 A 
ATOM     33  C   UNL     1       2.823 -46.392 -38.815  1.00  0.00     0.012 A 
ATOM     34  C   UNL     1       0.771 -47.203 -39.821  1.00  0.00     0.012 A 
ATOM     35  C   UNL     1       3.458 -46.464 -40.060  1.00  0.00     0.001 A 
ATOM     36  C   UNL     1       1.411 -47.272 -41.063  1.00  0.00     0.001 A 
ATOM     37  C   UNL     1       2.752 -46.903 -41.182  1.00  0.00     0.000 A 
ENDBRANCH  25  32
ENDBRANCH   1  17
TORSDOF 9
ENDMDL
MODEL 7
REMARK VINA RESULT:    -8.126      2.987      8.703
REMARK INTER + INTRA:         -12.340
REMARK INTER:                 -11.089
REMARK INTRA:                  -1.251
REMARK UNBOUND:                -0.889
REMARK SMILES COc1c(O[C@H]2O[C@H](C(=O)[O-])[C@@H](O)[C@@H](O)[C@H]2O)cc(O)c2c(=O)cc(-c3ccccc3)oc12
REMARK SMILES IDX 5 1 6 2 8 3 12 4 7 5 14 6 16 7 9 8 10 9 11 10 13 11 15 13
REMARK SMILES IDX 17 15 4 17 3 18 18 19 33 20 19 21 21 22 32 23 22 24 25 25
REMARK SMILES IDX 24 26 23 27 2 28 1 29 20 30 26 32 27 33 31 34 28 35 30 36
REMARK SMILES IDX 29 37
REMARK H PARENT 13 12 15 14 17 16 20 31
REMARK Flexibility Score: inf
ROOT
ATOM      1  O   UNL     1      -2.540 -43.900 -34.291  1.00  0.00    -0.458 OA
ENDROOT
BRANCH   1   2
ATOM      2  C   UNL     1      -3.120 -43.337 -33.108  1.00  0.00     0.339 C 
ATOM      3  C   UNL     1      -2.851 -41.647 -31.469  1.00  0.00     0.199 C 
ATOM      4  C   UNL     1      -4.238 -42.119 -30.936  1.00  0.00     0.180 C 
ATOM      5  O   UNL     1      -2.515 -42.101 -32.776  1.00  0.00    -0.328 OA
ATOM      6  C   UNL     1      -5.234 -42.295 -32.096  1.00  0.00     0.181 C 
ATOM      7  C   UNL     1      -4.667 -43.249 -33.185  1.00  0.00     0.214 C 
BRANCH   3   8
ATOM      8  C   UNL     1      -1.744 -41.993 -30.512  1.00  0.00     0.073 C 
ATOM      9  O   UNL     1      -2.003 -42.294 -29.316  1.00  0.00    -0.547 OA
ATOM     10  O   UNL     1      -0.423 -42.005 -30.949  1.00  0.00    -0.547 OA
ENDBRANCH   3   8
BRANCH   4  11
ATOM     11  O   UNL     1      -4.750 -41.194 -30.011  1.00  0.00    -0.387 OA
ATOM     12  H   UNL     1      -4.974 -41.706 -29.190  1.00  0.00     0.211 HD
ENDBRANCH   4  11
BRANCH   6  13
ATOM     13  O   UNL     1      -5.613 -41.047 -32.628  1.00  0.00    -0.387 OA
ATOM     14  H   UNL     1      -6.027 -41.204 -33.512  1.00  0.00     0.211 HD
ENDBRANCH   6  13
BRANCH   7  15
ATOM     15  O   UNL     1      -5.097 -42.865 -34.465  1.00  0.00    -0.384 OA
ATOM     16  H   UNL     1      -5.917 -43.390 -34.662  1.00  0.00     0.211 HD
ENDBRANCH   7  15
ENDBRANCH   1   2
BRANCH   1  17
ATOM     17  C   UNL     1      -1.610 -44.951 -34.466  1.00  0.00     0.172 A 
ATOM     18  C   UNL     1      -0.737 -45.107 -35.575  1.00  0.00     0.205 A 
ATOM     19  C   UNL     1      -1.562 -45.877 -33.422  1.00  0.00     0.097 A 
ATOM     20  C   UNL     1       0.127 -46.235 -35.623  1.00  0.00     0.188 A 
ATOM     21  C   UNL     1      -0.707 -46.980 -33.453  1.00  0.00     0.134 A 
ATOM     22  C   UNL     1       0.141 -47.174 -34.561  1.00  0.00     0.111 A 
ATOM     23  O   UNL     1       0.923 -46.422 -36.672  1.00  0.00    -0.452 OA
ATOM     24  C   UNL     1       1.027 -48.269 -34.655  1.00  0.00     0.197 A 
ATOM     25  C   UNL     1       1.758 -47.449 -36.799  1.00  0.00     0.138 A 
ATOM     26  C   UNL     1       1.839 -48.402 -35.777  1.00  0.00     0.100 A 
ATOM     27  O   UNL     1       1.107 -49.132 -33.739  1.00  0.00    -0.289 OA
BRANCH  18  28
ATOM     28  O   UNL     1      -0.750 -44.140 -36.594  1.00  0.00    -0.490 OA
ATOM     29  C   UNL     1      -0.029 -42.913 -36.609  1.00  0.00     0.278 C 
ENDBRANCH  18  28
BRANCH  21  30
ATOM     30  O   UNL     1      -0.707 -47.871 -32.380  1.00  0.00    -0.507 OA
ATOM     31  H   UNL     1      -0.190 -47.683 -31.528  1.00  0.00     0.293 HD
ENDBRANCH  21  30
BRANCH  25  32
ATOM     32  C   UNL     1       2.591 -47.554 -38.020  1.00  0.00     0.017 A 
ATOM     33  C   UNL     1       2.651 -46.472 -38.917  1.00  0.00     0.012 A 
ATOM     34  C   UNL     1       3.307 -48.730 -38.324  1.00  0.00     0.012 A 
ATOM     35  C   UNL     1       3.417 -46.560 -40.084  1.00  0.00     0.001 A 
ATOM     36  C   UNL     1       4.071 -48.812 -39.493  1.00  0.00     0.001 A 
ATOM     37  C   UNL     1       4.125 -47.728 -40.372  1.00  0.00     0.000 A 
ENDBRANCH  25  32
ENDBRANCH   1  17
TORSDOF 9
ENDMDL
MODEL 8
REMARK VINA RESULT:    -7.912      1.427      2.928
REMARK INTER + INTRA:         -12.039
REMARK INTER:                 -10.844
REMARK INTRA:                  -1.195
REMARK UNBOUND:                -0.889
REMARK SMILES COc1c(O[C@H]2O[C@H](C(=O)[O-])[C@@H](O)[C@@H](O)[C@H]2O)cc(O)c2c(=O)cc(-c3ccccc3)oc12
REMARK SMILES IDX 5 1 6 2 8 3 12 4 7 5 14 6 16 7 9 8 10 9 11 10 13 11 15 13
REMARK SMILES IDX 17 15 4 17 3 18 18 19 33 20 19 21 21 22 32 23 22 24 25 25
REMARK SMILES IDX 24 26 23 27 2 28 1 29 20 30 26 32 27 33 31 34 28 35 30 36
REMARK SMILES IDX 29 37
REMARK H PARENT 13 12 15 14 17 16 20 31
REMARK Flexibility Score: inf
ROOT
ATOM      1  O   UNL     1       1.490 -43.845 -38.357  1.00  0.00    -0.458 OA
ENDROOT
BRANCH   1   2
ATOM      2  C   UNL     1       2.195 -44.473 -39.435  1.00  0.00     0.339 C 
ATOM      3  C   UNL     1       1.992 -46.066 -41.178  1.00  0.00     0.199 C 
ATOM      4  C   UNL     1       3.424 -45.608 -41.592  1.00  0.00     0.180 C 
ATOM      5  O   UNL     1       1.315 -45.199 -40.272  1.00  0.00    -0.328 OA
ATOM      6  C   UNL     1       3.525 -44.071 -41.592  1.00  0.00     0.181 C 
ATOM      7  C   UNL     1       3.092 -43.480 -40.221  1.00  0.00     0.214 C 
BRANCH   3   8
ATOM      8  C   UNL     1       1.996 -47.467 -40.632  1.00  0.00     0.073 C 
ATOM      9  O   UNL     1       3.072 -48.116 -40.544  1.00  0.00    -0.547 OA
ATOM     10  O   UNL     1       0.809 -48.049 -40.201  1.00  0.00    -0.547 OA
ENDBRANCH   3   8
BRANCH   4  11
ATOM     11  O   UNL     1       3.748 -46.101 -42.866  1.00  0.00    -0.387 OA
ATOM     12  H   UNL     1       4.337 -46.889 -42.726  1.00  0.00     0.211 HD
ENDBRANCH   4  11
BRANCH   6  13
ATOM     13  O   UNL     1       2.795 -43.520 -42.663  1.00  0.00    -0.387 OA
ATOM     14  H   UNL     1       3.328 -43.639 -43.489  1.00  0.00     0.211 HD
ENDBRANCH   6  13
BRANCH   7  15
ATOM     15  O   UNL     1       2.460 -42.237 -40.385  1.00  0.00    -0.384 OA
ATOM     16  H   UNL     1       2.101 -42.218 -41.312  1.00  0.00     0.211 HD
ENDBRANCH   7  15
ENDBRANCH   1   2
BRANCH   1  17
ATOM     17  C   UNL     1       0.783 -44.390 -37.260  1.00  0.00     0.172 A 
ATOM     18  C   UNL     1      -0.226 -43.725 -36.513  1.00  0.00     0.205 A 
ATOM     19  C   UNL     1       1.121 -45.705 -36.935  1.00  0.00     0.097 A 
ATOM     20  C   UNL     1      -0.829 -44.396 -35.415  1.00  0.00     0.188 A 
ATOM     21  C   UNL     1       0.524 -46.377 -35.867  1.00  0.00     0.134 A 
ATOM     22  C   UNL     1      -0.453 -45.725 -35.091  1.00  0.00     0.111 A 
ATOM     23  O   UNL     1      -1.748 -43.778 -34.678  1.00  0.00    -0.452 OA
ATOM     24  C   UNL     1      -1.093 -46.347 -33.997  1.00  0.00     0.197 A 
ATOM     25  C   UNL     1      -2.359 -44.330 -33.634  1.00  0.00     0.138 A 
ATOM     26  C   UNL     1      -2.051 -45.646 -33.271  1.00  0.00     0.100 A 
ATOM     27  O   UNL     1      -0.823 -47.533 -33.664  1.00  0.00    -0.289 OA
BRANCH  18  28
ATOM     28  O   UNL     1      -0.601 -42.423 -36.883  1.00  0.00    -0.490 OA
ATOM     29  C   UNL     1      -0.053 -41.208 -36.387  1.00  0.00     0.278 C 
ENDBRANCH  18  28
BRANCH  21  30
ATOM     30  O   UNL     1       0.906 -47.690 -35.591  1.00  0.00    -0.507 OA
ATOM     31  H   UNL     1       0.499 -48.216 -34.825  1.00  0.00     0.293 HD
ENDBRANCH  21  30
BRANCH  25  32
ATOM     32  C   UNL     1      -3.361 -43.536 -32.883  1.00  0.00     0.017 A 
ATOM     33  C   UNL     1      -4.695 -43.503 -33.326  1.00  0.00     0.012 A 
ATOM     34  C   UNL     1      -3.001 -42.784 -31.747  1.00  0.00     0.012 A 
ATOM     35  C   UNL     1      -5.651 -42.745 -32.640  1.00  0.00     0.001 A 
ATOM     36  C   UNL     1      -3.961 -42.027 -31.066  1.00  0.00     0.001 A 
ATOM     37  C   UNL     1      -5.284 -42.008 -31.513  1.00  0.00     0.000 A 
ENDBRANCH  25  32
ENDBRANCH   1  17
TORSDOF 9
ENDMDL
