MODEL 1
REMARK VINA RESULT:    -2.339      0.000      0.000
REMARK INTER + INTRA:          -2.339
REMARK INTER:                  -2.339
REMARK INTRA:                   0.000
REMARK UNBOUND:                 0.000
REMARK SMILES CC(=O)[O-]
REMARK SMILES IDX 1 1 2 2 3 3 4 4
REMARK H PARENT
REMARK Flexibility Score: inf
ROOT
ATOM      1  C   UNL     1      19.419 -19.859  15.296  1.00  0.00     0.063 C 
ATOM      2  C   UNL     1      19.480 -18.369  15.335  1.00  0.00     0.038 C 
ATOM      3  O   UNL     1      19.417 -17.762  16.435  1.00  0.00    -0.550 OA
ATOM      4  O   UNL     1      19.662 -17.649  14.160  1.00  0.00    -0.550 OA
ENDROOT
TORSDOF 0
ENDMDL
MODEL 2
REMARK VINA RESULT:    -2.271     15.192     15.338
REMARK INTER + INTRA:          -2.271
REMARK INTER:                  -2.271
REMARK INTRA:                   0.000
REMARK UNBOUND:                 0.000
REMARK SMILES CC(=O)[O-]
REMARK SMILES IDX 1 1 2 2 3 3 4 4
REMARK H PARENT
REMARK Flexibility Score: inf
ROOT
ATOM      1  C   UNL     1      22.324 -28.493  26.535  1.00  0.00     0.063 C 
ATOM      2  C   UNL     1      21.466 -29.396  25.715  1.00  0.00     0.038 C 
ATOM      3  O   UNL     1      20.271 -29.608  26.049  1.00  0.00    -0.550 OA
ATOM      4  O   UNL     1      21.967 -29.964  24.550  1.00  0.00    -0.550 OA
ENDROOT
TORSDOF 0
ENDMDL
MODEL 3
REMARK VINA RESULT:    -2.216     16.560     16.811
REMARK INTER + INTRA:          -2.216
REMARK INTER:                  -2.216
REMARK INTRA:                   0.000
REMARK UNBOUND:                 0.000
REMARK SMILES CC(=O)[O-]
REMARK SMILES IDX 1 1 2 2 3 3 4 4
REMARK H PARENT
REMARK Flexibility Score: inf
ROOT
ATOM      1  C   UNL     1      22.708 -21.488  32.164  1.00  0.00     0.063 C 
ATOM      2  C   UNL     1      23.724 -20.782  31.330  1.00  0.00     0.038 C 
ATOM      3  O   UNL     1      23.888 -19.540  31.450  1.00  0.00    -0.550 OA
ATOM      4  O   UNL     1      24.529 -21.502  30.456  1.00  0.00    -0.550 OA
ENDROOT
TORSDOF 0
ENDMDL
MODEL 4
REMARK VINA RESULT:    -2.214      1.338      2.132
REMARK INTER + INTRA:          -2.214
REMARK INTER:                  -2.214
REMARK INTRA:                   0.000
REMARK UNBOUND:                 0.000
REMARK SMILES CC(=O)[O-]
REMARK SMILES IDX 1 1 2 2 3 3 4 4
REMARK H PARENT
REMARK Flexibility Score: inf
ROOT
ATOM      1  C   UNL     1      19.400 -17.339  16.630  1.00  0.00     0.063 C 
ATOM      2  C   UNL     1      19.475 -18.140  15.374  1.00  0.00     0.038 C 
ATOM      3  O   UNL     1      19.641 -17.567  14.267  1.00  0.00    -0.550 OA
ATOM      4  O   UNL     1      19.416 -19.528  15.430  1.00  0.00    -0.550 OA
ENDROOT
TORSDOF 0
ENDMDL
MODEL 5
REMARK VINA RESULT:    -2.156     10.183     10.762
REMARK INTER + INTRA:          -2.156
REMARK INTER:                  -2.156
REMARK INTRA:                   0.000
REMARK UNBOUND:                 0.000
REMARK SMILES CC(=O)[O-]
REMARK SMILES IDX 1 1 2 2 3 3 4 4
REMARK H PARENT
REMARK Flexibility Score: inf
ROOT
ATOM      1  C   UNL     1      13.385 -23.136  20.376  1.00  0.00     0.063 C 
ATOM      2  C   UNL     1      12.998 -24.388  21.088  1.00  0.00     0.038 C 
ATOM      3  O   UNL     1      13.465 -25.496  20.717  1.00  0.00    -0.550 OA
ATOM      4  O   UNL     1      12.163 -24.329  22.197  1.00  0.00    -0.550 OA
ENDROOT
TORSDOF 0
ENDMDL
MODEL 6
REMARK VINA RESULT:    -2.064      2.858      3.059
REMARK INTER + INTRA:          -2.064
REMARK INTER:                  -2.064
REMARK INTRA:                   0.000
REMARK UNBOUND:                 0.000
REMARK SMILES CC(=O)[O-]
REMARK SMILES IDX 1 1 2 2 3 3 4 4
REMARK H PARENT
REMARK Flexibility Score: inf
ROOT
ATOM      1  C   UNL     1      19.397 -19.242  15.428  1.00  0.00     0.063 C 
ATOM      2  C   UNL     1      19.482 -20.712  15.192  1.00  0.00     0.038 C 
ATOM      3  O   UNL     1      20.570 -21.319  15.371  1.00  0.00    -0.550 OA
ATOM      4  O   UNL     1      18.347 -21.425  14.825  1.00  0.00    -0.550 OA
ENDROOT
TORSDOF 0
ENDMDL
MODEL 7
REMARK VINA RESULT:    -2.034     17.558     17.870
REMARK INTER + INTRA:          -2.034
REMARK INTER:                  -2.034
REMARK INTRA:                   0.000
REMARK UNBOUND:                 0.000
REMARK SMILES CC(=O)[O-]
REMARK SMILES IDX 1 1 2 2 3 3 4 4
REMARK H PARENT
REMARK Flexibility Score: inf
ROOT
ATOM      1  C   UNL     1      21.596 -22.159  32.451  1.00  0.00     0.063 C 
ATOM      2  C   UNL     1      20.345 -22.971  32.447  1.00  0.00     0.038 C 
ATOM      3  O   UNL     1      19.242 -22.432  32.173  1.00  0.00    -0.550 OA
ATOM      4  O   UNL     1      20.402 -24.338  32.693  1.00  0.00    -0.550 OA
ENDROOT
TORSDOF 0
ENDMDL
MODEL 8
REMARK VINA RESULT:    -1.929     17.445     17.791
REMARK INTER + INTRA:          -1.929
REMARK INTER:                  -1.929
REMARK INTRA:                   0.000
REMARK UNBOUND:                 0.000
REMARK SMILES CC(=O)[O-]
REMARK SMILES IDX 1 1 2 2 3 3 4 4
REMARK H PARENT
REMARK Flexibility Score: inf
ROOT
ATOM      1  C   UNL     1       8.553 -32.225  17.720  1.00  0.00     0.063 C 
ATOM      2  C   UNL     1       8.337 -32.185  16.245  1.00  0.00     0.038 C 
ATOM      3  O   UNL     1       7.170 -32.229  15.775  1.00  0.00    -0.550 OA
ATOM      4  O   UNL     1       9.420 -32.044  15.386  1.00  0.00    -0.550 OA
ENDROOT
TORSDOF 0
ENDMDL
MODEL 9
REMARK VINA RESULT:    -1.904     17.590     17.990
REMARK INTER + INTRA:          -1.904
REMARK INTER:                  -1.904
REMARK INTRA:                   0.000
REMARK UNBOUND:                 0.000
REMARK SMILES CC(=O)[O-]
REMARK SMILES IDX 1 1 2 2 3 3 4 4
REMARK H PARENT
REMARK Flexibility Score: inf
ROOT
ATOM      1  C   UNL     1       9.349 -32.230  15.239  1.00  0.00     0.063 C 
ATOM      2  C   UNL     1       8.190 -32.264  16.177  1.00  0.00     0.038 C 
ATOM      3  O   UNL     1       7.015 -32.283  15.729  1.00  0.00    -0.550 OA
ATOM      4  O   UNL     1       8.406 -32.330  17.548  1.00  0.00    -0.550 OA
ENDROOT
TORSDOF 0
ENDMDL
