MODEL 1
REMARK VINA RESULT:    -3.943      0.000      0.000
REMARK INTER + INTRA:          -6.041
REMARK INTER:                  -5.556
REMARK INTRA:                  -0.486
REMARK UNBOUND:                -0.486
REMARK SMILES CCCCCCCCC(=O)[O-]
REMARK SMILES IDX 6 1 7 2 8 3 9 4 10 5 11 6 5 7 4 8 3 9 2 10 1 11
REMARK H PARENT
REMARK Flexibility Score: inf
ROOT
ATOM      1  C   UNL     1       1.139   1.522   7.309  1.00  0.00     0.000 C 
ENDROOT
BRANCH   1   2
ATOM      2  C   UNL     1       0.444   2.602   6.465  1.00  0.00     0.006 C 
BRANCH   2   3
ATOM      3  C   UNL     1      -1.065   2.664   6.730  1.00  0.00     0.053 C 
BRANCH   3   4
ATOM      4  C   UNL     1      -1.850   2.757   5.457  1.00  0.00     0.041 C 
ATOM      5  O   UNL     1      -3.086   2.516   5.456  1.00  0.00    -0.550 OA
ATOM      6  O   UNL     1      -1.224   3.146   4.280  1.00  0.00    -0.550 OA
ENDBRANCH   3   4
ENDBRANCH   2   3
ENDBRANCH   1   2
BRANCH   1   7
ATOM      7  C   UNL     1       1.562   0.333   6.439  1.00  0.00     0.000 C 
BRANCH   7   8
ATOM      8  C   UNL     1       3.083   0.131   6.483  1.00  0.00    -0.000 C 
BRANCH   8   9
ATOM      9  C   UNL     1       3.737   1.100   7.479  1.00  0.00    -0.000 C 
BRANCH   9  10
ATOM     10  C   UNL     1       4.911   1.876   6.863  1.00  0.00    -0.003 C 
ATOM     11  C   UNL     1       4.477   3.196   6.225  1.00  0.00     0.004 C 
ENDBRANCH   9  10
ENDBRANCH   8   9
ENDBRANCH   7   8
ENDBRANCH   1   7
TORSDOF 7
ENDMDL
MODEL 2
REMARK VINA RESULT:    -3.832      2.985      5.828
REMARK INTER + INTRA:          -5.886
REMARK INTER:                  -5.481
REMARK INTRA:                  -0.405
REMARK UNBOUND:                -0.486
REMARK SMILES CCCCCCCCC(=O)[O-]
REMARK SMILES IDX 6 1 7 2 8 3 9 4 10 5 11 6 5 7 4 8 3 9 2 10 1 11
REMARK H PARENT
REMARK Flexibility Score: inf
ROOT
ATOM      1  C   UNL     1       0.632   3.365   6.657  1.00  0.00     0.000 C 
ENDROOT
BRANCH   1   2
ATOM      2  C   UNL     1       0.532   1.846   6.452  1.00  0.00     0.006 C 
BRANCH   2   3
ATOM      3  C   UNL     1       1.564   1.079   7.288  1.00  0.00     0.053 C 
BRANCH   3   4
ATOM      4  C   UNL     1       2.585   0.401   6.426  1.00  0.00     0.041 C 
ATOM      5  O   UNL     1       3.733   0.899   6.293  1.00  0.00    -0.550 OA
ATOM      6  O   UNL     1       2.279  -0.800   5.798  1.00  0.00    -0.550 OA
ENDBRANCH   3   4
ENDBRANCH   2   3
ENDBRANCH   1   2
BRANCH   1   7
ATOM      7  C   UNL     1      -0.149   4.118   5.573  1.00  0.00     0.000 C 
BRANCH   7   8
ATOM      8  C   UNL     1      -1.472   3.410   5.255  1.00  0.00    -0.000 C 
BRANCH   8   9
ATOM      9  C   UNL     1      -2.672   4.279   5.660  1.00  0.00    -0.000 C 
BRANCH   9  10
ATOM     10  C   UNL     1      -3.894   3.444   6.069  1.00  0.00    -0.003 C 
ATOM     11  C   UNL     1      -3.613   1.942   6.063  1.00  0.00     0.004 C 
ENDBRANCH   9  10
ENDBRANCH   8   9
ENDBRANCH   7   8
ENDBRANCH   1   7
TORSDOF 7
ENDMDL
MODEL 3
REMARK VINA RESULT:    -3.806      1.062      2.245
REMARK INTER + INTRA:          -5.849
REMARK INTER:                  -5.282
REMARK INTRA:                  -0.567
REMARK UNBOUND:                -0.486
REMARK SMILES CCCCCCCCC(=O)[O-]
REMARK SMILES IDX 6 1 7 2 8 3 9 4 10 5 11 6 5 7 4 8 3 9 2 10 1 11
REMARK H PARENT
REMARK Flexibility Score: inf
ROOT
ATOM      1  C   UNL     1       1.490   3.732   7.459  1.00  0.00     0.000 C 
ENDROOT
BRANCH   1   2
ATOM      2  C   UNL     1       0.184   3.926   6.675  1.00  0.00     0.006 C 
BRANCH   2   3
ATOM      3  C   UNL     1      -0.544   2.600   6.422  1.00  0.00     0.053 C 
BRANCH   3   4
ATOM      4  C   UNL     1      -1.511   2.704   5.282  1.00  0.00     0.041 C 
ATOM      5  O   UNL     1      -2.675   2.239   5.395  1.00  0.00    -0.550 OA
ATOM      6  O   UNL     1      -1.137   3.347   4.109  1.00  0.00    -0.550 OA
ENDBRANCH   3   4
ENDBRANCH   2   3
ENDBRANCH   1   2
BRANCH   1   7
ATOM      7  C   UNL     1       2.708   4.054   6.585  1.00  0.00     0.000 C 
BRANCH   7   8
ATOM      8  C   UNL     1       3.674   2.864   6.524  1.00  0.00    -0.000 C 
BRANCH   8   9
ATOM      9  C   UNL     1       3.125   1.669   7.317  1.00  0.00    -0.000 C 
BRANCH   9  10
ATOM     10  C   UNL     1       3.305   0.336   6.577  1.00  0.00    -0.003 C 
ATOM     11  C   UNL     1       1.977  -0.364   6.286  1.00  0.00     0.004 C 
ENDBRANCH   9  10
ENDBRANCH   8   9
ENDBRANCH   7   8
ENDBRANCH   1   7
TORSDOF 7
ENDMDL
MODEL 4
REMARK VINA RESULT:    -3.695     13.202     14.554
REMARK INTER + INTRA:          -5.692
REMARK INTER:                  -5.026
REMARK INTRA:                  -0.666
REMARK UNBOUND:                -0.486
REMARK SMILES CCCCCCCCC(=O)[O-]
REMARK SMILES IDX 6 1 7 2 8 3 9 4 10 5 11 6 5 7 4 8 3 9 2 10 1 11
REMARK H PARENT
REMARK Flexibility Score: inf
ROOT
ATOM      1  C   UNL     1      -5.865  -2.230  -6.398  1.00  0.00     0.000 C 
ENDROOT
BRANCH   1   2
ATOM      2  C   UNL     1      -5.223  -3.594  -6.102  1.00  0.00     0.006 C 
BRANCH   2   3
ATOM      3  C   UNL     1      -4.867  -3.759  -4.620  1.00  0.00     0.053 C 
BRANCH   3   4
ATOM      4  C   UNL     1      -4.926  -5.193  -4.189  1.00  0.00     0.041 C 
ATOM      5  O   UNL     1      -5.291  -6.083  -5.002  1.00  0.00    -0.550 OA
ATOM      6  O   UNL     1      -4.546  -5.549  -2.902  1.00  0.00    -0.550 OA
ENDBRANCH   3   4
ENDBRANCH   2   3
ENDBRANCH   1   2
BRANCH   1   7
ATOM      7  C   UNL     1      -5.175  -1.543  -7.582  1.00  0.00     0.000 C 
BRANCH   7   8
ATOM      8  C   UNL     1      -4.631  -0.165  -7.181  1.00  0.00    -0.000 C 
BRANCH   8   9
ATOM      9  C   UNL     1      -3.619  -0.287  -6.033  1.00  0.00    -0.000 C 
BRANCH   9  10
ATOM     10  C   UNL     1      -2.291  -0.915  -6.480  1.00  0.00    -0.003 C 
ATOM     11  C   UNL     1      -1.826  -2.038  -5.554  1.00  0.00     0.004 C 
ENDBRANCH   9  10
ENDBRANCH   8   9
ENDBRANCH   7   8
ENDBRANCH   1   7
TORSDOF 7
ENDMDL
MODEL 5
REMARK VINA RESULT:    -3.693      1.867      3.185
REMARK INTER + INTRA:          -5.690
REMARK INTER:                  -5.333
REMARK INTRA:                  -0.357
REMARK UNBOUND:                -0.486
REMARK SMILES CCCCCCCCC(=O)[O-]
REMARK SMILES IDX 6 1 7 2 8 3 9 4 10 5 11 6 5 7 4 8 3 9 2 10 1 11
REMARK H PARENT
REMARK Flexibility Score: inf
ROOT
ATOM      1  C   UNL     1      -1.048   3.375   4.878  1.00  0.00     0.000 C 
ENDROOT
BRANCH   1   2
ATOM      2  C   UNL     1      -1.862   4.512   5.514  1.00  0.00     0.006 C 
BRANCH   2   3
ATOM      3  C   UNL     1      -2.770   4.013   6.645  1.00  0.00     0.053 C 
BRANCH   3   4
ATOM      4  C   UNL     1      -4.065   3.470   6.120  1.00  0.00     0.041 C 
ATOM      5  O   UNL     1      -5.103   4.182   6.138  1.00  0.00    -0.550 OA
ATOM      6  O   UNL     1      -4.115   2.192   5.579  1.00  0.00    -0.550 OA
ENDBRANCH   3   4
ENDBRANCH   2   3
ENDBRANCH   1   2
BRANCH   1   7
ATOM      7  C   UNL     1      -0.361   2.523   5.951  1.00  0.00     0.000 C 
BRANCH   7   8
ATOM      8  C   UNL     1       0.876   3.235   6.512  1.00  0.00    -0.000 C 
BRANCH   8   9
ATOM      9  C   UNL     1       2.002   2.233   6.807  1.00  0.00    -0.000 C 
BRANCH   9  10
ATOM     10  C   UNL     1       1.470   0.839   7.174  1.00  0.00    -0.003 C 
ATOM     11  C   UNL     1       2.094  -0.273   6.331  1.00  0.00     0.004 C 
ENDBRANCH   9  10
ENDBRANCH   8   9
ENDBRANCH   7   8
ENDBRANCH   1   7
TORSDOF 7
ENDMDL
MODEL 6
REMARK VINA RESULT:    -3.684     13.190     14.589
REMARK INTER + INTRA:          -5.677
REMARK INTER:                  -4.986
REMARK INTRA:                  -0.691
REMARK UNBOUND:                -0.486
REMARK SMILES CCCCCCCCC(=O)[O-]
REMARK SMILES IDX 6 1 7 2 8 3 9 4 10 5 11 6 5 7 4 8 3 9 2 10 1 11
REMARK H PARENT
REMARK Flexibility Score: inf
ROOT
ATOM      1  C   UNL     1      -2.398  -2.711  -5.207  1.00  0.00     0.000 C 
ENDROOT
BRANCH   1   2
ATOM      2  C   UNL     1      -3.491  -3.641  -5.752  1.00  0.00     0.006 C 
BRANCH   2   3
ATOM      3  C   UNL     1      -4.717  -3.698  -4.833  1.00  0.00     0.053 C 
BRANCH   3   4
ATOM      4  C   UNL     1      -4.891  -5.055  -4.221  1.00  0.00     0.041 C 
ATOM      5  O   UNL     1      -4.640  -5.236  -3.001  1.00  0.00    -0.550 OA
ATOM      6  O   UNL     1      -5.366  -6.110  -4.990  1.00  0.00    -0.550 OA
ENDBRANCH   3   4
ENDBRANCH   2   3
ENDBRANCH   1   2
BRANCH   1   7
ATOM      7  C   UNL     1      -2.273  -1.447  -6.066  1.00  0.00     0.000 C 
BRANCH   7   8
ATOM      8  C   UNL     1      -3.341  -0.413  -5.685  1.00  0.00    -0.000 C 
BRANCH   8   9
ATOM      9  C   UNL     1      -4.130   0.043  -6.921  1.00  0.00    -0.000 C 
BRANCH   9  10
ATOM     10  C   UNL     1      -5.437  -0.741  -7.110  1.00  0.00    -0.003 C 
ATOM     11  C   UNL     1      -5.397  -1.676  -8.318  1.00  0.00     0.004 C 
ENDBRANCH   9  10
ENDBRANCH   8   9
ENDBRANCH   7   8
ENDBRANCH   1   7
TORSDOF 7
ENDMDL
MODEL 7
REMARK VINA RESULT:    -3.666     12.576     13.790
REMARK INTER + INTRA:          -5.651
REMARK INTER:                  -4.986
REMARK INTRA:                  -0.665
REMARK UNBOUND:                -0.486
REMARK SMILES CCCCCCCCC(=O)[O-]
REMARK SMILES IDX 6 1 7 2 8 3 9 4 10 5 11 6 5 7 4 8 3 9 2 10 1 11
REMARK H PARENT
REMARK Flexibility Score: inf
ROOT
ATOM      1  C   UNL     1      -4.100  -2.800  -6.644  1.00  0.00     0.000 C 
ENDROOT
BRANCH   1   2
ATOM      2  C   UNL     1      -5.290  -3.365  -5.854  1.00  0.00     0.006 C 
BRANCH   2   3
ATOM      3  C   UNL     1      -4.936  -3.636  -4.386  1.00  0.00     0.053 C 
BRANCH   3   4
ATOM      4  C   UNL     1      -4.758  -5.099  -4.118  1.00  0.00     0.041 C 
ATOM      5  O   UNL     1      -4.744  -5.921  -5.071  1.00  0.00    -0.550 OA
ATOM      6  O   UNL     1      -4.573  -5.551  -2.817  1.00  0.00    -0.550 OA
ENDBRANCH   3   4
ENDBRANCH   2   3
ENDBRANCH   1   2
BRANCH   1   7
ATOM      7  C   UNL     1      -3.619  -1.475  -6.040  1.00  0.00     0.000 C 
BRANCH   7   8
ATOM      8  C   UNL     1      -2.133  -1.547  -5.667  1.00  0.00    -0.000 C 
BRANCH   8   9
ATOM      9  C   UNL     1      -1.595  -2.977  -5.822  1.00  0.00    -0.000 C 
BRANCH   9  10
ATOM     10  C   UNL     1      -0.616  -3.364  -4.704  1.00  0.00    -0.003 C 
ATOM     11  C   UNL     1      -1.153  -4.481  -3.809  1.00  0.00     0.004 C 
ENDBRANCH   9  10
ENDBRANCH   8   9
ENDBRANCH   7   8
ENDBRANCH   1   7
TORSDOF 7
ENDMDL
MODEL 8
REMARK VINA RESULT:    -3.578      1.294      1.900
REMARK INTER + INTRA:          -5.528
REMARK INTER:                  -5.222
REMARK INTRA:                  -0.306
REMARK UNBOUND:                -0.486
REMARK SMILES CCCCCCCCC(=O)[O-]
REMARK SMILES IDX 6 1 7 2 8 3 9 4 10 5 11 6 5 7 4 8 3 9 2 10 1 11
REMARK H PARENT
REMARK Flexibility Score: inf
ROOT
ATOM      1  C   UNL     1      -0.249   2.560   6.837  1.00  0.00     0.000 C 
ENDROOT
BRANCH   1   2
ATOM      2  C   UNL     1      -0.829   2.843   5.443  1.00  0.00     0.006 C 
BRANCH   2   3
ATOM      3  C   UNL     1      -2.142   3.633   5.510  1.00  0.00     0.053 C 
BRANCH   3   4
ATOM      4  C   UNL     1      -3.255   2.816   6.090  1.00  0.00     0.041 C 
ATOM      5  O   UNL     1      -3.874   3.221   7.109  1.00  0.00    -0.550 OA
ATOM      6  O   UNL     1      -3.632   1.624   5.484  1.00  0.00    -0.550 OA
ENDBRANCH   3   4
ENDBRANCH   2   3
ENDBRANCH   1   2
BRANCH   1   7
ATOM      7  C   UNL     1       1.262   2.308   6.763  1.00  0.00     0.000 C 
BRANCH   7   8
ATOM      8  C   UNL     1       1.574   0.807   6.820  1.00  0.00    -0.000 C 
BRANCH   8   9
ATOM      9  C   UNL     1       3.059   0.543   6.533  1.00  0.00    -0.000 C 
BRANCH   9  10
ATOM     10  C   UNL     1       3.926   1.800   6.704  1.00  0.00    -0.003 C 
ATOM     11  C   UNL     1       5.269   1.506   7.370  1.00  0.00     0.004 C 
ENDBRANCH   9  10
ENDBRANCH   8   9
ENDBRANCH   7   8
ENDBRANCH   1   7
TORSDOF 7
ENDMDL
MODEL 9
REMARK VINA RESULT:    -3.488     12.402     13.817
REMARK INTER + INTRA:          -5.401
REMARK INTER:                  -4.784
REMARK INTRA:                  -0.617
REMARK UNBOUND:                -0.486
REMARK SMILES CCCCCCCCC(=O)[O-]
REMARK SMILES IDX 6 1 7 2 8 3 9 4 10 5 11 6 5 7 4 8 3 9 2 10 1 11
REMARK H PARENT
REMARK Flexibility Score: inf
ROOT
ATOM      1  C   UNL     1      -5.275  -3.581  -5.977  1.00  0.00     0.000 C 
ENDROOT
BRANCH   1   2
ATOM      2  C   UNL     1      -5.058  -2.127  -6.424  1.00  0.00     0.006 C 
BRANCH   2   3
ATOM      3  C   UNL     1      -3.599  -1.849  -6.807  1.00  0.00     0.053 C 
BRANCH   3   4
ATOM      4  C   UNL     1      -2.872  -1.106  -5.728  1.00  0.00     0.041 C 
ATOM      5  O   UNL     1      -1.816  -1.581  -5.233  1.00  0.00    -0.550 OA
ATOM      6  O   UNL     1      -3.341   0.128  -5.296  1.00  0.00    -0.550 OA
ENDBRANCH   3   4
ENDBRANCH   2   3
ENDBRANCH   1   2
BRANCH   1   7
ATOM      7  C   UNL     1      -4.916  -3.760  -4.497  1.00  0.00     0.000 C 
BRANCH   7   8
ATOM      8  C   UNL     1      -4.028  -4.994  -4.291  1.00  0.00    -0.000 C 
BRANCH   8   9
ATOM      9  C   UNL     1      -3.039  -5.160  -5.453  1.00  0.00    -0.000 C 
BRANCH   9  10
ATOM     10  C   UNL     1      -1.582  -5.271  -4.978  1.00  0.00    -0.003 C 
ATOM     11  C   UNL     1      -1.346  -4.585  -3.632  1.00  0.00     0.004 C 
ENDBRANCH   9  10
ENDBRANCH   8   9
ENDBRANCH   7   8
ENDBRANCH   1   7
TORSDOF 7
ENDMDL
