MODEL 1
REMARK VINA RESULT:    -4.157      0.000      0.000
REMARK INTER + INTRA:          -9.238
REMARK INTER:                  -7.803
REMARK INTRA:                  -1.434
REMARK UNBOUND:                -1.434
REMARK SMILES O=C([O-])CCCCCCCCCCCCCCC(=O)[O-]
REMARK SMILES IDX 10 1 9 2 8 3 7 4 6 5 5 6 4 7 2 8 1 9 3 10 11 11 12 12 13 13
REMARK SMILES IDX 14 14 15 15 16 16 17 17 18 18 19 19 20 20
REMARK H PARENT
REMARK Flexibility Score: inf
ROOT
ATOM      1  C   UNL     1     126.468 120.739 117.913  1.00  0.00     0.000 C 
ENDROOT
BRANCH   1   2
ATOM      2  C   UNL     1     126.939 120.863 119.371  1.00  0.00     0.000 C 
BRANCH   2   3
ATOM      3  C   UNL     1     128.401 120.421 119.514  1.00  0.00     0.000 C 
BRANCH   3   4
ATOM      4  C   UNL     1     129.216 120.808 118.271  1.00  0.00     0.000 C 
BRANCH   4   5
ATOM      5  C   UNL     1     130.732 120.765 118.521  1.00  0.00     0.000 C 
BRANCH   5   6
ATOM      6  C   UNL     1     131.082 120.473 119.991  1.00  0.00     0.006 C 
BRANCH   6   7
ATOM      7  C   UNL     1     132.230 121.355 120.498  1.00  0.00     0.053 C 
BRANCH   7   8
ATOM      8  C   UNL     1     131.786 122.767 120.728  1.00  0.00     0.041 C 
ATOM      9  O   UNL     1     130.577 123.018 120.978  1.00  0.00    -0.550 OA
ATOM     10  O   UNL     1     132.699 123.811 120.629  1.00  0.00    -0.550 OA
ENDBRANCH   7   8
ENDBRANCH   6   7
ENDBRANCH   5   6
ENDBRANCH   4   5
ENDBRANCH   3   4
ENDBRANCH   2   3
ENDBRANCH   1   2
BRANCH   1  11
ATOM     11  C   UNL     1     125.298 119.756 117.749  1.00  0.00     0.000 C 
BRANCH  11  12
ATOM     12  C   UNL     1     124.055 120.415 117.124  1.00  0.00     0.000 C 
BRANCH  12  13
ATOM     13  C   UNL     1     124.278 121.898 116.774  1.00  0.00     0.000 C 
BRANCH  13  14
ATOM     14  C   UNL     1     123.364 122.891 117.515  1.00  0.00     0.000 C 
BRANCH  14  15
ATOM     15  C   UNL     1     122.738 122.295 118.788  1.00  0.00     0.000 C 
BRANCH  15  16
ATOM     16  C   UNL     1     123.591 122.561 120.046  1.00  0.00     0.006 C 
BRANCH  16  17
ATOM     17  C   UNL     1     123.300 121.592 121.202  1.00  0.00     0.053 C 
BRANCH  17  18
ATOM     18  C   UNL     1     122.522 122.237 122.305  1.00  0.00     0.041 C 
ATOM     19  O   UNL     1     121.272 122.091 122.370  1.00  0.00    -0.550 OA
ATOM     20  O   UNL     1     123.175 123.016 123.253  1.00  0.00    -0.550 OA
ENDBRANCH  17  18
ENDBRANCH  16  17
ENDBRANCH  15  16
ENDBRANCH  14  15
ENDBRANCH  13  14
ENDBRANCH  12  13
ENDBRANCH  11  12
ENDBRANCH   1  11
TORSDOF 15
ENDMDL
MODEL 2
REMARK VINA RESULT:    -4.138      0.766      7.333
REMARK INTER + INTRA:          -9.201
REMARK INTER:                  -7.701
REMARK INTRA:                  -1.500
REMARK UNBOUND:                -1.434
REMARK SMILES O=C([O-])CCCCCCCCCCCCCCC(=O)[O-]
REMARK SMILES IDX 10 1 9 2 8 3 7 4 6 5 5 6 4 7 2 8 1 9 3 10 11 11 12 12 13 13
REMARK SMILES IDX 14 14 15 15 16 16 17 17 18 18 19 19 20 20
REMARK H PARENT
REMARK Flexibility Score: inf
ROOT
ATOM      1  C   UNL     1     125.293 119.629 117.709  1.00  0.00     0.000 C 
ENDROOT
BRANCH   1   2
ATOM      2  C   UNL     1     124.075 120.361 117.124  1.00  0.00     0.000 C 
BRANCH   2   3
ATOM      3  C   UNL     1     124.355 121.863 116.982  1.00  0.00     0.000 C 
BRANCH   3   4
ATOM      4  C   UNL     1     123.180 122.694 117.522  1.00  0.00     0.000 C 
BRANCH   4   5
ATOM      5  C   UNL     1     122.736 122.250 118.924  1.00  0.00     0.000 C 
BRANCH   5   6
ATOM      6  C   UNL     1     123.735 122.660 120.020  1.00  0.00     0.006 C 
BRANCH   6   7
ATOM      7  C   UNL     1     124.165 121.469 120.887  1.00  0.00     0.053 C 
BRANCH   7   8
ATOM      8  C   UNL     1     123.817 121.677 122.328  1.00  0.00     0.041 C 
ATOM      9  O   UNL     1     123.345 122.780 122.714  1.00  0.00    -0.550 OA
ATOM     10  O   UNL     1     124.049 120.667 123.255  1.00  0.00    -0.550 OA
ENDBRANCH   7   8
ENDBRANCH   6   7
ENDBRANCH   5   6
ENDBRANCH   4   5
ENDBRANCH   3   4
ENDBRANCH   2   3
ENDBRANCH   1   2
BRANCH   1  11
ATOM     11  C   UNL     1     126.534 120.531 117.812  1.00  0.00     0.000 C 
BRANCH  11  12
ATOM     12  C   UNL     1     127.446 120.149 118.991  1.00  0.00     0.000 C 
BRANCH  12  13
ATOM     13  C   UNL     1     128.693 121.046 119.098  1.00  0.00     0.000 C 
BRANCH  13  14
ATOM     14  C   UNL     1     129.764 120.812 118.018  1.00  0.00     0.000 C 
BRANCH  14  15
ATOM     15  C   UNL     1     131.153 120.505 118.606  1.00  0.00     0.000 C 
BRANCH  15  16
ATOM     16  C   UNL     1     131.173 120.587 120.147  1.00  0.00     0.006 C 
BRANCH  16  17
ATOM     17  C   UNL     1     132.299 121.473 120.701  1.00  0.00     0.053 C 
BRANCH  17  18
ATOM     18  C   UNL     1     131.903 122.913 120.786  1.00  0.00     0.041 C 
ATOM     19  O   UNL     1     130.703 123.229 121.005  1.00  0.00    -0.550 OA
ATOM     20  O   UNL     1     132.856 123.908 120.605  1.00  0.00    -0.550 OA
ENDBRANCH  17  18
ENDBRANCH  16  17
ENDBRANCH  15  16
ENDBRANCH  14  15
ENDBRANCH  13  14
ENDBRANCH  12  13
ENDBRANCH  11  12
ENDBRANCH   1  11
TORSDOF 15
ENDMDL
MODEL 3
REMARK VINA RESULT:    -4.046      8.687     10.416
REMARK INTER + INTRA:          -9.028
REMARK INTER:                  -6.511
REMARK INTRA:                  -2.517
REMARK UNBOUND:                -1.434
REMARK SMILES O=C([O-])CCCCCCCCCCCCCCC(=O)[O-]
REMARK SMILES IDX 10 1 9 2 8 3 7 4 6 5 5 6 4 7 2 8 1 9 3 10 11 11 12 12 13 13
REMARK SMILES IDX 14 14 15 15 16 16 17 17 18 18 19 19 20 20
REMARK H PARENT
REMARK Flexibility Score: inf
ROOT
ATOM      1  C   UNL     1     126.130 125.777 127.251  1.00  0.00     0.000 C 
ENDROOT
BRANCH   1   2
ATOM      2  C   UNL     1     125.101 125.506 126.141  1.00  0.00     0.000 C 
BRANCH   2   3
ATOM      3  C   UNL     1     125.087 126.647 125.116  1.00  0.00     0.000 C 
BRANCH   3   4
ATOM      4  C   UNL     1     126.349 127.515 125.243  1.00  0.00     0.000 C 
BRANCH   4   5
ATOM      5  C   UNL     1     126.079 128.997 124.940  1.00  0.00     0.000 C 
BRANCH   5   6
ATOM      6  C   UNL     1     126.738 129.940 125.962  1.00  0.00     0.006 C 
BRANCH   6   7
ATOM      7  C   UNL     1     128.072 129.389 126.483  1.00  0.00     0.053 C 
BRANCH   7   8
ATOM      8  C   UNL     1     129.141 130.438 126.494  1.00  0.00     0.041 C 
ATOM      9  O   UNL     1     129.876 130.604 125.484  1.00  0.00    -0.550 OA
ATOM     10  O   UNL     1     129.352 131.207 127.632  1.00  0.00    -0.550 OA
ENDBRANCH   7   8
ENDBRANCH   6   7
ENDBRANCH   5   6
ENDBRANCH   4   5
ENDBRANCH   3   4
ENDBRANCH   2   3
ENDBRANCH   1   2
BRANCH   1  11
ATOM     11  C   UNL     1     125.485 125.898 128.641  1.00  0.00     0.000 C 
BRANCH  11  12
ATOM     12  C   UNL     1     124.316 126.898 128.666  1.00  0.00     0.000 C 
BRANCH  12  13
ATOM     13  C   UNL     1     124.785 128.364 128.720  1.00  0.00     0.000 C 
BRANCH  13  14
ATOM     14  C   UNL     1     123.801 129.389 128.126  1.00  0.00     0.000 C 
BRANCH  14  15
ATOM     15  C   UNL     1     123.028 128.846 126.913  1.00  0.00     0.000 C 
BRANCH  15  16
ATOM     16  C   UNL     1     122.514 129.969 125.988  1.00  0.00     0.006 C 
BRANCH  16  17
ATOM     17  C   UNL     1     121.893 129.454 124.680  1.00  0.00     0.053 C 
BRANCH  17  18
ATOM     18  C   UNL     1     122.756 129.735 123.491  1.00  0.00     0.041 C 
ATOM     19  O   UNL     1     123.171 128.788 122.770  1.00  0.00    -0.550 OA
ATOM     20  O   UNL     1     123.119 131.041 123.188  1.00  0.00    -0.550 OA
ENDBRANCH  17  18
ENDBRANCH  16  17
ENDBRANCH  15  16
ENDBRANCH  14  15
ENDBRANCH  13  14
ENDBRANCH  12  13
ENDBRANCH  11  12
ENDBRANCH   1  11
TORSDOF 15
ENDMDL
MODEL 4
REMARK VINA RESULT:    -4.040      1.853      2.529
REMARK INTER + INTRA:          -9.017
REMARK INTER:                  -7.842
REMARK INTRA:                  -1.175
REMARK UNBOUND:                -1.434
REMARK SMILES O=C([O-])CCCCCCCCCCCCCCC(=O)[O-]
REMARK SMILES IDX 10 1 9 2 8 3 7 4 6 5 5 6 4 7 2 8 1 9 3 10 11 11 12 12 13 13
REMARK SMILES IDX 14 14 15 15 16 16 17 17 18 18 19 19 20 20
REMARK H PARENT
REMARK Flexibility Score: inf
ROOT
ATOM      1  C   UNL     1     128.181 120.113 118.348  1.00  0.00     0.000 C 
ENDROOT
BRANCH   1   2
ATOM      2  C   UNL     1     129.247 121.080 118.885  1.00  0.00     0.000 C 
BRANCH   2   3
ATOM      3  C   UNL     1     128.934 121.494 120.329  1.00  0.00     0.000 C 
BRANCH   3   4
ATOM      4  C   UNL     1     129.946 122.533 120.835  1.00  0.00     0.000 C 
BRANCH   4   5
ATOM      5  C   UNL     1     131.319 122.399 120.158  1.00  0.00     0.000 C 
BRANCH   5   6
ATOM      6  C   UNL     1     132.276 121.477 120.935  1.00  0.00     0.006 C 
BRANCH   6   7
ATOM      7  C   UNL     1     132.778 120.309 120.077  1.00  0.00     0.053 C 
BRANCH   7   8
ATOM      8  C   UNL     1     132.248 118.995 120.562  1.00  0.00     0.041 C 
ATOM      9  O   UNL     1     131.219 118.956 121.288  1.00  0.00    -0.550 OA
ATOM     10  O   UNL     1     132.912 117.815 120.246  1.00  0.00    -0.550 OA
ENDBRANCH   7   8
ENDBRANCH   6   7
ENDBRANCH   5   6
ENDBRANCH   4   5
ENDBRANCH   3   4
ENDBRANCH   2   3
ENDBRANCH   1   2
BRANCH   1  11
ATOM     11  C   UNL     1     126.964 120.841 117.753  1.00  0.00     0.000 C 
BRANCH  11  12
ATOM     12  C   UNL     1     125.650 120.072 117.971  1.00  0.00     0.000 C 
BRANCH  12  13
ATOM     13  C   UNL     1     124.481 120.636 117.141  1.00  0.00     0.000 C 
BRANCH  13  14
ATOM     14  C   UNL     1     124.334 122.168 117.173  1.00  0.00     0.000 C 
BRANCH  14  15
ATOM     15  C   UNL     1     122.975 122.628 117.731  1.00  0.00     0.000 C 
BRANCH  15  16
ATOM     16  C   UNL     1     122.667 122.018 119.114  1.00  0.00     0.006 C 
BRANCH  16  17
ATOM     17  C   UNL     1     123.624 122.487 120.220  1.00  0.00     0.053 C 
BRANCH  17  18
ATOM     18  C   UNL     1     123.094 122.205 121.591  1.00  0.00     0.041 C 
ATOM     19  O   UNL     1     123.886 121.955 122.539  1.00  0.00    -0.550 OA
ATOM     20  O   UNL     1     121.723 122.199 121.818  1.00  0.00    -0.550 OA
ENDBRANCH  17  18
ENDBRANCH  16  17
ENDBRANCH  15  16
ENDBRANCH  14  15
ENDBRANCH  13  14
ENDBRANCH  12  13
ENDBRANCH  11  12
ENDBRANCH   1  11
TORSDOF 15
ENDMDL
MODEL 5
REMARK VINA RESULT:    -4.018      2.227      8.274
REMARK INTER + INTRA:          -8.975
REMARK INTER:                  -7.614
REMARK INTRA:                  -1.361
REMARK UNBOUND:                -1.434
REMARK SMILES O=C([O-])CCCCCCCCCCCCCCC(=O)[O-]
REMARK SMILES IDX 10 1 9 2 8 3 7 4 6 5 5 6 4 7 2 8 1 9 3 10 11 11 12 12 13 13
REMARK SMILES IDX 14 14 15 15 16 16 17 17 18 18 19 19 20 20
REMARK H PARENT
REMARK Flexibility Score: inf
ROOT
ATOM      1  C   UNL     1     128.547 120.459 119.463  1.00  0.00     0.000 C 
ENDROOT
BRANCH   1   2
ATOM      2  C   UNL     1     127.759 120.721 118.170  1.00  0.00     0.000 C 
BRANCH   2   3
ATOM      3  C   UNL     1     126.854 119.530 117.830  1.00  0.00     0.000 C 
BRANCH   3   4
ATOM      4  C   UNL     1     125.411 119.991 117.576  1.00  0.00     0.000 C 
BRANCH   4   5
ATOM      5  C   UNL     1     125.215 121.492 117.838  1.00  0.00     0.000 C 
BRANCH   5   6
ATOM      6  C   UNL     1     124.054 122.090 117.024  1.00  0.00     0.006 C 
BRANCH   6   7
ATOM      7  C   UNL     1     123.100 122.916 117.897  1.00  0.00     0.053 C 
BRANCH   7   8
ATOM      8  C   UNL     1     122.753 122.204 119.168  1.00  0.00     0.041 C 
ATOM      9  O   UNL     1     123.244 122.588 120.263  1.00  0.00    -0.550 OA
ATOM     10  O   UNL     1     121.920 121.092 119.141  1.00  0.00    -0.550 OA
ENDBRANCH   7   8
ENDBRANCH   6   7
ENDBRANCH   5   6
ENDBRANCH   4   5
ENDBRANCH   3   4
ENDBRANCH   2   3
ENDBRANCH   1   2
BRANCH   1  11
ATOM     11  C   UNL     1     128.186 121.443 120.588  1.00  0.00     0.000 C 
BRANCH  11  12
ATOM     12  C   UNL     1     129.322 122.434 120.895  1.00  0.00     0.000 C 
BRANCH  12  13
ATOM     13  C   UNL     1     130.568 122.204 120.020  1.00  0.00     0.000 C 
BRANCH  13  14
ATOM     14  C   UNL     1     131.917 122.378 120.741  1.00  0.00     0.000 C 
BRANCH  14  15
ATOM     15  C   UNL     1     132.807 121.125 120.658  1.00  0.00     0.000 C 
BRANCH  15  16
ATOM     16  C   UNL     1     131.990 119.817 120.690  1.00  0.00     0.006 C 
BRANCH  16  17
ATOM     17  C   UNL     1     132.396 118.811 119.601  1.00  0.00     0.053 C 
BRANCH  17  18
ATOM     18  C   UNL     1     132.533 119.452 118.256  1.00  0.00     0.041 C 
ATOM     19  O   UNL     1     131.516 119.886 117.653  1.00  0.00    -0.550 OA
ATOM     20  O   UNL     1     133.784 119.553 117.658  1.00  0.00    -0.550 OA
ENDBRANCH  17  18
ENDBRANCH  16  17
ENDBRANCH  15  16
ENDBRANCH  14  15
ENDBRANCH  13  14
ENDBRANCH  12  13
ENDBRANCH  11  12
ENDBRANCH   1  11
TORSDOF 15
ENDMDL
MODEL 6
REMARK VINA RESULT:    -4.014      2.155      8.033
REMARK INTER + INTRA:          -8.969
REMARK INTER:                  -7.612
REMARK INTRA:                  -1.357
REMARK UNBOUND:                -1.434
REMARK SMILES O=C([O-])CCCCCCCCCCCCCCC(=O)[O-]
REMARK SMILES IDX 10 1 9 2 8 3 7 4 6 5 5 6 4 7 2 8 1 9 3 10 11 11 12 12 13 13
REMARK SMILES IDX 14 14 15 15 16 16 17 17 18 18 19 19 20 20
REMARK H PARENT
REMARK Flexibility Score: inf
ROOT
ATOM      1  C   UNL     1     126.370 120.739 117.929  1.00  0.00     0.000 C 
ENDROOT
BRANCH   1   2
ATOM      2  C   UNL     1     125.198 119.787 117.644  1.00  0.00     0.000 C 
BRANCH   2   3
ATOM      3  C   UNL     1     124.022 120.540 117.010  1.00  0.00     0.000 C 
BRANCH   3   4
ATOM      4  C   UNL     1     124.305 122.049 116.947  1.00  0.00     0.000 C 
BRANCH   4   5
ATOM      5  C   UNL     1     123.287 122.875 117.748  1.00  0.00     0.000 C 
BRANCH   5   6
ATOM      6  C   UNL     1     123.433 122.683 119.268  1.00  0.00     0.006 C 
BRANCH   6   7
ATOM      7  C   UNL     1     122.183 122.049 119.894  1.00  0.00     0.053 C 
BRANCH   7   8
ATOM      8  C   UNL     1     122.517 120.811 120.667  1.00  0.00     0.041 C 
ATOM      9  O   UNL     1     123.714 120.432 120.772  1.00  0.00    -0.550 OA
ATOM     10  O   UNL     1     121.503 120.051 121.239  1.00  0.00    -0.550 OA
ENDBRANCH   7   8
ENDBRANCH   6   7
ENDBRANCH   5   6
ENDBRANCH   4   5
ENDBRANCH   3   4
ENDBRANCH   2   3
ENDBRANCH   1   2
BRANCH   1  11
ATOM     11  C   UNL     1     126.903 120.612 119.365  1.00  0.00     0.000 C 
BRANCH  11  12
ATOM     12  C   UNL     1     128.357 121.097 119.502  1.00  0.00     0.000 C 
BRANCH  12  13
ATOM     13  C   UNL     1     129.195 120.838 118.236  1.00  0.00     0.000 C 
BRANCH  13  14
ATOM     14  C   UNL     1     130.721 120.878 118.441  1.00  0.00     0.000 C 
BRANCH  14  15
ATOM     15  C   UNL     1     131.132 121.561 119.756  1.00  0.00     0.000 C 
BRANCH  15  16
ATOM     16  C   UNL     1     132.340 120.875 120.426  1.00  0.00     0.006 C 
BRANCH  16  17
ATOM     17  C   UNL     1     132.690 119.510 119.813  1.00  0.00     0.053 C 
BRANCH  17  18
ATOM     18  C   UNL     1     132.186 118.368 120.638  1.00  0.00     0.041 C 
ATOM     19  O   UNL     1     131.171 118.513 121.371  1.00  0.00    -0.550 OA
ATOM     20  O   UNL     1     132.849 117.147 120.614  1.00  0.00    -0.550 OA
ENDBRANCH  17  18
ENDBRANCH  16  17
ENDBRANCH  15  16
ENDBRANCH  14  15
ENDBRANCH  13  14
ENDBRANCH  12  13
ENDBRANCH  11  12
ENDBRANCH   1  11
TORSDOF 15
ENDMDL
MODEL 7
REMARK VINA RESULT:    -3.970     12.453     15.956
REMARK INTER + INTRA:          -8.886
REMARK INTER:                  -7.584
REMARK INTRA:                  -1.301
REMARK UNBOUND:                -1.434
REMARK SMILES O=C([O-])CCCCCCCCCCCCCCC(=O)[O-]
REMARK SMILES IDX 10 1 9 2 8 3 7 4 6 5 5 6 4 7 2 8 1 9 3 10 11 11 12 12 13 13
REMARK SMILES IDX 14 14 15 15 16 16 17 17 18 18 19 19 20 20
REMARK H PARENT
REMARK Flexibility Score: inf
ROOT
ATOM      1  C   UNL     1     129.465 125.882 133.888  1.00  0.00     0.000 C 
ENDROOT
BRANCH   1   2
ATOM      2  C   UNL     1     128.354 124.963 134.419  1.00  0.00     0.000 C 
BRANCH   2   3
ATOM      3  C   UNL     1     127.228 124.812 133.388  1.00  0.00     0.000 C 
BRANCH   3   4
ATOM      4  C   UNL     1     127.204 126.007 132.422  1.00  0.00     0.000 C 
BRANCH   4   5
ATOM      5  C   UNL     1     126.062 125.916 131.398  1.00  0.00     0.000 C 
BRANCH   5   6
ATOM      6  C   UNL     1     126.429 126.548 130.044  1.00  0.00     0.006 C 
BRANCH   6   7
ATOM      7  C   UNL     1     125.357 127.531 129.554  1.00  0.00     0.053 C 
BRANCH   7   8
ATOM      8  C   UNL     1     124.274 126.835 128.787  1.00  0.00     0.041 C 
ATOM      9  O   UNL     1     123.133 126.683 129.298  1.00  0.00    -0.550 OA
ATOM     10  O   UNL     1     124.536 126.318 127.524  1.00  0.00    -0.550 OA
ENDBRANCH   7   8
ENDBRANCH   6   7
ENDBRANCH   5   6
ENDBRANCH   4   5
ENDBRANCH   3   4
ENDBRANCH   2   3
ENDBRANCH   1   2
BRANCH   1  11
ATOM     11  C   UNL     1     130.202 126.632 135.010  1.00  0.00     0.000 C 
BRANCH  11  12
ATOM     12  C   UNL     1     131.707 126.787 134.728  1.00  0.00     0.000 C 
BRANCH  12  13
ATOM     13  C   UNL     1     132.588 126.096 135.785  1.00  0.00     0.000 C 
BRANCH  13  14
ATOM     14  C   UNL     1     132.741 124.573 135.618  1.00  0.00     0.000 C 
BRANCH  14  15
ATOM     15  C   UNL     1     133.398 124.179 134.284  1.00  0.00     0.000 C 
BRANCH  15  16
ATOM     16  C   UNL     1     132.537 123.190 133.470  1.00  0.00     0.006 C 
BRANCH  16  17
ATOM     17  C   UNL     1     131.380 122.577 134.274  1.00  0.00     0.053 C 
BRANCH  17  18
ATOM     18  C   UNL     1     131.438 121.083 134.309  1.00  0.00     0.041 C 
ATOM     19  O   UNL     1     130.591 120.399 133.674  1.00  0.00    -0.550 OA
ATOM     20  O   UNL     1     132.418 120.443 135.058  1.00  0.00    -0.550 OA
ENDBRANCH  17  18
ENDBRANCH  16  17
ENDBRANCH  15  16
ENDBRANCH  14  15
ENDBRANCH  13  14
ENDBRANCH  12  13
ENDBRANCH  11  12
ENDBRANCH   1  11
TORSDOF 15
ENDMDL
MODEL 8
REMARK VINA RESULT:    -3.947      8.879     11.303
REMARK INTER + INTRA:          -8.843
REMARK INTER:                  -6.981
REMARK INTRA:                  -1.861
REMARK UNBOUND:                -1.434
REMARK SMILES O=C([O-])CCCCCCCCCCCCCCC(=O)[O-]
REMARK SMILES IDX 10 1 9 2 8 3 7 4 6 5 5 6 4 7 2 8 1 9 3 10 11 11 12 12 13 13
REMARK SMILES IDX 14 14 15 15 16 16 17 17 18 18 19 19 20 20
REMARK H PARENT
REMARK Flexibility Score: inf
ROOT
ATOM      1  C   UNL     1     123.110 129.129 126.519  1.00  0.00     0.000 C 
ENDROOT
BRANCH   1   2
ATOM      2  C   UNL     1     122.056 128.668 125.501  1.00  0.00     0.000 C 
BRANCH   2   3
ATOM      3  C   UNL     1     122.309 129.301 124.126  1.00  0.00     0.000 C 
BRANCH   3   4
ATOM      4  C   UNL     1     123.371 130.408 124.218  1.00  0.00     0.000 C 
BRANCH   4   5
ATOM      5  C   UNL     1     123.410 131.296 122.965  1.00  0.00     0.000 C 
BRANCH   5   6
ATOM      6  C   UNL     1     124.380 130.768 121.894  1.00  0.00     0.006 C 
BRANCH   6   7
ATOM      7  C   UNL     1     123.688 130.553 120.541  1.00  0.00     0.053 C 
BRANCH   7   8
ATOM      8  C   UNL     1     124.668 130.192 119.467  1.00  0.00     0.041 C 
ATOM      9  O   UNL     1     125.905 130.320 119.669  1.00  0.00    -0.550 OA
ATOM     10  O   UNL     1     124.215 129.752 118.229  1.00  0.00    -0.550 OA
ENDBRANCH   7   8
ENDBRANCH   6   7
ENDBRANCH   5   6
ENDBRANCH   4   5
ENDBRANCH   3   4
ENDBRANCH   2   3
ENDBRANCH   1   2
BRANCH   1  11
ATOM     11  C   UNL     1     123.933 127.962 127.090  1.00  0.00     0.000 C 
BRANCH  11  12
ATOM     12  C   UNL     1     123.989 126.756 126.136  1.00  0.00     0.000 C 
BRANCH  12  13
ATOM     13  C   UNL     1     125.202 126.798 125.189  1.00  0.00     0.000 C 
BRANCH  13  14
ATOM     14  C   UNL     1     126.419 127.579 125.716  1.00  0.00     0.000 C 
BRANCH  14  15
ATOM     15  C   UNL     1     126.753 128.816 124.864  1.00  0.00     0.000 C 
BRANCH  15  16
ATOM     16  C   UNL     1     126.866 130.102 125.710  1.00  0.00     0.006 C 
BRANCH  16  17
ATOM     17  C   UNL     1     127.921 131.090 125.189  1.00  0.00     0.053 C 
BRANCH  17  18
ATOM     18  C   UNL     1     129.317 130.634 125.470  1.00  0.00     0.041 C 
ATOM     19  O   UNL     1     130.238 130.858 124.640  1.00  0.00    -0.550 OA
ATOM     20  O   UNL     1     129.600 129.944 126.643  1.00  0.00    -0.550 OA
ENDBRANCH  17  18
ENDBRANCH  16  17
ENDBRANCH  15  16
ENDBRANCH  14  15
ENDBRANCH  13  14
ENDBRANCH  12  13
ENDBRANCH  11  12
ENDBRANCH   1  11
TORSDOF 15
ENDMDL
MODEL 9
REMARK VINA RESULT:    -3.884      8.947     11.121
REMARK INTER + INTRA:          -8.724
REMARK INTER:                  -5.953
REMARK INTRA:                  -2.772
REMARK UNBOUND:                -1.434
REMARK SMILES O=C([O-])CCCCCCCCCCCCCCC(=O)[O-]
REMARK SMILES IDX 10 1 9 2 8 3 7 4 6 5 5 6 4 7 2 8 1 9 3 10 11 11 12 12 13 13
REMARK SMILES IDX 14 14 15 15 16 16 17 17 18 18 19 19 20 20
REMARK H PARENT
REMARK Flexibility Score: inf
ROOT
ATOM      1  C   UNL     1     124.273 127.700 125.065  1.00  0.00     0.000 C 
ENDROOT
BRANCH   1   2
ATOM      2  C   UNL     1     123.336 127.798 126.279  1.00  0.00     0.000 C 
BRANCH   2   3
ATOM      3  C   UNL     1     123.525 129.134 127.009  1.00  0.00     0.000 C 
BRANCH   3   4
ATOM      4  C   UNL     1     124.864 129.784 126.629  1.00  0.00     0.000 C 
BRANCH   4   5
ATOM      5  C   UNL     1     125.774 130.019 127.844  1.00  0.00     0.000 C 
BRANCH   5   6
ATOM      6  C   UNL     1     127.046 129.154 127.809  1.00  0.00     0.006 C 
BRANCH   6   7
ATOM      7  C   UNL     1     127.592 128.985 126.385  1.00  0.00     0.053 C 
BRANCH   7   8
ATOM      8  C   UNL     1     128.778 129.866 126.136  1.00  0.00     0.041 C 
ATOM      9  O   UNL     1     128.894 130.478 125.041  1.00  0.00    -0.550 OA
ATOM     10  O   UNL     1     129.775 129.980 127.098  1.00  0.00    -0.550 OA
ENDBRANCH   7   8
ENDBRANCH   6   7
ENDBRANCH   5   6
ENDBRANCH   4   5
ENDBRANCH   3   4
ENDBRANCH   2   3
ENDBRANCH   1   2
BRANCH   1  11
ATOM     11  C   UNL     1     125.014 126.354 124.995  1.00  0.00     0.000 C 
BRANCH  11  12
ATOM     12  C   UNL     1     124.975 125.588 126.328  1.00  0.00     0.000 C 
BRANCH  12  13
ATOM     13  C   UNL     1     126.294 125.692 127.117  1.00  0.00     0.000 C 
BRANCH  13  14
ATOM     14  C   UNL     1     126.149 125.633 128.648  1.00  0.00     0.000 C 
BRANCH  14  15
ATOM     15  C   UNL     1     124.718 125.931 129.127  1.00  0.00     0.000 C 
BRANCH  15  16
ATOM     16  C   UNL     1     124.626 127.245 129.932  1.00  0.00     0.006 C 
BRANCH  16  17
ATOM     17  C   UNL     1     123.203 127.574 130.411  1.00  0.00     0.053 C 
BRANCH  17  18
ATOM     18  C   UNL     1     123.149 128.838 131.210  1.00  0.00     0.041 C 
ATOM     19  O   UNL     1     123.839 129.835 130.869  1.00  0.00    -0.550 OA
ATOM     20  O   UNL     1     122.350 128.908 132.345  1.00  0.00    -0.550 OA
ENDBRANCH  17  18
ENDBRANCH  16  17
ENDBRANCH  15  16
ENDBRANCH  14  15
ENDBRANCH  13  14
ENDBRANCH  12  13
ENDBRANCH  11  12
ENDBRANCH   1  11
TORSDOF 15
ENDMDL
