MODEL 1
REMARK VINA RESULT:    -3.290      0.000      0.000
REMARK INTER + INTRA:          -4.277
REMARK INTER:                  -3.963
REMARK INTRA:                  -0.314
REMARK UNBOUND:                -0.314
REMARK SMILES O=c1c(O)c(-c2ccc(O)c(O)c2)oc2cc(O)cc(O)c12
REMARK SMILES IDX 5 1 3 2 2 3 1 4 22 5 20 6 19 7 17 8 16 9 15 10 14 11 6 12
REMARK SMILES IDX 7 13 8 14 9 15 13 16 11 17 10 18 12 20 4 22 21 24 18 26
REMARK H PARENT 10 19 12 21 4 23 21 25 18 27
REMARK Flexibility Score: inf
ROOT
ATOM      1  C   UNL     1      -6.783  -1.711   4.159  1.00  0.00     0.180 A 
ATOM      2  C   UNL     1      -7.846  -2.554   4.526  1.00  0.00     0.208 A 
ATOM      3  C   UNL     1      -8.631  -2.214   5.639  1.00  0.00     0.238 A 
ATOM      4  O   UNL     1      -9.534  -3.010   6.007  1.00  0.00    -0.285 OA
ATOM      5  C   UNL     1      -8.380  -1.006   6.337  1.00  0.00     0.111 A 
ATOM      6  C   UNL     1      -9.141  -0.540   7.452  1.00  0.00     0.134 A 
ATOM      7  C   UNL     1      -8.734   0.616   8.130  1.00  0.00     0.093 A 
ATOM      8  C   UNL     1      -7.635   1.356   7.697  1.00  0.00     0.123 A 
ATOM      9  C   UNL     1      -6.917   0.940   6.575  1.00  0.00     0.094 A 
ATOM     10  C   UNL     1      -7.274  -0.231   5.901  1.00  0.00     0.146 A 
ATOM     11  O   UNL     1      -6.551  -0.603   4.852  1.00  0.00    -0.452 OA
ENDROOT
BRANCH   1  12
ATOM     12  C   UNL     1      -5.902  -2.010   3.006  1.00  0.00     0.025 A 
ATOM     13  C   UNL     1      -4.650  -2.625   3.181  1.00  0.00     0.016 A 
ATOM     14  C   UNL     1      -3.826  -2.874   2.081  1.00  0.00     0.051 A 
ATOM     15  C   UNL     1      -4.232  -2.501   0.794  1.00  0.00     0.157 A 
ATOM     16  C   UNL     1      -6.296  -1.619   1.716  1.00  0.00     0.062 A 
ATOM     17  C   UNL     1      -5.473  -1.866   0.612  1.00  0.00     0.158 A 
BRANCH  15  18
ATOM     18  O   UNL     1      -3.408  -2.753  -0.302  1.00  0.00    -0.504 OA
ATOM     19  H   UNL     1      -3.772  -3.152  -1.160  1.00  0.00     0.293 HD
ENDBRANCH  15  18
BRANCH  17  20
ATOM     20  O   UNL     1      -5.903  -1.476  -0.655  1.00  0.00    -0.504 OA
ATOM     21  H   UNL     1      -5.290  -1.008  -1.312  1.00  0.00     0.293 HD
ENDBRANCH  17  20
ENDBRANCH   1  12
BRANCH   2  22
ATOM     22  O   UNL     1      -8.126  -3.701   3.778  1.00  0.00    -0.502 OA
ATOM     23  H   UNL     1      -7.988  -3.744   2.776  1.00  0.00     0.293 HD
ENDBRANCH   2  22
BRANCH   6  24
ATOM     24  O   UNL     1     -10.309  -1.153   7.915  1.00  0.00    -0.507 OA
ATOM     25  H   UNL     1     -10.994  -1.606   7.330  1.00  0.00     0.293 HD
ENDBRANCH   6  24
BRANCH   8  26
ATOM     26  O   UNL     1      -7.269   2.511   8.385  1.00  0.00    -0.508 OA
ATOM     27  H   UNL     1      -7.542   3.431   8.059  1.00  0.00     0.293 HD
ENDBRANCH   8  26
TORSDOF 6
ENDMDL
MODEL 2
REMARK VINA RESULT:    -3.247      2.131      7.591
REMARK INTER + INTRA:          -4.226
REMARK INTER:                  -3.904
REMARK INTRA:                  -0.322
REMARK UNBOUND:                -0.314
REMARK SMILES O=c1c(O)c(-c2ccc(O)c(O)c2)oc2cc(O)cc(O)c12
REMARK SMILES IDX 5 1 3 2 2 3 1 4 22 5 20 6 19 7 17 8 16 9 15 10 14 11 6 12
REMARK SMILES IDX 7 13 8 14 9 15 13 16 11 17 10 18 12 20 4 22 21 24 18 26
REMARK H PARENT 10 19 12 21 4 23 21 25 18 27
REMARK Flexibility Score: inf
ROOT
ATOM      1  C   UNL     1      -6.480  -1.898   2.097  1.00  0.00     0.180 A 
ATOM      2  C   UNL     1      -5.143  -2.237   1.828  1.00  0.00     0.208 A 
ATOM      3  C   UNL     1      -4.756  -2.477   0.500  1.00  0.00     0.238 A 
ATOM      4  O   UNL     1      -3.576  -2.853   0.274  1.00  0.00    -0.285 OA
ATOM      5  C   UNL     1      -5.696  -2.320  -0.548  1.00  0.00     0.111 A 
ATOM      6  C   UNL     1      -5.402  -2.494  -1.936  1.00  0.00     0.134 A 
ATOM      7  C   UNL     1      -6.437  -2.416  -2.875  1.00  0.00     0.093 A 
ATOM      8  C   UNL     1      -7.740  -2.109  -2.488  1.00  0.00     0.123 A 
ATOM      9  C   UNL     1      -8.029  -1.882  -1.142  1.00  0.00     0.094 A 
ATOM     10  C   UNL     1      -7.025  -1.991  -0.175  1.00  0.00     0.146 A 
ATOM     11  O   UNL     1      -7.346  -1.789   1.097  1.00  0.00    -0.452 OA
ENDROOT
BRANCH   1  12
ATOM     12  C   UNL     1      -6.967  -1.643   3.472  1.00  0.00     0.025 A 
ATOM     13  C   UNL     1      -6.947  -0.353   4.029  1.00  0.00     0.016 A 
ATOM     14  C   UNL     1      -7.390  -0.143   5.338  1.00  0.00     0.051 A 
ATOM     15  C   UNL     1      -7.844  -1.217   6.113  1.00  0.00     0.157 A 
ATOM     16  C   UNL     1      -7.405  -2.720   4.260  1.00  0.00     0.062 A 
ATOM     17  C   UNL     1      -7.848  -2.513   5.571  1.00  0.00     0.158 A 
BRANCH  15  18
ATOM     18  O   UNL     1      -8.287  -1.002   7.417  1.00  0.00    -0.504 OA
ATOM     19  H   UNL     1      -8.423  -0.068   7.785  1.00  0.00     0.293 HD
ENDBRANCH  15  18
BRANCH  17  20
ATOM     20  O   UNL     1      -8.287  -3.605   6.319  1.00  0.00    -0.504 OA
ATOM     21  H   UNL     1      -7.680  -4.096   6.964  1.00  0.00     0.293 HD
ENDBRANCH  17  20
ENDBRANCH   1  12
BRANCH   2  22
ATOM     22  O   UNL     1      -4.213  -2.312   2.868  1.00  0.00    -0.502 OA
ATOM     23  H   UNL     1      -4.479  -2.515   3.823  1.00  0.00     0.293 HD
ENDBRANCH   2  22
BRANCH   6  24
ATOM     24  O   UNL     1      -4.118  -2.717  -2.442  1.00  0.00    -0.507 OA
ATOM     25  H   UNL     1      -3.354  -2.060  -2.390  1.00  0.00     0.293 HD
ENDBRANCH   6  24
BRANCH   8  26
ATOM     26  O   UNL     1      -8.742  -2.022  -3.452  1.00  0.00    -0.508 OA
ATOM     27  H   UNL     1      -9.689  -1.756  -3.210  1.00  0.00     0.293 HD
ENDBRANCH   8  26
TORSDOF 6
ENDMDL
MODEL 3
REMARK VINA RESULT:    -3.171      3.210      7.365
REMARK INTER + INTRA:          -4.134
REMARK INTER:                  -3.820
REMARK INTRA:                  -0.314
REMARK UNBOUND:                -0.314
REMARK SMILES O=c1c(O)c(-c2ccc(O)c(O)c2)oc2cc(O)cc(O)c12
REMARK SMILES IDX 5 1 3 2 2 3 1 4 22 5 20 6 19 7 17 8 16 9 15 10 14 11 6 12
REMARK SMILES IDX 7 13 8 14 9 15 13 16 11 17 10 18 12 20 4 22 21 24 18 26
REMARK H PARENT 10 19 12 21 4 23 21 25 18 27
REMARK Flexibility Score: inf
ROOT
ATOM      1  C   UNL     1      -7.000  -2.224   1.156  1.00  0.00     0.180 A 
ATOM      2  C   UNL     1      -6.128  -2.000   0.077  1.00  0.00     0.208 A 
ATOM      3  C   UNL     1      -6.646  -2.000  -1.228  1.00  0.00     0.238 A 
ATOM      4  O   UNL     1      -5.849  -1.873  -2.194  1.00  0.00    -0.285 OA
ATOM      5  C   UNL     1      -8.038  -2.165  -1.434  1.00  0.00     0.111 A 
ATOM      6  C   UNL     1      -8.678  -2.137  -2.711  1.00  0.00     0.134 A 
ATOM      7  C   UNL     1     -10.047  -2.418  -2.802  1.00  0.00     0.093 A 
ATOM      8  C   UNL     1     -10.810  -2.665  -1.662  1.00  0.00     0.123 A 
ATOM      9  C   UNL     1     -10.206  -2.640  -0.405  1.00  0.00     0.094 A 
ATOM     10  C   UNL     1      -8.834  -2.401  -0.284  1.00  0.00     0.146 A 
ATOM     11  O   UNL     1      -8.294  -2.408   0.929  1.00  0.00    -0.452 OA
ENDROOT
BRANCH   1  12
ATOM     12  C   UNL     1      -6.527  -2.253   2.559  1.00  0.00     0.025 A 
ATOM     13  C   UNL     1      -5.936  -3.404   3.108  1.00  0.00     0.016 A 
ATOM     14  C   UNL     1      -5.519  -3.416   4.442  1.00  0.00     0.051 A 
ATOM     15  C   UNL     1      -5.699  -2.286   5.250  1.00  0.00     0.157 A 
ATOM     16  C   UNL     1      -6.724  -1.130   3.379  1.00  0.00     0.062 A 
ATOM     17  C   UNL     1      -6.309  -1.139   4.715  1.00  0.00     0.158 A 
BRANCH  15  18
ATOM     18  O   UNL     1      -5.280  -2.301   6.579  1.00  0.00    -0.504 OA
ATOM     19  H   UNL     1      -4.772  -1.524   6.985  1.00  0.00     0.293 HD
ENDBRANCH  15  18
BRANCH  17  20
ATOM     20  O   UNL     1      -6.509  -0.000   5.494  1.00  0.00    -0.504 OA
ATOM     21  H   UNL     1      -5.836   0.302   6.189  1.00  0.00     0.293 HD
ENDBRANCH  17  20
ENDBRANCH   1  12
BRANCH   2  22
ATOM     22  O   UNL     1      -4.770  -1.762   0.306  1.00  0.00    -0.502 OA
ATOM     23  H   UNL     1      -4.294  -2.086   1.139  1.00  0.00     0.293 HD
ENDBRANCH   2  22
BRANCH   6  24
ATOM     24  O   UNL     1      -8.029  -1.814  -3.906  1.00  0.00    -0.507 OA
ATOM     25  H   UNL     1      -7.035  -1.678  -4.005  1.00  0.00     0.293 HD
ENDBRANCH   6  24
BRANCH   8  26
ATOM     26  O   UNL     1     -12.173  -2.924  -1.789  1.00  0.00    -0.508 OA
ATOM     27  H   UNL     1     -12.515  -3.827  -2.097  1.00  0.00     0.293 HD
ENDBRANCH   8  26
TORSDOF 6
ENDMDL
MODEL 4
REMARK VINA RESULT:    -3.137      1.701      7.269
REMARK INTER + INTRA:          -4.093
REMARK INTER:                  -3.766
REMARK INTRA:                  -0.327
REMARK UNBOUND:                -0.314
REMARK SMILES O=c1c(O)c(-c2ccc(O)c(O)c2)oc2cc(O)cc(O)c12
REMARK SMILES IDX 5 1 3 2 2 3 1 4 22 5 20 6 19 7 17 8 16 9 15 10 14 11 6 12
REMARK SMILES IDX 7 13 8 14 9 15 13 16 11 17 10 18 12 20 4 22 21 24 18 26
REMARK H PARENT 10 19 12 21 4 23 21 25 18 27
REMARK Flexibility Score: inf
ROOT
ATOM      1  C   UNL     1      -5.853  -2.011   2.750  1.00  0.00     0.180 A 
ATOM      2  C   UNL     1      -6.260  -1.956   1.406  1.00  0.00     0.208 A 
ATOM      3  C   UNL     1      -5.320  -2.226   0.399  1.00  0.00     0.238 A 
ATOM      4  O   UNL     1      -5.671  -2.103  -0.804  1.00  0.00    -0.285 OA
ATOM      5  C   UNL     1      -4.000  -2.604   0.749  1.00  0.00     0.111 A 
ATOM      6  C   UNL     1      -2.977  -2.944  -0.189  1.00  0.00     0.134 A 
ATOM      7  C   UNL     1      -1.679  -3.199   0.269  1.00  0.00     0.093 A 
ATOM      8  C   UNL     1      -1.379  -3.189   1.631  1.00  0.00     0.123 A 
ATOM      9  C   UNL     1      -2.383  -2.912   2.559  1.00  0.00     0.094 A 
ATOM     10  C   UNL     1      -3.680  -2.615   2.131  1.00  0.00     0.146 A 
ATOM     11  O   UNL     1      -4.601  -2.336   3.046  1.00  0.00    -0.452 OA
ENDROOT
BRANCH   1  12
ATOM     12  C   UNL     1      -6.782  -1.725   3.867  1.00  0.00     0.025 A 
ATOM     13  C   UNL     1      -6.887  -0.437   4.421  1.00  0.00     0.016 A 
ATOM     14  C   UNL     1      -7.753  -0.197   5.491  1.00  0.00     0.051 A 
ATOM     15  C   UNL     1      -8.515  -1.240   6.032  1.00  0.00     0.157 A 
ATOM     16  C   UNL     1      -7.533  -2.772   4.427  1.00  0.00     0.062 A 
ATOM     17  C   UNL     1      -8.401  -2.535   5.499  1.00  0.00     0.158 A 
BRANCH  15  18
ATOM     18  O   UNL     1      -9.380  -0.996   7.098  1.00  0.00    -0.504 OA
ATOM     19  H   UNL     1      -9.239  -1.427   8.005  1.00  0.00     0.293 HD
ENDBRANCH  15  18
BRANCH  17  20
ATOM     20  O   UNL     1      -9.140  -3.596   6.019  1.00  0.00    -0.504 OA
ATOM     21  H   UNL     1      -9.947  -3.977   5.539  1.00  0.00     0.293 HD
ENDBRANCH  17  20
ENDBRANCH   1  12
BRANCH   2  22
ATOM     22  O   UNL     1      -7.586  -1.657   1.083  1.00  0.00    -0.502 OA
ATOM     23  H   UNL     1      -7.999  -1.904   0.192  1.00  0.00     0.293 HD
ENDBRANCH   2  22
BRANCH   6  24
ATOM     24  O   UNL     1      -3.186  -3.071  -1.565  1.00  0.00    -0.507 OA
ATOM     25  H   UNL     1      -3.719  -3.806  -2.003  1.00  0.00     0.293 HD
ENDBRANCH   6  24
BRANCH   8  26
ATOM     26  O   UNL     1      -0.080  -3.464   2.052  1.00  0.00    -0.508 OA
ATOM     27  H   UNL     1       0.563  -3.993   1.474  1.00  0.00     0.293 HD
ENDBRANCH   8  26
TORSDOF 6
ENDMDL
MODEL 5
REMARK VINA RESULT:    -3.096      9.355     12.604
REMARK INTER + INTRA:          -4.044
REMARK INTER:                  -3.722
REMARK INTRA:                  -0.322
REMARK UNBOUND:                -0.314
REMARK SMILES O=c1c(O)c(-c2ccc(O)c(O)c2)oc2cc(O)cc(O)c12
REMARK SMILES IDX 5 1 3 2 2 3 1 4 22 5 20 6 19 7 17 8 16 9 15 10 14 11 6 12
REMARK SMILES IDX 7 13 8 14 9 15 13 16 11 17 10 18 12 20 4 22 21 24 18 26
REMARK H PARENT 10 19 12 21 4 23 21 25 18 27
REMARK Flexibility Score: inf
ROOT
ATOM      1  C   UNL     1      -6.253   6.510  -2.230  1.00  0.00     0.180 A 
ATOM      2  C   UNL     1      -5.064   6.102  -1.604  1.00  0.00     0.208 A 
ATOM      3  C   UNL     1      -3.904   5.947  -2.380  1.00  0.00     0.238 A 
ATOM      4  O   UNL     1      -2.861   5.511  -1.827  1.00  0.00    -0.285 OA
ATOM      5  C   UNL     1      -3.934   6.257  -3.763  1.00  0.00     0.111 A 
ATOM      6  C   UNL     1      -2.807   6.179  -4.637  1.00  0.00     0.134 A 
ATOM      7  C   UNL     1      -2.980   6.407  -6.007  1.00  0.00     0.093 A 
ATOM      8  C   UNL     1      -4.222   6.771  -6.526  1.00  0.00     0.123 A 
ATOM      9  C   UNL     1      -5.318   6.904  -5.674  1.00  0.00     0.094 A 
ATOM     10  C   UNL     1      -5.186   6.645  -4.307  1.00  0.00     0.146 A 
ATOM     11  O   UNL     1      -6.259   6.761  -3.534  1.00  0.00    -0.452 OA
ENDROOT
BRANCH   1  12
ATOM     12  C   UNL     1      -7.520   6.682  -1.482  1.00  0.00     0.025 A 
ATOM     13  C   UNL     1      -7.869   7.916  -0.907  1.00  0.00     0.016 A 
ATOM     14  C   UNL     1      -9.058   8.047  -0.184  1.00  0.00     0.051 A 
ATOM     15  C   UNL     1      -9.906   6.946  -0.012  1.00  0.00     0.157 A 
ATOM     16  C   UNL     1      -8.364   5.576  -1.289  1.00  0.00     0.062 A 
ATOM     17  C   UNL     1      -9.554   5.703  -0.565  1.00  0.00     0.158 A 
BRANCH  15  18
ATOM     18  O   UNL     1     -11.092   7.081   0.708  1.00  0.00    -0.504 OA
ATOM     19  H   UNL     1     -11.175   6.750   1.662  1.00  0.00     0.293 HD
ENDBRANCH  15  18
BRANCH  17  20
ATOM     20  O   UNL     1     -10.374   4.587  -0.406  1.00  0.00    -0.504 OA
ATOM     21  H   UNL     1     -11.023   4.500   0.367  1.00  0.00     0.293 HD
ENDBRANCH  17  20
ENDBRANCH   1  12
BRANCH   2  22
ATOM     22  O   UNL     1      -5.035   5.876  -0.225  1.00  0.00    -0.502 OA
ATOM     23  H   UNL     1      -4.524   6.472   0.414  1.00  0.00     0.293 HD
ENDBRANCH   2  22
BRANCH   6  24
ATOM     24  O   UNL     1      -1.503   5.911  -4.212  1.00  0.00    -0.507 OA
ATOM     25  H   UNL     1      -0.668   6.125  -4.737  1.00  0.00     0.293 HD
ENDBRANCH   6  24
BRANCH   8  26
ATOM     26  O   UNL     1      -4.353   7.008  -7.893  1.00  0.00    -0.508 OA
ATOM     27  H   UNL     1      -4.258   7.939  -8.282  1.00  0.00     0.293 HD
ENDBRANCH   8  26
TORSDOF 6
ENDMDL
MODEL 6
REMARK VINA RESULT:    -3.066      9.207     10.508
REMARK INTER + INTRA:          -4.007
REMARK INTER:                  -3.675
REMARK INTRA:                  -0.333
REMARK UNBOUND:                -0.314
REMARK SMILES O=c1c(O)c(-c2ccc(O)c(O)c2)oc2cc(O)cc(O)c12
REMARK SMILES IDX 5 1 3 2 2 3 1 4 22 5 20 6 19 7 17 8 16 9 15 10 14 11 6 12
REMARK SMILES IDX 7 13 8 14 9 15 13 16 11 17 10 18 12 20 4 22 21 24 18 26
REMARK H PARENT 10 19 12 21 4 23 21 25 18 27
REMARK Flexibility Score: inf
ROOT
ATOM      1  C   UNL     1      -7.051   6.939  -1.509  1.00  0.00     0.180 A 
ATOM      2  C   UNL     1      -7.323   8.195  -0.941  1.00  0.00     0.208 A 
ATOM      3  C   UNL     1      -8.534   8.385  -0.257  1.00  0.00     0.238 A 
ATOM      4  O   UNL     1      -8.804   9.532   0.185  1.00  0.00    -0.285 OA
ATOM      5  C   UNL     1      -9.433   7.301  -0.101  1.00  0.00     0.111 A 
ATOM      6  C   UNL     1     -10.669   7.368   0.612  1.00  0.00     0.134 A 
ATOM      7  C   UNL     1     -11.527   6.262   0.610  1.00  0.00     0.093 A 
ATOM      8  C   UNL     1     -11.169   5.072  -0.023  1.00  0.00     0.123 A 
ATOM      9  C   UNL     1      -9.940   4.978  -0.675  1.00  0.00     0.094 A 
ATOM     10  C   UNL     1      -9.078   6.077  -0.724  1.00  0.00     0.146 A 
ATOM     11  O   UNL     1      -7.927   5.952  -1.374  1.00  0.00    -0.452 OA
ENDROOT
BRANCH   1  12
ATOM     12  C   UNL     1      -5.803   6.666  -2.257  1.00  0.00     0.025 A 
ATOM     13  C   UNL     1      -5.702   6.928  -3.635  1.00  0.00     0.016 A 
ATOM     14  C   UNL     1      -4.521   6.639  -4.324  1.00  0.00     0.051 A 
ATOM     15  C   UNL     1      -3.431   6.072  -3.653  1.00  0.00     0.157 A 
ATOM     16  C   UNL     1      -4.714   6.077  -1.593  1.00  0.00     0.062 A 
ATOM     17  C   UNL     1      -3.530   5.785  -2.281  1.00  0.00     0.158 A 
BRANCH  15  18
ATOM     18  O   UNL     1      -2.254   5.786  -4.343  1.00  0.00    -0.504 OA
ATOM     19  H   UNL     1      -1.831   6.458  -4.972  1.00  0.00     0.293 HD
ENDBRANCH  15  18
BRANCH  17  20
ATOM     20  O   UNL     1      -2.466   5.214  -1.585  1.00  0.00    -0.504 OA
ATOM     21  H   UNL     1      -2.490   5.077  -0.581  1.00  0.00     0.293 HD
ENDBRANCH  17  20
ENDBRANCH   1  12
BRANCH   2  22
ATOM     22  O   UNL     1      -6.389   9.230  -1.040  1.00  0.00    -0.502 OA
ATOM     23  H   UNL     1      -6.306   9.812  -1.864  1.00  0.00     0.293 HD
ENDBRANCH   2  22
BRANCH   6  24
ATOM     24  O   UNL     1     -11.087   8.477   1.354  1.00  0.00    -0.507 OA
ATOM     25  H   UNL     1     -11.470   9.324   0.961  1.00  0.00     0.293 HD
ENDBRANCH   6  24
BRANCH   8  26
ATOM     26  O   UNL     1     -12.040   3.986   0.011  1.00  0.00    -0.508 OA
ATOM     27  H   UNL     1     -11.747   3.082   0.363  1.00  0.00     0.293 HD
ENDBRANCH   8  26
TORSDOF 6
ENDMDL
MODEL 7
REMARK VINA RESULT:    -3.022      8.603      9.531
REMARK INTER + INTRA:          -3.955
REMARK INTER:                  -3.856
REMARK INTRA:                  -0.099
REMARK UNBOUND:                -0.314
REMARK SMILES O=c1c(O)c(-c2ccc(O)c(O)c2)oc2cc(O)cc(O)c12
REMARK SMILES IDX 5 1 3 2 2 3 1 4 22 5 20 6 19 7 17 8 16 9 15 10 14 11 6 12
REMARK SMILES IDX 7 13 8 14 9 15 13 16 11 17 10 18 12 20 4 22 21 24 18 26
REMARK H PARENT 10 19 12 21 4 23 21 25 18 27
REMARK Flexibility Score: inf
ROOT
ATOM      1  C   UNL     1      -7.394   6.273  -1.410  1.00  0.00     0.180 A 
ATOM      2  C   UNL     1      -8.555   5.505  -1.602  1.00  0.00     0.208 A 
ATOM      3  C   UNL     1      -9.460   5.362  -0.538  1.00  0.00     0.238 A 
ATOM      4  O   UNL     1     -10.460   4.614  -0.692  1.00  0.00    -0.285 OA
ATOM      5  C   UNL     1      -9.220   6.034   0.687  1.00  0.00     0.111 A 
ATOM      6  C   UNL     1     -10.092   5.996   1.818  1.00  0.00     0.134 A 
ATOM      7  C   UNL     1      -9.700   6.612   3.012  1.00  0.00     0.093 A 
ATOM      8  C   UNL     1      -8.501   7.317   3.099  1.00  0.00     0.123 A 
ATOM      9  C   UNL     1      -7.667   7.408   1.984  1.00  0.00     0.094 A 
ATOM     10  C   UNL     1      -8.012   6.770   0.790  1.00  0.00     0.146 A 
ATOM     11  O   UNL     1      -7.180   6.863  -0.241  1.00  0.00    -0.452 OA
ENDROOT
BRANCH   1  12
ATOM     12  C   UNL     1      -6.386   6.458  -2.479  1.00  0.00     0.025 A 
ATOM     13  C   UNL     1      -6.728   7.031  -3.717  1.00  0.00     0.016 A 
ATOM     14  C   UNL     1      -5.765   7.173  -4.719  1.00  0.00     0.051 A 
ATOM     15  C   UNL     1      -4.453   6.734  -4.507  1.00  0.00     0.157 A 
ATOM     16  C   UNL     1      -5.074   6.000  -2.280  1.00  0.00     0.062 A 
ATOM     17  C   UNL     1      -4.107   6.140  -3.282  1.00  0.00     0.158 A 
BRANCH  15  18
ATOM     18  O   UNL     1      -3.495   6.879  -5.509  1.00  0.00    -0.504 OA
ATOM     19  H   UNL     1      -2.513   7.001  -5.291  1.00  0.00     0.293 HD
ENDBRANCH  15  18
BRANCH  17  20
ATOM     20  O   UNL     1      -2.811   5.686  -3.042  1.00  0.00    -0.504 OA
ATOM     21  H   UNL     1      -2.571   4.702  -3.072  1.00  0.00     0.293 HD
ENDBRANCH  17  20
ENDBRANCH   1  12
BRANCH   2  22
ATOM     22  O   UNL     1      -8.812   4.914  -2.842  1.00  0.00    -0.502 OA
ATOM     23  H   UNL     1      -9.731   4.584  -3.107  1.00  0.00     0.293 HD
ENDBRANCH   2  22
BRANCH   6  24
ATOM     24  O   UNL     1     -11.354   5.394   1.814  1.00  0.00    -0.507 OA
ATOM     25  H   UNL     1     -12.026   5.456   2.565  1.00  0.00     0.293 HD
ENDBRANCH   6  24
BRANCH   8  26
ATOM     26  O   UNL     1      -8.151   7.934   4.299  1.00  0.00    -0.508 OA
ATOM     27  H   UNL     1      -7.627   7.443   5.014  1.00  0.00     0.293 HD
ENDBRANCH   8  26
TORSDOF 6
ENDMDL
MODEL 8
REMARK VINA RESULT:    -2.979      2.596      3.950
REMARK INTER + INTRA:          -3.903
REMARK INTER:                  -3.611
REMARK INTRA:                  -0.291
REMARK UNBOUND:                -0.314
REMARK SMILES O=c1c(O)c(-c2ccc(O)c(O)c2)oc2cc(O)cc(O)c12
REMARK SMILES IDX 5 1 3 2 2 3 1 4 22 5 20 6 19 7 17 8 16 9 15 10 14 11 6 12
REMARK SMILES IDX 7 13 8 14 9 15 13 16 11 17 10 18 12 20 4 22 21 24 18 26
REMARK H PARENT 10 19 12 21 4 23 21 25 18 27
REMARK Flexibility Score: inf
ROOT
ATOM      1  C   UNL     1      -6.583  -2.153   1.707  1.00  0.00     0.180 A 
ATOM      2  C   UNL     1      -5.784  -3.201   2.196  1.00  0.00     0.208 A 
ATOM      3  C   UNL     1      -5.357  -3.163   3.533  1.00  0.00     0.238 A 
ATOM      4  O   UNL     1      -4.582  -4.065   3.944  1.00  0.00    -0.285 OA
ATOM      5  C   UNL     1      -5.782  -2.110   4.380  1.00  0.00     0.111 A 
ATOM      6  C   UNL     1      -5.447  -1.996   5.764  1.00  0.00     0.134 A 
ATOM      7  C   UNL     1      -5.835  -0.854   6.476  1.00  0.00     0.093 A 
ATOM      8  C   UNL     1      -6.598   0.146   5.874  1.00  0.00     0.123 A 
ATOM      9  C   UNL     1      -6.978   0.019   4.538  1.00  0.00     0.094 A 
ATOM     10  C   UNL     1      -6.573  -1.090   3.790  1.00  0.00     0.146 A 
ATOM     11  O   UNL     1      -6.937  -1.162   2.515  1.00  0.00    -0.452 OA
ENDROOT
BRANCH   1  12
ATOM     12  C   UNL     1      -7.060  -2.114   0.305  1.00  0.00     0.025 A 
ATOM     13  C   UNL     1      -6.206  -1.744  -0.748  1.00  0.00     0.016 A 
ATOM     14  C   UNL     1      -6.686  -1.691  -2.060  1.00  0.00     0.051 A 
ATOM     15  C   UNL     1      -8.026  -1.991  -2.336  1.00  0.00     0.157 A 
ATOM     16  C   UNL     1      -8.407  -2.394   0.026  1.00  0.00     0.062 A 
ATOM     17  C   UNL     1      -8.891  -2.341  -1.286  1.00  0.00     0.158 A 
BRANCH  15  18
ATOM     18  O   UNL     1      -8.500  -1.939  -3.646  1.00  0.00    -0.504 OA
ATOM     19  H   UNL     1      -8.723  -2.781  -4.164  1.00  0.00     0.293 HD
ENDBRANCH  15  18
BRANCH  17  20
ATOM     20  O   UNL     1     -10.232  -2.639  -1.527  1.00  0.00    -0.504 OA
ATOM     21  H   UNL     1     -10.514  -3.408  -2.124  1.00  0.00     0.293 HD
ENDBRANCH  17  20
ENDBRANCH   1  12
BRANCH   2  22
ATOM     22  O   UNL     1      -5.440  -4.271   1.366  1.00  0.00    -0.502 OA
ATOM     23  H   UNL     1      -4.780  -4.179   0.605  1.00  0.00     0.293 HD
ENDBRANCH   2  22
BRANCH   6  24
ATOM     24  O   UNL     1      -4.763  -2.977   6.489  1.00  0.00    -0.507 OA
ATOM     25  H   UNL     1      -4.816  -3.097   7.489  1.00  0.00     0.293 HD
ENDBRANCH   6  24
BRANCH   8  26
ATOM     26  O   UNL     1      -6.981   1.260   6.618  1.00  0.00    -0.508 OA
ATOM     27  H   UNL     1      -7.901   1.673   6.519  1.00  0.00     0.293 HD
ENDBRANCH   8  26
TORSDOF 6
ENDMDL
MODEL 9
REMARK VINA RESULT:    -2.968      2.209      6.705
REMARK INTER + INTRA:          -3.890
REMARK INTER:                  -3.559
REMARK INTRA:                  -0.331
REMARK UNBOUND:                -0.314
REMARK SMILES O=c1c(O)c(-c2ccc(O)c(O)c2)oc2cc(O)cc(O)c12
REMARK SMILES IDX 5 1 3 2 2 3 1 4 22 5 20 6 19 7 17 8 16 9 15 10 14 11 6 12
REMARK SMILES IDX 7 13 8 14 9 15 13 16 11 17 10 18 12 20 4 22 21 24 18 26
REMARK H PARENT 10 19 12 21 4 23 21 25 18 27
REMARK Flexibility Score: inf
ROOT
ATOM      1  C   UNL     1      -6.928  -1.803   3.287  1.00  0.00     0.180 A 
ATOM      2  C   UNL     1      -8.055  -2.641   3.225  1.00  0.00     0.208 A 
ATOM      3  C   UNL     1      -8.351  -3.295   2.019  1.00  0.00     0.238 A 
ATOM      4  O   UNL     1      -9.402  -3.984   1.948  1.00  0.00    -0.285 OA
ATOM      5  C   UNL     1      -7.486  -3.149   0.906  1.00  0.00     0.111 A 
ATOM      6  C   UNL     1      -7.665  -3.801  -0.352  1.00  0.00     0.134 A 
ATOM      7  C   UNL     1      -6.804  -3.498  -1.414  1.00  0.00     0.093 A 
ATOM      8  C   UNL     1      -5.736  -2.618  -1.248  1.00  0.00     0.123 A 
ATOM      9  C   UNL     1      -5.519  -2.017  -0.008  1.00  0.00     0.094 A 
ATOM     10  C   UNL     1      -6.383  -2.269   1.061  1.00  0.00     0.146 A 
ATOM     11  O   UNL     1      -6.154  -1.660   2.219  1.00  0.00    -0.452 OA
ENDROOT
BRANCH   1  12
ATOM     12  C   UNL     1      -6.558  -1.069   4.519  1.00  0.00     0.025 A 
ATOM     13  C   UNL     1      -7.025   0.234   4.762  1.00  0.00     0.016 A 
ATOM     14  C   UNL     1      -6.643   0.916   5.920  1.00  0.00     0.051 A 
ATOM     15  C   UNL     1      -5.779   0.314   6.844  1.00  0.00     0.157 A 
ATOM     16  C   UNL     1      -5.675  -1.660   5.437  1.00  0.00     0.062 A 
ATOM     17  C   UNL     1      -5.290  -0.980   6.598  1.00  0.00     0.158 A 
BRANCH  15  18
ATOM     18  O   UNL     1      -5.401   0.997   7.999  1.00  0.00    -0.504 OA
ATOM     19  H   UNL     1      -4.429   1.085   8.269  1.00  0.00     0.293 HD
ENDBRANCH  15  18
BRANCH  17  20
ATOM     20  O   UNL     1      -4.422  -1.604   7.493  1.00  0.00    -0.504 OA
ATOM     21  H   UNL     1      -3.989  -2.497   7.289  1.00  0.00     0.293 HD
ENDBRANCH  17  20
ENDBRANCH   1  12
BRANCH   2  22
ATOM     22  O   UNL     1      -8.853  -2.833   4.356  1.00  0.00    -0.502 OA
ATOM     23  H   UNL     1      -9.695  -3.393   4.339  1.00  0.00     0.293 HD
ENDBRANCH   2  22
BRANCH   6  24
ATOM     24  O   UNL     1      -8.646  -4.765  -0.603  1.00  0.00    -0.507 OA
ATOM     25  H   UNL     1      -8.669  -5.368  -1.412  1.00  0.00     0.293 HD
ENDBRANCH   6  24
BRANCH   8  26
ATOM     26  O   UNL     1      -4.889  -2.353  -2.322  1.00  0.00    -0.508 OA
ATOM     27  H   UNL     1      -5.246  -2.014  -3.208  1.00  0.00     0.293 HD
ENDBRANCH   8  26
TORSDOF 6
ENDMDL
