MODEL 1
REMARK VINA RESULT:    -6.089      0.000      0.000
REMARK INTER + INTRA:          -6.891
REMARK INTER:                  -6.801
REMARK INTRA:                  -0.090
REMARK UNBOUND:                -0.090
REMARK SMILES CCc1ccc(O)cc1O
REMARK SMILES IDX 3 1 9 2 8 3 6 4 5 5 4 6 2 7 1 8 10 9 7 11
REMARK H PARENT 10 10 7 12
REMARK Flexibility Score: inf
ROOT
ATOM      1  C   UNL     1      80.243   1.157   0.013  1.00  0.00    -0.006 A 
ATOM      2  C   UNL     1      79.502   2.318   0.310  1.00  0.00     0.122 A 
ATOM      3  C   UNL     1      78.106   2.308   0.179  1.00  0.00     0.092 A 
ATOM      4  C   UNL     1      77.442   1.146  -0.234  1.00  0.00     0.119 A 
ATOM      5  C   UNL     1      78.175  -0.010  -0.514  1.00  0.00     0.047 A 
ATOM      6  C   UNL     1      79.567  -0.007  -0.388  1.00  0.00     0.011 A 
ENDROOT
BRANCH   1   7
ATOM      7  C   UNL     1      81.743   1.131   0.174  1.00  0.00     0.036 C 
ATOM      8  C   UNL     1      82.190  -0.153   0.865  1.00  0.00     0.009 C 
ENDBRANCH   1   7
BRANCH   2   9
ATOM      9  O   UNL     1      80.152   3.477   0.735  1.00  0.00    -0.508 OA
ATOM     10  H   UNL     1      80.237   3.709   1.717  1.00  0.00     0.293 HD
ENDBRANCH   2   9
BRANCH   4  11
ATOM     11  O   UNL     1      76.055   1.128  -0.367  1.00  0.00    -0.508 OA
ATOM     12  H   UNL     1      75.575   1.765  -0.992  1.00  0.00     0.293 HD
ENDBRANCH   4  11
TORSDOF 3
ENDMDL
MODEL 2
REMARK VINA RESULT:    -5.839      1.607      2.372
REMARK INTER + INTRA:          -6.611
REMARK INTER:                  -6.518
REMARK INTRA:                  -0.093
REMARK UNBOUND:                -0.090
REMARK SMILES CCc1ccc(O)cc1O
REMARK SMILES IDX 3 1 9 2 8 3 6 4 5 5 4 6 2 7 1 8 10 9 7 11
REMARK H PARENT 10 10 7 12
REMARK Flexibility Score: inf
ROOT
ATOM      1  C   UNL     1      80.430   1.515   0.046  1.00  0.00    -0.006 A 
ATOM      2  C   UNL     1      79.725   0.345  -0.303  1.00  0.00     0.122 A 
ATOM      3  C   UNL     1      78.324   0.363  -0.355  1.00  0.00     0.092 A 
ATOM      4  C   UNL     1      77.620   1.541  -0.072  1.00  0.00     0.119 A 
ATOM      5  C   UNL     1      78.319   2.704   0.261  1.00  0.00     0.047 A 
ATOM      6  C   UNL     1      79.715   2.694   0.316  1.00  0.00     0.011 A 
ENDROOT
BRANCH   1   7
ATOM      7  C   UNL     1      81.938   1.532   0.080  1.00  0.00     0.036 C 
ATOM      8  C   UNL     1      82.483   2.700  -0.735  1.00  0.00     0.009 C 
ENDBRANCH   1   7
BRANCH   2   9
ATOM      9  O   UNL     1      80.418  -0.829  -0.600  1.00  0.00    -0.508 OA
ATOM     10  H   UNL     1      79.966  -1.610  -1.061  1.00  0.00     0.293 HD
ENDBRANCH   2   9
BRANCH   4  11
ATOM     11  O   UNL     1      76.228   1.566  -0.121  1.00  0.00    -0.508 OA
ATOM     12  H   UNL     1      75.666   1.357   0.697  1.00  0.00     0.293 HD
ENDBRANCH   4  11
TORSDOF 3
ENDMDL
MODEL 3
REMARK VINA RESULT:    -5.656      1.852      3.643
REMARK INTER + INTRA:          -6.407
REMARK INTER:                  -6.321
REMARK INTRA:                  -0.087
REMARK UNBOUND:                -0.090
REMARK SMILES CCc1ccc(O)cc1O
REMARK SMILES IDX 3 1 9 2 8 3 6 4 5 5 4 6 2 7 1 8 10 9 7 11
REMARK H PARENT 10 10 7 12
REMARK Flexibility Score: inf
ROOT
ATOM      1  C   UNL     1      80.815   1.494  -0.096  1.00  0.00    -0.006 A 
ATOM      2  C   UNL     1      79.857   2.518   0.048  1.00  0.00     0.122 A 
ATOM      3  C   UNL     1      80.214   3.850  -0.209  1.00  0.00     0.092 A 
ATOM      4  C   UNL     1      81.515   4.168  -0.619  1.00  0.00     0.119 A 
ATOM      5  C   UNL     1      82.461   3.151  -0.776  1.00  0.00     0.047 A 
ATOM      6  C   UNL     1      82.114   1.822  -0.521  1.00  0.00     0.011 A 
ENDROOT
BRANCH   1   7
ATOM      7  C   UNL     1      80.451   0.051   0.144  1.00  0.00     0.036 C 
ATOM      8  C   UNL     1      81.588  -0.684   0.846  1.00  0.00     0.009 C 
ENDBRANCH   1   7
BRANCH   2   9
ATOM      9  O   UNL     1      78.555   2.211   0.443  1.00  0.00    -0.508 OA
ATOM     10  H   UNL     1      77.942   2.911   0.842  1.00  0.00     0.293 HD
ENDBRANCH   2   9
BRANCH   4  11
ATOM     11  O   UNL     1      81.877   5.488  -0.876  1.00  0.00    -0.508 OA
ATOM     12  H   UNL     1      81.225   6.252  -0.741  1.00  0.00     0.293 HD
ENDBRANCH   4  11
TORSDOF 3
ENDMDL
MODEL 4
REMARK VINA RESULT:    -5.518      2.706      4.071
REMARK INTER + INTRA:          -6.253
REMARK INTER:                  -6.164
REMARK INTRA:                  -0.089
REMARK UNBOUND:                -0.090
REMARK SMILES CCc1ccc(O)cc1O
REMARK SMILES IDX 3 1 9 2 8 3 6 4 5 5 4 6 2 7 1 8 10 9 7 11
REMARK H PARENT 10 10 7 12
REMARK Flexibility Score: inf
ROOT
ATOM      1  C   UNL     1      80.810   1.718  -0.126  1.00  0.00    -0.006 A 
ATOM      2  C   UNL     1      82.057   2.124  -0.642  1.00  0.00     0.122 A 
ATOM      3  C   UNL     1      82.324   3.488  -0.830  1.00  0.00     0.092 A 
ATOM      4  C   UNL     1      81.362   4.450  -0.496  1.00  0.00     0.119 A 
ATOM      5  C   UNL     1      80.131   4.048   0.029  1.00  0.00     0.047 A 
ATOM      6  C   UNL     1      79.857   2.691   0.217  1.00  0.00     0.011 A 
ENDROOT
BRANCH   1   7
ATOM      7  C   UNL     1      80.508   0.260   0.114  1.00  0.00     0.036 C 
ATOM      8  C   UNL     1      79.139  -0.108  -0.449  1.00  0.00     0.009 C 
ENDBRANCH   1   7
BRANCH   2   9
ATOM      9  O   UNL     1      83.027   1.175  -0.964  1.00  0.00    -0.508 OA
ATOM     10  H   UNL     1      83.057   0.271  -0.509  1.00  0.00     0.293 HD
ENDBRANCH   2   9
BRANCH   4  11
ATOM     11  O   UNL     1      81.620   5.807  -0.680  1.00  0.00    -0.508 OA
ATOM     12  H   UNL     1      80.914   6.435  -1.047  1.00  0.00     0.293 HD
ENDBRANCH   4  11
TORSDOF 3
ENDMDL
MODEL 5
REMARK VINA RESULT:    -5.477      2.163      2.988
REMARK INTER + INTRA:          -6.208
REMARK INTER:                  -6.114
REMARK INTRA:                  -0.094
REMARK UNBOUND:                -0.090
REMARK SMILES CCc1ccc(O)cc1O
REMARK SMILES IDX 3 1 9 2 8 3 6 4 5 5 4 6 2 7 1 8 10 9 7 11
REMARK H PARENT 10 10 7 12
REMARK Flexibility Score: inf
ROOT
ATOM      1  C   UNL     1      82.596   2.325  -0.625  1.00  0.00    -0.006 A 
ATOM      2  C   UNL     1      81.927   3.547  -0.842  1.00  0.00     0.122 A 
ATOM      3  C   UNL     1      80.587   3.688  -0.455  1.00  0.00     0.092 A 
ATOM      4  C   UNL     1      79.911   2.624   0.158  1.00  0.00     0.119 A 
ATOM      5  C   UNL     1      80.578   1.418   0.386  1.00  0.00     0.047 A 
ATOM      6  C   UNL     1      81.914   1.269   0.002  1.00  0.00     0.011 A 
ENDROOT
BRANCH   1   7
ATOM      7  C   UNL     1      84.046   2.156  -1.005  1.00  0.00     0.036 C 
ATOM      8  C   UNL     1      84.860   1.654   0.183  1.00  0.00     0.009 C 
ENDBRANCH   1   7
BRANCH   2   9
ATOM      9  O   UNL     1      82.595   4.617  -1.439  1.00  0.00    -0.508 OA
ATOM     10  H   UNL     1      83.225   4.480  -2.220  1.00  0.00     0.293 HD
ENDBRANCH   2   9
BRANCH   4  11
ATOM     11  O   UNL     1      78.580   2.756   0.545  1.00  0.00    -0.508 OA
ATOM     12  H   UNL     1      78.327   3.111   1.461  1.00  0.00     0.293 HD
ENDBRANCH   4  11
TORSDOF 3
ENDMDL
MODEL 6
REMARK VINA RESULT:    -5.333      2.348      4.014
REMARK INTER + INTRA:          -6.047
REMARK INTER:                  -5.962
REMARK INTRA:                  -0.085
REMARK UNBOUND:                -0.090
REMARK SMILES CCc1ccc(O)cc1O
REMARK SMILES IDX 3 1 9 2 8 3 6 4 5 5 4 6 2 7 1 8 10 9 7 11
REMARK H PARENT 10 10 7 12
REMARK Flexibility Score: inf
ROOT
ATOM      1  C   UNL     1      80.861   2.144  -0.032  1.00  0.00    -0.006 A 
ATOM      2  C   UNL     1      79.994   1.032  -0.034  1.00  0.00     0.122 A 
ATOM      3  C   UNL     1      80.471  -0.226   0.360  1.00  0.00     0.092 A 
ATOM      4  C   UNL     1      81.802  -0.383   0.768  1.00  0.00     0.119 A 
ATOM      5  C   UNL     1      82.658   0.721   0.784  1.00  0.00     0.047 A 
ATOM      6  C   UNL     1      82.190   1.978   0.392  1.00  0.00     0.011 A 
ENDROOT
BRANCH   1   7
ATOM      7  C   UNL     1      80.367   3.514  -0.422  1.00  0.00     0.036 C 
ATOM      8  C   UNL     1      81.532   4.417  -0.815  1.00  0.00     0.009 C 
ENDBRANCH   1   7
BRANCH   2   9
ATOM      9  O   UNL     1      78.663   1.181  -0.426  1.00  0.00    -0.508 OA
ATOM     10  H   UNL     1      78.412   1.388  -1.384  1.00  0.00     0.293 HD
ENDBRANCH   2   9
BRANCH   4  11
ATOM     11  O   UNL     1      82.283  -1.630   1.161  1.00  0.00    -0.508 OA
ATOM     12  H   UNL     1      82.104  -2.464   0.612  1.00  0.00     0.293 HD
ENDBRANCH   4  11
TORSDOF 3
ENDMDL
MODEL 7
REMARK VINA RESULT:    -5.236      8.720      9.880
REMARK INTER + INTRA:          -5.938
REMARK INTER:                  -5.837
REMARK INTRA:                  -0.101
REMARK UNBOUND:                -0.090
REMARK SMILES CCc1ccc(O)cc1O
REMARK SMILES IDX 3 1 9 2 8 3 6 4 5 5 4 6 2 7 1 8 10 9 7 11
REMARK H PARENT 10 10 7 12
REMARK Flexibility Score: inf
ROOT
ATOM      1  C   UNL     1      70.261   1.272  -2.874  1.00  0.00    -0.006 A 
ATOM      2  C   UNL     1      71.030   0.213  -2.352  1.00  0.00     0.122 A 
ATOM      3  C   UNL     1      71.012  -1.041  -2.981  1.00  0.00     0.092 A 
ATOM      4  C   UNL     1      70.242  -1.243  -4.134  1.00  0.00     0.119 A 
ATOM      5  C   UNL     1      69.490  -0.189  -4.660  1.00  0.00     0.047 A 
ATOM      6  C   UNL     1      69.503   1.063  -4.038  1.00  0.00     0.011 A 
ENDROOT
BRANCH   1   7
ATOM      7  C   UNL     1      70.286   2.638  -2.235  1.00  0.00     0.036 C 
ATOM      8  C   UNL     1      71.394   3.496  -2.836  1.00  0.00     0.009 C 
ENDBRANCH   1   7
BRANCH   2   9
ATOM      9  O   UNL     1      71.811   0.407  -1.212  1.00  0.00    -0.508 OA
ATOM     10  H   UNL     1      72.764   0.069  -1.157  1.00  0.00     0.293 HD
ENDBRANCH   2   9
BRANCH   4  11
ATOM     11  O   UNL     1      70.218  -2.485  -4.764  1.00  0.00    -0.508 OA
ATOM     12  H   UNL     1      70.754  -3.269  -4.410  1.00  0.00     0.293 HD
ENDBRANCH   4  11
TORSDOF 3
ENDMDL
MODEL 8
REMARK VINA RESULT:    -5.216      2.341      3.275
REMARK INTER + INTRA:          -5.916
REMARK INTER:                  -5.819
REMARK INTRA:                  -0.097
REMARK UNBOUND:                -0.090
REMARK SMILES CCc1ccc(O)cc1O
REMARK SMILES IDX 3 1 9 2 8 3 6 4 5 5 4 6 2 7 1 8 10 9 7 11
REMARK H PARENT 10 10 7 12
REMARK Flexibility Score: inf
ROOT
ATOM      1  C   UNL     1      82.452   1.033   0.699  1.00  0.00    -0.006 A 
ATOM      2  C   UNL     1      81.855  -0.237   0.837  1.00  0.00     0.122 A 
ATOM      3  C   UNL     1      80.549  -0.449   0.371  1.00  0.00     0.092 A 
ATOM      4  C   UNL     1      79.838   0.592  -0.242  1.00  0.00     0.119 A 
ATOM      5  C   UNL     1      80.435   1.846  -0.391  1.00  0.00     0.047 A 
ATOM      6  C   UNL     1      81.735   2.065   0.071  1.00  0.00     0.011 A 
ENDROOT
BRANCH   1   7
ATOM      7  C   UNL     1      83.865   1.280   1.163  1.00  0.00     0.036 C 
ATOM      8  C   UNL     1      84.742   1.745   0.004  1.00  0.00     0.009 C 
ENDBRANCH   1   7
BRANCH   2   9
ATOM      9  O   UNL     1      82.559  -1.283   1.433  1.00  0.00    -0.508 OA
ATOM     10  H   UNL     1      83.229  -1.837   0.913  1.00  0.00     0.293 HD
ENDBRANCH   2   9
BRANCH   4  11
ATOM     11  O   UNL     1      78.540   0.389  -0.706  1.00  0.00    -0.508 OA
ATOM     12  H   UNL     1      77.733   0.681  -0.167  1.00  0.00     0.293 HD
ENDBRANCH   4  11
TORSDOF 3
ENDMDL
MODEL 9
REMARK VINA RESULT:    -5.187      8.705     10.161
REMARK INTER + INTRA:          -5.884
REMARK INTER:                  -5.798
REMARK INTRA:                  -0.086
REMARK UNBOUND:                -0.090
REMARK SMILES CCc1ccc(O)cc1O
REMARK SMILES IDX 3 1 9 2 8 3 6 4 5 5 4 6 2 7 1 8 10 9 7 11
REMARK H PARENT 10 10 7 12
REMARK Flexibility Score: inf
ROOT
ATOM      1  C   UNL     1      70.377  -0.759  -3.761  1.00  0.00    -0.006 A 
ATOM      2  C   UNL     1      69.555   0.228  -4.342  1.00  0.00     0.122 A 
ATOM      3  C   UNL     1      69.639   1.556  -3.900  1.00  0.00     0.092 A 
ATOM      4  C   UNL     1      70.544   1.910  -2.891  1.00  0.00     0.119 A 
ATOM      5  C   UNL     1      71.369   0.935  -2.324  1.00  0.00     0.047 A 
ATOM      6  C   UNL     1      71.290  -0.391  -2.759  1.00  0.00     0.011 A 
ENDROOT
BRANCH   1   7
ATOM      7  C   UNL     1      70.329  -2.189  -4.239  1.00  0.00     0.036 C 
ATOM      8  C   UNL     1      71.557  -2.958  -3.766  1.00  0.00     0.009 C 
ENDBRANCH   1   7
BRANCH   2   9
ATOM      9  O   UNL     1      68.660  -0.111  -5.358  1.00  0.00    -0.508 OA
ATOM     10  H   UNL     1      67.989   0.555  -5.718  1.00  0.00     0.293 HD
ENDBRANCH   2   9
BRANCH   4  11
ATOM     11  O   UNL     1      70.633   3.227  -2.445  1.00  0.00    -0.508 OA
ATOM     12  H   UNL     1      71.259   3.490  -1.692  1.00  0.00     0.293 HD
ENDBRANCH   4  11
TORSDOF 3
ENDMDL
