MODEL 1
REMARK VINA RESULT:    -5.107      0.000      0.000
REMARK INTER + INTRA:          -5.805
REMARK INTER:                  -5.555
REMARK INTRA:                  -0.250
REMARK UNBOUND:                -0.250
REMARK SMILES O=C([O-])c1ccccc1O
REMARK SMILES IDX 4 1 9 2 5 3 8 4 6 5 7 6 2 7 1 8 3 9 10 10
REMARK H PARENT 10 11
REMARK Flexibility Score: inf
ROOT
ATOM      1  C   UNL     1     202.783 208.655 280.016  1.00  0.00     0.039 A 
ATOM      2  C   UNL     1     201.663 208.086 280.675  1.00  0.00     0.124 A 
ATOM      3  C   UNL     1     203.821 207.809 279.584  1.00  0.00     0.014 A 
ATOM      4  C   UNL     1     201.580 206.696 280.825  1.00  0.00     0.047 A 
ATOM      5  C   UNL     1     203.733 206.426 279.762  1.00  0.00     0.001 A 
ATOM      6  C   UNL     1     202.610 205.870 280.371  1.00  0.00     0.004 A 
ENDROOT
BRANCH   1   7
ATOM      7  C   UNL     1     202.884 210.103 279.733  1.00  0.00     0.075 C 
ATOM      8  O   UNL     1     201.890 210.729 279.278  1.00  0.00    -0.545 OA
ATOM      9  O   UNL     1     204.047 210.806 280.026  1.00  0.00    -0.545 OA
ENDBRANCH   1   7
BRANCH   2  10
ATOM     10  O   UNL     1     200.637 208.861 281.220  1.00  0.00    -0.507 OA
ATOM     11  H   UNL     1     200.632 209.871 281.198  1.00  0.00     0.293 HD
ENDBRANCH   2  10
TORSDOF 2
ENDMDL
MODEL 2
REMARK VINA RESULT:    -4.997      1.988      3.371
REMARK INTER + INTRA:          -5.685
REMARK INTER:                  -5.435
REMARK INTRA:                  -0.250
REMARK UNBOUND:                -0.250
REMARK SMILES O=C([O-])c1ccccc1O
REMARK SMILES IDX 4 1 9 2 5 3 8 4 6 5 7 6 2 7 1 8 3 9 10 10
REMARK H PARENT 10 11
REMARK Flexibility Score: inf
ROOT
ATOM      1  C   UNL     1     202.086 208.444 280.004  1.00  0.00     0.039 A 
ATOM      2  C   UNL     1     201.186 209.540 279.980  1.00  0.00     0.124 A 
ATOM      3  C   UNL     1     202.978 208.272 278.929  1.00  0.00     0.014 A 
ATOM      4  C   UNL     1     201.244 210.461 278.927  1.00  0.00     0.047 A 
ATOM      5  C   UNL     1     203.007 209.188 277.874  1.00  0.00     0.001 A 
ATOM      6  C   UNL     1     202.149 210.286 277.878  1.00  0.00     0.004 A 
ENDROOT
BRANCH   1   7
ATOM      7  C   UNL     1     202.149 207.494 281.136  1.00  0.00     0.075 C 
ATOM      8  O   UNL     1     202.026 207.911 282.318  1.00  0.00    -0.545 OA
ATOM      9  O   UNL     1     202.273 206.128 280.913  1.00  0.00    -0.545 OA
ENDBRANCH   1   7
BRANCH   2  10
ATOM     10  O   UNL     1     200.205 209.730 280.956  1.00  0.00    -0.507 OA
ATOM     11  H   UNL     1     200.266 209.341 281.887  1.00  0.00     0.293 HD
ENDBRANCH   2  10
TORSDOF 2
ENDMDL
MODEL 3
REMARK VINA RESULT:    -4.930      3.861      4.898
REMARK INTER + INTRA:          -5.612
REMARK INTER:                  -5.370
REMARK INTRA:                  -0.242
REMARK UNBOUND:                -0.250
REMARK SMILES O=C([O-])c1ccccc1O
REMARK SMILES IDX 4 1 9 2 5 3 8 4 6 5 7 6 2 7 1 8 3 9 10 10
REMARK H PARENT 10 11
REMARK Flexibility Score: inf
ROOT
ATOM      1  C   UNL     1     202.974 205.827 277.943  1.00  0.00     0.039 A 
ATOM      2  C   UNL     1     204.168 205.199 277.506  1.00  0.00     0.124 A 
ATOM      3  C   UNL     1     202.105 206.380 276.984  1.00  0.00     0.014 A 
ATOM      4  C   UNL     1     204.428 205.083 276.135  1.00  0.00     0.047 A 
ATOM      5  C   UNL     1     202.391 206.276 275.620  1.00  0.00     0.001 A 
ATOM      6  C   UNL     1     203.545 205.619 275.196  1.00  0.00     0.004 A 
ENDROOT
BRANCH   1   7
ATOM      7  C   UNL     1     202.588 205.891 279.370  1.00  0.00     0.075 C 
ATOM      8  O   UNL     1     201.375 205.823 279.700  1.00  0.00    -0.545 OA
ATOM      9  O   UNL     1     203.554 205.957 280.366  1.00  0.00    -0.545 OA
ENDBRANCH   1   7
BRANCH   2  10
ATOM     10  O   UNL     1     205.130 204.711 278.394  1.00  0.00    -0.507 OA
ATOM     11  H   UNL     1     205.127 204.915 279.383  1.00  0.00     0.293 HD
ENDBRANCH   2  10
TORSDOF 2
ENDMDL
MODEL 4
REMARK VINA RESULT:    -4.871      3.003      4.534
REMARK INTER + INTRA:          -5.548
REMARK INTER:                  -5.298
REMARK INTRA:                  -0.250
REMARK UNBOUND:                -0.250
REMARK SMILES O=C([O-])c1ccccc1O
REMARK SMILES IDX 4 1 9 2 5 3 8 4 6 5 7 6 2 7 1 8 3 9 10 10
REMARK H PARENT 10 11
REMARK Flexibility Score: inf
ROOT
ATOM      1  C   UNL     1     204.192 208.843 278.468  1.00  0.00     0.039 A 
ATOM      2  C   UNL     1     204.618 210.004 277.774  1.00  0.00     0.124 A 
ATOM      3  C   UNL     1     204.017 208.909 279.862  1.00  0.00     0.014 A 
ATOM      4  C   UNL     1     204.794 211.204 278.475  1.00  0.00     0.047 A 
ATOM      5  C   UNL     1     204.219 210.108 280.550  1.00  0.00     0.001 A 
ATOM      6  C   UNL     1     204.596 211.256 279.856  1.00  0.00     0.004 A 
ENDROOT
BRANCH   1   7
ATOM      7  C   UNL     1     203.887 207.572 277.774  1.00  0.00     0.075 C 
ATOM      8  O   UNL     1     202.781 207.000 277.960  1.00  0.00    -0.545 OA
ATOM      9  O   UNL     1     204.781 207.029 276.859  1.00  0.00    -0.545 OA
ENDBRANCH   1   7
BRANCH   2  10
ATOM     10  O   UNL     1     204.908 210.001 276.408  1.00  0.00    -0.507 OA
ATOM     11  H   UNL     1     204.882 209.167 275.837  1.00  0.00     0.293 HD
ENDBRANCH   2  10
TORSDOF 2
ENDMDL
MODEL 5
REMARK VINA RESULT:    -4.852      2.660      3.706
REMARK INTER + INTRA:          -5.527
REMARK INTER:                  -5.284
REMARK INTRA:                  -0.243
REMARK UNBOUND:                -0.250
REMARK SMILES O=C([O-])c1ccccc1O
REMARK SMILES IDX 4 1 9 2 5 3 8 4 6 5 7 6 2 7 1 8 3 9 10 10
REMARK H PARENT 10 11
REMARK Flexibility Score: inf
ROOT
ATOM      1  C   UNL     1     203.772 206.734 279.353  1.00  0.00     0.039 A 
ATOM      2  C   UNL     1     203.851 208.080 279.791  1.00  0.00     0.124 A 
ATOM      3  C   UNL     1     202.837 205.875 279.959  1.00  0.00     0.014 A 
ATOM      4  C   UNL     1     202.961 208.545 280.767  1.00  0.00     0.047 A 
ATOM      5  C   UNL     1     201.971 206.348 280.948  1.00  0.00     0.001 A 
ATOM      6  C   UNL     1     202.026 207.684 281.343  1.00  0.00     0.004 A 
ENDROOT
BRANCH   1   7
ATOM      7  C   UNL     1     204.611 206.206 278.255  1.00  0.00     0.075 C 
ATOM      8  O   UNL     1     204.838 204.970 278.171  1.00  0.00    -0.545 OA
ATOM      9  O   UNL     1     205.100 207.050 277.265  1.00  0.00    -0.545 OA
ENDBRANCH   1   7
BRANCH   2  10
ATOM     10  O   UNL     1     204.814 208.972 279.312  1.00  0.00    -0.507 OA
ATOM     11  H   UNL     1     204.965 209.151 278.329  1.00  0.00     0.293 HD
ENDBRANCH   2  10
TORSDOF 2
ENDMDL
MODEL 6
REMARK VINA RESULT:    -4.826      3.431      4.031
REMARK INTER + INTRA:          -5.499
REMARK INTER:                  -5.257
REMARK INTRA:                  -0.242
REMARK UNBOUND:                -0.250
REMARK SMILES O=C([O-])c1ccccc1O
REMARK SMILES IDX 4 1 9 2 5 3 8 4 6 5 7 6 2 7 1 8 3 9 10 10
REMARK H PARENT 10 11
REMARK Flexibility Score: inf
ROOT
ATOM      1  C   UNL     1     204.014 207.111 277.946  1.00  0.00     0.039 A 
ATOM      2  C   UNL     1     204.076 206.009 278.838  1.00  0.00     0.124 A 
ATOM      3  C   UNL     1     203.142 208.175 278.240  1.00  0.00     0.014 A 
ATOM      4  C   UNL     1     203.321 206.028 280.017  1.00  0.00     0.047 A 
ATOM      5  C   UNL     1     202.379 208.169 279.410  1.00  0.00     0.001 A 
ATOM      6  C   UNL     1     202.476 207.102 280.302  1.00  0.00     0.004 A 
ENDROOT
BRANCH   1   7
ATOM      7  C   UNL     1     204.862 207.201 276.737  1.00  0.00     0.075 C 
ATOM      8  O   UNL     1     205.297 208.319 276.353  1.00  0.00    -0.545 OA
ATOM      9  O   UNL     1     205.247 206.056 276.051  1.00  0.00    -0.545 OA
ENDBRANCH   1   7
BRANCH   2  10
ATOM     10  O   UNL     1     204.841 204.870 278.573  1.00  0.00    -0.507 OA
ATOM     11  H   UNL     1     205.609 204.856 277.917  1.00  0.00     0.293 HD
ENDBRANCH   2  10
TORSDOF 2
ENDMDL
MODEL 7
REMARK VINA RESULT:    -4.759      2.450      4.033
REMARK INTER + INTRA:          -5.426
REMARK INTER:                  -5.173
REMARK INTRA:                  -0.253
REMARK UNBOUND:                -0.250
REMARK SMILES O=C([O-])c1ccccc1O
REMARK SMILES IDX 4 1 9 2 5 3 8 4 6 5 7 6 2 7 1 8 3 9 10 10
REMARK H PARENT 10 11
REMARK Flexibility Score: inf
ROOT
ATOM      1  C   UNL     1     204.096 208.593 279.342  1.00  0.00     0.039 A 
ATOM      2  C   UNL     1     204.182 209.649 280.284  1.00  0.00     0.124 A 
ATOM      3  C   UNL     1     204.383 208.862 277.991  1.00  0.00     0.014 A 
ATOM      4  C   UNL     1     204.610 210.916 279.869  1.00  0.00     0.047 A 
ATOM      5  C   UNL     1     204.787 210.137 277.588  1.00  0.00     0.001 A 
ATOM      6  C   UNL     1     204.910 211.160 278.527  1.00  0.00     0.004 A 
ENDROOT
BRANCH   1   7
ATOM      7  C   UNL     1     203.752 207.208 279.731  1.00  0.00     0.075 C 
ATOM      8  O   UNL     1     204.432 206.241 279.296  1.00  0.00    -0.545 OA
ATOM      9  O   UNL     1     202.725 206.956 280.633  1.00  0.00    -0.545 OA
ENDBRANCH   1   7
BRANCH   2  10
ATOM     10  O   UNL     1     203.822 209.492 281.625  1.00  0.00    -0.507 OA
ATOM     11  H   UNL     1     204.451 209.673 282.394  1.00  0.00     0.293 HD
ENDBRANCH   2  10
TORSDOF 2
ENDMDL
MODEL 8
REMARK VINA RESULT:    -4.740      1.090      2.289
REMARK INTER + INTRA:          -5.405
REMARK INTER:                  -5.181
REMARK INTRA:                  -0.223
REMARK UNBOUND:                -0.250
REMARK SMILES O=C([O-])c1ccccc1O
REMARK SMILES IDX 4 1 9 2 5 3 8 4 6 5 7 6 2 7 1 8 3 9 10 10
REMARK H PARENT 10 11
REMARK Flexibility Score: inf
ROOT
ATOM      1  C   UNL     1     203.115 208.699 279.837  1.00  0.00     0.039 A 
ATOM      2  C   UNL     1     204.035 207.763 279.301  1.00  0.00     0.124 A 
ATOM      3  C   UNL     1     202.042 208.228 280.617  1.00  0.00     0.014 A 
ATOM      4  C   UNL     1     203.898 206.403 279.606  1.00  0.00     0.047 A 
ATOM      5  C   UNL     1     201.907 206.866 280.894  1.00  0.00     0.001 A 
ATOM      6  C   UNL     1     202.839 205.956 280.398  1.00  0.00     0.004 A 
ENDROOT
BRANCH   1   7
ATOM      7  C   UNL     1     203.261 210.158 279.640  1.00  0.00     0.075 C 
ATOM      8  O   UNL     1     202.282 210.843 279.241  1.00  0.00    -0.545 OA
ATOM      9  O   UNL     1     204.450 210.803 279.956  1.00  0.00    -0.545 OA
ENDBRANCH   1   7
BRANCH   2  10
ATOM     10  O   UNL     1     205.070 208.135 278.439  1.00  0.00    -0.507 OA
ATOM     11  H   UNL     1     204.919 208.629 277.570  1.00  0.00     0.293 HD
ENDBRANCH   2  10
TORSDOF 2
ENDMDL
MODEL 9
REMARK VINA RESULT:    -4.679      1.819      2.177
REMARK INTER + INTRA:          -5.339
REMARK INTER:                  -5.089
REMARK INTRA:                  -0.250
REMARK UNBOUND:                -0.250
REMARK SMILES O=C([O-])c1ccccc1O
REMARK SMILES IDX 4 1 9 2 5 3 8 4 6 5 7 6 2 7 1 8 3 9 10 10
REMARK H PARENT 10 11
REMARK Flexibility Score: inf
ROOT
ATOM      1  C   UNL     1     202.377 207.960 278.747  1.00  0.00     0.039 A 
ATOM      2  C   UNL     1     202.129 208.407 280.070  1.00  0.00     0.124 A 
ATOM      3  C   UNL     1     202.468 206.578 278.501  1.00  0.00     0.014 A 
ATOM      4  C   UNL     1     201.918 207.470 281.089  1.00  0.00     0.047 A 
ATOM      5  C   UNL     1     202.277 205.656 279.534  1.00  0.00     0.001 A 
ATOM      6  C   UNL     1     201.992 206.102 280.823  1.00  0.00     0.004 A 
ENDROOT
BRANCH   1   7
ATOM      7  C   UNL     1     202.506 208.893 277.606  1.00  0.00     0.075 C 
ATOM      8  O   UNL     1     203.363 208.679 276.709  1.00  0.00    -0.545 OA
ATOM      9  O   UNL     1     201.644 209.975 277.470  1.00  0.00    -0.545 OA
ENDBRANCH   1   7
BRANCH   2  10
ATOM     10  O   UNL     1     202.120 209.760 280.418  1.00  0.00    -0.507 OA
ATOM     11  H   UNL     1     201.821 210.099 281.322  1.00  0.00     0.293 HD
ENDBRANCH   2  10
TORSDOF 2
ENDMDL
