MODEL 1
REMARK VINA RESULT:    28.066      0.000      0.000
REMARK INTER + INTRA:          42.209
REMARK INTER:                  42.833
REMARK INTRA:                  -0.623
REMARK UNBOUND:                -0.623
REMARK SMILES C[C@@H]1O[C@@H](O[C@@H]2CC[C@]3(C)[C@@H](CC[C@]4(C)[C@@H]3C=C[C@]35OC[C@@]6(CCC(C)(C)C[C@H]63)[C@H](O)C[C@]54C)[C@]2(C)CO)[C@H](O)[C@@H](O[C@@H]2O[C@@H](CO)[C@@H](O)[C@@H](O)[C@H]2O)[C@H]1O
REMARK SMILES IDX 1 1 2 2 54 3 41 4 39 5 4 6 3 7 55 8 42 10 43 11 52 12 44 13
REMARK SMILES IDX 50 14 45 15 48 16 53 17 51 19 46 21 47 22 49 24 5 26 6 27
REMARK SMILES IDX 7 28 35 29 8 30 11 31 36 32 9 33 12 34 10 35 16 36 13 37
REMARK SMILES IDX 14 38 17 39 15 40 33 41 18 42 19 43 32 44 34 45 29 46 20 47
REMARK SMILES IDX 30 48 22 49 28 50 21 51 23 52 25 53 24 54 26 55 27 56 37 57
REMARK SMILES IDX 38 58 31 60 40 62
REMARK H PARENT 55 9 53 18 51 20 47 23 49 25 38 59 31 61 40 63
REMARK Flexibility Score: inf
ROOT
ATOM      1  C   UNL     1      84.096  12.063   4.452  1.00  0.00     0.041 C 
ATOM      2  C   UNL     1      84.874  11.147   3.444  1.00  0.00     0.150 C 
ATOM      3  C   UNL     1      85.769  10.181   4.240  1.00  0.00     0.175 C 
ATOM      4  C   UNL     1      85.070   8.849   4.428  1.00  0.00     0.186 C 
ATOM      5  C   UNL     1      84.927   8.227   3.056  1.00  0.00     0.202 C 
ATOM      6  C   UNL     1      84.138   9.151   2.038  1.00  0.00     0.282 C 
ATOM      7  O   UNL     1      83.924  10.554   2.494  1.00  0.00    -0.344 OA
ENDROOT
BRANCH   3   8
ATOM      8  O   UNL     1      87.104  10.071   3.758  1.00  0.00    -0.388 OA
ATOM      9  H   UNL     1      87.114  10.610   2.915  1.00  0.00     0.211 HD
ENDBRANCH   3   8
BRANCH   4  10
ATOM     10  O   UNL     1      85.869   7.990   5.254  1.00  0.00    -0.341 OA
BRANCH  10  11
ATOM     11  C   UNL     1      85.244   7.524   6.485  1.00  0.00     0.282 C 
ATOM     12  C   UNL     1      83.525   7.398   6.405  1.00  0.00     0.202 C 
ATOM     13  O   UNL     1      86.175   6.398   7.079  1.00  0.00    -0.341 OA
ATOM     14  C   UNL     1      83.455   5.631   6.853  1.00  0.00     0.179 C 
ATOM     15  C   UNL     1      85.801   4.960   7.263  1.00  0.00     0.178 C 
ATOM     16  C   UNL     1      84.570   4.890   8.103  1.00  0.00     0.177 C 
BRANCH  12  17
ATOM     17  O   UNL     1      83.010   8.107   7.524  1.00  0.00    -0.385 OA
ATOM     18  H   UNL     1      83.973   8.534   7.808  1.00  0.00     0.211 HD
ENDBRANCH  12  17
BRANCH  14  19
ATOM     19  O   UNL     1      82.113   4.891   6.751  1.00  0.00    -0.387 OA
ATOM     20  H   UNL     1      81.047   5.216   7.010  1.00  0.00     0.211 HD
ENDBRANCH  14  19
BRANCH  15  21
ATOM     21  C   UNL     1      87.037   4.225   7.854  1.00  0.00     0.191 C 
BRANCH  21  22
ATOM     22  O   UNL     1      86.807   2.821   7.893  1.00  0.00    -0.394 OA
ATOM     23  H   UNL     1      86.913   2.471   6.963  1.00  0.00     0.210 HD
ENDBRANCH  21  22
ENDBRANCH  15  21
BRANCH  16  24
ATOM     24  O   UNL     1      84.903   5.904   9.004  1.00  0.00    -0.387 OA
ATOM     25  H   UNL     1      85.454   6.694   8.464  1.00  0.00     0.211 HD
ENDBRANCH  16  24
ENDBRANCH  10  11
ENDBRANCH   4  10
BRANCH   6  26
ATOM     26  O   UNL     1      84.706   9.157   0.656  1.00  0.00    -0.346 OA
BRANCH  26  27
ATOM     27  C   UNL     1      83.987   8.908  -0.583  1.00  0.00     0.130 C 
ATOM     28  C   UNL     1      83.608   7.430  -0.505  1.00  0.00     0.033 C 
ATOM     29  C   UNL     1      85.460   8.936  -1.661  1.00  0.00     0.020 C 
ATOM     30  C   UNL     1      84.695   6.481   0.082  1.00  0.00     0.010 C 
ATOM     31  C   UNL     1      86.456   7.428  -1.743  1.00  0.00     0.006 C 
ATOM     32  C   UNL     1      85.283   9.429  -3.205  1.00  0.00     0.017 C 
ATOM     33  C   UNL     1      86.199   6.540  -0.401  1.00  0.00    -0.022 C 
ATOM     34  C   UNL     1      87.125   6.643  -3.104  1.00  0.00     0.005 C 
ATOM     35  C   UNL     1      87.024   7.171   0.811  1.00  0.00     0.012 C 
ATOM     36  C   UNL     1      86.725   5.083  -0.632  1.00  0.00     0.024 C 
ATOM     37  C   UNL     1      86.921   4.859  -3.062  1.00  0.00     0.008 C 
ATOM     38  C   UNL     1      85.980   4.285  -1.864  1.00  0.00    -0.017 C 
ATOM     39  C   UNL     1      87.111   4.262   0.621  1.00  0.00    -0.024 C 
ATOM     40  C   UNL     1      84.612   4.767  -2.418  1.00  0.00     0.013 C 
ATOM     41  C   UNL     1      85.769   2.656  -1.369  1.00  0.00     0.009 C 
ATOM     42  C   UNL     1      86.507   3.135   1.006  1.00  0.00     0.005 C 
ATOM     43  C   UNL     1      85.376   2.604   0.195  1.00  0.00     0.096 C 
ATOM     44  C   UNL     1      84.618   1.818  -2.155  1.00  0.00     0.043 C 
ATOM     45  C   UNL     1      87.123   1.869  -1.459  1.00  0.00     0.015 C 
ATOM     46  C   UNL     1      84.835   1.241   0.721  1.00  0.00     0.037 C 
ATOM     47  O   UNL     1      84.325   3.508   0.456  1.00  0.00    -0.369 OA
ATOM     48  C   UNL     1      83.304   1.351  -1.330  1.00  0.00     0.124 C 
ATOM     49  C   UNL     1      83.398   1.367   0.282  1.00  0.00     0.026 C 
ATOM     50  C   UNL     1      85.349  -0.220   0.523  1.00  0.00     0.014 C 
ATOM     51  C   UNL     1      83.172   2.785   0.742  1.00  0.00     0.171 C 
ATOM     52  C   UNL     1      82.451   0.377   1.097  1.00  0.00     0.013 C 
ATOM     53  C   UNL     1      84.378  -1.304   1.248  1.00  0.00    -0.035 C 
ATOM     54  C   UNL     1      83.241  -0.574   2.046  1.00  0.00     0.007 C 
ATOM     55  C   UNL     1      83.703  -2.245   0.193  1.00  0.00     0.011 C 
ATOM     56  C   UNL     1      85.165  -2.220   2.254  1.00  0.00     0.011 C 
BRANCH  29  57
ATOM     57  C   UNL     1      86.503  10.142  -1.164  1.00  0.00     0.165 C 
BRANCH  57  58
ATOM     58  O   UNL     1      86.049  11.496  -1.152  1.00  0.00    -0.396 OA
ATOM     59  H   UNL     1      85.227  11.526  -1.744  1.00  0.00     0.210 HD
ENDBRANCH  57  58
ENDBRANCH  29  57
BRANCH  48  60
ATOM     60  O   UNL     1      82.960   0.040  -1.738  1.00  0.00    -0.392 OA
ATOM     61  H   UNL     1      82.760   0.016  -2.711  1.00  0.00     0.210 HD
ENDBRANCH  48  60
ENDBRANCH  26  27
ENDBRANCH   6  26
BRANCH   5  62
ATOM     62  O   UNL     1      84.321   6.970   3.143  1.00  0.00    -0.385 OA
ATOM     63  H   UNL     1      84.514   6.481   2.285  1.00  0.00     0.211 HD
ENDBRANCH   5  62
TORSDOF 14
ENDMDL
MODEL 2
REMARK VINA RESULT:    28.307      5.272      8.580
REMARK INTER + INTRA:          42.577
REMARK INTER:                  43.333
REMARK INTRA:                  -0.756
REMARK UNBOUND:                -0.623
REMARK SMILES C[C@@H]1O[C@@H](O[C@@H]2CC[C@]3(C)[C@@H](CC[C@]4(C)[C@@H]3C=C[C@]35OC[C@@]6(CCC(C)(C)C[C@H]63)[C@H](O)C[C@]54C)[C@]2(C)CO)[C@H](O)[C@@H](O[C@@H]2O[C@@H](CO)[C@@H](O)[C@@H](O)[C@H]2O)[C@H]1O
REMARK SMILES IDX 1 1 2 2 54 3 41 4 39 5 4 6 3 7 55 8 42 10 43 11 52 12 44 13
REMARK SMILES IDX 50 14 45 15 48 16 53 17 51 19 46 21 47 22 49 24 5 26 6 27
REMARK SMILES IDX 7 28 35 29 8 30 11 31 36 32 9 33 12 34 10 35 16 36 13 37
REMARK SMILES IDX 14 38 17 39 15 40 33 41 18 42 19 43 32 44 34 45 29 46 20 47
REMARK SMILES IDX 30 48 22 49 28 50 21 51 23 52 25 53 24 54 26 55 27 56 37 57
REMARK SMILES IDX 38 58 31 60 40 62
REMARK H PARENT 55 9 53 18 51 20 47 23 49 25 38 59 31 61 40 63
REMARK Flexibility Score: inf
ROOT
ATOM      1  C   UNL     1      86.568   5.297  -0.278  1.00  0.00     0.041 C 
ATOM      2  C   UNL     1      86.305   4.195  -1.363  1.00  0.00     0.150 C 
ATOM      3  C   UNL     1      85.831   2.909  -0.662  1.00  0.00     0.175 C 
ATOM      4  C   UNL     1      84.317   2.834  -0.667  1.00  0.00     0.186 C 
ATOM      5  C   UNL     1      83.886   2.687  -2.110  1.00  0.00     0.202 C 
ATOM      6  C   UNL     1      84.405   3.866  -3.033  1.00  0.00     0.282 C 
ATOM      7  O   UNL     1      85.439   4.745  -2.414  1.00  0.00    -0.344 OA
ENDROOT
BRANCH   3   8
ATOM      8  O   UNL     1      86.471   1.718  -1.104  1.00  0.00    -0.388 OA
ATOM      9  H   UNL     1      87.054   2.011  -1.864  1.00  0.00     0.211 HD
ENDBRANCH   3   8
BRANCH   4  10
ATOM     10  O   UNL     1      83.882   1.685   0.074  1.00  0.00    -0.341 OA
BRANCH  10  11
ATOM     11  C   UNL     1      82.573   1.154  -0.279  1.00  0.00     0.282 C 
ATOM     12  C   UNL     1      82.341  -0.503   0.147  1.00  0.00     0.202 C 
ATOM     13  O   UNL     1      81.517   2.287   0.018  1.00  0.00    -0.341 OA
ATOM     14  C   UNL     1      80.863  -0.216   1.177  1.00  0.00     0.179 C 
ATOM     15  C   UNL     1      80.413   2.212   1.027  1.00  0.00     0.178 C 
ATOM     16  C   UNL     1      79.578   1.011   0.733  1.00  0.00     0.177 C 
BRANCH  12  17
ATOM     17  O   UNL     1      81.881  -1.165  -1.023  1.00  0.00    -0.385 OA
ATOM     18  H   UNL     1      81.174  -1.802  -0.491  1.00  0.00     0.211 HD
ENDBRANCH  12  17
BRANCH  14  19
ATOM     19  O   UNL     1      80.302  -1.378   2.012  1.00  0.00    -0.387 OA
ATOM     20  H   UNL     1      79.243  -1.604   2.379  1.00  0.00     0.211 HD
ENDBRANCH  14  19
BRANCH  15  21
ATOM     21  C   UNL     1      79.646   3.564   0.986  1.00  0.00     0.191 C 
BRANCH  21  22
ATOM     22  O   UNL     1      79.401   3.953  -0.361  1.00  0.00    -0.394 OA
ATOM     23  H   UNL     1      79.034   3.159  -0.843  1.00  0.00     0.210 HD
ENDBRANCH  21  22
ENDBRANCH  15  21
BRANCH  16  24
ATOM     24  O   UNL     1      79.583   1.118  -0.660  1.00  0.00    -0.387 OA
ATOM     25  H   UNL     1      79.876   2.146  -0.938  1.00  0.00     0.211 HD
ENDBRANCH  16  24
ENDBRANCH  10  11
ENDBRANCH   4  10
BRANCH   6  26
ATOM     26  O   UNL     1      84.872   3.423  -4.382  1.00  0.00    -0.346 OA
BRANCH  26  27
ATOM     27  C   UNL     1      84.104   3.433  -5.616  1.00  0.00     0.130 C 
ATOM     28  C   UNL     1      83.677   1.979  -5.804  1.00  0.00     0.033 C 
ATOM     29  C   UNL     1      85.540   3.626  -6.726  1.00  0.00     0.020 C 
ATOM     30  C   UNL     1      84.750   0.905  -5.450  1.00  0.00     0.010 C 
ATOM     31  C   UNL     1      86.481   2.134  -7.132  1.00  0.00     0.006 C 
ATOM     32  C   UNL     1      85.328   4.408  -8.142  1.00  0.00     0.017 C 
ATOM     33  C   UNL     1      86.238   1.015  -5.972  1.00  0.00    -0.022 C 
ATOM     34  C   UNL     1      87.076   1.604  -8.642  1.00  0.00     0.005 C 
ATOM     35  C   UNL     1      87.125   1.381  -4.696  1.00  0.00     0.012 C 
ATOM     36  C   UNL     1      86.706  -0.386  -6.495  1.00  0.00     0.024 C 
ATOM     37  C   UNL     1      86.813  -0.149  -8.930  1.00  0.00     0.008 C 
ATOM     38  C   UNL     1      85.893  -0.914  -7.826  1.00  0.00    -0.017 C 
ATOM     39  C   UNL     1      87.105  -1.440  -5.436  1.00  0.00    -0.024 C 
ATOM     40  C   UNL     1      84.525  -0.299  -8.224  1.00  0.00     0.013 C 
ATOM     41  C   UNL     1      85.643  -2.601  -7.639  1.00  0.00     0.009 C 
ATOM     42  C   UNL     1      86.477  -2.603  -5.247  1.00  0.00     0.005 C 
ATOM     43  C   UNL     1      85.302  -2.939  -6.099  1.00  0.00     0.096 C 
ATOM     44  C   UNL     1      84.438  -3.243  -8.523  1.00  0.00     0.043 C 
ATOM     45  C   UNL     1      86.966  -3.394  -7.929  1.00  0.00     0.015 C 
ATOM     46  C   UNL     1      84.732  -4.362  -5.819  1.00  0.00     0.037 C 
ATOM     47  O   UNL     1      84.292  -2.073  -5.630  1.00  0.00    -0.369 OA
ATOM     48  C   UNL     1      83.137  -3.823  -7.750  1.00  0.00     0.124 C 
ATOM     49  C   UNL     1      83.286  -4.116  -6.169  1.00  0.00     0.026 C 
ATOM     50  C   UNL     1      85.189  -5.772  -6.310  1.00  0.00     0.014 C 
ATOM     51  C   UNL     1      83.124  -2.805  -5.441  1.00  0.00     0.171 C 
ATOM     52  C   UNL     1      82.333  -5.216  -5.519  1.00  0.00     0.013 C 
ATOM     53  C   UNL     1      84.206  -6.947  -5.765  1.00  0.00    -0.035 C 
ATOM     54  C   UNL     1      83.122  -6.351  -4.799  1.00  0.00     0.007 C 
ATOM     55  C   UNL     1      83.464  -7.652  -6.951  1.00  0.00     0.011 C 
ATOM     56  C   UNL     1      84.994  -8.059  -4.982  1.00  0.00     0.011 C 
BRANCH  29  57
ATOM     57  C   UNL     1      86.640   4.687  -6.052  1.00  0.00     0.165 C 
BRANCH  57  58
ATOM     58  O   UNL     1      86.648   6.048  -6.480  1.00  0.00    -0.396 OA
ATOM     59  H   UNL     1      85.993   6.109  -7.252  1.00  0.00     0.210 HD
ENDBRANCH  57  58
ENDBRANCH  29  57
BRANCH  48  60
ATOM     60  O   UNL     1      82.736  -5.022  -8.385  1.00  0.00    -0.392 OA
ATOM     61  H   UNL     1      81.767  -4.998  -8.600  1.00  0.00     0.210 HD
ENDBRANCH  48  60
ENDBRANCH  26  27
ENDBRANCH   6  26
BRANCH   5  62
ATOM     62  O   UNL     1      82.496   2.573  -2.203  1.00  0.00    -0.385 OA
ATOM     63  H   UNL     1      82.295   1.710  -2.681  1.00  0.00     0.211 HD
ENDBRANCH   5  62
TORSDOF 14
ENDMDL
MODEL 3
REMARK VINA RESULT:    28.486      1.253      2.247
REMARK INTER + INTRA:          42.850
REMARK INTER:                  43.830
REMARK INTRA:                  -0.980
REMARK UNBOUND:                -0.623
REMARK SMILES C[C@@H]1O[C@@H](O[C@@H]2CC[C@]3(C)[C@@H](CC[C@]4(C)[C@@H]3C=C[C@]35OC[C@@]6(CCC(C)(C)C[C@H]63)[C@H](O)C[C@]54C)[C@]2(C)CO)[C@H](O)[C@@H](O[C@@H]2O[C@@H](CO)[C@@H](O)[C@@H](O)[C@H]2O)[C@H]1O
REMARK SMILES IDX 1 1 2 2 54 3 41 4 39 5 4 6 3 7 55 8 42 10 43 11 52 12 44 13
REMARK SMILES IDX 50 14 45 15 48 16 53 17 51 19 46 21 47 22 49 24 5 26 6 27
REMARK SMILES IDX 7 28 35 29 8 30 11 31 36 32 9 33 12 34 10 35 16 36 13 37
REMARK SMILES IDX 14 38 17 39 15 40 33 41 18 42 19 43 32 44 34 45 29 46 20 47
REMARK SMILES IDX 30 48 22 49 28 50 21 51 23 52 25 53 24 54 26 55 27 56 37 57
REMARK SMILES IDX 38 58 31 60 40 62
REMARK H PARENT 55 9 53 18 51 20 47 23 49 25 38 59 31 61 40 63
REMARK Flexibility Score: inf
ROOT
ATOM      1  C   UNL     1      86.022  11.106   5.738  1.00  0.00     0.041 C 
ATOM      2  C   UNL     1      86.091  10.192   4.466  1.00  0.00     0.150 C 
ATOM      3  C   UNL     1      86.121   8.719   4.913  1.00  0.00     0.175 C 
ATOM      4  C   UNL     1      84.724   8.130   4.877  1.00  0.00     0.186 C 
ATOM      5  C   UNL     1      84.292   8.102   3.427  1.00  0.00     0.202 C 
ATOM      6  C   UNL     1      84.329   9.532   2.744  1.00  0.00     0.282 C 
ATOM      7  O   UNL     1      85.034  10.588   3.526  1.00  0.00    -0.344 OA
ENDROOT
BRANCH   3   8
ATOM      8  O   UNL     1      87.103   7.919   4.264  1.00  0.00    -0.388 OA
ATOM      9  H   UNL     1      86.652   7.589   3.433  1.00  0.00     0.211 HD
ENDBRANCH   3   8
BRANCH   4  10
ATOM     10  O   UNL     1      84.746   6.790   5.389  1.00  0.00    -0.341 OA
BRANCH  10  11
ATOM     11  C   UNL     1      83.592   6.388   6.180  1.00  0.00     0.282 C 
ATOM     12  C   UNL     1      83.883   5.053   7.234  1.00  0.00     0.202 C 
ATOM     13  O   UNL     1      82.854   7.708   6.627  1.00  0.00    -0.341 OA
ATOM     14  C   UNL     1      83.398   5.924   8.762  1.00  0.00     0.179 C 
ATOM     15  C   UNL     1      82.680   8.178   8.038  1.00  0.00     0.178 C 
ATOM     16  C   UNL     1      81.999   7.104   8.818  1.00  0.00     0.177 C 
BRANCH  12  17
ATOM     17  O   UNL     1      82.858   4.102   6.983  1.00  0.00    -0.385 OA
ATOM     18  H   UNL     1      83.546   3.293   6.738  1.00  0.00     0.211 HD
ENDBRANCH  12  17
BRANCH  14  19
ATOM     19  O   UNL     1      83.648   5.244  10.117  1.00  0.00    -0.387 OA
ATOM     20  H   UNL     1      84.389   5.476  10.956  1.00  0.00     0.211 HD
ENDBRANCH  14  19
BRANCH  15  21
ATOM     21  C   UNL     1      81.917   9.533   7.991  1.00  0.00     0.191 C 
BRANCH  21  22
ATOM     22  O   UNL     1      82.531  10.413   7.056  1.00  0.00    -0.394 OA
ATOM     23  H   UNL     1      82.515  11.332   7.450  1.00  0.00     0.210 HD
ENDBRANCH  21  22
ENDBRANCH  15  21
BRANCH  16  24
ATOM     24  O   UNL     1      81.091   6.706   7.834  1.00  0.00    -0.387 OA
ATOM     25  H   UNL     1      81.211   5.623   7.656  1.00  0.00     0.211 HD
ENDBRANCH  16  24
ENDBRANCH  10  11
ENDBRANCH   4  10
BRANCH   6  26
ATOM     26  O   UNL     1      84.846   9.523   1.342  1.00  0.00    -0.346 OA
BRANCH  26  27
ATOM     27  C   UNL     1      84.061   9.378   0.126  1.00  0.00     0.130 C 
ATOM     28  C   UNL     1      83.650   7.907   0.118  1.00  0.00     0.033 C 
ATOM     29  C   UNL     1      85.481   9.452  -1.020  1.00  0.00     0.020 C 
ATOM     30  C   UNL     1      84.740   6.895   0.581  1.00  0.00     0.010 C 
ATOM     31  C   UNL     1      86.434   7.933  -1.259  1.00  0.00     0.006 C 
ATOM     32  C   UNL     1      85.241  10.059  -2.514  1.00  0.00     0.017 C 
ATOM     33  C   UNL     1      86.220   6.957   0.029  1.00  0.00    -0.022 C 
ATOM     34  C   UNL     1      87.017   7.233  -2.703  1.00  0.00     0.005 C 
ATOM     35  C   UNL     1      87.118   7.481   1.240  1.00  0.00     0.012 C 
ATOM     36  C   UNL     1      86.698   5.509  -0.331  1.00  0.00     0.024 C 
ATOM     37  C   UNL     1      86.770   5.456  -2.777  1.00  0.00     0.008 C 
ATOM     38  C   UNL     1      85.874   4.818  -1.577  1.00  0.00    -0.017 C 
ATOM     39  C   UNL     1      87.123   4.592   0.841  1.00  0.00    -0.024 C 
ATOM     40  C   UNL     1      84.494   5.367  -2.027  1.00  0.00     0.013 C 
ATOM     41  C   UNL     1      85.647   3.162  -1.188  1.00  0.00     0.009 C 
ATOM     42  C   UNL     1      86.511   3.453   1.175  1.00  0.00     0.005 C 
ATOM     43  C   UNL     1      85.329   3.006   0.386  1.00  0.00     0.096 C 
ATOM     44  C   UNL     1      84.439   2.408  -1.973  1.00  0.00     0.043 C 
ATOM     45  C   UNL     1      86.975   2.355  -1.401  1.00  0.00     0.015 C 
ATOM     46  C   UNL     1      84.781   1.621   0.841  1.00  0.00     0.037 C 
ATOM     47  O   UNL     1      84.315   3.912   0.762  1.00  0.00    -0.369 OA
ATOM     48  C   UNL     1      83.155   1.910  -1.118  1.00  0.00     0.124 C 
ATOM     49  C   UNL     1      83.328   1.809   0.484  1.00  0.00     0.026 C 
ATOM     50  C   UNL     1      85.248   0.167   0.514  1.00  0.00     0.014 C 
ATOM     51  C   UNL     1      83.159   3.194   1.053  1.00  0.00     0.171 C 
ATOM     52  C   UNL     1      82.396   0.784   1.273  1.00  0.00     0.013 C 
ATOM     53  C   UNL     1      84.286  -0.945   1.208  1.00  0.00    -0.035 C 
ATOM     54  C   UNL     1      83.207  -0.249   2.112  1.00  0.00     0.007 C 
ATOM     55  C   UNL     1      83.537  -1.793   0.125  1.00  0.00     0.011 C 
ATOM     56  C   UNL     1      85.097  -1.947   2.106  1.00  0.00     0.011 C 
BRANCH  29  57
ATOM     57  C   UNL     1      86.576  10.597  -0.491  1.00  0.00     0.165 C 
BRANCH  57  58
ATOM     58  O   UNL     1      86.094  11.837   0.028  1.00  0.00    -0.396 OA
ATOM     59  H   UNL     1      85.832  12.399  -0.774  1.00  0.00     0.210 HD
ENDBRANCH  57  58
ENDBRANCH  29  57
BRANCH  48  60
ATOM     60  O   UNL     1      82.760   0.640  -1.600  1.00  0.00    -0.392 OA
ATOM     61  H   UNL     1      83.114  -0.082  -1.017  1.00  0.00     0.210 HD
ENDBRANCH  48  60
ENDBRANCH  26  27
ENDBRANCH   6  26
BRANCH   5  62
ATOM     62  O   UNL     1      83.021   7.535   3.300  1.00  0.00    -0.385 OA
ATOM     63  H   UNL     1      83.026   6.665   3.807  1.00  0.00     0.211 HD
ENDBRANCH   5  62
TORSDOF 14
ENDMDL
MODEL 4
REMARK VINA RESULT:    29.466      5.179      8.312
REMARK INTER + INTRA:          44.346
REMARK INTER:                  44.584
REMARK INTRA:                  -0.238
REMARK UNBOUND:                -0.623
REMARK SMILES C[C@@H]1O[C@@H](O[C@@H]2CC[C@]3(C)[C@@H](CC[C@]4(C)[C@@H]3C=C[C@]35OC[C@@]6(CCC(C)(C)C[C@H]63)[C@H](O)C[C@]54C)[C@]2(C)CO)[C@H](O)[C@@H](O[C@@H]2O[C@@H](CO)[C@@H](O)[C@@H](O)[C@H]2O)[C@H]1O
REMARK SMILES IDX 1 1 2 2 54 3 41 4 39 5 4 6 3 7 55 8 42 10 43 11 52 12 44 13
REMARK SMILES IDX 50 14 45 15 48 16 53 17 51 19 46 21 47 22 49 24 5 26 6 27
REMARK SMILES IDX 7 28 35 29 8 30 11 31 36 32 9 33 12 34 10 35 16 36 13 37
REMARK SMILES IDX 14 38 17 39 15 40 33 41 18 42 19 43 32 44 34 45 29 46 20 47
REMARK SMILES IDX 30 48 22 49 28 50 21 51 23 52 25 53 24 54 26 55 27 56 37 57
REMARK SMILES IDX 38 58 31 60 40 62
REMARK H PARENT 55 9 53 18 51 20 47 23 49 25 38 59 31 61 40 63
REMARK Flexibility Score: inf
ROOT
ATOM      1  C   UNL     1      86.568   5.297  -0.278  1.00  0.00     0.041 C 
ATOM      2  C   UNL     1      86.305   4.195  -1.363  1.00  0.00     0.150 C 
ATOM      3  C   UNL     1      85.831   2.909  -0.662  1.00  0.00     0.175 C 
ATOM      4  C   UNL     1      84.317   2.834  -0.667  1.00  0.00     0.186 C 
ATOM      5  C   UNL     1      83.886   2.687  -2.110  1.00  0.00     0.202 C 
ATOM      6  C   UNL     1      84.405   3.866  -3.033  1.00  0.00     0.282 C 
ATOM      7  O   UNL     1      85.439   4.745  -2.414  1.00  0.00    -0.344 OA
ENDROOT
BRANCH   3   8
ATOM      8  O   UNL     1      86.471   1.718  -1.104  1.00  0.00    -0.388 OA
ATOM      9  H   UNL     1      86.453   1.110  -0.308  1.00  0.00     0.211 HD
ENDBRANCH   3   8
BRANCH   4  10
ATOM     10  O   UNL     1      83.882   1.685   0.074  1.00  0.00    -0.341 OA
BRANCH  10  11
ATOM     11  C   UNL     1      84.934   0.856   0.644  1.00  0.00     0.282 C 
ATOM     12  C   UNL     1      85.670   1.514   2.059  1.00  0.00     0.202 C 
ATOM     13  O   UNL     1      84.458  -0.643   0.524  1.00  0.00    -0.341 OA
ATOM     14  C   UNL     1      85.308   0.081   3.130  1.00  0.00     0.179 C 
ATOM     15  C   UNL     1      84.182  -1.568   1.670  1.00  0.00     0.178 C 
ATOM     16  C   UNL     1      85.401  -1.645   2.526  1.00  0.00     0.177 C 
BRANCH  12  17
ATOM     17  O   UNL     1      87.073   1.494   1.838  1.00  0.00    -0.385 OA
ATOM     18  H   UNL     1      87.242   2.487   2.255  1.00  0.00     0.211 HD
ENDBRANCH  12  17
BRANCH  14  19
ATOM     19  O   UNL     1      85.584   0.192   4.637  1.00  0.00    -0.387 OA
ATOM     20  H   UNL     1      85.833  -0.602   5.422  1.00  0.00     0.211 HD
ENDBRANCH  14  19
BRANCH  15  21
ATOM     21  C   UNL     1      83.715  -2.927   1.075  1.00  0.00     0.191 C 
BRANCH  21  22
ATOM     22  O   UNL     1      83.615  -3.908   2.100  1.00  0.00    -0.394 OA
ATOM     23  H   UNL     1      82.661  -4.200   2.148  1.00  0.00     0.210 HD
ENDBRANCH  21  22
ENDBRANCH  15  21
BRANCH  16  24
ATOM     24  O   UNL     1      86.348  -1.666   1.499  1.00  0.00    -0.387 OA
ATOM     25  H   UNL     1      87.019  -2.530   1.650  1.00  0.00     0.211 HD
ENDBRANCH  16  24
ENDBRANCH  10  11
ENDBRANCH   4  10
BRANCH   6  26
ATOM     26  O   UNL     1      84.872   3.423  -4.382  1.00  0.00    -0.346 OA
BRANCH  26  27
ATOM     27  C   UNL     1      84.104   3.433  -5.616  1.00  0.00     0.130 C 
ATOM     28  C   UNL     1      83.677   1.979  -5.804  1.00  0.00     0.033 C 
ATOM     29  C   UNL     1      85.540   3.626  -6.726  1.00  0.00     0.020 C 
ATOM     30  C   UNL     1      84.750   0.905  -5.450  1.00  0.00     0.010 C 
ATOM     31  C   UNL     1      86.481   2.134  -7.132  1.00  0.00     0.006 C 
ATOM     32  C   UNL     1      85.328   4.408  -8.142  1.00  0.00     0.017 C 
ATOM     33  C   UNL     1      86.238   1.015  -5.972  1.00  0.00    -0.022 C 
ATOM     34  C   UNL     1      87.076   1.604  -8.642  1.00  0.00     0.005 C 
ATOM     35  C   UNL     1      87.125   1.381  -4.696  1.00  0.00     0.012 C 
ATOM     36  C   UNL     1      86.706  -0.386  -6.495  1.00  0.00     0.024 C 
ATOM     37  C   UNL     1      86.813  -0.149  -8.930  1.00  0.00     0.008 C 
ATOM     38  C   UNL     1      85.893  -0.914  -7.826  1.00  0.00    -0.017 C 
ATOM     39  C   UNL     1      87.105  -1.440  -5.436  1.00  0.00    -0.024 C 
ATOM     40  C   UNL     1      84.525  -0.299  -8.224  1.00  0.00     0.013 C 
ATOM     41  C   UNL     1      85.643  -2.601  -7.639  1.00  0.00     0.009 C 
ATOM     42  C   UNL     1      86.477  -2.603  -5.247  1.00  0.00     0.005 C 
ATOM     43  C   UNL     1      85.302  -2.939  -6.099  1.00  0.00     0.096 C 
ATOM     44  C   UNL     1      84.438  -3.243  -8.523  1.00  0.00     0.043 C 
ATOM     45  C   UNL     1      86.966  -3.394  -7.929  1.00  0.00     0.015 C 
ATOM     46  C   UNL     1      84.732  -4.362  -5.819  1.00  0.00     0.037 C 
ATOM     47  O   UNL     1      84.292  -2.073  -5.630  1.00  0.00    -0.369 OA
ATOM     48  C   UNL     1      83.137  -3.823  -7.750  1.00  0.00     0.124 C 
ATOM     49  C   UNL     1      83.286  -4.116  -6.169  1.00  0.00     0.026 C 
ATOM     50  C   UNL     1      85.189  -5.772  -6.310  1.00  0.00     0.014 C 
ATOM     51  C   UNL     1      83.124  -2.805  -5.441  1.00  0.00     0.171 C 
ATOM     52  C   UNL     1      82.333  -5.216  -5.519  1.00  0.00     0.013 C 
ATOM     53  C   UNL     1      84.206  -6.947  -5.765  1.00  0.00    -0.035 C 
ATOM     54  C   UNL     1      83.122  -6.351  -4.799  1.00  0.00     0.007 C 
ATOM     55  C   UNL     1      83.464  -7.652  -6.951  1.00  0.00     0.011 C 
ATOM     56  C   UNL     1      84.994  -8.059  -4.982  1.00  0.00     0.011 C 
BRANCH  29  57
ATOM     57  C   UNL     1      86.640   4.687  -6.052  1.00  0.00     0.165 C 
BRANCH  57  58
ATOM     58  O   UNL     1      86.659   6.044  -6.492  1.00  0.00    -0.396 OA
ATOM     59  H   UNL     1      87.608   6.375  -6.356  1.00  0.00     0.210 HD
ENDBRANCH  57  58
ENDBRANCH  29  57
BRANCH  48  60
ATOM     60  O   UNL     1      82.736  -5.022  -8.385  1.00  0.00    -0.392 OA
ATOM     61  H   UNL     1      82.827  -4.945  -9.371  1.00  0.00     0.210 HD
ENDBRANCH  48  60
ENDBRANCH  26  27
ENDBRANCH   6  26
BRANCH   5  62
ATOM     62  O   UNL     1      82.496   2.573  -2.203  1.00  0.00    -0.385 OA
ATOM     63  H   UNL     1      82.117   3.504  -2.240  1.00  0.00     0.211 HD
ENDBRANCH   5  62
TORSDOF 14
ENDMDL
MODEL 5
REMARK VINA RESULT:    30.836      5.340      8.524
REMARK INTER + INTRA:          46.437
REMARK INTER:                  44.118
REMARK INTRA:                   2.319
REMARK UNBOUND:                -0.623
REMARK SMILES C[C@@H]1O[C@@H](O[C@@H]2CC[C@]3(C)[C@@H](CC[C@]4(C)[C@@H]3C=C[C@]35OC[C@@]6(CCC(C)(C)C[C@H]63)[C@H](O)C[C@]54C)[C@]2(C)CO)[C@H](O)[C@@H](O[C@@H]2O[C@@H](CO)[C@@H](O)[C@@H](O)[C@H]2O)[C@H]1O
REMARK SMILES IDX 1 1 2 2 54 3 41 4 39 5 4 6 3 7 55 8 42 10 43 11 52 12 44 13
REMARK SMILES IDX 50 14 45 15 48 16 53 17 51 19 46 21 47 22 49 24 5 26 6 27
REMARK SMILES IDX 7 28 35 29 8 30 11 31 36 32 9 33 12 34 10 35 16 36 13 37
REMARK SMILES IDX 14 38 17 39 15 40 33 41 18 42 19 43 32 44 34 45 29 46 20 47
REMARK SMILES IDX 30 48 22 49 28 50 21 51 23 52 25 53 24 54 26 55 27 56 37 57
REMARK SMILES IDX 38 58 31 60 40 62
REMARK H PARENT 55 9 53 18 51 20 47 23 49 25 38 59 31 61 40 63
REMARK Flexibility Score: inf
ROOT
ATOM      1  C   UNL     1      87.027   2.413  -0.482  1.00  0.00     0.041 C 
ATOM      2  C   UNL     1      86.042   2.197  -1.683  1.00  0.00     0.150 C 
ATOM      3  C   UNL     1      84.630   1.937  -1.128  1.00  0.00     0.175 C 
ATOM      4  C   UNL     1      83.828   3.223  -1.107  1.00  0.00     0.186 C 
ATOM      5  C   UNL     1      83.624   3.641  -2.546  1.00  0.00     0.202 C 
ATOM      6  C   UNL     1      84.985   3.828  -3.335  1.00  0.00     0.282 C 
ATOM      7  O   UNL     1      86.195   3.300  -2.640  1.00  0.00    -0.344 OA
ENDROOT
BRANCH   3   8
ATOM      8  O   UNL     1      83.948   0.839  -1.724  1.00  0.00    -0.388 OA
ATOM      9  H   UNL     1      84.530   0.565  -2.491  1.00  0.00     0.211 HD
ENDBRANCH   3   8
BRANCH   4  10
ATOM     10  O   UNL     1      82.550   2.992  -0.496  1.00  0.00    -0.341 OA
BRANCH  10  11
ATOM     11  C   UNL     1      82.549   2.133   0.680  1.00  0.00     0.282 C 
ATOM     12  C   UNL     1      81.541   0.739   0.540  1.00  0.00     0.202 C 
ATOM     13  O   UNL     1      84.029   2.090   1.223  1.00  0.00    -0.341 OA
ATOM     14  C   UNL     1      82.868  -0.472   0.863  1.00  0.00     0.179 C 
ATOM     15  C   UNL     1      84.899   0.873   1.296  1.00  0.00     0.178 C 
ATOM     16  C   UNL     1      84.193  -0.173   2.091  1.00  0.00     0.177 C 
BRANCH  12  17
ATOM     17  O   UNL     1      80.705   0.721   1.689  1.00  0.00    -0.385 OA
ATOM     18  H   UNL     1      81.103  -0.219   2.072  1.00  0.00     0.211 HD
ENDBRANCH  12  17
BRANCH  14  19
ATOM     19  O   UNL     1      82.572  -1.967   0.670  1.00  0.00    -0.387 OA
ATOM     20  H   UNL     1      82.804  -2.875   1.325  1.00  0.00     0.211 HD
ENDBRANCH  14  19
BRANCH  15  21
ATOM     21  C   UNL     1      86.275   1.313   1.872  1.00  0.00     0.191 C 
BRANCH  21  22
ATOM     22  O   UNL     1      86.091   2.229   2.945  1.00  0.00    -0.394 OA
ATOM     23  H   UNL     1      85.659   1.732   3.697  1.00  0.00     0.210 HD
ENDBRANCH  21  22
ENDBRANCH  15  21
BRANCH  16  24
ATOM     24  O   UNL     1      83.658   0.669   3.070  1.00  0.00    -0.387 OA
ATOM     25  H   UNL     1      84.153   1.654   3.003  1.00  0.00     0.211 HD
ENDBRANCH  16  24
ENDBRANCH  10  11
ENDBRANCH   4  10
BRANCH   6  26
ATOM     26  O   UNL     1      84.952   3.312  -4.737  1.00  0.00    -0.346 OA
BRANCH  26  27
ATOM     27  C   UNL     1      83.784   3.201  -5.596  1.00  0.00     0.130 C 
ATOM     28  C   UNL     1      83.470   1.707  -5.611  1.00  0.00     0.033 C 
ATOM     29  C   UNL     1      84.679   3.486  -7.162  1.00  0.00     0.020 C 
ATOM     30  C   UNL     1      84.702   0.755  -5.682  1.00  0.00     0.010 C 
ATOM     31  C   UNL     1      85.551   2.076  -7.888  1.00  0.00     0.006 C 
ATOM     32  C   UNL     1      83.879   4.190  -8.397  1.00  0.00     0.017 C 
ATOM     33  C   UNL     1      85.871   0.985  -6.721  1.00  0.00    -0.022 C 
ATOM     34  C   UNL     1      85.596   1.547  -9.511  1.00  0.00     0.005 C 
ATOM     35  C   UNL     1      87.125   1.483  -5.867  1.00  0.00     0.012 C 
ATOM     36  C   UNL     1      86.253  -0.384  -7.379  1.00  0.00     0.024 C 
ATOM     37  C   UNL     1      85.426  -0.232  -9.678  1.00  0.00     0.008 C 
ATOM     38  C   UNL     1      85.065  -1.039  -8.311  1.00  0.00    -0.017 C 
ATOM     39  C   UNL     1      87.123  -1.354  -6.544  1.00  0.00    -0.024 C 
ATOM     40  C   UNL     1      83.591  -0.572  -8.172  1.00  0.00     0.013 C 
ATOM     41  C   UNL     1      85.077  -2.733  -8.044  1.00  0.00     0.009 C 
ATOM     42  C   UNL     1      86.732  -2.563  -6.135  1.00  0.00     0.005 C 
ATOM     43  C   UNL     1      85.366  -3.042  -6.487  1.00  0.00     0.096 C 
ATOM     44  C   UNL     1      83.703  -3.520  -8.416  1.00  0.00     0.043 C 
ATOM     45  C   UNL     1      86.271  -3.407  -8.805  1.00  0.00     0.015 C 
ATOM     46  C   UNL     1      85.091  -4.501  -6.015  1.00  0.00     0.037 C 
ATOM     47  O   UNL     1      84.518  -2.258  -5.677  1.00  0.00    -0.369 OA
ATOM     48  C   UNL     1      82.848  -4.191  -7.214  1.00  0.00     0.124 C 
ATOM     49  C   UNL     1      83.601  -4.407  -5.802  1.00  0.00     0.026 C 
ATOM     50  C   UNL     1      85.475  -5.879  -6.640  1.00  0.00     0.014 C 
ATOM     51  C   UNL     1      83.586  -3.091  -5.066  1.00  0.00     0.171 C 
ATOM     52  C   UNL     1      83.074  -5.567  -4.843  1.00  0.00     0.013 C 
ATOM     53  C   UNL     1      84.890  -7.120  -5.767  1.00  0.00    -0.035 C 
ATOM     54  C   UNL     1      84.186  -6.593  -4.468  1.00  0.00     0.007 C 
ATOM     55  C   UNL     1      83.838  -7.938  -6.591  1.00  0.00     0.011 C 
ATOM     56  C   UNL     1      86.022  -8.120  -5.333  1.00  0.00     0.011 C 
BRANCH  29  57
ATOM     57  C   UNL     1      85.835   4.672  -6.946  1.00  0.00     0.165 C 
BRANCH  57  58
ATOM     58  O   UNL     1      86.869   4.825  -7.919  1.00  0.00    -0.396 OA
ATOM     59  H   UNL     1      87.200   5.779  -7.836  1.00  0.00     0.210 HD
ENDBRANCH  57  58
ENDBRANCH  29  57
BRANCH  48  60
ATOM     60  O   UNL     1      82.365  -5.447  -7.652  1.00  0.00    -0.392 OA
ATOM     61  H   UNL     1      81.805  -5.343  -8.466  1.00  0.00     0.210 HD
ENDBRANCH  48  60
ENDBRANCH  26  27
ENDBRANCH   6  26
BRANCH   5  62
ATOM     62  O   UNL     1      82.855   4.807  -2.619  1.00  0.00    -0.385 OA
ATOM     63  H   UNL     1      83.377   5.542  -2.172  1.00  0.00     0.211 HD
ENDBRANCH   5  62
TORSDOF 14
ENDMDL
MODEL 6
REMARK VINA RESULT:    30.893      4.743      8.411
REMARK INTER + INTRA:          46.524
REMARK INTER:                  47.096
REMARK INTRA:                  -0.572
REMARK UNBOUND:                -0.623
REMARK SMILES C[C@@H]1O[C@@H](O[C@@H]2CC[C@]3(C)[C@@H](CC[C@]4(C)[C@@H]3C=C[C@]35OC[C@@]6(CCC(C)(C)C[C@H]63)[C@H](O)C[C@]54C)[C@]2(C)CO)[C@H](O)[C@@H](O[C@@H]2O[C@@H](CO)[C@@H](O)[C@@H](O)[C@H]2O)[C@H]1O
REMARK SMILES IDX 1 1 2 2 54 3 41 4 39 5 4 6 3 7 55 8 42 10 43 11 52 12 44 13
REMARK SMILES IDX 50 14 45 15 48 16 53 17 51 19 46 21 47 22 49 24 5 26 6 27
REMARK SMILES IDX 7 28 35 29 8 30 11 31 36 32 9 33 12 34 10 35 16 36 13 37
REMARK SMILES IDX 14 38 17 39 15 40 33 41 18 42 19 43 32 44 34 45 29 46 20 47
REMARK SMILES IDX 30 48 22 49 28 50 21 51 23 52 25 53 24 54 26 55 27 56 37 57
REMARK SMILES IDX 38 58 31 60 40 62
REMARK H PARENT 55 9 53 18 51 20 47 23 49 25 38 59 31 61 40 63
REMARK Flexibility Score: inf
ROOT
ATOM      1  C   UNL     1      84.354  -2.236   0.099  1.00  0.00     0.041 C 
ATOM      2  C   UNL     1      84.063  -0.753  -0.320  1.00  0.00     0.150 C 
ATOM      3  C   UNL     1      82.548  -0.496  -0.215  1.00  0.00     0.175 C 
ATOM      4  C   UNL     1      82.214   0.143   1.119  1.00  0.00     0.186 C 
ATOM      5  C   UNL     1      82.857   1.513   1.127  1.00  0.00     0.202 C 
ATOM      6  C   UNL     1      84.423   1.462   0.892  1.00  0.00     0.282 C 
ATOM      7  O   UNL     1      84.950   0.146   0.429  1.00  0.00    -0.344 OA
ENDROOT
BRANCH   3   8
ATOM      8  O   UNL     1      81.978   0.172  -1.335  1.00  0.00    -0.388 OA
ATOM      9  H   UNL     1      82.726   0.723  -1.709  1.00  0.00     0.211 HD
ENDBRANCH   3   8
BRANCH   4  10
ATOM     10  O   UNL     1      80.792   0.288   1.249  1.00  0.00    -0.341 OA
BRANCH  10  11
ATOM     11  C   UNL     1      80.122   1.007   0.175  1.00  0.00     0.282 C 
ATOM     12  C   UNL     1      78.504   0.490  -0.124  1.00  0.00     0.202 C 
ATOM     13  O   UNL     1      80.545   2.522   0.297  1.00  0.00    -0.341 OA
ATOM     14  C   UNL     1      77.743   2.129   0.128  1.00  0.00     0.179 C 
ATOM     15  C   UNL     1      79.625   3.667   0.588  1.00  0.00     0.178 C 
ATOM     16  C   UNL     1      78.539   3.679  -0.435  1.00  0.00     0.177 C 
BRANCH  12  17
ATOM     17  O   UNL     1      78.409   0.224  -1.517  1.00  0.00    -0.385 OA
ATOM     18  H   UNL     1      77.689  -0.587  -1.404  1.00  0.00     0.211 HD
ENDBRANCH  12  17
BRANCH  14  19
ATOM     19  O   UNL     1      76.211   2.238   0.174  1.00  0.00    -0.387 OA
ATOM     20  H   UNL     1      75.460   2.010   1.005  1.00  0.00     0.211 HD
ENDBRANCH  14  19
BRANCH  15  21
ATOM     21  C   UNL     1      80.486   4.961   0.639  1.00  0.00     0.191 C 
BRANCH  21  22
ATOM     22  O   UNL     1      81.270   5.080  -0.543  1.00  0.00    -0.394 OA
ATOM     23  H   UNL     1      80.655   4.986  -1.325  1.00  0.00     0.210 HD
ENDBRANCH  21  22
ENDBRANCH  15  21
BRANCH  16  24
ATOM     24  O   UNL     1      79.325   3.353  -1.543  1.00  0.00    -0.387 OA
ATOM     25  H   UNL     1      78.662   3.047  -2.373  1.00  0.00     0.211 HD
ENDBRANCH  16  24
ENDBRANCH  10  11
ENDBRANCH   4  10
BRANCH   6  26
ATOM     26  O   UNL     1      84.941   2.546   0.003  1.00  0.00    -0.346 OA
BRANCH  26  27
ATOM     27  C   UNL     1      84.150   3.511  -0.744  1.00  0.00     0.130 C 
ATOM     28  C   UNL     1      83.665   2.732  -1.966  1.00  0.00     0.033 C 
ATOM     29  C   UNL     1      85.572   4.474  -1.364  1.00  0.00     0.020 C 
ATOM     30  C   UNL     1      84.702   1.764  -2.610  1.00  0.00     0.010 C 
ATOM     31  C   UNL     1      86.447   3.825  -2.809  1.00  0.00     0.006 C 
ATOM     32  C   UNL     1      85.364   6.065  -1.655  1.00  0.00     0.017 C 
ATOM     33  C   UNL     1      86.183   2.221  -2.920  1.00  0.00    -0.022 C 
ATOM     34  C   UNL     1      86.994   4.644  -4.204  1.00  0.00     0.005 C 
ATOM     35  C   UNL     1      87.107   1.463  -1.861  1.00  0.00     0.012 C 
ATOM     36  C   UNL     1      86.588   1.725  -4.351  1.00  0.00     0.024 C 
ATOM     37  C   UNL     1      86.658   3.750  -5.724  1.00  0.00     0.008 C 
ATOM     38  C   UNL     1      85.731   2.421  -5.572  1.00  0.00    -0.017 C 
ATOM     39  C   UNL     1      86.966   0.233  -4.503  1.00  0.00    -0.024 C 
ATOM     40  C   UNL     1      84.380   3.134  -5.296  1.00  0.00     0.013 C 
ATOM     41  C   UNL     1      85.420   1.204  -6.740  1.00  0.00     0.009 C 
ATOM     42  C   UNL     1      86.297  -0.648  -5.251  1.00  0.00     0.005 C 
ATOM     43  C   UNL     1      85.094  -0.194  -6.004  1.00  0.00     0.096 C 
ATOM     44  C   UNL     1      84.175   1.488  -7.747  1.00  0.00     0.043 C 
ATOM     45  C   UNL     1      86.705   0.909  -7.589  1.00  0.00     0.015 C 
ATOM     46  C   UNL     1      84.476  -1.312  -6.896  1.00  0.00     0.037 C 
ATOM     47  O   UNL     1      84.127   0.008  -4.997  1.00  0.00    -0.369 OA
ATOM     48  C   UNL     1      82.867   0.536  -7.647  1.00  0.00     0.124 C 
ATOM     49  C   UNL     1      83.034  -0.870  -6.871  1.00  0.00     0.026 C 
ATOM     50  C   UNL     1      84.869  -1.837  -8.313  1.00  0.00     0.014 C 
ATOM     51  C   UNL     1      82.936  -0.593  -5.392  1.00  0.00     0.171 C 
ATOM     52  C   UNL     1      82.052  -2.063  -7.263  1.00  0.00     0.013 C 
ATOM     53  C   UNL     1      83.852  -2.997  -8.828  1.00  0.00    -0.035 C 
ATOM     54  C   UNL     1      82.810  -3.349  -7.710  1.00  0.00     0.007 C 
ATOM     55  C   UNL     1      83.062  -2.525 -10.096  1.00  0.00     0.011 C 
ATOM     56  C   UNL     1      84.612  -4.317  -9.217  1.00  0.00     0.011 C 
BRANCH  29  57
ATOM     57  C   UNL     1      86.724   4.620  -0.163  1.00  0.00     0.165 C 
BRANCH  57  58
ATOM     58  O   UNL     1      87.085   3.470   0.601  1.00  0.00    -0.396 OA
ATOM     59  H   UNL     1      86.314   3.295   1.235  1.00  0.00     0.210 HD
ENDBRANCH  57  58
ENDBRANCH  29  57
BRANCH  48  60
ATOM     60  O   UNL     1      82.409   0.264  -8.958  1.00  0.00    -0.392 OA
ATOM     61  H   UNL     1      82.082   1.094  -9.395  1.00  0.00     0.210 HD
ENDBRANCH  48  60
ENDBRANCH  26  27
ENDBRANCH   6  26
BRANCH   5  62
ATOM     62  O   UNL     1      82.565   2.190   2.315  1.00  0.00    -0.385 OA
ATOM     63  H   UNL     1      81.657   1.883   2.623  1.00  0.00     0.211 HD
ENDBRANCH   5  62
TORSDOF 14
ENDMDL
