MODEL 1
REMARK VINA RESULT:    -5.223      0.000      0.000
REMARK INTER + INTRA:          -6.908
REMARK INTER:                  -6.750
REMARK INTRA:                  -0.159
REMARK UNBOUND:                -0.159
REMARK SMILES CCO[C@@H]1O[C@@H](CO)[C@H](O)[C@H](O)[C@@H]1O
REMARK SMILES IDX 4 1 13 2 11 3 9 4 6 5 5 6 3 7 2 8 1 9 14 10 12 12 7 14 8 15
REMARK SMILES IDX 10 17
REMARK H PARENT 14 11 12 13 8 16 10 18
REMARK Flexibility Score: inf
ROOT
ATOM      1  C   UNL     1      30.162  10.087  30.467  1.00  0.00     0.281 C 
ATOM      2  C   UNL     1      29.122   9.852  29.356  1.00  0.00     0.202 C 
ATOM      3  C   UNL     1      29.751  10.046  27.962  1.00  0.00     0.179 C 
ATOM      4  C   UNL     1      31.043   9.221  27.856  1.00  0.00     0.177 C 
ATOM      5  C   UNL     1      31.965   9.527  29.062  1.00  0.00     0.178 C 
ATOM      6  O   UNL     1      31.295   9.249  30.284  1.00  0.00    -0.341 OA
ENDROOT
BRANCH   1   7
ATOM      7  O   UNL     1      30.532  11.458  30.521  1.00  0.00    -0.350 OA
BRANCH   7   8
ATOM      8  C   UNL     1      30.644  11.904  31.859  1.00  0.00     0.160 C 
ATOM      9  C   UNL     1      29.646  11.167  32.744  1.00  0.00     0.035 C 
ENDBRANCH   7   8
ENDBRANCH   1   7
BRANCH   2  10
ATOM     10  O   UNL     1      28.032  10.719  29.537  1.00  0.00    -0.385 OA
ATOM     11  H   UNL     1      27.942  10.863  30.515  1.00  0.00     0.211 HD
ENDBRANCH   2  10
BRANCH   3  12
ATOM     12  O   UNL     1      30.035  11.405  27.730  1.00  0.00    -0.387 OA
ATOM     13  H   UNL     1      29.243  11.792  27.273  1.00  0.00     0.211 HD
ENDBRANCH   3  12
BRANCH   5  14
ATOM     14  C   UNL     1      33.240   8.671  29.007  1.00  0.00     0.191 C 
BRANCH  14  15
ATOM     15  O   UNL     1      33.339   8.020  27.768  1.00  0.00    -0.394 OA
ATOM     16  H   UNL     1      32.456   7.596  27.600  1.00  0.00     0.210 HD
ENDBRANCH  14  15
ENDBRANCH   5  14
BRANCH   4  17
ATOM     17  O   UNL     1      31.690   9.532  26.648  1.00  0.00    -0.387 OA
ATOM     18  H   UNL     1      31.437  10.463  26.411  1.00  0.00     0.211 HD
ENDBRANCH   4  17
TORSDOF 7
ENDMDL
MODEL 2
REMARK VINA RESULT:    -4.903      2.030      4.210
REMARK INTER + INTRA:          -6.494
REMARK INTER:                  -6.172
REMARK INTRA:                  -0.323
REMARK UNBOUND:                -0.159
REMARK SMILES CCO[C@@H]1O[C@@H](CO)[C@H](O)[C@H](O)[C@@H]1O
REMARK SMILES IDX 4 1 13 2 11 3 9 4 6 5 5 6 3 7 2 8 1 9 14 10 12 12 7 14 8 15
REMARK SMILES IDX 10 17
REMARK H PARENT 14 11 12 13 8 16 10 18
REMARK Flexibility Score: inf
ROOT
ATOM      1  C   UNL     1      30.810   8.938  30.336  1.00  0.00     0.281 C 
ATOM      2  C   UNL     1      31.632   9.375  29.109  1.00  0.00     0.202 C 
ATOM      3  C   UNL     1      30.717   9.940  28.005  1.00  0.00     0.179 C 
ATOM      4  C   UNL     1      29.783  11.005  28.599  1.00  0.00     0.177 C 
ATOM      5  C   UNL     1      29.064  10.439  29.848  1.00  0.00     0.178 C 
ATOM      6  O   UNL     1      30.011  10.011  30.817  1.00  0.00    -0.341 OA
ENDROOT
BRANCH   1   7
ATOM      7  O   UNL     1      30.020   7.800  30.025  1.00  0.00    -0.350 OA
BRANCH   7   8
ATOM      8  C   UNL     1      30.433   6.672  30.774  1.00  0.00     0.160 C 
ATOM      9  C   UNL     1      29.876   5.396  30.153  1.00  0.00     0.035 C 
ENDBRANCH   7   8
ENDBRANCH   1   7
BRANCH   2  10
ATOM     10  O   UNL     1      32.382   8.289  28.630  1.00  0.00    -0.385 OA
ATOM     11  H   UNL     1      32.006   7.474  29.055  1.00  0.00     0.211 HD
ENDBRANCH   2  10
BRANCH   3  12
ATOM     12  O   UNL     1      29.955   8.912  27.418  1.00  0.00    -0.387 OA
ATOM     13  H   UNL     1      30.279   8.057  27.802  1.00  0.00     0.211 HD
ENDBRANCH   3  12
BRANCH   5  14
ATOM     14  C   UNL     1      28.164  11.505  30.493  1.00  0.00     0.191 C 
BRANCH  14  15
ATOM     15  O   UNL     1      26.907  11.525  29.870  1.00  0.00    -0.394 OA
ATOM     16  H   UNL     1      26.324  12.103  30.430  1.00  0.00     0.210 HD
ENDBRANCH  14  15
ENDBRANCH   5  14
BRANCH   4  17
ATOM     17  O   UNL     1      28.847  11.392  27.624  1.00  0.00    -0.387 OA
ATOM     18  H   UNL     1      28.825  10.675  26.938  1.00  0.00     0.211 HD
ENDBRANCH   4  17
TORSDOF 7
ENDMDL
MODEL 3
REMARK VINA RESULT:    -4.851      1.527      2.079
REMARK INTER + INTRA:          -6.428
REMARK INTER:                  -5.956
REMARK INTRA:                  -0.472
REMARK UNBOUND:                -0.159
REMARK SMILES CCO[C@@H]1O[C@@H](CO)[C@H](O)[C@H](O)[C@@H]1O
REMARK SMILES IDX 4 1 13 2 11 3 9 4 6 5 5 6 3 7 2 8 1 9 14 10 12 12 7 14 8 15
REMARK SMILES IDX 10 17
REMARK H PARENT 14 11 12 13 8 16 10 18
REMARK Flexibility Score: inf
ROOT
ATOM      1  C   UNL     1      30.695  10.087  29.468  1.00  0.00     0.281 C 
ATOM      2  C   UNL     1      30.175   9.047  28.457  1.00  0.00     0.202 C 
ATOM      3  C   UNL     1      31.304   8.581  27.516  1.00  0.00     0.179 C 
ATOM      4  C   UNL     1      32.528   8.158  28.343  1.00  0.00     0.177 C 
ATOM      5  C   UNL     1      32.902   9.280  29.343  1.00  0.00     0.178 C 
ATOM      6  O   UNL     1      31.804   9.575  30.195  1.00  0.00    -0.341 OA
ENDROOT
BRANCH   1   7
ATOM      7  O   UNL     1      31.022  11.302  28.807  1.00  0.00    -0.350 OA
BRANCH   7   8
ATOM      8  C   UNL     1      30.678  12.422  29.601  1.00  0.00     0.160 C 
ATOM      9  C   UNL     1      29.245  12.290  30.103  1.00  0.00     0.035 C 
ENDBRANCH   7   8
ENDBRANCH   1   7
BRANCH   2  10
ATOM     10  O   UNL     1      29.107   9.591  27.725  1.00  0.00    -0.385 OA
ATOM     11  H   UNL     1      29.196  10.578  27.781  1.00  0.00     0.211 HD
ENDBRANCH   2  10
BRANCH   3  12
ATOM     12  O   UNL     1      31.664   9.610  26.625  1.00  0.00    -0.387 OA
ATOM     13  H   UNL     1      30.860   9.816  26.081  1.00  0.00     0.211 HD
ENDBRANCH   3  12
BRANCH   5  14
ATOM     14  C   UNL     1      34.090   8.857  30.220  1.00  0.00     0.191 C 
BRANCH  14  15
ATOM     15  O   UNL     1      35.296   9.018  29.521  1.00  0.00    -0.394 OA
ATOM     16  H   UNL     1      35.081   8.911  28.557  1.00  0.00     0.210 HD
ENDBRANCH  14  15
ENDBRANCH   5  14
BRANCH   4  17
ATOM     17  O   UNL     1      33.600   7.893  27.474  1.00  0.00    -0.387 OA
ATOM     18  H   UNL     1      33.961   8.769  27.177  1.00  0.00     0.211 HD
ENDBRANCH   4  17
TORSDOF 7
ENDMDL
MODEL 4
REMARK VINA RESULT:    -4.635      1.719      4.357
REMARK INTER + INTRA:          -6.148
REMARK INTER:                  -5.676
REMARK INTRA:                  -0.472
REMARK UNBOUND:                -0.159
REMARK SMILES CCO[C@@H]1O[C@@H](CO)[C@H](O)[C@H](O)[C@@H]1O
REMARK SMILES IDX 4 1 13 2 11 3 9 4 6 5 5 6 3 7 2 8 1 9 14 10 12 12 7 14 8 15
REMARK SMILES IDX 10 17
REMARK H PARENT 14 11 12 13 8 16 10 18
REMARK Flexibility Score: inf
ROOT
ATOM      1  C   UNL     1      30.629  10.482  29.077  1.00  0.00     0.281 C 
ATOM      2  C   UNL     1      29.772  11.542  28.360  1.00  0.00     0.202 C 
ATOM      3  C   UNL     1      28.497  11.859  29.168  1.00  0.00     0.179 C 
ATOM      4  C   UNL     1      28.870  12.171  30.625  1.00  0.00     0.177 C 
ATOM      5  C   UNL     1      29.767  11.045  31.193  1.00  0.00     0.178 C 
ATOM      6  O   UNL     1      30.938  10.893  30.402  1.00  0.00    -0.341 OA
ENDROOT
BRANCH   1   7
ATOM      7  O   UNL     1      29.975   9.221  29.062  1.00  0.00    -0.350 OA
BRANCH   7   8
ATOM      8  C   UNL     1      30.903   8.167  28.890  1.00  0.00     0.160 C 
ATOM      9  C   UNL     1      31.977   8.571  27.887  1.00  0.00     0.035 C 
ENDBRANCH   7   8
ENDBRANCH   1   7
BRANCH   2  10
ATOM     10  O   UNL     1      29.448  11.095  27.069  1.00  0.00    -0.385 OA
ATOM     11  H   UNL     1      29.214  10.134  27.151  1.00  0.00     0.211 HD
ENDBRANCH   2  10
BRANCH   3  12
ATOM     12  O   UNL     1      27.603  10.773  29.128  1.00  0.00    -0.387 OA
ATOM     13  H   UNL     1      28.135   9.953  29.301  1.00  0.00     0.211 HD
ENDBRANCH   3  12
BRANCH   5  14
ATOM     14  C   UNL     1      30.199  11.363  32.633  1.00  0.00     0.191 C 
BRANCH  14  15
ATOM     15  O   UNL     1      29.207  10.961  33.541  1.00  0.00    -0.394 OA
ATOM     16  H   UNL     1      29.657  10.843  34.418  1.00  0.00     0.210 HD
ENDBRANCH  14  15
ENDBRANCH   5  14
BRANCH   4  17
ATOM     17  O   UNL     1      27.693  12.296  31.383  1.00  0.00    -0.387 OA
ATOM     18  H   UNL     1      27.947  12.190  32.338  1.00  0.00     0.211 HD
ENDBRANCH   4  17
TORSDOF 7
ENDMDL
MODEL 5
REMARK VINA RESULT:    -4.607      1.962      3.787
REMARK INTER + INTRA:          -6.112
REMARK INTER:                  -5.639
REMARK INTRA:                  -0.473
REMARK UNBOUND:                -0.159
REMARK SMILES CCO[C@@H]1O[C@@H](CO)[C@H](O)[C@H](O)[C@@H]1O
REMARK SMILES IDX 4 1 13 2 11 3 9 4 6 5 5 6 3 7 2 8 1 9 14 10 12 12 7 14 8 15
REMARK SMILES IDX 10 17
REMARK H PARENT 14 11 12 13 8 16 10 18
REMARK Flexibility Score: inf
ROOT
ATOM      1  C   UNL     1      30.495   9.291  28.562  1.00  0.00     0.281 C 
ATOM      2  C   UNL     1      31.660   8.531  27.901  1.00  0.00     0.202 C 
ATOM      3  C   UNL     1      32.859   8.415  28.864  1.00  0.00     0.179 C 
ATOM      4  C   UNL     1      32.384   7.868  30.219  1.00  0.00     0.177 C 
ATOM      5  C   UNL     1      31.184   8.699  30.732  1.00  0.00     0.178 C 
ATOM      6  O   UNL     1      30.122   8.677  29.788  1.00  0.00    -0.341 OA
ENDROOT
BRANCH   1   7
ATOM      7  O   UNL     1      30.833  10.658  28.745  1.00  0.00    -0.350 OA
BRANCH   7   8
ATOM      8  C   UNL     1      29.718  11.497  28.509  1.00  0.00     0.160 C 
ATOM      9  C   UNL     1      28.894  10.958  27.345  1.00  0.00     0.035 C 
ENDBRANCH   7   8
ENDBRANCH   1   7
BRANCH   2  10
ATOM     10  O   UNL     1      32.035   9.179  26.713  1.00  0.00    -0.385 OA
ATOM     11  H   UNL     1      31.589   8.695  25.971  1.00  0.00     0.211 HD
ENDBRANCH   2  10
BRANCH   3  12
ATOM     12  O   UNL     1      33.473   9.668  29.046  1.00  0.00    -0.387 OA
ATOM     13  H   UNL     1      32.985  10.315  28.472  1.00  0.00     0.211 HD
ENDBRANCH   3  12
BRANCH   5  14
ATOM     14  C   UNL     1      30.656   8.136  32.061  1.00  0.00     0.191 C 
BRANCH  14  15
ATOM     15  O   UNL     1      30.821   6.743  32.102  1.00  0.00    -0.394 OA
ATOM     16  H   UNL     1      31.038   6.511  33.043  1.00  0.00     0.210 HD
ENDBRANCH  14  15
ENDBRANCH   5  14
BRANCH   4  17
ATOM     17  O   UNL     1      33.450   7.921  31.134  1.00  0.00    -0.387 OA
ATOM     18  H   UNL     1      34.154   7.305  30.801  1.00  0.00     0.211 HD
ENDBRANCH   4  17
TORSDOF 7
ENDMDL
MODEL 6
REMARK VINA RESULT:    -4.474      2.094      2.916
REMARK INTER + INTRA:          -5.941
REMARK INTER:                  -5.509
REMARK INTRA:                  -0.431
REMARK UNBOUND:                -0.159
REMARK SMILES CCO[C@@H]1O[C@@H](CO)[C@H](O)[C@H](O)[C@@H]1O
REMARK SMILES IDX 4 1 13 2 11 3 9 4 6 5 5 6 3 7 2 8 1 9 14 10 12 12 7 14 8 15
REMARK SMILES IDX 10 17
REMARK H PARENT 14 11 12 13 8 16 10 18
REMARK Flexibility Score: inf
ROOT
ATOM      1  C   UNL     1      31.100  10.281  30.177  1.00  0.00     0.281 C 
ATOM      2  C   UNL     1      30.191  10.620  28.981  1.00  0.00     0.202 C 
ATOM      3  C   UNL     1      30.216   9.491  27.932  1.00  0.00     0.179 C 
ATOM      4  C   UNL     1      29.947   8.142  28.616  1.00  0.00     0.177 C 
ATOM      5  C   UNL     1      30.900   7.963  29.823  1.00  0.00     0.178 C 
ATOM      6  O   UNL     1      30.739   9.030  30.747  1.00  0.00    -0.341 OA
ENDROOT
BRANCH   1   7
ATOM      7  O   UNL     1      32.465  10.300  29.785  1.00  0.00    -0.350 OA
BRANCH   7   8
ATOM      8  C   UNL     1      33.311  10.548  30.893  1.00  0.00     0.160 C 
ATOM      9  C   UNL     1      34.358   9.448  31.011  1.00  0.00     0.035 C 
ENDBRANCH   7   8
ENDBRANCH   1   7
BRANCH   2  10
ATOM     10  O   UNL     1      30.593  11.840  28.412  1.00  0.00    -0.385 OA
ATOM     11  H   UNL     1      31.178  11.616  27.643  1.00  0.00     0.211 HD
ENDBRANCH   2  10
BRANCH   3  12
ATOM     12  O   UNL     1      31.459   9.452  27.274  1.00  0.00    -0.387 OA
ATOM     13  H   UNL     1      31.853  10.360  27.345  1.00  0.00     0.211 HD
ENDBRANCH   3  12
BRANCH   5  14
ATOM     14  C   UNL     1      30.613   6.644  30.556  1.00  0.00     0.191 C 
BRANCH  14  15
ATOM     15  O   UNL     1      29.274   6.265  30.376  1.00  0.00    -0.394 OA
ATOM     16  H   UNL     1      29.286   5.422  29.851  1.00  0.00     0.210 HD
ENDBRANCH  14  15
ENDBRANCH   5  14
BRANCH   4  17
ATOM     17  O   UNL     1      30.134   7.108  27.682  1.00  0.00    -0.387 OA
ATOM     18  H   UNL     1      29.932   7.483  26.785  1.00  0.00     0.211 HD
ENDBRANCH   4  17
TORSDOF 7
ENDMDL
MODEL 7
REMARK VINA RESULT:    -4.435      1.675      2.638
REMARK INTER + INTRA:          -5.890
REMARK INTER:                  -5.469
REMARK INTRA:                  -0.420
REMARK UNBOUND:                -0.159
REMARK SMILES CCO[C@@H]1O[C@@H](CO)[C@H](O)[C@H](O)[C@@H]1O
REMARK SMILES IDX 4 1 13 2 11 3 9 4 6 5 5 6 3 7 2 8 1 9 14 10 12 12 7 14 8 15
REMARK SMILES IDX 10 17
REMARK H PARENT 14 11 12 13 8 16 10 18
REMARK Flexibility Score: inf
ROOT
ATOM      1  C   UNL     1      31.527  10.235  31.141  1.00  0.00     0.281 C 
ATOM      2  C   UNL     1      30.164  10.953  31.146  1.00  0.00     0.202 C 
ATOM      3  C   UNL     1      29.862  11.573  29.767  1.00  0.00     0.179 C 
ATOM      4  C   UNL     1      30.059  10.516  28.669  1.00  0.00     0.177 C 
ATOM      5  C   UNL     1      31.448   9.850  28.821  1.00  0.00     0.178 C 
ATOM      6  O   UNL     1      31.581   9.261  30.107  1.00  0.00    -0.341 OA
ENDROOT
BRANCH   1   7
ATOM      7  O   UNL     1      32.584  11.177  31.025  1.00  0.00    -0.350 OA
BRANCH   7   8
ATOM      8  C   UNL     1      33.696  10.795  31.814  1.00  0.00     0.160 C 
ATOM      9  C   UNL     1      34.915  10.568  30.927  1.00  0.00     0.035 C 
ENDBRANCH   7   8
ENDBRANCH   1   7
BRANCH   2  10
ATOM     10  O   UNL     1      30.151  11.936  32.149  1.00  0.00    -0.385 OA
ATOM     11  H   UNL     1      30.178  11.457  33.018  1.00  0.00     0.211 HD
ENDBRANCH   2  10
BRANCH   3  12
ATOM     12  O   UNL     1      30.703  12.674  29.523  1.00  0.00    -0.387 OA
ATOM     13  H   UNL     1      30.134  13.397  29.151  1.00  0.00     0.211 HD
ENDBRANCH   3  12
BRANCH   5  14
ATOM     14  C   UNL     1      31.646   8.750  27.767  1.00  0.00     0.191 C 
BRANCH  14  15
ATOM     15  O   UNL     1      31.912   9.317  26.511  1.00  0.00    -0.394 OA
ATOM     16  H   UNL     1      31.960   8.565  25.865  1.00  0.00     0.210 HD
ENDBRANCH  14  15
ENDBRANCH   5  14
BRANCH   4  17
ATOM     17  O   UNL     1      29.941  11.132  27.411  1.00  0.00    -0.387 OA
ATOM     18  H   UNL     1      28.982  11.101  27.158  1.00  0.00     0.211 HD
ENDBRANCH   4  17
TORSDOF 7
ENDMDL
MODEL 8
REMARK VINA RESULT:    -4.394      1.682      3.083
REMARK INTER + INTRA:          -5.837
REMARK INTER:                  -5.595
REMARK INTRA:                  -0.241
REMARK UNBOUND:                -0.159
REMARK SMILES CCO[C@@H]1O[C@@H](CO)[C@H](O)[C@H](O)[C@@H]1O
REMARK SMILES IDX 4 1 13 2 11 3 9 4 6 5 5 6 3 7 2 8 1 9 14 10 12 12 7 14 8 15
REMARK SMILES IDX 10 17
REMARK H PARENT 14 11 12 13 8 16 10 18
REMARK Flexibility Score: inf
ROOT
ATOM      1  C   UNL     1      30.561  11.279  29.787  1.00  0.00     0.281 C 
ATOM      2  C   UNL     1      31.625  11.535  30.870  1.00  0.00     0.202 C 
ATOM      3  C   UNL     1      32.278  10.215  31.325  1.00  0.00     0.179 C 
ATOM      4  C   UNL     1      32.749   9.419  30.099  1.00  0.00     0.177 C 
ATOM      5  C   UNL     1      31.590   9.284  29.081  1.00  0.00     0.178 C 
ATOM      6  O   UNL     1      31.118  10.566  28.691  1.00  0.00    -0.341 OA
ENDROOT
BRANCH   1   7
ATOM      7  O   UNL     1      29.444  10.596  30.339  1.00  0.00    -0.350 OA
BRANCH   7   8
ATOM      8  C   UNL     1      28.227  11.146  29.870  1.00  0.00     0.160 C 
ATOM      9  C   UNL     1      27.688  12.158  30.874  1.00  0.00     0.035 C 
ENDBRANCH   7   8
ENDBRANCH   1   7
BRANCH   2  10
ATOM     10  O   UNL     1      31.042  12.205  31.958  1.00  0.00    -0.385 OA
ATOM     11  H   UNL     1      30.908  13.147  31.674  1.00  0.00     0.211 HD
ENDBRANCH   2  10
BRANCH   3  12
ATOM     12  O   UNL     1      31.368   9.444  32.073  1.00  0.00    -0.387 OA
ATOM     13  H   UNL     1      31.182   9.945  32.909  1.00  0.00     0.211 HD
ENDBRANCH   3  12
BRANCH   5  14
ATOM     14  C   UNL     1      32.053   8.538  27.820  1.00  0.00     0.191 C 
BRANCH  14  15
ATOM     15  O   UNL     1      31.809   9.312  26.676  1.00  0.00    -0.394 OA
ATOM     16  H   UNL     1      31.524   8.682  25.963  1.00  0.00     0.210 HD
ENDBRANCH  14  15
ENDBRANCH   5  14
BRANCH   4  17
ATOM     17  O   UNL     1      33.191   8.151  30.515  1.00  0.00    -0.387 OA
ATOM     18  H   UNL     1      32.595   7.861  31.255  1.00  0.00     0.211 HD
ENDBRANCH   4  17
TORSDOF 7
ENDMDL
MODEL 9
REMARK VINA RESULT:    -4.340     11.040     12.952
REMARK INTER + INTRA:          -5.767
REMARK INTER:                  -5.390
REMARK INTRA:                  -0.377
REMARK UNBOUND:                -0.159
REMARK SMILES CCO[C@@H]1O[C@@H](CO)[C@H](O)[C@H](O)[C@@H]1O
REMARK SMILES IDX 4 1 13 2 11 3 9 4 6 5 5 6 3 7 2 8 1 9 14 10 12 12 7 14 8 15
REMARK SMILES IDX 10 17
REMARK H PARENT 14 11 12 13 8 16 10 18
REMARK Flexibility Score: inf
ROOT
ATOM      1  C   UNL     1      20.933   2.310  25.167  1.00  0.00     0.281 C 
ATOM      2  C   UNL     1      22.448   2.525  24.993  1.00  0.00     0.202 C 
ATOM      3  C   UNL     1      22.830   3.997  25.249  1.00  0.00     0.179 C 
ATOM      4  C   UNL     1      22.237   4.461  26.588  1.00  0.00     0.177 C 
ATOM      5  C   UNL     1      20.723   4.137  26.635  1.00  0.00     0.178 C 
ATOM      6  O   UNL     1      20.505   2.746  26.451  1.00  0.00    -0.341 OA
ENDROOT
BRANCH   1   7
ATOM      7  O   UNL     1      20.215   2.965  24.130  1.00  0.00    -0.350 OA
BRANCH   7   8
ATOM      8  C   UNL     1      19.395   2.053  23.423  1.00  0.00     0.160 C 
ATOM      9  C   UNL     1      19.729   2.091  21.936  1.00  0.00     0.035 C 
ENDBRANCH   7   8
ENDBRANCH   1   7
BRANCH   2  10
ATOM     10  O   UNL     1      22.837   2.124  23.704  1.00  0.00    -0.385 OA
ATOM     11  H   UNL     1      22.593   2.864  23.090  1.00  0.00     0.211 HD
ENDBRANCH   2  10
BRANCH   3  12
ATOM     12  O   UNL     1      22.358   4.820  24.209  1.00  0.00    -0.387 OA
ATOM     13  H   UNL     1      23.046   4.804  23.493  1.00  0.00     0.211 HD
ENDBRANCH   3  12
BRANCH   5  14
ATOM     14  C   UNL     1      20.119   4.543  27.988  1.00  0.00     0.191 C 
BRANCH  14  15
ATOM     15  O   UNL     1      20.136   5.939  28.133  1.00  0.00    -0.394 OA
ATOM     16  H   UNL     1      19.189   6.228  28.207  1.00  0.00     0.210 HD
ENDBRANCH  14  15
ENDBRANCH   5  14
BRANCH   4  17
ATOM     17  O   UNL     1      22.451   5.843  26.731  1.00  0.00    -0.387 OA
ATOM     18  H   UNL     1      23.413   6.011  26.548  1.00  0.00     0.211 HD
ENDBRANCH   4  17
TORSDOF 7
ENDMDL
