MODEL 1
REMARK VINA RESULT:    -4.520      0.000      0.000
REMARK INTER + INTRA:          -5.048
REMARK INTER:                  -5.048
REMARK INTRA:                   0.000
REMARK UNBOUND:                 0.000
REMARK SMILES Oc1cc(O)c2c(c1)CCc1cc(O)c(O)cc1-2
REMARK SMILES IDX 10 1 9 2 7 3 6 4 18 5 17 6 15 7 13 8 12 9 11 10 4 11 3 12
REMARK SMILES IDX 2 13 8 14 14 15 5 17 1 19 16 21
REMARK H PARENT 14 16 5 18 1 20 16 22
REMARK Flexibility Score: inf
ROOT
ATOM      1  C   UNL     1     116.014 132.352 109.194  1.00  0.00     0.041 C 
ATOM      2  C   UNL     1     117.151 133.350 108.955  1.00  0.00     0.041 C 
ATOM      3  C   UNL     1     117.795 133.108 107.611  1.00  0.00    -0.032 A 
ATOM      4  C   UNL     1     117.929 131.788 107.116  1.00  0.00     0.027 A 
ATOM      5  C   UNL     1     117.446 130.661 107.978  1.00  0.00    -0.007 A 
ATOM      6  C   UNL     1     117.965 129.355 107.880  1.00  0.00     0.059 A 
ATOM      7  C   UNL     1     117.480 128.328 108.702  1.00  0.00     0.158 A 
ATOM      8  C   UNL     1     116.491 128.600 109.652  1.00  0.00     0.157 A 
ATOM      9  C   UNL     1     116.008 129.905 109.800  1.00  0.00     0.054 A 
ATOM     10  C   UNL     1     116.503 130.941 108.994  1.00  0.00    -0.036 A 
ATOM     11  C   UNL     1     118.443 131.601 105.809  1.00  0.00     0.127 A 
ATOM     12  C   UNL     1     118.925 132.700 105.084  1.00  0.00     0.093 A 
ATOM     13  C   UNL     1     118.861 133.988 105.614  1.00  0.00     0.119 A 
ATOM     14  C   UNL     1     118.289 134.192 106.872  1.00  0.00     0.050 A 
ENDROOT
BRANCH   8  15
ATOM     15  O   UNL     1     116.002 127.571 110.455  1.00  0.00    -0.504 OA
ATOM     16  H   UNL     1     115.468 127.762 111.295  1.00  0.00     0.293 HD
ENDBRANCH   8  15
BRANCH  11  17
ATOM     17  O   UNL     1     118.439 130.343 105.208  1.00  0.00    -0.507 OA
ATOM     18  H   UNL     1     119.293 129.901 104.888  1.00  0.00     0.293 HD
ENDBRANCH  11  17
BRANCH  13  19
ATOM     19  O   UNL     1     119.355 135.060 104.875  1.00  0.00    -0.508 OA
ATOM     20  H   UNL     1     119.831 134.921 103.991  1.00  0.00     0.293 HD
ENDBRANCH  13  19
BRANCH   7  21
ATOM     21  O   UNL     1     117.985 127.034 108.586  1.00  0.00    -0.504 OA
ATOM     22  H   UNL     1     118.313 126.518 109.395  1.00  0.00     0.293 HD
ENDBRANCH   7  21
TORSDOF 4
ENDMDL
MODEL 2
REMARK VINA RESULT:    -4.517     12.904     14.092
REMARK INTER + INTRA:          -5.045
REMARK INTER:                  -5.045
REMARK INTRA:                   0.000
REMARK UNBOUND:                 0.000
REMARK SMILES Oc1cc(O)c2c(c1)CCc1cc(O)c(O)cc1-2
REMARK SMILES IDX 10 1 9 2 7 3 6 4 18 5 17 6 15 7 13 8 12 9 11 10 4 11 3 12
REMARK SMILES IDX 2 13 8 14 14 15 5 17 1 19 16 21
REMARK H PARENT 14 16 5 18 1 20 16 22
REMARK Flexibility Score: inf
ROOT
ATOM      1  C   UNL     1     116.694 115.822 108.998  1.00  0.00     0.041 C 
ATOM      2  C   UNL     1     115.689 116.965 108.822  1.00  0.00     0.041 C 
ATOM      3  C   UNL     1     115.941 117.697 107.525  1.00  0.00    -0.032 A 
ATOM      4  C   UNL     1     117.265 117.873 107.056  1.00  0.00     0.027 A 
ATOM      5  C   UNL     1     118.386 117.343 107.897  1.00  0.00    -0.007 A 
ATOM      6  C   UNL     1     119.690 117.877 107.847  1.00  0.00     0.059 A 
ATOM      7  C   UNL     1     120.711 117.347 108.648  1.00  0.00     0.158 A 
ATOM      8  C   UNL     1     120.437 116.296 109.528  1.00  0.00     0.157 A 
ATOM      9  C   UNL     1     119.134 115.794 109.630  1.00  0.00     0.054 A 
ATOM     10  C   UNL     1     118.104 116.333 108.846  1.00  0.00    -0.036 A 
ATOM     11  C   UNL     1     117.462 118.472 105.787  1.00  0.00     0.127 A 
ATOM     12  C   UNL     1     116.368 118.992 105.082  1.00  0.00     0.093 A 
ATOM     13  C   UNL     1     115.074 118.884 105.592  1.00  0.00     0.119 A 
ATOM     14  C   UNL     1     114.861 118.230 106.808  1.00  0.00     0.050 A 
ENDROOT
BRANCH   8  15
ATOM     15  O   UNL     1     121.461 115.763 110.309  1.00  0.00    -0.504 OA
ATOM     16  H   UNL     1     122.434 115.847 110.038  1.00  0.00     0.293 HD
ENDBRANCH   8  15
BRANCH  11  17
ATOM     17  O   UNL     1     118.726 118.517 105.201  1.00  0.00    -0.507 OA
ATOM     18  H   UNL     1     118.849 118.513 104.195  1.00  0.00     0.293 HD
ENDBRANCH  11  17
BRANCH  13  19
ATOM     19  O   UNL     1     114.006 119.418 104.875  1.00  0.00    -0.508 OA
ATOM     20  H   UNL     1     113.658 120.352 105.058  1.00  0.00     0.293 HD
ENDBRANCH  13  19
BRANCH   7  21
ATOM     21  O   UNL     1     122.003 117.868 108.580  1.00  0.00    -0.504 OA
ATOM     22  H   UNL     1     122.676 117.717 109.323  1.00  0.00     0.293 HD
ENDBRANCH   7  21
TORSDOF 4
ENDMDL
MODEL 3
REMARK VINA RESULT:    -4.362      9.335     11.328
REMARK INTER + INTRA:          -4.872
REMARK INTER:                  -4.872
REMARK INTRA:                   0.000
REMARK UNBOUND:                 0.000
REMARK SMILES Oc1cc(O)c2c(c1)CCc1cc(O)c(O)cc1-2
REMARK SMILES IDX 10 1 9 2 7 3 6 4 18 5 17 6 15 7 13 8 12 9 11 10 4 11 3 12
REMARK SMILES IDX 2 13 8 14 14 15 5 17 1 19 16 21
REMARK H PARENT 14 16 5 18 1 20 16 22
REMARK Flexibility Score: inf
ROOT
ATOM      1  C   UNL     1     125.123 125.759 106.317  1.00  0.00     0.041 C 
ATOM      2  C   UNL     1     126.133 126.127 107.409  1.00  0.00     0.041 C 
ATOM      3  C   UNL     1     126.847 124.894 107.908  1.00  0.00    -0.032 A 
ATOM      4  C   UNL     1     126.153 123.663 108.005  1.00  0.00     0.027 A 
ATOM      5  C   UNL     1     124.702 123.642 107.632  1.00  0.00    -0.007 A 
ATOM      6  C   UNL     1     123.798 122.695 108.154  1.00  0.00     0.059 A 
ATOM      7  C   UNL     1     122.449 122.708 107.774  1.00  0.00     0.158 A 
ATOM      8  C   UNL     1     121.980 123.683 106.889  1.00  0.00     0.157 A 
ATOM      9  C   UNL     1     122.854 124.665 106.408  1.00  0.00     0.054 A 
ATOM     10  C   UNL     1     124.201 124.670 106.800  1.00  0.00    -0.036 A 
ATOM     11  C   UNL     1     126.876 122.503 108.377  1.00  0.00     0.127 A 
ATOM     12  C   UNL     1     128.219 122.610 108.764  1.00  0.00     0.093 A 
ATOM     13  C   UNL     1     128.871 123.843 108.741  1.00  0.00     0.119 A 
ATOM     14  C   UNL     1     128.188 124.981 108.305  1.00  0.00     0.050 A 
ENDROOT
BRANCH   8  15
ATOM     15  O   UNL     1     120.640 123.681 106.503  1.00  0.00    -0.504 OA
ATOM     16  H   UNL     1     119.955 124.271 106.960  1.00  0.00     0.293 HD
ENDBRANCH   8  15
BRANCH  11  17
ATOM     17  O   UNL     1     126.287 121.240 108.325  1.00  0.00    -0.507 OA
ATOM     18  H   UNL     1     126.842 120.394 108.278  1.00  0.00     0.293 HD
ENDBRANCH  11  17
BRANCH  13  19
ATOM     19  O   UNL     1     130.204 123.923 109.139  1.00  0.00    -0.508 OA
ATOM     20  H   UNL     1     130.786 124.713 108.886  1.00  0.00     0.293 HD
ENDBRANCH  13  19
BRANCH   7  21
ATOM     21  O   UNL     1     121.564 121.756 108.280  1.00  0.00    -0.504 OA
ATOM     22  H   UNL     1     121.353 120.905 107.772  1.00  0.00     0.293 HD
ENDBRANCH   7  21
TORSDOF 4
ENDMDL
MODEL 4
REMARK VINA RESULT:    -4.351      8.002     11.153
REMARK INTER + INTRA:          -4.859
REMARK INTER:                  -4.859
REMARK INTRA:                   0.000
REMARK UNBOUND:                 0.000
REMARK SMILES Oc1cc(O)c2c(c1)CCc1cc(O)c(O)cc1-2
REMARK SMILES IDX 10 1 9 2 7 3 6 4 18 5 17 6 15 7 13 8 12 9 11 10 4 11 3 12
REMARK SMILES IDX 2 13 8 14 14 15 5 17 1 19 16 21
REMARK H PARENT 14 16 5 18 1 20 16 22
REMARK Flexibility Score: inf
ROOT
ATOM      1  C   UNL     1     125.532 123.788 106.295  1.00  0.00     0.041 C 
ATOM      2  C   UNL     1     125.888 122.776 107.390  1.00  0.00     0.041 C 
ATOM      3  C   UNL     1     124.641 122.122 107.934  1.00  0.00    -0.032 A 
ATOM      4  C   UNL     1     123.444 122.870 108.057  1.00  0.00     0.027 A 
ATOM      5  C   UNL     1     123.475 124.316 107.665  1.00  0.00    -0.007 A 
ATOM      6  C   UNL     1     122.583 125.266 108.203  1.00  0.00     0.059 A 
ATOM      7  C   UNL     1     122.643 126.609 107.804  1.00  0.00     0.158 A 
ATOM      8  C   UNL     1     123.610 127.025 106.885  1.00  0.00     0.157 A 
ATOM      9  C   UNL     1     124.539 126.103 106.387  1.00  0.00     0.054 A 
ATOM     10  C   UNL     1     124.498 124.762 106.797  1.00  0.00    -0.036 A 
ATOM     11  C   UNL     1     122.266 122.202 108.473  1.00  0.00     0.127 A 
ATOM     12  C   UNL     1     122.327 120.861 108.875  1.00  0.00     0.093 A 
ATOM     13  C   UNL     1     123.529 120.156 108.825  1.00  0.00     0.119 A 
ATOM     14  C   UNL     1     124.682 120.784 108.347  1.00  0.00     0.050 A 
ENDROOT
BRANCH   8  15
ATOM     15  O   UNL     1     123.653 128.358 106.480  1.00  0.00    -0.504 OA
ATOM     16  H   UNL     1     122.891 128.996 106.674  1.00  0.00     0.293 HD
ENDBRANCH   8  15
BRANCH  11  17
ATOM     17  O   UNL     1     121.029 122.845 108.450  1.00  0.00    -0.507 OA
ATOM     18  H   UNL     1     120.688 123.376 109.243  1.00  0.00     0.293 HD
ENDBRANCH  11  17
BRANCH  13  19
ATOM     19  O   UNL     1     123.564 118.826 109.239  1.00  0.00    -0.508 OA
ATOM     20  H   UNL     1     122.828 118.175 108.991  1.00  0.00     0.293 HD
ENDBRANCH  13  19
BRANCH   7  21
ATOM     21  O   UNL     1     121.745 127.540 108.325  1.00  0.00    -0.504 OA
ATOM     22  H   UNL     1     120.930 127.841 107.804  1.00  0.00     0.293 HD
ENDBRANCH   7  21
TORSDOF 4
ENDMDL
MODEL 5
REMARK VINA RESULT:    -4.350      8.646     10.059
REMARK INTER + INTRA:          -4.859
REMARK INTER:                  -4.859
REMARK INTRA:                   0.000
REMARK UNBOUND:                 0.000
REMARK SMILES Oc1cc(O)c2c(c1)CCc1cc(O)c(O)cc1-2
REMARK SMILES IDX 10 1 9 2 7 3 6 4 18 5 17 6 15 7 13 8 12 9 11 10 4 11 3 12
REMARK SMILES IDX 2 13 8 14 14 15 5 17 1 19 16 21
REMARK H PARENT 14 16 5 18 1 20 16 22
REMARK Flexibility Score: inf
ROOT
ATOM      1  C   UNL     1     123.272 125.318 106.365  1.00  0.00     0.041 C 
ATOM      2  C   UNL     1     122.945 126.325 107.473  1.00  0.00     0.041 C 
ATOM      3  C   UNL     1     124.204 126.988 107.977  1.00  0.00    -0.032 A 
ATOM      4  C   UNL     1     125.410 126.249 108.059  1.00  0.00     0.027 A 
ATOM      5  C   UNL     1     125.378 124.804 107.664  1.00  0.00    -0.007 A 
ATOM      6  C   UNL     1     126.295 123.859 108.170  1.00  0.00     0.059 A 
ATOM      7  C   UNL     1     126.232 122.517 107.770  1.00  0.00     0.158 A 
ATOM      8  C   UNL     1     125.238 122.096 106.883  1.00  0.00     0.157 A 
ATOM      9  C   UNL     1     124.286 123.011 106.418  1.00  0.00     0.054 A 
ATOM     10  C   UNL     1     124.330 124.351 106.830  1.00  0.00    -0.036 A 
ATOM     11  C   UNL     1     126.596 126.925 108.436  1.00  0.00     0.127 A 
ATOM     12  C   UNL     1     126.538 128.265 108.843  1.00  0.00     0.093 A 
ATOM     13  C   UNL     1     125.330 128.961 108.835  1.00  0.00     0.119 A 
ATOM     14  C   UNL     1     124.166 128.325 108.394  1.00  0.00     0.050 A 
ENDROOT
BRANCH   8  15
ATOM     15  O   UNL     1     125.192 120.763 106.477  1.00  0.00    -0.504 OA
ATOM     16  H   UNL     1     124.314 120.264 106.393  1.00  0.00     0.293 HD
ENDBRANCH   8  15
BRANCH  11  17
ATOM     17  O   UNL     1     127.837 126.292 108.370  1.00  0.00    -0.507 OA
ATOM     18  H   UNL     1     128.198 125.742 109.141  1.00  0.00     0.293 HD
ENDBRANCH  11  17
BRANCH  13  19
ATOM     19  O   UNL     1     125.298 130.290 109.253  1.00  0.00    -0.508 OA
ATOM     20  H   UNL     1     125.113 131.045 108.603  1.00  0.00     0.293 HD
ENDBRANCH  13  19
BRANCH   7  21
ATOM     21  O   UNL     1     127.154 121.592 108.259  1.00  0.00    -0.504 OA
ATOM     22  H   UNL     1     128.150 121.706 108.111  1.00  0.00     0.293 HD
ENDBRANCH   7  21
TORSDOF 4
ENDMDL
MODEL 6
REMARK VINA RESULT:    -4.319      7.239      9.756
REMARK INTER + INTRA:          -4.824
REMARK INTER:                  -4.824
REMARK INTRA:                   0.000
REMARK UNBOUND:                 0.000
REMARK SMILES Oc1cc(O)c2c(c1)CCc1cc(O)c(O)cc1-2
REMARK SMILES IDX 10 1 9 2 7 3 6 4 18 5 17 6 15 7 13 8 12 9 11 10 4 11 3 12
REMARK SMILES IDX 2 13 8 14 14 15 5 17 1 19 16 21
REMARK H PARENT 14 16 5 18 1 20 16 22
REMARK Flexibility Score: inf
ROOT
ATOM      1  C   UNL     1     123.581 123.467 106.357  1.00  0.00     0.041 C 
ATOM      2  C   UNL     1     122.570 123.151 107.465  1.00  0.00     0.041 C 
ATOM      3  C   UNL     1     121.943 124.420 107.988  1.00  0.00    -0.032 A 
ATOM      4  C   UNL     1     122.714 125.605 108.084  1.00  0.00     0.027 A 
ATOM      5  C   UNL     1     124.157 125.540 107.683  1.00  0.00    -0.007 A 
ATOM      6  C   UNL     1     125.127 126.423 108.197  1.00  0.00     0.059 A 
ATOM      7  C   UNL     1     126.466 126.331 107.791  1.00  0.00     0.158 A 
ATOM      8  C   UNL     1     126.857 125.338 106.888  1.00  0.00     0.157 A 
ATOM      9  C   UNL     1     125.915 124.417 106.414  1.00  0.00     0.054 A 
ATOM     10  C   UNL     1     124.578 124.492 106.832  1.00  0.00    -0.036 A 
ATOM     11  C   UNL     1     122.072 126.803 108.480  1.00  0.00     0.127 A 
ATOM     12  C   UNL     1     120.732 126.775 108.892  1.00  0.00     0.093 A 
ATOM     13  C   UNL     1     120.004 125.586 108.870  1.00  0.00     0.119 A 
ATOM     14  C   UNL     1     120.607 124.412 108.411  1.00  0.00     0.050 A 
ENDROOT
BRANCH   8  15
ATOM     15  O   UNL     1     128.186 125.262 106.476  1.00  0.00    -0.504 OA
ATOM     16  H   UNL     1     128.746 124.433 106.639  1.00  0.00     0.293 HD
ENDBRANCH   8  15
BRANCH  11  17
ATOM     17  O   UNL     1     122.737 128.027 108.429  1.00  0.00    -0.507 OA
ATOM     18  H   UNL     1     123.079 128.413 107.556  1.00  0.00     0.293 HD
ENDBRANCH  11  17
BRANCH  13  19
ATOM     19  O   UNL     1     118.677 125.584 109.293  1.00  0.00    -0.508 OA
ATOM     20  H   UNL     1     118.102 126.418 109.239  1.00  0.00     0.293 HD
ENDBRANCH  13  19
BRANCH   7  21
ATOM     21  O   UNL     1     127.417 127.221 108.289  1.00  0.00    -0.504 OA
ATOM     22  H   UNL     1     127.186 127.896 109.008  1.00  0.00     0.293 HD
ENDBRANCH   7  21
TORSDOF 4
ENDMDL
MODEL 7
REMARK VINA RESULT:    -4.317      7.940      9.987
REMARK INTER + INTRA:          -4.822
REMARK INTER:                  -4.822
REMARK INTRA:                   0.000
REMARK UNBOUND:                 0.000
REMARK SMILES Oc1cc(O)c2c(c1)CCc1cc(O)c(O)cc1-2
REMARK SMILES IDX 10 1 9 2 7 3 6 4 18 5 17 6 15 7 13 8 12 9 11 10 4 11 3 12
REMARK SMILES IDX 2 13 8 14 14 15 5 17 1 19 16 21
REMARK H PARENT 14 16 5 18 1 20 16 22
REMARK Flexibility Score: inf
ROOT
ATOM      1  C   UNL     1     125.590 122.590 107.474  1.00  0.00     0.041 C 
ATOM      2  C   UNL     1     125.328 123.639 106.388  1.00  0.00     0.041 C 
ATOM      3  C   UNL     1     124.369 124.692 106.888  1.00  0.00    -0.032 A 
ATOM      4  C   UNL     1     123.312 124.332 107.759  1.00  0.00     0.027 A 
ATOM      5  C   UNL     1     123.168 122.887 108.131  1.00  0.00    -0.007 A 
ATOM      6  C   UNL     1     121.936 122.323 108.520  1.00  0.00     0.059 A 
ATOM      7  C   UNL     1     121.846 120.968 108.865  1.00  0.00     0.158 A 
ATOM      8  C   UNL     1     122.980 120.152 108.800  1.00  0.00     0.157 A 
ATOM      9  C   UNL     1     124.197 120.685 108.360  1.00  0.00     0.054 A 
ATOM     10  C   UNL     1     124.289 122.037 107.994  1.00  0.00    -0.036 A 
ATOM     11  C   UNL     1     122.492 125.357 108.293  1.00  0.00     0.127 A 
ATOM     12  C   UNL     1     122.653 126.679 107.857  1.00  0.00     0.093 A 
ATOM     13  C   UNL     1     123.647 127.010 106.936  1.00  0.00     0.119 A 
ATOM     14  C   UNL     1     124.509 126.019 106.459  1.00  0.00     0.050 A 
ENDROOT
BRANCH   8  15
ATOM     15  O   UNL     1     122.887 118.809 109.160  1.00  0.00    -0.504 OA
ATOM     16  H   UNL     1     123.123 118.068 108.510  1.00  0.00     0.293 HD
ENDBRANCH   8  15
BRANCH  11  17
ATOM     17  O   UNL     1     121.549 125.082 109.283  1.00  0.00    -0.507 OA
ATOM     18  H   UNL     1     120.818 125.742 109.522  1.00  0.00     0.293 HD
ENDBRANCH  11  17
BRANCH  13  19
ATOM     19  O   UNL     1     123.779 128.331 106.513  1.00  0.00    -0.508 OA
ATOM     20  H   UNL     1     123.619 129.108 107.143  1.00  0.00     0.293 HD
ENDBRANCH  13  19
BRANCH   7  21
ATOM     21  O   UNL     1     120.628 120.421 109.266  1.00  0.00    -0.504 OA
ATOM     22  H   UNL     1     120.295 119.539 108.895  1.00  0.00     0.293 HD
ENDBRANCH   7  21
TORSDOF 4
ENDMDL
MODEL 8
REMARK VINA RESULT:    -4.312      9.724     11.939
REMARK INTER + INTRA:          -4.816
REMARK INTER:                  -4.816
REMARK INTRA:                   0.000
REMARK UNBOUND:                 0.000
REMARK SMILES Oc1cc(O)c2c(c1)CCc1cc(O)c(O)cc1-2
REMARK SMILES IDX 10 1 9 2 7 3 6 4 18 5 17 6 15 7 13 8 12 9 11 10 4 11 3 12
REMARK SMILES IDX 2 13 8 14 14 15 5 17 1 19 16 21
REMARK H PARENT 14 16 5 18 1 20 16 22
REMARK Flexibility Score: inf
ROOT
ATOM      1  C   UNL     1     126.382 125.629 107.500  1.00  0.00     0.041 C 
ATOM      2  C   UNL     1     125.342 125.359 106.408  1.00  0.00     0.041 C 
ATOM      3  C   UNL     1     124.292 124.393 106.903  1.00  0.00    -0.032 A 
ATOM      4  C   UNL     1     124.655 123.340 107.777  1.00  0.00     0.027 A 
ATOM      5  C   UNL     1     126.098 123.206 108.158  1.00  0.00    -0.007 A 
ATOM      6  C   UNL     1     126.668 121.978 108.551  1.00  0.00     0.059 A 
ATOM      7  C   UNL     1     128.022 121.899 108.904  1.00  0.00     0.158 A 
ATOM      8  C   UNL     1     128.830 123.037 108.843  1.00  0.00     0.157 A 
ATOM      9  C   UNL     1     128.291 124.251 108.399  1.00  0.00     0.054 A 
ATOM     10  C   UNL     1     126.942 124.333 108.025  1.00  0.00    -0.036 A 
ATOM     11  C   UNL     1     123.632 122.513 108.305  1.00  0.00     0.127 A 
ATOM     12  C   UNL     1     122.312 122.664 107.861  1.00  0.00     0.093 A 
ATOM     13  C   UNL     1     121.979 123.655 106.937  1.00  0.00     0.119 A 
ATOM     14  C   UNL     1     122.967 124.523 106.465  1.00  0.00     0.050 A 
ENDROOT
BRANCH   8  15
ATOM     15  O   UNL     1     130.172 122.955 109.211  1.00  0.00    -0.504 OA
ATOM     16  H   UNL     1     130.790 123.756 109.147  1.00  0.00     0.293 HD
ENDBRANCH   8  15
BRANCH  11  17
ATOM     17  O   UNL     1     123.908 121.573 109.298  1.00  0.00    -0.507 OA
ATOM     18  H   UNL     1     123.235 121.348 110.022  1.00  0.00     0.293 HD
ENDBRANCH  11  17
BRANCH  13  19
ATOM     19  O   UNL     1     120.660 123.777 106.506  1.00  0.00    -0.508 OA
ATOM     20  H   UNL     1     120.064 122.967 106.387  1.00  0.00     0.293 HD
ENDBRANCH  13  19
BRANCH   7  21
ATOM     21  O   UNL     1     128.575 120.685 109.310  1.00  0.00    -0.504 OA
ATOM     22  H   UNL     1     128.419 119.830 108.789  1.00  0.00     0.293 HD
ENDBRANCH   7  21
TORSDOF 4
ENDMDL
MODEL 9
REMARK VINA RESULT:    -4.243      8.944     11.094
REMARK INTER + INTRA:          -4.739
REMARK INTER:                  -4.739
REMARK INTRA:                   0.000
REMARK UNBOUND:                 0.000
REMARK SMILES Oc1cc(O)c2c(c1)CCc1cc(O)c(O)cc1-2
REMARK SMILES IDX 10 1 9 2 7 3 6 4 18 5 17 6 15 7 13 8 12 9 11 10 4 11 3 12
REMARK SMILES IDX 2 13 8 14 14 15 5 17 1 19 16 21
REMARK H PARENT 14 16 5 18 1 20 16 22
REMARK Flexibility Score: inf
ROOT
ATOM      1  C   UNL     1     123.468 126.603 107.500  1.00  0.00     0.041 C 
ATOM      2  C   UNL     1     123.729 125.564 106.405  1.00  0.00     0.041 C 
ATOM      3  C   UNL     1     124.668 124.492 106.904  1.00  0.00    -0.032 A 
ATOM      4  C   UNL     1     125.720 124.829 107.791  1.00  0.00     0.027 A 
ATOM      5  C   UNL     1     125.879 126.267 108.181  1.00  0.00    -0.007 A 
ATOM      6  C   UNL     1     127.114 126.810 108.589  1.00  0.00     0.059 A 
ATOM      7  C   UNL     1     127.217 128.161 108.950  1.00  0.00     0.158 A 
ATOM      8  C   UNL     1     126.096 128.992 108.881  1.00  0.00     0.157 A 
ATOM      9  C   UNL     1     124.876 128.480 108.422  1.00  0.00     0.054 A 
ATOM     10  C   UNL     1     124.771 127.134 108.041  1.00  0.00    -0.036 A 
ATOM     11  C   UNL     1     126.520 123.787 108.322  1.00  0.00     0.127 A 
ATOM     12  C   UNL     1     126.347 122.472 107.869  1.00  0.00     0.093 A 
ATOM     13  C   UNL     1     125.359 122.165 106.934  1.00  0.00     0.119 A 
ATOM     14  C   UNL     1     124.516 123.172 106.459  1.00  0.00     0.050 A 
ENDROOT
BRANCH   8  15
ATOM     15  O   UNL     1     126.202 130.330 109.258  1.00  0.00    -0.504 OA
ATOM     16  H   UNL     1     126.510 130.597 110.185  1.00  0.00     0.293 HD
ENDBRANCH   8  15
BRANCH  11  17
ATOM     17  O   UNL     1     127.455 124.039 109.325  1.00  0.00    -0.507 OA
ATOM     18  H   UNL     1     127.284 124.718 110.058  1.00  0.00     0.293 HD
ENDBRANCH  11  17
BRANCH  13  19
ATOM     19  O   UNL     1     125.214 120.851 106.495  1.00  0.00    -0.508 OA
ATOM     20  H   UNL     1     124.330 120.360 106.571  1.00  0.00     0.293 HD
ENDBRANCH  13  19
BRANCH   7  21
ATOM     21  O   UNL     1     128.438 128.687 109.371  1.00  0.00    -0.504 OA
ATOM     22  H   UNL     1     128.766 129.590 109.049  1.00  0.00     0.293 HD
ENDBRANCH   7  21
TORSDOF 4
ENDMDL
