MODEL 1
REMARK VINA RESULT:    -5.509      0.000      0.000
REMARK INTER + INTRA:          -6.633
REMARK INTER:                  -6.475
REMARK INTRA:                  -0.158
REMARK UNBOUND:                -0.158
REMARK SMILES COc1ccc(C=CC(=O)[O-])cc1
REMARK SMILES IDX 6 1 5 2 12 3 4 4 13 5 3 6 7 7 8 8 9 9 10 10 11 11 2 12 1 13
REMARK H PARENT
REMARK Flexibility Score: inf
ROOT
ATOM      1  C   UNL     1      -0.739   7.486   0.648  1.00  0.00    -0.025 A 
ATOM      2  C   UNL     1      -1.812   6.872  -0.019  1.00  0.00     0.012 A 
ATOM      3  C   UNL     1      -0.918   8.782   1.168  1.00  0.00     0.012 A 
ATOM      4  C   UNL     1      -3.043   7.522  -0.141  1.00  0.00     0.047 A 
ATOM      5  C   UNL     1      -2.149   9.432   1.044  1.00  0.00     0.047 A 
ATOM      6  C   UNL     1      -3.221   8.810   0.394  1.00  0.00     0.118 A 
ENDROOT
BRANCH   1   7
ATOM      7  C   UNL     1       0.550   6.757   0.742  1.00  0.00     0.010 C 
ATOM      8  C   UNL     1       1.704   7.216   0.239  1.00  0.00     0.025 C 
BRANCH   8   9
ATOM      9  C   UNL     1       2.963   6.465   0.366  1.00  0.00     0.064 C 
ATOM     10  O   UNL     1       3.020   5.476   1.141  1.00  0.00    -0.545 OA
ATOM     11  O   UNL     1       4.093   6.834  -0.355  1.00  0.00    -0.545 OA
ENDBRANCH   8   9
ENDBRANCH   1   7
BRANCH   6  12
ATOM     12  O   UNL     1      -4.437   9.505   0.299  1.00  0.00    -0.497 OA
ATOM     13  C   UNL     1      -5.544   9.309   1.171  1.00  0.00     0.278 C 
ENDBRANCH   6  12
TORSDOF 3
ENDMDL
MODEL 2
REMARK VINA RESULT:    -5.448      0.069      1.344
REMARK INTER + INTRA:          -6.561
REMARK INTER:                  -6.399
REMARK INTRA:                  -0.162
REMARK UNBOUND:                -0.158
REMARK SMILES COc1ccc(C=CC(=O)[O-])cc1
REMARK SMILES IDX 6 1 5 2 12 3 4 4 13 5 3 6 7 7 8 8 9 9 10 10 11 11 2 12 1 13
REMARK H PARENT
REMARK Flexibility Score: inf
ROOT
ATOM      1  C   UNL     1      -0.765   7.400   0.580  1.00  0.00    -0.025 A 
ATOM      2  C   UNL     1      -0.912   8.680   1.139  1.00  0.00     0.012 A 
ATOM      3  C   UNL     1      -1.873   6.808  -0.057  1.00  0.00     0.012 A 
ATOM      4  C   UNL     1      -2.126   9.365   1.044  1.00  0.00     0.047 A 
ATOM      5  C   UNL     1      -3.087   7.494  -0.150  1.00  0.00     0.047 A 
ATOM      6  C   UNL     1      -3.225   8.776   0.394  1.00  0.00     0.118 A 
ENDROOT
BRANCH   1   7
ATOM      7  C   UNL     1       0.541   6.710   0.718  1.00  0.00     0.010 C 
ATOM      8  C   UNL     1       1.687   7.174   0.202  1.00  0.00     0.025 C 
BRANCH   8   9
ATOM      9  C   UNL     1       2.963   6.462   0.373  1.00  0.00     0.064 C 
ATOM     10  O   UNL     1       3.033   5.498   1.179  1.00  0.00    -0.545 OA
ATOM     11  O   UNL     1       4.096   6.839  -0.339  1.00  0.00    -0.545 OA
ENDBRANCH   8   9
ENDBRANCH   1   7
BRANCH   6  12
ATOM     12  O   UNL     1      -4.464   9.422   0.270  1.00  0.00    -0.497 OA
ATOM     13  C   UNL     1      -5.519   9.323   1.220  1.00  0.00     0.278 C 
ENDBRANCH   6  12
TORSDOF 3
ENDMDL
MODEL 3
REMARK VINA RESULT:    -5.283      1.225      6.287
REMARK INTER + INTRA:          -6.367
REMARK INTER:                  -6.196
REMARK INTRA:                  -0.172
REMARK UNBOUND:                -0.158
REMARK SMILES COc1ccc(C=CC(=O)[O-])cc1
REMARK SMILES IDX 6 1 5 2 12 3 4 4 13 5 3 6 7 7 8 8 9 9 10 10 11 11 2 12 1 13
REMARK H PARENT
REMARK Flexibility Score: inf
ROOT
ATOM      1  C   UNL     1      -1.595   8.704   0.742  1.00  0.00    -0.025 A 
ATOM      2  C   UNL     1      -1.454   7.351   0.390  1.00  0.00     0.012 A 
ATOM      3  C   UNL     1      -0.447   9.430   1.113  1.00  0.00     0.012 A 
ATOM      4  C   UNL     1      -0.196   6.743   0.383  1.00  0.00     0.047 A 
ATOM      5  C   UNL     1       0.810   8.820   1.106  1.00  0.00     0.047 A 
ATOM      6  C   UNL     1       0.949   7.477   0.739  1.00  0.00     0.118 A 
ENDROOT
BRANCH   1   7
ATOM      7  C   UNL     1      -2.954   9.300   0.745  1.00  0.00     0.010 C 
ATOM      8  C   UNL     1      -4.060   8.634   0.387  1.00  0.00     0.025 C 
BRANCH   8   9
ATOM      9  C   UNL     1      -5.391   9.262   0.417  1.00  0.00     0.064 C 
ATOM     10  O   UNL     1      -5.999   9.377   1.512  1.00  0.00    -0.545 OA
ATOM     11  O   UNL     1      -5.989   9.728  -0.748  1.00  0.00    -0.545 OA
ENDBRANCH   8   9
ENDBRANCH   1   7
BRANCH   6  12
ATOM     12  O   UNL     1       2.234   6.913   0.746  1.00  0.00    -0.497 OA
ATOM     13  C   UNL     1       3.115   6.907  -0.372  1.00  0.00     0.278 C 
ENDBRANCH   6  12
TORSDOF 3
ENDMDL
MODEL 4
REMARK VINA RESULT:    -5.224     12.094     13.831
REMARK INTER + INTRA:          -6.298
REMARK INTER:                  -6.125
REMARK INTRA:                  -0.173
REMARK UNBOUND:                -0.158
REMARK SMILES COc1ccc(C=CC(=O)[O-])cc1
REMARK SMILES IDX 6 1 5 2 12 3 4 4 13 5 3 6 7 7 8 8 9 9 10 10 11 11 2 12 1 13
REMARK H PARENT
REMARK Flexibility Score: inf
ROOT
ATOM      1  C   UNL     1      -3.699   0.406  -9.187  1.00  0.00    -0.025 A 
ATOM      2  C   UNL     1      -3.578  -0.968  -8.926  1.00  0.00     0.012 A 
ATOM      3  C   UNL     1      -2.528   1.177  -9.317  1.00  0.00     0.012 A 
ATOM      4  C   UNL     1      -2.320  -1.567  -8.822  1.00  0.00     0.047 A 
ATOM      5  C   UNL     1      -1.270   0.576  -9.211  1.00  0.00     0.047 A 
ATOM      6  C   UNL     1      -1.153  -0.796  -8.968  1.00  0.00     0.118 A 
ENDROOT
BRANCH   1   7
ATOM      7  C   UNL     1      -5.058   0.996  -9.277  1.00  0.00     0.010 C 
ATOM      8  C   UNL     1      -6.040   0.742  -8.402  1.00  0.00     0.025 C 
BRANCH   8   9
ATOM      9  C   UNL     1      -7.370   1.360  -8.524  1.00  0.00     0.064 C 
ATOM     10  O   UNL     1      -8.353   0.655  -8.869  1.00  0.00    -0.545 OA
ATOM     11  O   UNL     1      -7.558   2.713  -8.266  1.00  0.00    -0.545 OA
ENDBRANCH   8   9
ENDBRANCH   1   7
BRANCH   6  12
ATOM     12  O   UNL     1       0.133  -1.350  -8.874  1.00  0.00    -0.497 OA
ATOM     13  C   UNL     1       1.335  -0.588  -8.843  1.00  0.00     0.278 C 
ENDBRANCH   6  12
TORSDOF 3
ENDMDL
MODEL 5
REMARK VINA RESULT:    -5.000      1.964      2.647
REMARK INTER + INTRA:          -6.035
REMARK INTER:                  -5.879
REMARK INTRA:                  -0.156
REMARK UNBOUND:                -0.158
REMARK SMILES COc1ccc(C=CC(=O)[O-])cc1
REMARK SMILES IDX 6 1 5 2 12 3 4 4 13 5 3 6 7 7 8 8 9 9 10 10 11 11 2 12 1 13
REMARK H PARENT
REMARK Flexibility Score: inf
ROOT
ATOM      1  C   UNL     1      -2.778   7.842  -0.362  1.00  0.00    -0.025 A 
ATOM      2  C   UNL     1      -4.017   7.665   0.276  1.00  0.00     0.012 A 
ATOM      3  C   UNL     1      -2.685   8.770  -1.417  1.00  0.00     0.012 A 
ATOM      4  C   UNL     1      -5.132   8.413  -0.112  1.00  0.00     0.047 A 
ATOM      5  C   UNL     1      -3.802   9.516  -1.804  1.00  0.00     0.047 A 
ATOM      6  C   UNL     1      -5.031   9.349  -1.156  1.00  0.00     0.118 A 
ENDROOT
BRANCH   1   7
ATOM      7  C   UNL     1      -1.627   7.016   0.080  1.00  0.00     0.010 C 
ATOM      8  C   UNL     1      -0.430   7.521   0.409  1.00  0.00     0.025 C 
BRANCH   8   9
ATOM      9  C   UNL     1       0.680   6.664   0.854  1.00  0.00     0.064 C 
ATOM     10  O   UNL     1       0.432   5.550   1.383  1.00  0.00    -0.545 OA
ATOM     11  O   UNL     1       2.002   7.068   0.701  1.00  0.00    -0.545 OA
ENDBRANCH   8   9
ENDBRANCH   1   7
BRANCH   6  12
ATOM     12  O   UNL     1      -6.120  10.125  -1.582  1.00  0.00    -0.497 OA
ATOM     13  C   UNL     1      -7.336   9.590  -2.093  1.00  0.00     0.278 C 
ENDBRANCH   6  12
TORSDOF 3
ENDMDL
MODEL 6
REMARK VINA RESULT:    -4.876     11.975     12.377
REMARK INTER + INTRA:          -5.888
REMARK INTER:                  -5.729
REMARK INTRA:                  -0.159
REMARK UNBOUND:                -0.158
REMARK SMILES COc1ccc(C=CC(=O)[O-])cc1
REMARK SMILES IDX 6 1 5 2 12 3 4 4 13 5 3 6 7 7 8 8 9 9 10 10 11 11 2 12 1 13
REMARK H PARENT
REMARK Flexibility Score: inf
ROOT
ATOM      1  C   UNL     1      -2.642   0.250  -9.241  1.00  0.00    -0.025 A 
ATOM      2  C   UNL     1      -3.306   1.484  -9.344  1.00  0.00     0.012 A 
ATOM      3  C   UNL     1      -3.388  -0.894  -8.899  1.00  0.00     0.012 A 
ATOM      4  C   UNL     1      -4.685   1.572  -9.137  1.00  0.00     0.047 A 
ATOM      5  C   UNL     1      -4.767  -0.804  -8.690  1.00  0.00     0.047 A 
ATOM      6  C   UNL     1      -5.428   0.423  -8.810  1.00  0.00     0.118 A 
ENDROOT
BRANCH   1   7
ATOM      7  C   UNL     1      -1.175   0.212  -9.460  1.00  0.00     0.010 C 
ATOM      8  C   UNL     1      -0.325  -0.488  -8.698  1.00  0.00     0.025 C 
BRANCH   8   9
ATOM      9  C   UNL     1       1.123  -0.507  -8.960  1.00  0.00     0.064 C 
ATOM     10  O   UNL     1       1.572   0.033 -10.003  1.00  0.00    -0.545 OA
ATOM     11  O   UNL     1       2.003  -1.116  -8.073  1.00  0.00    -0.545 OA
ENDBRANCH   8   9
ENDBRANCH   1   7
BRANCH   6  12
ATOM     12  O   UNL     1      -6.814   0.458  -8.593  1.00  0.00    -0.497 OA
ATOM     13  C   UNL     1      -7.423   0.599  -7.315  1.00  0.00     0.278 C 
ENDBRANCH   6  12
TORSDOF 3
ENDMDL
MODEL 7
REMARK VINA RESULT:    -4.856      1.228      6.324
REMARK INTER + INTRA:          -5.865
REMARK INTER:                  -5.704
REMARK INTRA:                  -0.161
REMARK UNBOUND:                -0.158
REMARK SMILES COc1ccc(C=CC(=O)[O-])cc1
REMARK SMILES IDX 6 1 5 2 12 3 4 4 13 5 3 6 7 7 8 8 9 9 10 10 11 11 2 12 1 13
REMARK H PARENT
REMARK Flexibility Score: inf
ROOT
ATOM      1  C   UNL     1       0.105   7.474   0.786  1.00  0.00    -0.025 A 
ATOM      2  C   UNL     1       0.195   6.114   1.126  1.00  0.00     0.012 A 
ATOM      3  C   UNL     1       1.283   8.167   0.446  1.00  0.00     0.012 A 
ATOM      4  C   UNL     1       1.426   5.453   1.102  1.00  0.00     0.047 A 
ATOM      5  C   UNL     1       2.513   7.504   0.425  1.00  0.00     0.047 A 
ATOM      6  C   UNL     1       2.597   6.145   0.747  1.00  0.00     0.118 A 
ENDROOT
BRANCH   1   7
ATOM      7  C   UNL     1      -1.224   8.133   0.837  1.00  0.00     0.010 C 
ATOM      8  C   UNL     1      -2.264   7.772   0.073  1.00  0.00     0.025 C 
BRANCH   8   9
ATOM      9  C   UNL     1      -3.569   8.446   0.166  1.00  0.00     0.064 C 
ATOM     10  O   UNL     1      -3.614   9.697   0.291  1.00  0.00    -0.545 OA
ATOM     11  O   UNL     1      -4.754   7.721   0.121  1.00  0.00    -0.545 OA
ENDBRANCH   8   9
ENDBRANCH   1   7
BRANCH   6  12
ATOM     12  O   UNL     1       3.856   5.527   0.707  1.00  0.00    -0.497 OA
ATOM     13  C   UNL     1       4.551   5.046   1.853  1.00  0.00     0.278 C 
ENDBRANCH   6  12
TORSDOF 3
ENDMDL
MODEL 8
REMARK VINA RESULT:    -4.437     12.329     13.107
REMARK INTER + INTRA:          -5.373
REMARK INTER:                  -5.209
REMARK INTRA:                  -0.163
REMARK UNBOUND:                -0.158
REMARK SMILES COc1ccc(C=CC(=O)[O-])cc1
REMARK SMILES IDX 6 1 5 2 12 3 4 4 13 5 3 6 7 7 8 8 9 9 10 10 11 11 2 12 1 13
REMARK H PARENT
REMARK Flexibility Score: inf
ROOT
ATOM      1  C   UNL     1      -3.061  -0.391  -9.246  1.00  0.00    -0.025 A 
ATOM      2  C   UNL     1      -2.952   1.009  -9.278  1.00  0.00     0.012 A 
ATOM      3  C   UNL     1      -4.303  -0.966  -8.916  1.00  0.00     0.012 A 
ATOM      4  C   UNL     1      -4.061   1.818  -9.014  1.00  0.00     0.047 A 
ATOM      5  C   UNL     1      -5.411  -0.155  -8.651  1.00  0.00     0.047 A 
ATOM      6  C   UNL     1      -5.303   1.238  -8.701  1.00  0.00     0.118 A 
ENDROOT
BRANCH   1   7
ATOM      7  C   UNL     1      -1.851  -1.205  -9.523  1.00  0.00     0.010 C 
ATOM      8  C   UNL     1      -1.837  -2.544  -9.515  1.00  0.00     0.025 C 
BRANCH   8   9
ATOM      9  C   UNL     1      -0.616  -3.311  -9.808  1.00  0.00     0.064 C 
ATOM     10  O   UNL     1      -0.706  -4.527 -10.118  1.00  0.00    -0.545 OA
ATOM     11  O   UNL     1       0.638  -2.714  -9.745  1.00  0.00    -0.545 OA
ENDBRANCH   8   9
ENDBRANCH   1   7
BRANCH   6  12
ATOM     12  O   UNL     1      -6.446   2.006  -8.429  1.00  0.00    -0.497 OA
ATOM     13  C   UNL     1      -7.193   1.933  -7.220  1.00  0.00     0.278 C 
ENDBRANCH   6  12
TORSDOF 3
ENDMDL
MODEL 9
REMARK VINA RESULT:    -4.068     11.965     13.852
REMARK INTER + INTRA:          -4.939
REMARK INTER:                  -4.767
REMARK INTRA:                  -0.173
REMARK UNBOUND:                -0.158
REMARK SMILES COc1ccc(C=CC(=O)[O-])cc1
REMARK SMILES IDX 6 1 5 2 12 3 4 4 13 5 3 6 7 7 8 8 9 9 10 10 11 11 2 12 1 13
REMARK H PARENT
REMARK Flexibility Score: inf
ROOT
ATOM      1  C   UNL     1      -2.507  -0.166  -9.171  1.00  0.00    -0.025 A 
ATOM      2  C   UNL     1      -1.708   0.988  -9.119  1.00  0.00     0.012 A 
ATOM      3  C   UNL     1      -1.883  -1.413  -9.367  1.00  0.00     0.012 A 
ATOM      4  C   UNL     1      -0.318   0.900  -9.234  1.00  0.00     0.047 A 
ATOM      5  C   UNL     1      -0.493  -1.499  -9.483  1.00  0.00     0.047 A 
ATOM      6  C   UNL     1       0.301  -0.350  -9.414  1.00  0.00     0.118 A 
ENDROOT
BRANCH   1   7
ATOM      7  C   UNL     1      -3.979  -0.017  -9.054  1.00  0.00     0.010 C 
ATOM      8  C   UNL     1      -4.599   1.160  -8.902  1.00  0.00     0.025 C 
BRANCH   8   9
ATOM      9  C   UNL     1      -6.063   1.262  -8.803  1.00  0.00     0.064 C 
ATOM     10  O   UNL     1      -6.619   2.381  -8.948  1.00  0.00    -0.545 OA
ATOM     11  O   UNL     1      -6.844   0.140  -8.548  1.00  0.00    -0.545 OA
ENDBRANCH   8   9
ENDBRANCH   1   7
BRANCH   6  12
ATOM     12  O   UNL     1       1.692  -0.492  -9.534  1.00  0.00    -0.497 OA
ATOM     13  C   UNL     1       2.573  -0.719  -8.439  1.00  0.00     0.278 C 
ENDBRANCH   6  12
TORSDOF 3
ENDMDL
