MODEL 1
REMARK VINA RESULT:    -6.814      0.000      0.000
REMARK INTER + INTRA:          -8.296
REMARK INTER:                  -8.009
REMARK INTRA:                  -0.287
REMARK UNBOUND:                -0.287
REMARK SMILES O=c1c(O)c(-c2ccc(O)cc2)oc2cc(O)cc(O)c12
REMARK SMILES IDX 5 1 3 2 2 3 1 4 21 5 19 6 18 7 16 8 15 9 14 10 13 11 6 12
REMARK SMILES IDX 7 13 8 14 9 15 12 16 11 17 10 18 4 20 20 22 17 24
REMARK H PARENT 10 19 4 21 20 23 17 25
REMARK Flexibility Score: inf
ROOT
ATOM      1  C   UNL     1      40.784 117.069  12.594  1.00  0.00     0.180 A 
ATOM      2  C   UNL     1      41.405 116.277  13.577  1.00  0.00     0.208 A 
ATOM      3  C   UNL     1      42.642 115.680  13.290  1.00  0.00     0.238 A 
ATOM      4  O   UNL     1      43.166 114.929  14.154  1.00  0.00    -0.285 OA
ATOM      5  C   UNL     1      43.253 115.895  12.031  1.00  0.00     0.111 A 
ATOM      6  C   UNL     1      44.525 115.372  11.648  1.00  0.00     0.134 A 
ATOM      7  C   UNL     1      44.971 115.540  10.331  1.00  0.00     0.093 A 
ATOM      8  C   UNL     1      44.225 116.265   9.403  1.00  0.00     0.123 A 
ATOM      9  C   UNL     1      43.007 116.831   9.785  1.00  0.00     0.094 A 
ATOM     10  C   UNL     1      42.518 116.651  11.080  1.00  0.00     0.146 A 
ATOM     11  O   UNL     1      41.351 117.197  11.400  1.00  0.00    -0.452 OA
ENDROOT
BRANCH   1  12
ATOM     12  C   UNL     1      39.492 117.750  12.831  1.00  0.00     0.021 A 
ATOM     13  C   UNL     1      39.483 119.055  13.354  1.00  0.00     0.016 A 
ATOM     14  C   UNL     1      38.273 119.708  13.607  1.00  0.00     0.047 A 
ATOM     15  C   UNL     1      37.056 119.060  13.354  1.00  0.00     0.115 A 
ATOM     16  C   UNL     1      38.266 117.099  12.598  1.00  0.00     0.016 A 
ATOM     17  C   UNL     1      37.058 117.755  12.853  1.00  0.00     0.047 A 
BRANCH  15  18
ATOM     18  O   UNL     1      35.845 119.702  13.602  1.00  0.00    -0.508 OA
ATOM     19  H   UNL     1      35.753 120.393  14.337  1.00  0.00     0.293 HD
ENDBRANCH  15  18
ENDBRANCH   1  12
BRANCH   2  20
ATOM     20  O   UNL     1      40.774 116.061  14.805  1.00  0.00    -0.502 OA
ATOM     21  H   UNL     1      39.871 116.462  15.032  1.00  0.00     0.293 HD
ENDBRANCH   2  20
BRANCH   6  22
ATOM     22  O   UNL     1      45.392 114.710  12.521  1.00  0.00    -0.507 OA
ATOM     23  H   UNL     1      46.295 115.059  12.808  1.00  0.00     0.293 HD
ENDBRANCH   6  22
BRANCH   8  24
ATOM     24  O   UNL     1      44.708 116.426   8.107  1.00  0.00    -0.508 OA
ATOM     25  H   UNL     1      44.091 116.659   7.337  1.00  0.00     0.293 HD
ENDBRANCH   8  24
TORSDOF 5
ENDMDL
MODEL 2
REMARK VINA RESULT:    -6.804      1.717      6.693
REMARK INTER + INTRA:          -8.284
REMARK INTER:                  -8.444
REMARK INTRA:                   0.160
REMARK UNBOUND:                -0.287
REMARK SMILES O=c1c(O)c(-c2ccc(O)cc2)oc2cc(O)cc(O)c12
REMARK SMILES IDX 5 1 3 2 2 3 1 4 21 5 19 6 18 7 16 8 15 9 14 10 13 11 6 12
REMARK SMILES IDX 7 13 8 14 9 15 12 16 11 17 10 18 4 20 20 22 17 24
REMARK H PARENT 10 19 4 21 20 23 17 25
REMARK Flexibility Score: inf
ROOT
ATOM      1  C   UNL     1      40.405 117.332  12.642  1.00  0.00     0.180 A 
ATOM      2  C   UNL     1      40.670 117.323  14.023  1.00  0.00     0.208 A 
ATOM      3  C   UNL     1      39.611 117.524  14.921  1.00  0.00     0.238 A 
ATOM      4  O   UNL     1      39.864 117.569  16.154  1.00  0.00    -0.285 OA
ATOM      5  C   UNL     1      38.297 117.714  14.430  1.00  0.00     0.111 A 
ATOM      6  C   UNL     1      37.142 117.887  15.252  1.00  0.00     0.134 A 
ATOM      7  C   UNL     1      35.913 118.198  14.657  1.00  0.00     0.093 A 
ATOM      8  C   UNL     1      35.782 118.280  13.272  1.00  0.00     0.123 A 
ATOM      9  C   UNL     1      36.893 118.054  12.457  1.00  0.00     0.094 A 
ATOM     10  C   UNL     1      38.140 117.777  13.021  1.00  0.00     0.146 A 
ATOM     11  O   UNL     1      39.173 117.579  12.212  1.00  0.00    -0.452 OA
ENDROOT
BRANCH   1  12
ATOM     12  C   UNL     1      41.464 117.104  11.634  1.00  0.00     0.021 A 
ATOM     13  C   UNL     1      41.423 117.801  10.415  1.00  0.00     0.016 A 
ATOM     14  C   UNL     1      42.401 117.583   9.440  1.00  0.00     0.047 A 
ATOM     15  C   UNL     1      43.425 116.654   9.665  1.00  0.00     0.115 A 
ATOM     16  C   UNL     1      42.484 116.157  11.845  1.00  0.00     0.016 A 
ATOM     17  C   UNL     1      43.461 115.941  10.867  1.00  0.00     0.047 A 
BRANCH  15  18
ATOM     18  O   UNL     1      44.405 116.429   8.701  1.00  0.00    -0.508 OA
ATOM     19  H   UNL     1      44.709 117.164   8.074  1.00  0.00     0.293 HD
ENDBRANCH  15  18
ENDBRANCH   1  12
BRANCH   2  20
ATOM     20  O   UNL     1      41.978 117.155  14.485  1.00  0.00    -0.502 OA
ATOM     21  H   UNL     1      42.193 116.977  15.459  1.00  0.00     0.293 HD
ENDBRANCH   2  20
BRANCH   6  22
ATOM     22  O   UNL     1      37.143 117.737  16.641  1.00  0.00    -0.507 OA
ATOM     23  H   UNL     1      37.483 116.923  17.130  1.00  0.00     0.293 HD
ENDBRANCH   6  22
BRANCH   8  24
ATOM     24  O   UNL     1      34.540 118.576  12.714  1.00  0.00    -0.508 OA
ATOM     25  H   UNL     1      34.415 119.362  12.087  1.00  0.00     0.293 HD
ENDBRANCH   8  24
TORSDOF 5
ENDMDL
MODEL 3
REMARK VINA RESULT:    -6.715      2.645      7.411
REMARK INTER + INTRA:          -8.179
REMARK INTER:                  -7.928
REMARK INTRA:                  -0.251
REMARK UNBOUND:                -0.287
REMARK SMILES O=c1c(O)c(-c2ccc(O)cc2)oc2cc(O)cc(O)c12
REMARK SMILES IDX 5 1 3 2 2 3 1 4 21 5 19 6 18 7 16 8 15 9 14 10 13 11 6 12
REMARK SMILES IDX 7 13 8 14 9 15 12 16 11 17 10 18 4 20 20 22 17 24
REMARK H PARENT 10 19 4 21 20 23 17 25
REMARK Flexibility Score: inf
ROOT
ATOM      1  C   UNL     1      44.574 114.574  11.808  1.00  0.00     0.180 A 
ATOM      2  C   UNL     1      44.837 114.967  10.484  1.00  0.00     0.208 A 
ATOM      3  C   UNL     1      43.997 115.912   9.874  1.00  0.00     0.238 A 
ATOM      4  O   UNL     1      44.206 116.220   8.671  1.00  0.00    -0.285 OA
ATOM      5  C   UNL     1      42.916 116.465  10.600  1.00  0.00     0.111 A 
ATOM      6  C   UNL     1      42.025 117.460  10.095  1.00  0.00     0.134 A 
ATOM      7  C   UNL     1      40.911 117.839  10.855  1.00  0.00     0.093 A 
ATOM      8  C   UNL     1      40.690 117.309  12.125  1.00  0.00     0.123 A 
ATOM      9  C   UNL     1      41.588 116.379  12.653  1.00  0.00     0.094 A 
ATOM     10  C   UNL     1      42.688 115.955  11.905  1.00  0.00     0.146 A 
ATOM     11  O   UNL     1      43.512 115.061  12.439  1.00  0.00    -0.452 OA
ENDROOT
BRANCH   1  12
ATOM     12  C   UNL     1      45.428 113.601  12.526  1.00  0.00     0.021 A 
ATOM     13  C   UNL     1      45.265 112.226  12.285  1.00  0.00     0.016 A 
ATOM     14  C   UNL     1      46.045 111.289  12.968  1.00  0.00     0.047 A 
ATOM     15  C   UNL     1      46.989 111.714  13.914  1.00  0.00     0.115 A 
ATOM     16  C   UNL     1      46.363 114.019  13.490  1.00  0.00     0.016 A 
ATOM     17  C   UNL     1      47.142 113.079  14.173  1.00  0.00     0.047 A 
BRANCH  15  18
ATOM     18  O   UNL     1      47.772 110.790  14.600  1.00  0.00    -0.508 OA
ATOM     19  H   UNL     1      48.001 110.913  15.579  1.00  0.00     0.293 HD
ENDBRANCH  15  18
ENDBRANCH   1  12
BRANCH   2  20
ATOM     20  O   UNL     1      45.898 114.392   9.778  1.00  0.00    -0.502 OA
ATOM     21  H   UNL     1      45.762 113.867   8.923  1.00  0.00     0.293 HD
ENDBRANCH   2  20
BRANCH   6  22
ATOM     22  O   UNL     1      42.203 118.121   8.876  1.00  0.00    -0.507 OA
ATOM     23  H   UNL     1      41.695 117.912   8.030  1.00  0.00     0.293 HD
ENDBRANCH   6  22
BRANCH   8  24
ATOM     24  O   UNL     1      39.581 117.721  12.859  1.00  0.00    -0.508 OA
ATOM     25  H   UNL     1      38.808 118.211  12.422  1.00  0.00     0.293 HD
ENDBRANCH   8  24
TORSDOF 5
ENDMDL
MODEL 4
REMARK VINA RESULT:    -6.685      3.986      8.724
REMARK INTER + INTRA:          -8.144
REMARK INTER:                  -8.364
REMARK INTRA:                   0.220
REMARK UNBOUND:                -0.287
REMARK SMILES O=c1c(O)c(-c2ccc(O)cc2)oc2cc(O)cc(O)c12
REMARK SMILES IDX 5 1 3 2 2 3 1 4 21 5 19 6 18 7 16 8 15 9 14 10 13 11 6 12
REMARK SMILES IDX 7 13 8 14 9 15 12 16 11 17 10 18 4 20 20 22 17 24
REMARK H PARENT 10 19 4 21 20 23 17 25
REMARK Flexibility Score: inf
ROOT
ATOM      1  C   UNL     1      45.739 112.852   9.267  1.00  0.00     0.180 A 
ATOM      2  C   UNL     1      45.602 112.574  10.639  1.00  0.00     0.208 A 
ATOM      3  C   UNL     1      44.801 113.414  11.428  1.00  0.00     0.238 A 
ATOM      4  O   UNL     1      44.726 113.192  12.665  1.00  0.00    -0.285 OA
ATOM      5  C   UNL     1      44.133 114.512  10.834  1.00  0.00     0.111 A 
ATOM      6  C   UNL     1      43.263 115.405  11.530  1.00  0.00     0.134 A 
ATOM      7  C   UNL     1      42.760 116.533  10.870  1.00  0.00     0.093 A 
ATOM      8  C   UNL     1      43.041 116.766   9.525  1.00  0.00     0.123 A 
ATOM      9  C   UNL     1      43.842 115.867   8.818  1.00  0.00     0.094 A 
ATOM     10  C   UNL     1      44.388 114.752   9.458  1.00  0.00     0.146 A 
ATOM     11  O   UNL     1      45.153 113.927   8.754  1.00  0.00    -0.452 OA
ENDROOT
BRANCH   1  12
ATOM     12  C   UNL     1      46.546 111.999   8.367  1.00  0.00     0.021 A 
ATOM     13  C   UNL     1      47.196 112.577   7.263  1.00  0.00     0.016 A 
ATOM     14  C   UNL     1      47.945 111.786   6.388  1.00  0.00     0.047 A 
ATOM     15  C   UNL     1      48.041 110.403   6.595  1.00  0.00     0.115 A 
ATOM     16  C   UNL     1      46.631 110.607   8.558  1.00  0.00     0.016 A 
ATOM     17  C   UNL     1      47.380 109.818   7.679  1.00  0.00     0.047 A 
BRANCH  15  18
ATOM     18  O   UNL     1      48.785 109.605   5.729  1.00  0.00    -0.508 OA
ATOM     19  H   UNL     1      49.681 109.220   6.002  1.00  0.00     0.293 HD
ENDBRANCH  15  18
ENDBRANCH   1  12
BRANCH   2  20
ATOM     20  O   UNL     1      46.288 111.498  11.209  1.00  0.00    -0.502 OA
ATOM     21  H   UNL     1      47.269 111.321  11.030  1.00  0.00     0.293 HD
ENDBRANCH   2  20
BRANCH   6  22
ATOM     22  O   UNL     1      42.844 115.216  12.850  1.00  0.00    -0.507 OA
ATOM     23  H   UNL     1      43.412 114.811  13.580  1.00  0.00     0.293 HD
ENDBRANCH   6  22
BRANCH   8  24
ATOM     24  O   UNL     1      42.510 117.890   8.896  1.00  0.00    -0.508 OA
ATOM     25  H   UNL     1      42.820 118.826   9.132  1.00  0.00     0.293 HD
ENDBRANCH   8  24
TORSDOF 5
ENDMDL
MODEL 5
REMARK VINA RESULT:    -6.660      3.922      5.814
REMARK INTER + INTRA:          -8.115
REMARK INTER:                  -8.037
REMARK INTRA:                  -0.078
REMARK UNBOUND:                -0.287
REMARK SMILES O=c1c(O)c(-c2ccc(O)cc2)oc2cc(O)cc(O)c12
REMARK SMILES IDX 5 1 3 2 2 3 1 4 21 5 19 6 18 7 16 8 15 9 14 10 13 11 6 12
REMARK SMILES IDX 7 13 8 14 9 15 12 16 11 17 10 18 4 20 20 22 17 24
REMARK H PARENT 10 19 4 21 20 23 17 25
REMARK Flexibility Score: inf
ROOT
ATOM      1  C   UNL     1      44.644 115.369  11.826  1.00  0.00     0.180 A 
ATOM      2  C   UNL     1      45.375 116.187  12.705  1.00  0.00     0.208 A 
ATOM      3  C   UNL     1      46.160 115.586  13.702  1.00  0.00     0.238 A 
ATOM      4  O   UNL     1      46.768 116.325  14.520  1.00  0.00    -0.285 OA
ATOM      5  C   UNL     1      46.218 114.175  13.797  1.00  0.00     0.111 A 
ATOM      6  C   UNL     1      47.013 113.459  14.743  1.00  0.00     0.134 A 
ATOM      7  C   UNL     1      46.892 112.067  14.831  1.00  0.00     0.093 A 
ATOM      8  C   UNL     1      46.057 111.359  13.968  1.00  0.00     0.123 A 
ATOM      9  C   UNL     1      45.321 112.044  13.000  1.00  0.00     0.094 A 
ATOM     10  C   UNL     1      45.392 113.436  12.911  1.00  0.00     0.146 A 
ATOM     11  O   UNL     1      44.668 114.051  11.983  1.00  0.00    -0.452 OA
ENDROOT
BRANCH   1  12
ATOM     12  C   UNL     1      43.814 115.928  10.735  1.00  0.00     0.021 A 
ATOM     13  C   UNL     1      44.140 115.638   9.399  1.00  0.00     0.016 A 
ATOM     14  C   UNL     1      43.384 116.174   8.353  1.00  0.00     0.047 A 
ATOM     15  C   UNL     1      42.301 117.020   8.628  1.00  0.00     0.115 A 
ATOM     16  C   UNL     1      42.737 116.793  11.003  1.00  0.00     0.016 A 
ATOM     17  C   UNL     1      41.983 117.328   9.954  1.00  0.00     0.047 A 
BRANCH  15  18
ATOM     18  O   UNL     1      41.540 117.559   7.594  1.00  0.00    -0.508 OA
ATOM     19  H   UNL     1      41.949 117.774   6.693  1.00  0.00     0.293 HD
ENDBRANCH  15  18
ENDBRANCH   1  12
BRANCH   2  20
ATOM     20  O   UNL     1      45.286 117.579  12.607  1.00  0.00    -0.502 OA
ATOM     21  H   UNL     1      45.975 118.199  13.017  1.00  0.00     0.293 HD
ENDBRANCH   2  20
BRANCH   6  22
ATOM     22  O   UNL     1      47.947 114.059  15.591  1.00  0.00    -0.507 OA
ATOM     23  H   UNL     1      48.751 114.584  15.280  1.00  0.00     0.293 HD
ENDBRANCH   6  22
BRANCH   8  24
ATOM     24  O   UNL     1      45.974 109.972  14.074  1.00  0.00    -0.508 OA
ATOM     25  H   UNL     1      45.142 109.468  13.789  1.00  0.00     0.293 HD
ENDBRANCH   8  24
TORSDOF 5
ENDMDL
MODEL 6
REMARK VINA RESULT:    -6.568      2.077      4.125
REMARK INTER + INTRA:          -8.007
REMARK INTER:                  -8.412
REMARK INTRA:                   0.405
REMARK UNBOUND:                -0.287
REMARK SMILES O=c1c(O)c(-c2ccc(O)cc2)oc2cc(O)cc(O)c12
REMARK SMILES IDX 5 1 3 2 2 3 1 4 21 5 19 6 18 7 16 8 15 9 14 10 13 11 6 12
REMARK SMILES IDX 7 13 8 14 9 15 12 16 11 17 10 18 4 20 20 22 17 24
REMARK H PARENT 10 19 4 21 20 23 17 25
REMARK Flexibility Score: inf
ROOT
ATOM      1  C   UNL     1      42.788 116.080  10.928  1.00  0.00     0.180 A 
ATOM      2  C   UNL     1      43.181 116.582   9.674  1.00  0.00     0.208 A 
ATOM      3  C   UNL     1      44.106 115.854   8.909  1.00  0.00     0.238 A 
ATOM      4  O   UNL     1      44.496 116.335   7.813  1.00  0.00    -0.285 OA
ATOM      5  C   UNL     1      44.613 114.626   9.398  1.00  0.00     0.111 A 
ATOM      6  C   UNL     1      45.524 113.786   8.688  1.00  0.00     0.134 A 
ATOM      7  C   UNL     1      46.061 112.659   9.324  1.00  0.00     0.093 A 
ATOM      8  C   UNL     1      45.672 112.306  10.615  1.00  0.00     0.123 A 
ATOM      9  C   UNL     1      44.737 113.088  11.295  1.00  0.00     0.094 A 
ATOM     10  C   UNL     1      44.211 114.238  10.702  1.00  0.00     0.146 A 
ATOM     11  O   UNL     1      43.332 114.960  11.387  1.00  0.00    -0.452 OA
ENDROOT
BRANCH   1  12
ATOM     12  C   UNL     1      41.799 116.778  11.781  1.00  0.00     0.021 A 
ATOM     13  C   UNL     1      41.689 116.431  13.138  1.00  0.00     0.016 A 
ATOM     14  C   UNL     1      40.747 117.061  13.956  1.00  0.00     0.047 A 
ATOM     15  C   UNL     1      39.892 118.035  13.424  1.00  0.00     0.115 A 
ATOM     16  C   UNL     1      40.925 117.743  11.249  1.00  0.00     0.016 A 
ATOM     17  C   UNL     1      39.982 118.371  12.070  1.00  0.00     0.047 A 
BRANCH  15  18
ATOM     18  O   UNL     1      38.949 118.670  14.230  1.00  0.00    -0.508 OA
ATOM     19  H   UNL     1      39.016 118.648  15.240  1.00  0.00     0.293 HD
ENDBRANCH  15  18
ENDBRANCH   1  12
BRANCH   2  20
ATOM     20  O   UNL     1      42.684 117.807   9.220  1.00  0.00    -0.502 OA
ATOM     21  H   UNL     1      43.097 118.693   9.485  1.00  0.00     0.293 HD
ENDBRANCH   2  20
BRANCH   6  22
ATOM     22  O   UNL     1      45.909 113.997   7.361  1.00  0.00    -0.507 OA
ATOM     23  H   UNL     1      46.555 113.413   6.851  1.00  0.00     0.293 HD
ENDBRANCH   6  22
BRANCH   8  24
ATOM     24  O   UNL     1      46.214 111.169  11.210  1.00  0.00    -0.508 OA
ATOM     25  H   UNL     1      46.698 111.215  12.099  1.00  0.00     0.293 HD
ENDBRANCH   8  24
TORSDOF 5
ENDMDL
MODEL 7
REMARK VINA RESULT:    -6.506      4.001      5.796
REMARK INTER + INTRA:          -7.934
REMARK INTER:                  -7.855
REMARK INTRA:                  -0.079
REMARK UNBOUND:                -0.287
REMARK SMILES O=c1c(O)c(-c2ccc(O)cc2)oc2cc(O)cc(O)c12
REMARK SMILES IDX 5 1 3 2 2 3 1 4 21 5 19 6 18 7 16 8 15 9 14 10 13 11 6 12
REMARK SMILES IDX 7 13 8 14 9 15 12 16 11 17 10 18 4 20 20 22 17 24
REMARK H PARENT 10 19 4 21 20 23 17 25
REMARK Flexibility Score: inf
ROOT
ATOM      1  C   UNL     1      44.570 115.308  11.752  1.00  0.00     0.180 A 
ATOM      2  C   UNL     1      44.591 113.927  12.017  1.00  0.00     0.208 A 
ATOM      3  C   UNL     1      45.343 113.453  13.103  1.00  0.00     0.238 A 
ATOM      4  O   UNL     1      45.401 112.211  13.302  1.00  0.00    -0.285 OA
ATOM      5  C   UNL     1      46.051 114.365  13.921  1.00  0.00     0.111 A 
ATOM      6  C   UNL     1      46.814 113.999  15.072  1.00  0.00     0.134 A 
ATOM      7  C   UNL     1      47.580 114.969  15.729  1.00  0.00     0.093 A 
ATOM      8  C   UNL     1      47.562 116.301  15.319  1.00  0.00     0.123 A 
ATOM      9  C   UNL     1      46.774 116.681  14.232  1.00  0.00     0.094 A 
ATOM     10  C   UNL     1      46.027 115.730  13.533  1.00  0.00     0.146 A 
ATOM     11  O   UNL     1      45.298 116.130  12.498  1.00  0.00    -0.452 OA
ENDROOT
BRANCH   1  12
ATOM     12  C   UNL     1      43.781 115.886  10.641  1.00  0.00     0.021 A 
ATOM     13  C   UNL     1      44.088 115.531   9.316  1.00  0.00     0.016 A 
ATOM     14  C   UNL     1      43.371 116.082   8.251  1.00  0.00     0.047 A 
ATOM     15  C   UNL     1      42.347 117.007   8.495  1.00  0.00     0.115 A 
ATOM     16  C   UNL     1      42.765 116.830  10.878  1.00  0.00     0.016 A 
ATOM     17  C   UNL     1      42.050 117.380   9.809  1.00  0.00     0.047 A 
BRANCH  15  18
ATOM     18  O   UNL     1      41.625 117.563   7.441  1.00  0.00    -0.508 OA
ATOM     19  H   UNL     1      42.026 117.654   6.515  1.00  0.00     0.293 HD
ENDBRANCH  15  18
ENDBRANCH   1  12
BRANCH   2  20
ATOM     20  O   UNL     1      43.901 113.042  11.184  1.00  0.00    -0.502 OA
ATOM     21  H   UNL     1      43.894 112.041  11.340  1.00  0.00     0.293 HD
ENDBRANCH   2  20
BRANCH   6  22
ATOM     22  O   UNL     1      46.830 112.713  15.621  1.00  0.00    -0.507 OA
ATOM     23  H   UNL     1      46.840 111.860  15.083  1.00  0.00     0.293 HD
ENDBRANCH   6  22
BRANCH   8  24
ATOM     24  O   UNL     1      48.325 117.243  16.007  1.00  0.00    -0.508 OA
ATOM     25  H   UNL     1      48.192 118.238  15.866  1.00  0.00     0.293 HD
ENDBRANCH   8  24
TORSDOF 5
ENDMDL
MODEL 8
REMARK VINA RESULT:    -6.347      1.365      2.993
REMARK INTER + INTRA:          -7.747
REMARK INTER:                  -7.483
REMARK INTRA:                  -0.264
REMARK UNBOUND:                -0.287
REMARK SMILES O=c1c(O)c(-c2ccc(O)cc2)oc2cc(O)cc(O)c12
REMARK SMILES IDX 5 1 3 2 2 3 1 4 21 5 19 6 18 7 16 8 15 9 14 10 13 11 6 12
REMARK SMILES IDX 7 13 8 14 9 15 12 16 11 17 10 18 4 20 20 22 17 24
REMARK H PARENT 10 19 4 21 20 23 17 25
REMARK Flexibility Score: inf
ROOT
ATOM      1  C   UNL     1      41.236 116.894  12.016  1.00  0.00     0.180 A 
ATOM      2  C   UNL     1      41.881 117.236  10.814  1.00  0.00     0.208 A 
ATOM      3  C   UNL     1      43.067 116.571  10.465  1.00  0.00     0.238 A 
ATOM      4  O   UNL     1      43.669 116.920   9.415  1.00  0.00    -0.285 OA
ATOM      5  C   UNL     1      43.584 115.562  11.311  1.00  0.00     0.111 A 
ATOM      6  C   UNL     1      44.757 114.795  11.035  1.00  0.00     0.134 A 
ATOM      7  C   UNL     1      45.248 113.914  12.006  1.00  0.00     0.093 A 
ATOM      8  C   UNL     1      44.577 113.722  13.213  1.00  0.00     0.123 A 
ATOM      9  C   UNL     1      43.397 114.423  13.468  1.00  0.00     0.094 A 
ATOM     10  C   UNL     1      42.901 115.336  12.535  1.00  0.00     0.146 A 
ATOM     11  O   UNL     1      41.781 115.990  12.820  1.00  0.00    -0.452 OA
ENDROOT
BRANCH   1  12
ATOM     12  C   UNL     1      39.970 117.533  12.440  1.00  0.00     0.021 A 
ATOM     13  C   UNL     1      40.006 118.783  13.082  1.00  0.00     0.016 A 
ATOM     14  C   UNL     1      38.824 119.394  13.511  1.00  0.00     0.047 A 
ATOM     15  C   UNL     1      37.591 118.756  13.318  1.00  0.00     0.115 A 
ATOM     16  C   UNL     1      38.730 116.890  12.267  1.00  0.00     0.016 A 
ATOM     17  C   UNL     1      37.550 117.503  12.699  1.00  0.00     0.047 A 
BRANCH  15  18
ATOM     18  O   UNL     1      36.408 119.356  13.741  1.00  0.00    -0.508 OA
ATOM     19  H   UNL     1      36.112 120.255  13.381  1.00  0.00     0.293 HD
ENDBRANCH  15  18
ENDBRANCH   1  12
BRANCH   2  20
ATOM     20  O   UNL     1      41.365 118.252  10.004  1.00  0.00    -0.502 OA
ATOM     21  H   UNL     1      41.064 119.144  10.376  1.00  0.00     0.293 HD
ENDBRANCH   2  20
BRANCH   6  22
ATOM     22  O   UNL     1      45.453 114.841   9.824  1.00  0.00    -0.507 OA
ATOM     23  H   UNL     1      46.450 114.723   9.731  1.00  0.00     0.293 HD
ENDBRANCH   6  22
BRANCH   8  24
ATOM     24  O   UNL     1      45.087 112.825  14.148  1.00  0.00    -0.508 OA
ATOM     25  H   UNL     1      45.467 113.141  15.034  1.00  0.00     0.293 HD
ENDBRANCH   8  24
TORSDOF 5
ENDMDL
MODEL 9
REMARK VINA RESULT:    -6.307      3.919      6.406
REMARK INTER + INTRA:          -7.700
REMARK INTER:                  -7.893
REMARK INTRA:                   0.193
REMARK UNBOUND:                -0.287
REMARK SMILES O=c1c(O)c(-c2ccc(O)cc2)oc2cc(O)cc(O)c12
REMARK SMILES IDX 5 1 3 2 2 3 1 4 21 5 19 6 18 7 16 8 15 9 14 10 13 11 6 12
REMARK SMILES IDX 7 13 8 14 9 15 12 16 11 17 10 18 4 20 20 22 17 24
REMARK H PARENT 10 19 4 21 20 23 17 25
REMARK Flexibility Score: inf
ROOT
ATOM      1  C   UNL     1      44.946 114.413   8.835  1.00  0.00     0.180 A 
ATOM      2  C   UNL     1      45.244 113.249   9.566  1.00  0.00     0.208 A 
ATOM      3  C   UNL     1      46.153 112.323   9.030  1.00  0.00     0.238 A 
ATOM      4  O   UNL     1      46.374 111.257   9.662  1.00  0.00    -0.285 OA
ATOM      5  C   UNL     1      46.765 112.580   7.780  1.00  0.00     0.111 A 
ATOM      6  C   UNL     1      47.732 111.731   7.161  1.00  0.00     0.134 A 
ATOM      7  C   UNL     1      48.173 112.018   5.864  1.00  0.00     0.093 A 
ATOM      8  C   UNL     1      47.734 113.156   5.188  1.00  0.00     0.123 A 
ATOM      9  C   UNL     1      46.835 114.025   5.807  1.00  0.00     0.094 A 
ATOM     10  C   UNL     1      46.348 113.746   7.087  1.00  0.00     0.146 A 
ATOM     11  O   UNL     1      45.486 114.593   7.636  1.00  0.00    -0.452 OA
ENDROOT
BRANCH   1  12
ATOM     12  C   UNL     1      44.017 115.447   9.346  1.00  0.00     0.021 A 
ATOM     13  C   UNL     1      43.217 116.166   8.441  1.00  0.00     0.016 A 
ATOM     14  C   UNL     1      42.349 117.162   8.899  1.00  0.00     0.047 A 
ATOM     15  C   UNL     1      42.281 117.462  10.266  1.00  0.00     0.115 A 
ATOM     16  C   UNL     1      43.957 115.767  10.714  1.00  0.00     0.016 A 
ATOM     17  C   UNL     1      43.089 116.765  11.169  1.00  0.00     0.047 A 
BRANCH  15  18
ATOM     18  O   UNL     1      41.420 118.452  10.734  1.00  0.00    -0.508 OA
ATOM     19  H   UNL     1      41.108 119.208  10.136  1.00  0.00     0.293 HD
ENDBRANCH  15  18
ENDBRANCH   1  12
BRANCH   2  20
ATOM     20  O   UNL     1      44.612 113.005  10.788  1.00  0.00    -0.502 OA
ATOM     21  H   UNL     1      43.855 113.583  11.135  1.00  0.00     0.293 HD
ENDBRANCH   2  20
BRANCH   6  22
ATOM     22  O   UNL     1      48.306 110.618   7.783  1.00  0.00    -0.507 OA
ATOM     23  H   UNL     1      49.209 110.233   7.551  1.00  0.00     0.293 HD
ENDBRANCH   6  22
BRANCH   8  24
ATOM     24  O   UNL     1      48.207 113.419   3.904  1.00  0.00    -0.508 OA
ATOM     25  H   UNL     1      49.054 112.987   3.552  1.00  0.00     0.293 HD
ENDBRANCH   8  24
TORSDOF 5
ENDMDL
