MODEL 1
REMARK VINA RESULT:    -0.333      0.000      0.000
REMARK INTER + INTRA:          -2.217
REMARK INTER:                  -0.509
REMARK INTRA:                  -1.708
REMARK UNBOUND:                -1.708
REMARK SMILES COc1cc(C=CCOC(=O)C=Cc2ccc(O)c(OC)c2)ccc1O
REMARK SMILES IDX 9 1 8 2 7 3 6 4 5 5 3 6 25 7 4 8 24 9 23 10 2 11 1 12 26 13
REMARK SMILES IDX 10 15 11 16 12 17 13 18 14 19 22 20 15 21 19 22 16 23 17 24
REMARK SMILES IDX 20 25 21 26 18 27
REMARK H PARENT 26 14 18 28
REMARK Flexibility Score: inf
ROOT
ATOM      1  O   UNL     1      35.906  42.598  41.554  1.00  0.00    -0.458 OA
ENDROOT
BRANCH   1   2
ATOM      2  C   UNL     1      35.315  43.086  42.756  1.00  0.00     0.261 C 
BRANCH   2   3
ATOM      3  C   UNL     1      33.820  43.119  42.622  1.00  0.00     0.015 C 
ATOM      4  C   UNL     1      33.038  42.348  43.388  1.00  0.00     0.007 C 
BRANCH   4   5
ATOM      5  C   UNL     1      31.558  42.302  43.277  1.00  0.00    -0.022 A 
ATOM      6  C   UNL     1      29.484  41.491  42.256  1.00  0.00     0.161 A 
ATOM      7  C   UNL     1      28.746  42.308  43.122  1.00  0.00     0.157 A 
ATOM      8  C   UNL     1      30.892  41.494  42.332  1.00  0.00     0.058 A 
ATOM      9  C   UNL     1      29.404  43.123  44.049  1.00  0.00     0.051 A 
ATOM     10  C   UNL     1      30.798  43.123  44.123  1.00  0.00     0.012 A 
BRANCH   6  11
ATOM     11  O   UNL     1      28.787  40.697  41.332  1.00  0.00    -0.493 OA
ATOM     12  C   UNL     1      29.404  39.852  40.365  1.00  0.00     0.278 C 
ENDBRANCH   6  11
BRANCH   7  13
ATOM     13  O   UNL     1      27.353  42.306  43.054  1.00  0.00    -0.504 OA
ATOM     14  H   UNL     1      26.779  42.268  43.891  1.00  0.00     0.293 HD
ENDBRANCH   7  13
ENDBRANCH   4   5
ENDBRANCH   2   3
ENDBRANCH   1   2
BRANCH   1  15
ATOM     15  C   UNL     1      36.141  41.237  41.314  1.00  0.00     0.331 C 
ATOM     16  O   UNL     1      37.309  40.770  41.387  1.00  0.00    -0.247 OA
BRANCH  15  17
ATOM     17  C   UNL     1      35.029  40.336  40.974  1.00  0.00     0.094 C 
ATOM     18  C   UNL     1      34.523  39.467  41.861  1.00  0.00     0.016 C 
BRANCH  18  19
ATOM     19  C   UNL     1      33.411  38.531  41.559  1.00  0.00    -0.021 A 
ATOM     20  C   UNL     1      33.206  37.985  40.275  1.00  0.00     0.058 A 
ATOM     21  C   UNL     1      32.510  38.210  42.584  1.00  0.00     0.012 A 
ATOM     22  C   UNL     1      32.131  37.106  40.031  1.00  0.00     0.161 A 
ATOM     23  C   UNL     1      31.444  37.341  42.347  1.00  0.00     0.051 A 
ATOM     24  C   UNL     1      31.254  36.786  41.076  1.00  0.00     0.157 A 
BRANCH  22  25
ATOM     25  O   UNL     1      31.899  36.537  38.768  1.00  0.00    -0.493 OA
ATOM     26  C   UNL     1      31.653  37.283  37.580  1.00  0.00     0.278 C 
ENDBRANCH  22  25
BRANCH  24  27
ATOM     27  O   UNL     1      30.190  35.915  40.842  1.00  0.00    -0.504 OA
ATOM     28  H   UNL     1      30.276  35.129  40.207  1.00  0.00     0.293 HD
ENDBRANCH  24  27
ENDBRANCH  18  19
ENDBRANCH  15  17
ENDBRANCH   1  15
TORSDOF 10
ENDMDL
MODEL 2
REMARK VINA RESULT:    -0.278     14.360     17.519
REMARK INTER + INTRA:          -2.132
REMARK INTER:                  -0.327
REMARK INTRA:                  -1.805
REMARK UNBOUND:                -1.708
REMARK SMILES COc1cc(C=CCOC(=O)C=Cc2ccc(O)c(OC)c2)ccc1O
REMARK SMILES IDX 9 1 8 2 7 3 6 4 5 5 3 6 25 7 4 8 24 9 23 10 2 11 1 12 26 13
REMARK SMILES IDX 10 15 11 16 12 17 13 18 14 19 22 20 15 21 19 22 16 23 17 24
REMARK SMILES IDX 20 25 21 26 18 27
REMARK H PARENT 26 14 18 28
REMARK Flexibility Score: inf
ROOT
ATOM      1  O   UNL     1      29.984  41.217  25.791  1.00  0.00    -0.458 OA
ENDROOT
BRANCH   1   2
ATOM      2  C   UNL     1      29.683  39.894  25.352  1.00  0.00     0.261 C 
BRANCH   2   3
ATOM      3  C   UNL     1      30.939  39.075  25.276  1.00  0.00     0.015 C 
ATOM      4  C   UNL     1      31.702  38.874  26.357  1.00  0.00     0.007 C 
BRANCH   4   5
ATOM      5  C   UNL     1      32.975  38.111  26.341  1.00  0.00    -0.022 A 
ATOM      6  C   UNL     1      35.217  37.651  25.467  1.00  0.00     0.161 A 
ATOM      7  C   UNL     1      35.342  36.583  26.366  1.00  0.00     0.157 A 
ATOM      8  C   UNL     1      34.029  38.410  25.453  1.00  0.00     0.058 A 
ATOM      9  C   UNL     1      34.291  36.273  27.237  1.00  0.00     0.051 A 
ATOM     10  C   UNL     1      33.117  37.028  27.222  1.00  0.00     0.012 A 
BRANCH   6  11
ATOM     11  O   UNL     1      36.288  37.923  24.601  1.00  0.00    -0.493 OA
ATOM     12  C   UNL     1      36.858  39.212  24.400  1.00  0.00     0.278 C 
ENDBRANCH   6  11
BRANCH   7  13
ATOM     13  O   UNL     1      36.516  35.831  26.387  1.00  0.00    -0.504 OA
ATOM     14  H   UNL     1      37.430  36.271  26.419  1.00  0.00     0.293 HD
ENDBRANCH   7  13
ENDBRANCH   4   5
ENDBRANCH   2   3
ENDBRANCH   1   2
BRANCH   1  15
ATOM     15  C   UNL     1      30.713  42.133  25.020  1.00  0.00     0.331 C 
ATOM     16  O   UNL     1      30.180  42.695  24.026  1.00  0.00    -0.247 OA
BRANCH  15  17
ATOM     17  C   UNL     1      32.108  42.451  25.361  1.00  0.00     0.094 C 
ATOM     18  C   UNL     1      33.140  41.953  24.666  1.00  0.00     0.016 C 
BRANCH  18  19
ATOM     19  C   UNL     1      34.563  42.237  24.981  1.00  0.00    -0.021 A 
ATOM     20  C   UNL     1      35.114  42.024  26.262  1.00  0.00     0.058 A 
ATOM     21  C   UNL     1      35.378  42.772  23.973  1.00  0.00     0.012 A 
ATOM     22  C   UNL     1      36.469  42.316  26.519  1.00  0.00     0.161 A 
ATOM     23  C   UNL     1      36.719  43.063  24.222  1.00  0.00     0.051 A 
ATOM     24  C   UNL     1      37.268  42.834  25.490  1.00  0.00     0.157 A 
BRANCH  22  25
ATOM     25  O   UNL     1      37.055  42.112  27.778  1.00  0.00    -0.493 OA
ATOM     26  C   UNL     1      36.548  42.642  29.000  1.00  0.00     0.278 C 
ENDBRANCH  22  25
BRANCH  24  27
ATOM     27  O   UNL     1      38.610  43.122  25.737  1.00  0.00    -0.504 OA
ATOM     28  H   UNL     1      38.996  44.043  25.561  1.00  0.00     0.293 HD
ENDBRANCH  24  27
ENDBRANCH  18  19
ENDBRANCH  15  17
ENDBRANCH   1  15
TORSDOF 10
ENDMDL
MODEL 3
REMARK VINA RESULT:    -0.275      2.463      7.234
REMARK INTER + INTRA:          -2.127
REMARK INTER:                  -0.289
REMARK INTRA:                  -1.838
REMARK UNBOUND:                -1.708
REMARK SMILES COc1cc(C=CCOC(=O)C=Cc2ccc(O)c(OC)c2)ccc1O
REMARK SMILES IDX 9 1 8 2 7 3 6 4 5 5 3 6 25 7 4 8 24 9 23 10 2 11 1 12 26 13
REMARK SMILES IDX 10 15 11 16 12 17 13 18 14 19 22 20 15 21 19 22 16 23 17 24
REMARK SMILES IDX 20 25 21 26 18 27
REMARK H PARENT 26 14 18 28
REMARK Flexibility Score: inf
ROOT
ATOM      1  O   UNL     1      26.957  41.867  38.480  1.00  0.00    -0.458 OA
ENDROOT
BRANCH   1   2
ATOM      2  C   UNL     1      26.932  40.541  37.958  1.00  0.00     0.261 C 
BRANCH   2   3
ATOM      3  C   UNL     1      28.329  40.063  37.689  1.00  0.00     0.015 C 
ATOM      4  C   UNL     1      28.920  39.165  38.487  1.00  0.00     0.007 C 
BRANCH   4   5
ATOM      5  C   UNL     1      30.312  38.682  38.302  1.00  0.00    -0.022 A 
ATOM      6  C   UNL     1      32.705  39.055  37.936  1.00  0.00     0.161 A 
ATOM      7  C   UNL     1      32.913  37.669  37.927  1.00  0.00     0.157 A 
ATOM      8  C   UNL     1      31.401  39.559  38.118  1.00  0.00     0.058 A 
ATOM      9  C   UNL     1      31.832  36.796  38.092  1.00  0.00     0.051 A 
ATOM     10  C   UNL     1      30.542  37.299  38.275  1.00  0.00     0.012 A 
BRANCH   6  11
ATOM     11  O   UNL     1      33.814  39.896  37.754  1.00  0.00    -0.493 OA
ATOM     12  C   UNL     1      34.400  40.694  38.778  1.00  0.00     0.278 C 
ENDBRANCH   6  11
BRANCH   7  13
ATOM     13  O   UNL     1      34.201  37.164  37.751  1.00  0.00    -0.504 OA
ATOM     14  H   UNL     1      34.487  36.727  36.880  1.00  0.00     0.293 HD
ENDBRANCH   7  13
ENDBRANCH   4   5
ENDBRANCH   2   3
ENDBRANCH   1   2
BRANCH   1  15
ATOM     15  C   UNL     1      26.761  42.159  39.837  1.00  0.00     0.331 C 
ATOM     16  O   UNL     1      25.634  42.545  40.249  1.00  0.00    -0.247 OA
BRANCH  15  17
ATOM     17  C   UNL     1      27.866  42.018  40.799  1.00  0.00     0.094 C 
ATOM     18  C   UNL     1      29.139  42.262  40.458  1.00  0.00     0.016 C 
BRANCH  18  19
ATOM     19  C   UNL     1      30.285  42.120  41.391  1.00  0.00    -0.021 A 
ATOM     20  C   UNL     1      31.150  41.006  41.368  1.00  0.00     0.058 A 
ATOM     21  C   UNL     1      30.490  43.117  42.356  1.00  0.00     0.012 A 
ATOM     22  C   UNL     1      32.221  40.909  42.279  1.00  0.00     0.161 A 
ATOM     23  C   UNL     1      31.549  43.026  43.259  1.00  0.00     0.051 A 
ATOM     24  C   UNL     1      32.417  41.927  43.222  1.00  0.00     0.157 A 
BRANCH  22  25
ATOM     25  O   UNL     1      33.107  39.819  42.283  1.00  0.00    -0.493 OA
ATOM     26  C   UNL     1      32.887  38.598  41.582  1.00  0.00     0.278 C 
ENDBRANCH  22  25
BRANCH  24  27
ATOM     27  O   UNL     1      33.477  41.839  44.125  1.00  0.00    -0.504 OA
ATOM     28  H   UNL     1      33.807  42.649  44.637  1.00  0.00     0.293 HD
ENDBRANCH  24  27
ENDBRANCH  18  19
ENDBRANCH  15  17
ENDBRANCH   1  15
TORSDOF 10
ENDMDL
MODEL 4
REMARK VINA RESULT:    -0.269     12.102     15.764
REMARK INTER + INTRA:          -2.119
REMARK INTER:                  -0.269
REMARK INTRA:                  -1.850
REMARK UNBOUND:                -1.708
REMARK SMILES COc1cc(C=CCOC(=O)C=Cc2ccc(O)c(OC)c2)ccc1O
REMARK SMILES IDX 9 1 8 2 7 3 6 4 5 5 3 6 25 7 4 8 24 9 23 10 2 11 1 12 26 13
REMARK SMILES IDX 10 15 11 16 12 17 13 18 14 19 22 20 15 21 19 22 16 23 17 24
REMARK SMILES IDX 20 25 21 26 18 27
REMARK H PARENT 26 14 18 28
REMARK Flexibility Score: inf
ROOT
ATOM      1  O   UNL     1      31.064  40.815  26.583  1.00  0.00    -0.458 OA
ENDROOT
BRANCH   1   2
ATOM      2  C   UNL     1      31.108  41.041  27.989  1.00  0.00     0.261 C 
BRANCH   2   3
ATOM      3  C   UNL     1      32.321  40.386  28.583  1.00  0.00     0.015 C 
ATOM      4  C   UNL     1      33.339  41.113  29.059  1.00  0.00     0.007 C 
BRANCH   4   5
ATOM      5  C   UNL     1      34.583  40.529  29.620  1.00  0.00    -0.022 A 
ATOM      6  C   UNL     1      36.360  40.419  31.302  1.00  0.00     0.161 A 
ATOM      7  C   UNL     1      36.965  39.377  30.585  1.00  0.00     0.157 A 
ATOM      8  C   UNL     1      35.171  40.997  30.813  1.00  0.00     0.058 A 
ATOM      9  C   UNL     1      36.394  38.922  29.392  1.00  0.00     0.051 A 
ATOM     10  C   UNL     1      35.215  39.496  28.912  1.00  0.00     0.012 A 
BRANCH   6  11
ATOM     11  O   UNL     1      36.972  40.855  32.488  1.00  0.00    -0.493 OA
ATOM     12  C   UNL     1      37.767  42.032  32.602  1.00  0.00     0.278 C 
ENDBRANCH   6  11
BRANCH   7  13
ATOM     13  O   UNL     1      38.140  38.799  31.066  1.00  0.00    -0.504 OA
ATOM     14  H   UNL     1      39.031  38.939  30.600  1.00  0.00     0.293 HD
ENDBRANCH   7  13
ENDBRANCH   4   5
ENDBRANCH   2   3
ENDBRANCH   1   2
BRANCH   1  15
ATOM     15  C   UNL     1      31.427  41.786  25.640  1.00  0.00     0.331 C 
ATOM     16  O   UNL     1      30.565  42.265  24.855  1.00  0.00    -0.247 OA
BRANCH  15  17
ATOM     17  C   UNL     1      32.817  42.261  25.553  1.00  0.00     0.094 C 
ATOM     18  C   UNL     1      33.842  41.422  25.344  1.00  0.00     0.016 C 
BRANCH  18  19
ATOM     19  C   UNL     1      35.260  41.855  25.262  1.00  0.00    -0.021 A 
ATOM     20  C   UNL     1      36.076  42.001  26.403  1.00  0.00     0.058 A 
ATOM     21  C   UNL     1      35.793  42.164  24.003  1.00  0.00     0.012 A 
ATOM     22  C   UNL     1      37.415  42.423  26.279  1.00  0.00     0.161 A 
ATOM     23  C   UNL     1      37.118  42.582  23.875  1.00  0.00     0.051 A 
ATOM     24  C   UNL     1      37.931  42.709  25.008  1.00  0.00     0.157 A 
BRANCH  22  25
ATOM     25  O   UNL     1      38.261  42.574  27.390  1.00  0.00    -0.493 OA
ATOM     26  C   UNL     1      37.810  42.728  28.733  1.00  0.00     0.278 C 
ENDBRANCH  22  25
BRANCH  24  27
ATOM     27  O   UNL     1      39.257  43.125  24.878  1.00  0.00    -0.504 OA
ATOM     28  H   UNL     1      39.975  42.820  25.525  1.00  0.00     0.293 HD
ENDBRANCH  24  27
ENDBRANCH  18  19
ENDBRANCH  15  17
ENDBRANCH   1  15
TORSDOF 10
ENDMDL
MODEL 5
REMARK VINA RESULT:    -0.261      2.596      6.533
REMARK INTER + INTRA:          -2.106
REMARK INTER:                  -0.341
REMARK INTRA:                  -1.766
REMARK UNBOUND:                -1.708
REMARK SMILES COc1cc(C=CCOC(=O)C=Cc2ccc(O)c(OC)c2)ccc1O
REMARK SMILES IDX 9 1 8 2 7 3 6 4 5 5 3 6 25 7 4 8 24 9 23 10 2 11 1 12 26 13
REMARK SMILES IDX 10 15 11 16 12 17 13 18 14 19 22 20 15 21 19 22 16 23 17 24
REMARK SMILES IDX 20 25 21 26 18 27
REMARK H PARENT 26 14 18 28
REMARK Flexibility Score: inf
ROOT
ATOM      1  O   UNL     1      32.919  39.565  36.359  1.00  0.00    -0.458 OA
ENDROOT
BRANCH   1   2
ATOM      2  C   UNL     1      34.192  40.044  35.935  1.00  0.00     0.261 C 
BRANCH   2   3
ATOM      3  C   UNL     1      34.901  40.715  37.075  1.00  0.00     0.015 C 
ATOM      4  C   UNL     1      35.069  40.094  38.249  1.00  0.00     0.007 C 
BRANCH   4   5
ATOM      5  C   UNL     1      35.721  40.715  39.429  1.00  0.00    -0.022 A 
ATOM      6  C   UNL     1      35.722  42.209  41.370  1.00  0.00     0.161 A 
ATOM      7  C   UNL     1      37.057  41.866  41.626  1.00  0.00     0.157 A 
ATOM      8  C   UNL     1      35.059  41.636  40.266  1.00  0.00     0.058 A 
ATOM      9  C   UNL     1      37.723  40.966  40.787  1.00  0.00     0.051 A 
ATOM     10  C   UNL     1      37.062  40.399  39.696  1.00  0.00     0.012 A 
BRANCH   6  11
ATOM     11  O   UNL     1      35.093  43.125  42.228  1.00  0.00    -0.493 OA
ATOM     12  C   UNL     1      33.832  42.911  42.854  1.00  0.00     0.278 C 
ENDBRANCH   6  11
BRANCH   7  13
ATOM     13  O   UNL     1      37.718  42.427  42.718  1.00  0.00    -0.504 OA
ATOM     14  H   UNL     1      38.687  42.209  42.923  1.00  0.00     0.293 HD
ENDBRANCH   7  13
ENDBRANCH   4   5
ENDBRANCH   2   3
ENDBRANCH   1   2
BRANCH   1  15
ATOM     15  C   UNL     1      31.839  40.411  36.645  1.00  0.00     0.331 C 
ATOM     16  O   UNL     1      31.296  41.084  35.728  1.00  0.00    -0.247 OA
BRANCH  15  17
ATOM     17  C   UNL     1      31.323  40.526  38.019  1.00  0.00     0.094 C 
ATOM     18  C   UNL     1      31.642  41.557  38.813  1.00  0.00     0.016 C 
BRANCH  18  19
ATOM     19  C   UNL     1      31.156  41.707  40.208  1.00  0.00    -0.021 A 
ATOM     20  C   UNL     1      31.203  40.654  41.146  1.00  0.00     0.058 A 
ATOM     21  C   UNL     1      30.594  42.932  40.592  1.00  0.00     0.012 A 
ATOM     22  C   UNL     1      30.721  40.838  42.458  1.00  0.00     0.161 A 
ATOM     23  C   UNL     1      30.116  43.120  41.890  1.00  0.00     0.051 A 
ATOM     24  C   UNL     1      30.181  42.079  42.824  1.00  0.00     0.157 A 
BRANCH  22  25
ATOM     25  O   UNL     1      30.757  39.818  43.421  1.00  0.00    -0.493 OA
ATOM     26  C   UNL     1      29.897  38.683  43.427  1.00  0.00     0.278 C 
ENDBRANCH  22  25
BRANCH  24  27
ATOM     27  O   UNL     1      29.705  42.269  44.121  1.00  0.00    -0.504 OA
ATOM     28  H   UNL     1      28.986  42.953  44.328  1.00  0.00     0.293 HD
ENDBRANCH  24  27
ENDBRANCH  18  19
ENDBRANCH  15  17
ENDBRANCH   1  15
TORSDOF 10
ENDMDL
MODEL 6
REMARK VINA RESULT:    -0.253      2.821      6.887
REMARK INTER + INTRA:          -2.094
REMARK INTER:                  -0.262
REMARK INTRA:                  -1.832
REMARK UNBOUND:                -1.708
REMARK SMILES COc1cc(C=CCOC(=O)C=Cc2ccc(O)c(OC)c2)ccc1O
REMARK SMILES IDX 9 1 8 2 7 3 6 4 5 5 3 6 25 7 4 8 24 9 23 10 2 11 1 12 26 13
REMARK SMILES IDX 10 15 11 16 12 17 13 18 14 19 22 20 15 21 19 22 16 23 17 24
REMARK SMILES IDX 20 25 21 26 18 27
REMARK H PARENT 26 14 18 28
REMARK Flexibility Score: inf
ROOT
ATOM      1  O   UNL     1      29.565  40.822  35.577  1.00  0.00    -0.458 OA
ENDROOT
BRANCH   1   2
ATOM      2  C   UNL     1      30.609  39.855  35.660  1.00  0.00     0.261 C 
BRANCH   2   3
ATOM      3  C   UNL     1      31.487  40.139  36.844  1.00  0.00     0.015 C 
ATOM      4  C   UNL     1      31.453  39.363  37.934  1.00  0.00     0.007 C 
BRANCH   4   5
ATOM      5  C   UNL     1      32.262  39.613  39.153  1.00  0.00    -0.022 A 
ATOM      6  C   UNL     1      32.510  39.866  41.577  1.00  0.00     0.161 A 
ATOM      7  C   UNL     1      33.875  40.130  41.404  1.00  0.00     0.157 A 
ATOM      8  C   UNL     1      31.704  39.613  40.448  1.00  0.00     0.058 A 
ATOM      9  C   UNL     1      34.429  40.148  40.119  1.00  0.00     0.051 A 
ATOM     10  C   UNL     1      33.628  39.896  39.004  1.00  0.00     0.012 A 
BRANCH   6  11
ATOM     11  O   UNL     1      31.990  39.870  42.881  1.00  0.00    -0.493 OA
ATOM     12  C   UNL     1      30.883  39.084  43.313  1.00  0.00     0.278 C 
ENDBRANCH   6  11
BRANCH   7  13
ATOM     13  O   UNL     1      34.678  40.378  42.517  1.00  0.00    -0.504 OA
ATOM     14  H   UNL     1      34.624  41.254  43.028  1.00  0.00     0.293 HD
ENDBRANCH   7  13
ENDBRANCH   4   5
ENDBRANCH   2   3
ENDBRANCH   1   2
BRANCH   1  15
ATOM     15  C   UNL     1      28.286  40.616  36.113  1.00  0.00     0.331 C 
ATOM     16  O   UNL     1      27.289  40.495  35.352  1.00  0.00    -0.247 OA
BRANCH  15  17
ATOM     17  C   UNL     1      28.091  40.537  37.569  1.00  0.00     0.094 C 
ATOM     18  C   UNL     1      28.506  41.507  38.395  1.00  0.00     0.016 C 
BRANCH  18  19
ATOM     19  C   UNL     1      28.341  41.463  39.870  1.00  0.00    -0.021 A 
ATOM     20  C   UNL     1      29.021  42.345  40.736  1.00  0.00     0.058 A 
ATOM     21  C   UNL     1      27.505  40.482  40.421  1.00  0.00     0.012 A 
ATOM     22  C   UNL     1      28.841  42.262  42.132  1.00  0.00     0.161 A 
ATOM     23  C   UNL     1      27.323  40.396  41.801  1.00  0.00     0.051 A 
ATOM     24  C   UNL     1      27.985  41.284  42.658  1.00  0.00     0.157 A 
BRANCH  22  25
ATOM     25  O   UNL     1      29.494  43.125  43.026  1.00  0.00    -0.493 OA
ATOM     26  C   UNL     1      30.897  43.120  43.273  1.00  0.00     0.278 C 
ENDBRANCH  22  25
BRANCH  24  27
ATOM     27  O   UNL     1      27.800  41.197  44.038  1.00  0.00    -0.504 OA
ATOM     28  H   UNL     1      28.225  41.863  44.673  1.00  0.00     0.293 HD
ENDBRANCH  24  27
ENDBRANCH  18  19
ENDBRANCH  15  17
ENDBRANCH   1  15
TORSDOF 10
ENDMDL
MODEL 7
REMARK VINA RESULT:    -0.246      1.599      5.412
REMARK INTER + INTRA:          -2.084
REMARK INTER:                  -0.488
REMARK INTRA:                  -1.596
REMARK UNBOUND:                -1.708
REMARK SMILES COc1cc(C=CCOC(=O)C=Cc2ccc(O)c(OC)c2)ccc1O
REMARK SMILES IDX 9 1 8 2 7 3 6 4 5 5 3 6 25 7 4 8 24 9 23 10 2 11 1 12 26 13
REMARK SMILES IDX 10 15 11 16 12 17 13 18 14 19 22 20 15 21 19 22 16 23 17 24
REMARK SMILES IDX 20 25 21 26 18 27
REMARK H PARENT 26 14 18 28
REMARK Flexibility Score: inf
ROOT
ATOM      1  O   UNL     1      35.355  40.661  42.279  1.00  0.00    -0.458 OA
ENDROOT
BRANCH   1   2
ATOM      2  C   UNL     1      35.453  39.276  42.601  1.00  0.00     0.261 C 
BRANCH   2   3
ATOM      3  C   UNL     1      34.116  38.611  42.447  1.00  0.00     0.015 C 
ATOM      4  C   UNL     1      33.482  38.593  41.268  1.00  0.00     0.007 C 
BRANCH   4   5
ATOM      5  C   UNL     1      32.142  37.991  41.058  1.00  0.00    -0.022 A 
ATOM      6  C   UNL     1      30.673  36.126  40.455  1.00  0.00     0.161 A 
ATOM      7  C   UNL     1      29.557  36.949  40.652  1.00  0.00     0.157 A 
ATOM      8  C   UNL     1      31.966  36.652  40.653  1.00  0.00     0.058 A 
ATOM      9  C   UNL     1      29.728  38.284  41.036  1.00  0.00     0.051 A 
ATOM     10  C   UNL     1      31.010  38.801  41.233  1.00  0.00     0.012 A 
BRANCH   6  11
ATOM     11  O   UNL     1      30.460  34.797  40.057  1.00  0.00    -0.493 OA
ATOM     12  C   UNL     1      30.666  34.305  38.737  1.00  0.00     0.278 C 
ENDBRANCH   6  11
BRANCH   7  13
ATOM     13  O   UNL     1      28.275  36.434  40.460  1.00  0.00    -0.504 OA
ATOM     14  H   UNL     1      28.022  35.940  39.611  1.00  0.00     0.293 HD
ENDBRANCH   7  13
ENDBRANCH   4   5
ENDBRANCH   2   3
ENDBRANCH   1   2
BRANCH   1  15
ATOM     15  C   UNL     1      34.938  41.633  43.199  1.00  0.00     0.331 C 
ATOM     16  O   UNL     1      35.786  42.307  43.842  1.00  0.00    -0.247 OA
BRANCH  15  17
ATOM     17  C   UNL     1      33.505  41.882  43.425  1.00  0.00     0.094 C 
ATOM     18  C   UNL     1      32.643  42.039  42.410  1.00  0.00     0.016 C 
BRANCH  18  19
ATOM     19  C   UNL     1      31.194  42.305  42.591  1.00  0.00    -0.021 A 
ATOM     20  C   UNL     1      30.305  42.436  41.505  1.00  0.00     0.058 A 
ATOM     21  C   UNL     1      30.701  42.466  43.894  1.00  0.00     0.012 A 
ATOM     22  C   UNL     1      28.936  42.697  41.723  1.00  0.00     0.161 A 
ATOM     23  C   UNL     1      29.347  42.723  44.115  1.00  0.00     0.051 A 
ATOM     24  C   UNL     1      28.464  42.836  43.035  1.00  0.00     0.157 A 
BRANCH  22  25
ATOM     25  O   UNL     1      28.019  42.828  40.668  1.00  0.00    -0.493 OA
ATOM     26  C   UNL     1      27.484  41.738  39.924  1.00  0.00     0.278 C 
ENDBRANCH  22  25
BRANCH  24  27
ATOM     27  O   UNL     1      27.111  43.091  43.259  1.00  0.00    -0.504 OA
ATOM     28  H   UNL     1      26.386  42.530  42.825  1.00  0.00     0.293 HD
ENDBRANCH  24  27
ENDBRANCH  18  19
ENDBRANCH  15  17
ENDBRANCH   1  15
TORSDOF 10
ENDMDL
MODEL 8
REMARK VINA RESULT:    -0.224     13.990     16.956
REMARK INTER + INTRA:          -2.050
REMARK INTER:                  -0.211
REMARK INTRA:                  -1.839
REMARK UNBOUND:                -1.708
REMARK SMILES COc1cc(C=CCOC(=O)C=Cc2ccc(O)c(OC)c2)ccc1O
REMARK SMILES IDX 9 1 8 2 7 3 6 4 5 5 3 6 25 7 4 8 24 9 23 10 2 11 1 12 26 13
REMARK SMILES IDX 10 15 11 16 12 17 13 18 14 19 22 20 15 21 19 22 16 23 17 24
REMARK SMILES IDX 20 25 21 26 18 27
REMARK H PARENT 26 14 18 28
REMARK Flexibility Score: inf
ROOT
ATOM      1  O   UNL     1      29.172  24.164  42.322  1.00  0.00    -0.458 OA
ENDROOT
BRANCH   1   2
ATOM      2  C   UNL     1      28.536  23.738  41.119  1.00  0.00     0.261 C 
BRANCH   2   3
ATOM      3  C   UNL     1      29.136  24.444  39.937  1.00  0.00     0.015 C 
ATOM      4  C   UNL     1      29.918  23.795  39.066  1.00  0.00     0.007 C 
BRANCH   4   5
ATOM      5  C   UNL     1      30.576  24.442  37.903  1.00  0.00    -0.022 A 
ATOM      6  C   UNL     1      31.930  26.211  36.885  1.00  0.00     0.161 A 
ATOM      7  C   UNL     1      31.758  25.612  35.629  1.00  0.00     0.157 A 
ATOM      8  C   UNL     1      31.333  25.626  38.019  1.00  0.00     0.058 A 
ATOM      9  C   UNL     1      30.993  24.447  35.507  1.00  0.00     0.051 A 
ATOM     10  C   UNL     1      30.404  23.869  36.633  1.00  0.00     0.012 A 
BRANCH   6  11
ATOM     11  O   UNL     1      32.694  27.386  36.963  1.00  0.00    -0.493 OA
ATOM     12  C   UNL     1      33.901  27.518  37.708  1.00  0.00     0.278 C 
ENDBRANCH   6  11
BRANCH   7  13
ATOM     13  O   UNL     1      32.349  26.184  34.503  1.00  0.00    -0.504 OA
ATOM     14  H   UNL     1      33.357  26.255  34.410  1.00  0.00     0.293 HD
ENDBRANCH   7  13
ENDBRANCH   4   5
ENDBRANCH   2   3
ENDBRANCH   1   2
BRANCH   1  15
ATOM     15  C   UNL     1      30.112  23.384  43.009  1.00  0.00     0.331 C 
ATOM     16  O   UNL     1      29.823  22.875  44.125  1.00  0.00    -0.247 OA
BRANCH  15  17
ATOM     17  C   UNL     1      31.446  23.146  42.437  1.00  0.00     0.094 C 
ATOM     18  C   UNL     1      32.201  24.144  41.956  1.00  0.00     0.016 C 
BRANCH  18  19
ATOM     19  C   UNL     1      33.546  23.949  41.359  1.00  0.00    -0.021 A 
ATOM     20  C   UNL     1      33.832  24.258  40.013  1.00  0.00     0.058 A 
ATOM     21  C   UNL     1      34.560  23.401  42.158  1.00  0.00     0.012 A 
ATOM     22  C   UNL     1      35.122  24.048  39.485  1.00  0.00     0.161 A 
ATOM     23  C   UNL     1      35.839  23.192  41.641  1.00  0.00     0.051 A 
ATOM     24  C   UNL     1      36.124  23.516  40.309  1.00  0.00     0.157 A 
BRANCH  22  25
ATOM     25  O   UNL     1      35.447  24.349  38.153  1.00  0.00    -0.493 OA
ATOM     26  C   UNL     1      34.811  23.771  37.017  1.00  0.00     0.278 C 
ENDBRANCH  22  25
BRANCH  24  27
ATOM     27  O   UNL     1      37.404  23.309  39.795  1.00  0.00    -0.504 OA
ATOM     28  H   UNL     1      37.826  23.959  39.142  1.00  0.00     0.293 HD
ENDBRANCH  24  27
ENDBRANCH  18  19
ENDBRANCH  15  17
ENDBRANCH   1  15
TORSDOF 10
ENDMDL
