MODEL 1
REMARK VINA RESULT:    -3.565      0.000      0.000
REMARK INTER + INTRA:          -6.109
REMARK INTER:                  -5.441
REMARK INTRA:                  -0.668
REMARK UNBOUND:                -0.668
REMARK SMILES O=C([O-])CCCCCCCCC(=O)[O-]
REMARK SMILES IDX 7 1 6 2 5 3 4 4 2 5 1 6 3 7 8 8 9 9 10 10 11 11 12 12 13 13
REMARK SMILES IDX 14 14
REMARK H PARENT
REMARK Flexibility Score: inf
ROOT
ATOM      1  C   UNL     1     -12.823  26.302 -10.882  1.00  0.00     0.000 C 
ENDROOT
BRANCH   1   2
ATOM      2  C   UNL     1     -13.770  27.171 -11.723  1.00  0.00     0.000 C 
BRANCH   2   3
ATOM      3  C   UNL     1     -15.050  27.557 -10.961  1.00  0.00     0.006 C 
BRANCH   3   4
ATOM      4  C   UNL     1     -16.314  27.013 -11.640  1.00  0.00     0.053 C 
BRANCH   4   5
ATOM      5  C   UNL     1     -16.844  27.963 -12.671  1.00  0.00     0.041 C 
ATOM      6  O   UNL     1     -17.536  27.534 -13.630  1.00  0.00    -0.550 OA
ATOM      7  O   UNL     1     -16.541  29.316 -12.592  1.00  0.00    -0.550 OA
ENDBRANCH   4   5
ENDBRANCH   3   4
ENDBRANCH   2   3
ENDBRANCH   1   2
BRANCH   1   8
ATOM      8  C   UNL     1     -11.828  27.140 -10.059  1.00  0.00     0.000 C 
BRANCH   8   9
ATOM      9  C   UNL     1     -12.205  27.208  -8.571  1.00  0.00     0.000 C 
BRANCH   9  10
ATOM     10  C   UNL     1     -12.716  28.599  -8.154  1.00  0.00     0.006 C 
BRANCH  10  11
ATOM     11  C   UNL     1     -12.504  29.647  -9.254  1.00  0.00     0.053 C 
BRANCH  11  12
ATOM     12  C   UNL     1     -11.972  30.934  -8.700  1.00  0.00     0.041 C 
ATOM     13  O   UNL     1     -12.742  31.733  -8.106  1.00  0.00    -0.550 OA
ATOM     14  O   UNL     1     -10.634  31.265  -8.871  1.00  0.00    -0.550 OA
ENDBRANCH  11  12
ENDBRANCH  10  11
ENDBRANCH   9  10
ENDBRANCH   8   9
ENDBRANCH   1   8
TORSDOF 9
ENDMDL
MODEL 2
REMARK VINA RESULT:    -3.518      3.664      7.623
REMARK INTER + INTRA:          -6.037
REMARK INTER:                  -5.327
REMARK INTRA:                  -0.710
REMARK UNBOUND:                -0.668
REMARK SMILES O=C([O-])CCCCCCCCC(=O)[O-]
REMARK SMILES IDX 7 1 6 2 5 3 4 4 2 5 1 6 3 7 8 8 9 9 10 10 11 11 12 12 13 13
REMARK SMILES IDX 14 14
REMARK H PARENT
REMARK Flexibility Score: inf
ROOT
ATOM      1  C   UNL     1     -15.370  25.458 -12.460  1.00  0.00     0.000 C 
ENDROOT
BRANCH   1   2
ATOM      2  C   UNL     1     -16.331  26.322 -11.631  1.00  0.00     0.000 C 
BRANCH   2   3
ATOM      3  C   UNL     1     -15.734  27.695 -11.275  1.00  0.00     0.006 C 
BRANCH   3   4
ATOM      4  C   UNL     1     -14.213  27.733 -11.467  1.00  0.00     0.053 C 
BRANCH   4   5
ATOM      5  C   UNL     1     -13.484  27.584 -10.165  1.00  0.00     0.041 C 
ATOM      6  O   UNL     1     -13.567  28.482  -9.288  1.00  0.00    -0.550 OA
ATOM      7  O   UNL     1     -12.686  26.470  -9.938  1.00  0.00    -0.550 OA
ENDBRANCH   4   5
ENDBRANCH   3   4
ENDBRANCH   2   3
ENDBRANCH   1   2
BRANCH   1   8
ATOM      8  C   UNL     1     -16.001  24.967 -13.774  1.00  0.00     0.000 C 
BRANCH   8   9
ATOM      9  C   UNL     1     -17.275  25.745 -14.143  1.00  0.00     0.000 C 
BRANCH   9  10
ATOM     10  C   UNL     1     -18.509  24.834 -14.266  1.00  0.00     0.006 C 
BRANCH  10  11
ATOM     11  C   UNL     1     -18.182  23.370 -13.940  1.00  0.00     0.053 C 
BRANCH  11  12
ATOM     12  C   UNL     1     -18.983  22.868 -12.778  1.00  0.00     0.041 C 
ATOM     13  O   UNL     1     -20.013  22.170 -12.974  1.00  0.00    -0.550 OA
ATOM     14  O   UNL     1     -18.611  23.199 -11.482  1.00  0.00    -0.550 OA
ENDBRANCH  11  12
ENDBRANCH  10  11
ENDBRANCH   9  10
ENDBRANCH   8   9
ENDBRANCH   1   8
TORSDOF 9
ENDMDL
MODEL 3
REMARK VINA RESULT:    -3.495      8.960     11.154
REMARK INTER + INTRA:          -6.001
REMARK INTER:                  -5.136
REMARK INTRA:                  -0.864
REMARK UNBOUND:                -0.668
REMARK SMILES O=C([O-])CCCCCCCCC(=O)[O-]
REMARK SMILES IDX 7 1 6 2 5 3 4 4 2 5 1 6 3 7 8 8 9 9 10 10 11 11 12 12 13 13
REMARK SMILES IDX 14 14
REMARK H PARENT
REMARK Flexibility Score: inf
ROOT
ATOM      1  C   UNL     1      -5.443  21.407 -12.263  1.00  0.00     0.000 C 
ENDROOT
BRANCH   1   2
ATOM      2  C   UNL     1      -4.596  22.684 -12.151  1.00  0.00     0.000 C 
BRANCH   2   3
ATOM      3  C   UNL     1      -5.445  23.931 -11.847  1.00  0.00     0.006 C 
BRANCH   3   4
ATOM      4  C   UNL     1      -5.032  24.607 -10.534  1.00  0.00     0.053 C 
BRANCH   4   5
ATOM      5  C   UNL     1      -6.207  24.834  -9.631  1.00  0.00     0.041 C 
ATOM      6  O   UNL     1      -6.029  25.175  -8.433  1.00  0.00    -0.550 OA
ATOM      7  O   UNL     1      -7.497  24.632 -10.104  1.00  0.00    -0.550 OA
ENDBRANCH   4   5
ENDBRANCH   3   4
ENDBRANCH   2   3
ENDBRANCH   1   2
BRANCH   1   8
ATOM      8  C   UNL     1      -6.923  21.649 -11.922  1.00  0.00     0.000 C 
BRANCH   8   9
ATOM      9  C   UNL     1      -7.403  20.793 -10.738  1.00  0.00     0.000 C 
BRANCH   9  10
ATOM     10  C   UNL     1      -6.507  20.947  -9.497  1.00  0.00     0.006 C 
BRANCH  10  11
ATOM     11  C   UNL     1      -6.075  19.592  -8.922  1.00  0.00     0.053 C 
BRANCH  11  12
ATOM     12  C   UNL     1      -7.226  18.861  -8.300  1.00  0.00     0.041 C 
ATOM     13  O   UNL     1      -7.643  17.787  -8.809  1.00  0.00    -0.550 OA
ATOM     14  O   UNL     1      -7.857  19.382  -7.179  1.00  0.00    -0.550 OA
ENDBRANCH  11  12
ENDBRANCH  10  11
ENDBRANCH   9  10
ENDBRANCH   8   9
ENDBRANCH   1   8
TORSDOF 9
ENDMDL
MODEL 4
REMARK VINA RESULT:    -3.475      0.750      5.608
REMARK INTER + INTRA:          -5.971
REMARK INTER:                  -5.312
REMARK INTRA:                  -0.658
REMARK UNBOUND:                -0.668
REMARK SMILES O=C([O-])CCCCCCCCC(=O)[O-]
REMARK SMILES IDX 7 1 6 2 5 3 4 4 2 5 1 6 3 7 8 8 9 9 10 10 11 11 12 12 13 13
REMARK SMILES IDX 14 14
REMARK H PARENT
REMARK Flexibility Score: inf
ROOT
ATOM      1  C   UNL     1     -12.094  27.420 -10.095  1.00  0.00     0.000 C 
ENDROOT
BRANCH   1   2
ATOM      2  C   UNL     1     -12.261  27.458  -8.568  1.00  0.00     0.000 C 
BRANCH   2   3
ATOM      3  C   UNL     1     -12.879  28.778  -8.074  1.00  0.00     0.006 C 
BRANCH   3   4
ATOM      4  C   UNL     1     -12.524  29.961  -8.985  1.00  0.00     0.053 C 
BRANCH   4   5
ATOM      5  C   UNL     1     -12.455  31.249  -8.223  1.00  0.00     0.041 C 
ATOM      6  O   UNL     1     -11.696  32.175  -8.611  1.00  0.00    -0.550 OA
ATOM      7  O   UNL     1     -13.203  31.412  -7.063  1.00  0.00    -0.550 OA
ENDBRANCH   4   5
ENDBRANCH   3   4
ENDBRANCH   2   3
ENDBRANCH   1   2
BRANCH   1   8
ATOM      8  C   UNL     1     -12.559  26.087 -10.706  1.00  0.00     0.000 C 
BRANCH   8   9
ATOM      9  C   UNL     1     -13.886  26.220 -11.470  1.00  0.00     0.000 C 
BRANCH   9  10
ATOM     10  C   UNL     1     -14.377  27.676 -11.552  1.00  0.00     0.006 C 
BRANCH  10  11
ATOM     11  C   UNL     1     -15.891  27.791 -11.330  1.00  0.00     0.053 C 
BRANCH  11  12
ATOM     12  C   UNL     1     -16.578  28.414 -12.506  1.00  0.00     0.041 C 
ATOM     13  O   UNL     1     -17.449  27.767 -13.145  1.00  0.00    -0.550 OA
ATOM     14  O   UNL     1     -16.233  29.695 -12.916  1.00  0.00    -0.550 OA
ENDBRANCH  11  12
ENDBRANCH  10  11
ENDBRANCH   9  10
ENDBRANCH   8   9
ENDBRANCH   1   8
TORSDOF 9
ENDMDL
MODEL 5
REMARK VINA RESULT:    -3.455      8.998     10.752
REMARK INTER + INTRA:          -5.941
REMARK INTER:                  -5.023
REMARK INTRA:                  -0.918
REMARK UNBOUND:                -0.668
REMARK SMILES O=C([O-])CCCCCCCCC(=O)[O-]
REMARK SMILES IDX 7 1 6 2 5 3 4 4 2 5 1 6 3 7 8 8 9 9 10 10 11 11 12 12 13 13
REMARK SMILES IDX 14 14
REMARK H PARENT
REMARK Flexibility Score: inf
ROOT
ATOM      1  C   UNL     1      -6.160  20.837 -12.727  1.00  0.00     0.000 C 
ENDROOT
BRANCH   1   2
ATOM      2  C   UNL     1      -5.809  20.289 -11.336  1.00  0.00     0.000 C 
BRANCH   2   3
ATOM      3  C   UNL     1      -7.024  20.251 -10.392  1.00  0.00     0.006 C 
BRANCH   3   4
ATOM      4  C   UNL     1      -6.610  20.241  -8.915  1.00  0.00     0.053 C 
BRANCH   4   5
ATOM      5  C   UNL     1      -7.351  19.196  -8.137  1.00  0.00     0.041 C 
ATOM      6  O   UNL     1      -7.808  19.462  -6.996  1.00  0.00    -0.550 OA
ATOM      7  O   UNL     1      -7.502  17.917  -8.659  1.00  0.00    -0.550 OA
ENDBRANCH   4   5
ENDBRANCH   3   4
ENDBRANCH   2   3
ENDBRANCH   1   2
BRANCH   1   8
ATOM      8  C   UNL     1      -5.350  22.095 -13.086  1.00  0.00     0.000 C 
BRANCH   8   9
ATOM      9  C   UNL     1      -4.625  22.697 -11.871  1.00  0.00     0.000 C 
BRANCH   9  10
ATOM     10  C   UNL     1      -5.219  24.050 -11.440  1.00  0.00     0.006 C 
BRANCH  10  11
ATOM     11  C   UNL     1      -6.419  23.882 -10.499  1.00  0.00     0.053 C 
BRANCH  11  12
ATOM     12  C   UNL     1      -7.713  24.183 -11.190  1.00  0.00     0.041 C 
ATOM     13  O   UNL     1      -7.992  25.365 -11.524  1.00  0.00    -0.550 OA
ATOM     14  O   UNL     1      -8.625  23.165 -11.435  1.00  0.00    -0.550 OA
ENDBRANCH  11  12
ENDBRANCH  10  11
ENDBRANCH   9  10
ENDBRANCH   8   9
ENDBRANCH   1   8
TORSDOF 9
ENDMDL
MODEL 6
REMARK VINA RESULT:    -3.436      2.737      7.013
REMARK INTER + INTRA:          -5.911
REMARK INTER:                  -5.537
REMARK INTRA:                  -0.374
REMARK UNBOUND:                -0.668
REMARK SMILES O=C([O-])CCCCCCCCC(=O)[O-]
REMARK SMILES IDX 7 1 6 2 5 3 4 4 2 5 1 6 3 7 8 8 9 9 10 10 11 11 12 12 13 13
REMARK SMILES IDX 14 14
REMARK H PARENT
REMARK Flexibility Score: inf
ROOT
ATOM      1  C   UNL     1     -12.725  27.374 -10.171  1.00  0.00     0.000 C 
ENDROOT
BRANCH   1   2
ATOM      2  C   UNL     1     -13.290  28.422  -9.202  1.00  0.00     0.000 C 
BRANCH   2   3
ATOM      3  C   UNL     1     -12.270  28.849  -8.131  1.00  0.00     0.006 C 
BRANCH   3   4
ATOM      4  C   UNL     1     -12.889  28.901  -6.729  1.00  0.00     0.053 C 
BRANCH   4   5
ATOM      5  C   UNL     1     -12.239  27.925  -5.796  1.00  0.00     0.041 C 
ATOM      6  O   UNL     1     -12.789  26.821  -5.551  1.00  0.00    -0.550 OA
ATOM      7  O   UNL     1     -11.042  28.251  -5.172  1.00  0.00    -0.550 OA
ENDBRANCH   4   5
ENDBRANCH   3   4
ENDBRANCH   2   3
ENDBRANCH   1   2
BRANCH   1   8
ATOM      8  C   UNL     1     -13.773  26.884 -11.186  1.00  0.00     0.000 C 
BRANCH   8   9
ATOM      9  C   UNL     1     -15.126  27.595 -11.026  1.00  0.00     0.000 C 
BRANCH   9  10
ATOM     10  C   UNL     1     -16.303  26.747 -11.541  1.00  0.00     0.006 C 
BRANCH  10  11
ATOM     11  C   UNL     1     -15.831  25.469 -12.248  1.00  0.00     0.053 C 
BRANCH  11  12
ATOM     12  C   UNL     1     -16.946  24.484 -12.417  1.00  0.00     0.041 C 
ATOM     13  O   UNL     1     -17.499  23.975 -11.406  1.00  0.00    -0.550 OA
ATOM     14  O   UNL     1     -17.352  24.102 -13.688  1.00  0.00    -0.550 OA
ENDBRANCH  11  12
ENDBRANCH  10  11
ENDBRANCH   9  10
ENDBRANCH   8   9
ENDBRANCH   1   8
TORSDOF 9
ENDMDL
MODEL 7
REMARK VINA RESULT:    -3.408      1.355      1.911
REMARK INTER + INTRA:          -5.868
REMARK INTER:                  -5.472
REMARK INTRA:                  -0.396
REMARK UNBOUND:                -0.668
REMARK SMILES O=C([O-])CCCCCCCCC(=O)[O-]
REMARK SMILES IDX 7 1 6 2 5 3 4 4 2 5 1 6 3 7 8 8 9 9 10 10 11 11 12 12 13 13
REMARK SMILES IDX 14 14
REMARK H PARENT
REMARK Flexibility Score: inf
ROOT
ATOM      1  C   UNL     1     -12.561  27.220  -9.578  1.00  0.00     0.000 C 
ENDROOT
BRANCH   1   2
ATOM      2  C   UNL     1     -13.504  28.079 -10.434  1.00  0.00     0.000 C 
BRANCH   2   3
ATOM      3  C   UNL     1     -14.439  27.232 -11.315  1.00  0.00     0.006 C 
BRANCH   3   4
ATOM      4  C   UNL     1     -15.906  27.661 -11.181  1.00  0.00     0.053 C 
BRANCH   4   5
ATOM      5  C   UNL     1     -16.376  28.418 -12.386  1.00  0.00     0.041 C 
ATOM      6  O   UNL     1     -17.346  27.990 -13.064  1.00  0.00    -0.550 OA
ATOM      7  O   UNL     1     -15.719  29.577 -12.780  1.00  0.00    -0.550 OA
ENDBRANCH   4   5
ENDBRANCH   3   4
ENDBRANCH   2   3
ENDBRANCH   1   2
BRANCH   1   8
ATOM      8  C   UNL     1     -12.407  27.761  -8.146  1.00  0.00     0.000 C 
BRANCH   8   9
ATOM      9  C   UNL     1     -11.980  29.237  -8.116  1.00  0.00     0.000 C 
BRANCH   9  10
ATOM     10  C   UNL     1     -13.025  30.140  -7.438  1.00  0.00     0.006 C 
BRANCH  10  11
ATOM     11  C   UNL     1     -12.439  31.497  -7.027  1.00  0.00     0.053 C 
BRANCH  11  12
ATOM     12  C   UNL     1     -12.941  32.606  -7.901  1.00  0.00     0.041 C 
ATOM     13  O   UNL     1     -12.887  32.497  -9.154  1.00  0.00    -0.550 OA
ATOM     14  O   UNL     1     -13.435  33.772  -7.331  1.00  0.00    -0.550 OA
ENDBRANCH  11  12
ENDBRANCH  10  11
ENDBRANCH   9  10
ENDBRANCH   8   9
ENDBRANCH   1   8
TORSDOF 9
ENDMDL
MODEL 8
REMARK VINA RESULT:    -3.402      9.632     11.162
REMARK INTER + INTRA:          -5.859
REMARK INTER:                  -5.084
REMARK INTRA:                  -0.775
REMARK UNBOUND:                -0.668
REMARK SMILES O=C([O-])CCCCCCCCC(=O)[O-]
REMARK SMILES IDX 7 1 6 2 5 3 4 4 2 5 1 6 3 7 8 8 9 9 10 10 11 11 12 12 13 13
REMARK SMILES IDX 14 14
REMARK H PARENT
REMARK Flexibility Score: inf
ROOT
ATOM      1  C   UNL     1      -8.160  22.609 -11.572  1.00  0.00     0.000 C 
ENDROOT
BRANCH   1   2
ATOM      2  C   UNL     1      -7.150  23.472 -10.801  1.00  0.00     0.000 C 
BRANCH   2   3
ATOM      3  C   UNL     1      -6.371  24.431 -11.717  1.00  0.00     0.006 C 
BRANCH   3   4
ATOM      4  C   UNL     1      -6.324  23.936 -13.168  1.00  0.00     0.053 C 
BRANCH   4   5
ATOM      5  C   UNL     1      -4.924  23.623 -13.604  1.00  0.00     0.041 C 
ATOM      6  O   UNL     1      -4.280  22.697 -13.048  1.00  0.00    -0.550 OA
ATOM      7  O   UNL     1      -4.320  24.380 -14.601  1.00  0.00    -0.550 OA
ENDBRANCH   4   5
ENDBRANCH   3   4
ENDBRANCH   2   3
ENDBRANCH   1   2
BRANCH   1   8
ATOM      8  C   UNL     1      -8.065  21.118 -11.203  1.00  0.00     0.000 C 
BRANCH   8   9
ATOM      9  C   UNL     1      -6.688  20.517 -11.527  1.00  0.00     0.000 C 
BRANCH   9  10
ATOM     10  C   UNL     1      -6.102  19.717 -10.350  1.00  0.00     0.006 C 
BRANCH  10  11
ATOM     11  C   UNL     1      -6.602  20.231  -8.994  1.00  0.00     0.053 C 
BRANCH  11  12
ATOM     12  C   UNL     1      -7.332  19.167  -8.232  1.00  0.00     0.041 C 
ATOM     13  O   UNL     1      -7.455  18.013  -8.719  1.00  0.00    -0.550 OA
ATOM     14  O   UNL     1      -7.904  19.461  -7.001  1.00  0.00    -0.550 OA
ENDBRANCH  11  12
ENDBRANCH  10  11
ENDBRANCH   9  10
ENDBRANCH   8   9
ENDBRANCH   1   8
TORSDOF 9
ENDMDL
MODEL 9
REMARK VINA RESULT:    -3.363      8.963     10.802
REMARK INTER + INTRA:          -5.799
REMARK INTER:                  -5.253
REMARK INTRA:                  -0.547
REMARK UNBOUND:                -0.668
REMARK SMILES O=C([O-])CCCCCCCCC(=O)[O-]
REMARK SMILES IDX 7 1 6 2 5 3 4 4 2 5 1 6 3 7 8 8 9 9 10 10 11 11 12 12 13 13
REMARK SMILES IDX 14 14
REMARK H PARENT
REMARK Flexibility Score: inf
ROOT
ATOM      1  C   UNL     1      -5.326  22.370 -13.023  1.00  0.00     0.000 C 
ENDROOT
BRANCH   1   2
ATOM      2  C   UNL     1      -5.246  22.163 -11.503  1.00  0.00     0.000 C 
BRANCH   2   3
ATOM      3  C   UNL     1      -5.752  20.776 -11.069  1.00  0.00     0.006 C 
BRANCH   3   4
ATOM      4  C   UNL     1      -6.777  20.864  -9.930  1.00  0.00     0.053 C 
BRANCH   4   5
ATOM      5  C   UNL     1      -6.629  19.730  -8.960  1.00  0.00     0.041 C 
ATOM      6  O   UNL     1      -7.263  19.739  -7.874  1.00  0.00    -0.550 OA
ATOM      7  O   UNL     1      -5.763  18.681  -9.243  1.00  0.00    -0.550 OA
ENDBRANCH   4   5
ENDBRANCH   3   4
ENDBRANCH   2   3
ENDBRANCH   1   2
BRANCH   1   8
ATOM      8  C   UNL     1      -4.105  23.122 -13.581  1.00  0.00     0.000 C 
BRANCH   8   9
ATOM      9  C   UNL     1      -4.463  24.523 -14.104  1.00  0.00     0.000 C 
BRANCH   9  10
ATOM     10  C   UNL     1      -4.182  25.628 -13.071  1.00  0.00     0.006 C 
BRANCH  10  11
ATOM     11  C   UNL     1      -5.401  26.532 -12.843  1.00  0.00     0.053 C 
BRANCH  11  12
ATOM     12  C   UNL     1      -6.301  25.992 -11.775  1.00  0.00     0.041 C 
ATOM     13  O   UNL     1      -6.084  26.267 -10.566  1.00  0.00    -0.550 OA
ATOM     14  O   UNL     1      -7.358  25.157 -12.112  1.00  0.00    -0.550 OA
ENDBRANCH  11  12
ENDBRANCH  10  11
ENDBRANCH   9  10
ENDBRANCH   8   9
ENDBRANCH   1   8
TORSDOF 9
ENDMDL
