MODEL 1
REMARK VINA RESULT:    -3.962      0.000      0.000
REMARK INTER + INTRA:          -5.477
REMARK INTER:                  -5.352
REMARK INTRA:                  -0.125
REMARK UNBOUND:                -0.125
REMARK SMILES [NH3+]CCCC[C@@H]([NH3+])C(=O)[O-]
REMARK SMILES IDX 4 1 3 2 2 3 1 4 5 8 6 9 7 10 8 14 9 15 10 16
REMARK H PARENT 1 5 1 6 1 7 7 11 7 12 7 13
REMARK Flexibility Score: inf
ROOT
ATOM      1  C   UNL     1      13.363 -17.632  33.215  1.00  0.00     0.012 C 
ENDROOT
BRANCH   1   2
ATOM      2  C   UNL     1      13.026 -17.311  31.751  1.00  0.00     0.061 C 
BRANCH   2   3
ATOM      3  C   UNL     1      14.200 -17.588  30.799  1.00  0.00     0.258 C 
BRANCH   3   4
ATOM      4  N   UNL     1      15.427 -17.859  31.549  1.00  0.00    -0.358 N 
ATOM      5  H   UNL     1      15.998 -16.987  31.629  1.00  0.00     0.344 HD
ATOM      6  H   UNL     1      15.192 -18.217  32.504  1.00  0.00     0.344 HD
ATOM      7  H   UNL     1      15.984 -18.585  31.043  1.00  0.00     0.344 HD
ENDBRANCH   3   4
ENDBRANCH   2   3
ENDBRANCH   1   2
BRANCH   1   8
ATOM      8  C   UNL     1      13.388 -16.377  34.107  1.00  0.00     0.072 C 
BRANCH   8   9
ATOM      9  C   UNL     1      14.301 -16.557  35.340  1.00  0.00     0.227 C 
BRANCH   9  10
ATOM     10  N   UNL     1      15.659 -16.086  35.046  1.00  0.00    -0.350 N 
ATOM     11  H   UNL     1      16.356 -16.816  35.322  1.00  0.00     0.345 HD
ATOM     12  H   UNL     1      15.759 -15.914  34.018  1.00  0.00     0.345 HD
ATOM     13  H   UNL     1      15.864 -15.201  35.564  1.00  0.00     0.345 HD
ENDBRANCH   9  10
BRANCH   9  14
ATOM     14  C   UNL     1      13.749 -15.820  36.533  1.00  0.00     0.099 C 
ATOM     15  O   UNL     1      13.146 -14.725  36.378  1.00  0.00    -0.544 OA
ATOM     16  O   UNL     1      13.905 -16.341  37.813  1.00  0.00    -0.544 OA
ENDBRANCH   9  14
ENDBRANCH   8   9
ENDBRANCH   1   8
TORSDOF 7
ENDMDL
MODEL 2
REMARK VINA RESULT:    -3.920      3.342      5.034
REMARK INTER + INTRA:          -5.420
REMARK INTER:                  -5.255
REMARK INTRA:                  -0.165
REMARK UNBOUND:                -0.125
REMARK SMILES [NH3+]CCCC[C@@H]([NH3+])C(=O)[O-]
REMARK SMILES IDX 4 1 3 2 2 3 1 4 5 8 6 9 7 10 8 14 9 15 10 16
REMARK H PARENT 1 5 1 6 1 7 7 11 7 12 7 13
REMARK Flexibility Score: inf
ROOT
ATOM      1  C   UNL     1      12.908 -16.971  33.933  1.00  0.00     0.012 C 
ENDROOT
BRANCH   1   2
ATOM      2  C   UNL     1      13.620 -16.888  35.292  1.00  0.00     0.061 C 
BRANCH   2   3
ATOM      3  C   UNL     1      14.559 -15.676  35.396  1.00  0.00     0.258 C 
BRANCH   3   4
ATOM      4  N   UNL     1      15.934 -16.053  35.070  1.00  0.00    -0.358 N 
ATOM      5  H   UNL     1      16.126 -15.867  34.058  1.00  0.00     0.344 HD
ATOM      6  H   UNL     1      16.606 -15.513  35.662  1.00  0.00     0.344 HD
ATOM      7  H   UNL     1      16.063 -17.073  35.256  1.00  0.00     0.344 HD
ENDBRANCH   3   4
ENDBRANCH   2   3
ENDBRANCH   1   2
BRANCH   1   8
ATOM      8  C   UNL     1      13.509 -18.050  33.013  1.00  0.00     0.072 C 
BRANCH   8   9
ATOM      9  C   UNL     1      13.939 -17.478  31.645  1.00  0.00     0.227 C 
BRANCH   9  10
ATOM     10  N   UNL     1      15.342 -17.809  31.369  1.00  0.00    -0.350 N 
ATOM     11  H   UNL     1      15.964 -17.328  32.059  1.00  0.00     0.345 HD
ATOM     12  H   UNL     1      15.487 -18.841  31.465  1.00  0.00     0.345 HD
ATOM     13  H   UNL     1      15.608 -17.515  30.401  1.00  0.00     0.345 HD
ENDBRANCH   9  10
BRANCH   9  14
ATOM     14  C   UNL     1      13.060 -18.001  30.540  1.00  0.00     0.099 C 
ATOM     15  O   UNL     1      13.530 -18.784  29.673  1.00  0.00    -0.544 OA
ATOM     16  O   UNL     1      11.725 -17.619  30.465  1.00  0.00    -0.544 OA
ENDBRANCH   9  14
ENDBRANCH   8   9
ENDBRANCH   1   8
TORSDOF 7
ENDMDL
MODEL 3
REMARK VINA RESULT:    -3.874      6.156      7.961
REMARK INTER + INTRA:          -5.357
REMARK INTER:                  -5.240
REMARK INTRA:                  -0.117
REMARK UNBOUND:                -0.125
REMARK SMILES [NH3+]CCCC[C@@H]([NH3+])C(=O)[O-]
REMARK SMILES IDX 4 1 3 2 2 3 1 4 5 8 6 9 7 10 8 14 9 15 10 16
REMARK H PARENT 1 5 1 6 1 7 7 11 7 12 7 13
REMARK Flexibility Score: inf
ROOT
ATOM      1  C   UNL     1      12.289 -18.061  29.755  1.00  0.00     0.012 C 
ENDROOT
BRANCH   1   2
ATOM      2  C   UNL     1      13.473 -17.300  30.373  1.00  0.00     0.061 C 
BRANCH   2   3
ATOM      3  C   UNL     1      13.943 -17.915  31.701  1.00  0.00     0.258 C 
BRANCH   3   4
ATOM      4  N   UNL     1      15.194 -18.652  31.519  1.00  0.00    -0.358 N 
ATOM      5  H   UNL     1      15.976 -17.987  31.316  1.00  0.00     0.344 HD
ATOM      6  H   UNL     1      15.414 -19.204  32.380  1.00  0.00     0.344 HD
ATOM      7  H   UNL     1      15.090 -19.309  30.713  1.00  0.00     0.344 HD
ENDBRANCH   3   4
ENDBRANCH   2   3
ENDBRANCH   1   2
BRANCH   1   8
ATOM      8  C   UNL     1      12.737 -19.143  28.755  1.00  0.00     0.072 C 
BRANCH   8   9
ATOM      9  C   UNL     1      11.847 -19.175  27.494  1.00  0.00     0.227 C 
BRANCH   9  10
ATOM     10  N   UNL     1      12.395 -18.294  26.457  1.00  0.00    -0.350 N 
ATOM     11  H   UNL     1      13.152 -18.789  25.933  1.00  0.00     0.345 HD
ATOM     12  H   UNL     1      11.643 -18.037  25.776  1.00  0.00     0.345 HD
ATOM     13  H   UNL     1      12.785 -17.421  26.882  1.00  0.00     0.345 HD
ENDBRANCH   9  10
BRANCH   9  14
ATOM     14  C   UNL     1      11.716 -20.578  26.960  1.00  0.00     0.099 C 
ATOM     15  O   UNL     1      12.300 -21.533  27.538  1.00  0.00    -0.544 OA
ATOM     16  O   UNL     1      10.956 -20.828  25.822  1.00  0.00    -0.544 OA
ENDBRANCH   9  14
ENDBRANCH   8   9
ENDBRANCH   1   8
TORSDOF 7
ENDMDL
MODEL 4
REMARK VINA RESULT:    -3.818      3.541      4.601
REMARK INTER + INTRA:          -5.282
REMARK INTER:                  -5.187
REMARK INTRA:                  -0.094
REMARK UNBOUND:                -0.125
REMARK SMILES [NH3+]CCCC[C@@H]([NH3+])C(=O)[O-]
REMARK SMILES IDX 4 1 3 2 2 3 1 4 5 8 6 9 7 10 8 14 9 15 10 16
REMARK H PARENT 1 5 1 6 1 7 7 11 7 12 7 13
REMARK Flexibility Score: inf
ROOT
ATOM      1  C   UNL     1      12.814 -18.719  29.174  1.00  0.00     0.012 C 
ENDROOT
BRANCH   1   2
ATOM      2  C   UNL     1      11.935 -18.198  28.027  1.00  0.00     0.061 C 
BRANCH   2   3
ATOM      3  C   UNL     1      12.372 -18.735  26.655  1.00  0.00     0.258 C 
BRANCH   3   4
ATOM      4  N   UNL     1      12.404 -17.662  25.661  1.00  0.00    -0.358 N 
ATOM      5  H   UNL     1      13.329 -17.654  25.172  1.00  0.00     0.344 HD
ATOM      6  H   UNL     1      11.636 -17.795  24.963  1.00  0.00     0.344 HD
ATOM      7  H   UNL     1      12.269 -16.745  26.143  1.00  0.00     0.344 HD
ENDBRANCH   3   4
ENDBRANCH   2   3
ENDBRANCH   1   2
BRANCH   1   8
ATOM      8  C   UNL     1      13.337 -17.589  30.081  1.00  0.00     0.072 C 
BRANCH   8   9
ATOM      9  C   UNL     1      13.975 -18.132  31.378  1.00  0.00     0.227 C 
BRANCH   9  10
ATOM     10  N   UNL     1      15.377 -17.711  31.475  1.00  0.00    -0.350 N 
ATOM     11  H   UNL     1      15.608 -17.059  30.691  1.00  0.00     0.345 HD
ATOM     12  H   UNL     1      15.533 -17.202  32.377  1.00  0.00     0.345 HD
ATOM     13  H   UNL     1      16.016 -18.538  31.434  1.00  0.00     0.345 HD
ENDBRANCH   9  10
BRANCH   9  14
ATOM     14  C   UNL     1      13.213 -17.665  32.591  1.00  0.00     0.099 C 
ATOM     15  O   UNL     1      11.955 -17.612  32.567  1.00  0.00    -0.544 OA
ATOM     16  O   UNL     1      13.893 -17.283  33.743  1.00  0.00    -0.544 OA
ENDBRANCH   9  14
ENDBRANCH   8   9
ENDBRANCH   1   8
TORSDOF 7
ENDMDL
MODEL 5
REMARK VINA RESULT:    -3.756      8.601      9.556
REMARK INTER + INTRA:          -5.199
REMARK INTER:                  -4.701
REMARK INTRA:                  -0.498
REMARK UNBOUND:                -0.125
REMARK SMILES [NH3+]CCCC[C@@H]([NH3+])C(=O)[O-]
REMARK SMILES IDX 4 1 3 2 2 3 1 4 5 8 6 9 7 10 8 14 9 15 10 16
REMARK H PARENT 1 5 1 6 1 7 7 11 7 12 7 13
REMARK Flexibility Score: inf
ROOT
ATOM      1  C   UNL     1      11.907 -25.234  38.685  1.00  0.00     0.012 C 
ENDROOT
BRANCH   1   2
ATOM      2  C   UNL     1      12.931 -24.093  38.791  1.00  0.00     0.061 C 
BRANCH   2   3
ATOM      3  C   UNL     1      12.270 -22.725  39.029  1.00  0.00     0.258 C 
BRANCH   3   4
ATOM      4  N   UNL     1      12.323 -21.904  37.820  1.00  0.00    -0.358 N 
ATOM      5  H   UNL     1      13.101 -22.227  37.200  1.00  0.00     0.344 HD
ATOM      6  H   UNL     1      11.414 -21.963  37.305  1.00  0.00     0.344 HD
ATOM      7  H   UNL     1      12.495 -20.909  38.089  1.00  0.00     0.344 HD
ENDBRANCH   3   4
ENDBRANCH   2   3
ENDBRANCH   1   2
BRANCH   1   8
ATOM      8  C   UNL     1      11.894 -25.892  37.293  1.00  0.00     0.072 C 
BRANCH   8   9
ATOM      9  C   UNL     1      11.529 -24.888  36.178  1.00  0.00     0.227 C 
BRANCH   9  10
ATOM     10  N   UNL     1      11.772 -25.478  34.857  1.00  0.00    -0.350 N 
ATOM     11  H   UNL     1      12.478 -24.908  34.336  1.00  0.00     0.345 HD
ATOM     12  H   UNL     1      12.153 -26.447  34.966  1.00  0.00     0.345 HD
ATOM     13  H   UNL     1      10.886 -25.520  34.302  1.00  0.00     0.345 HD
ENDBRANCH   9  10
BRANCH   9  14
ATOM     14  C   UNL     1      10.091 -24.454  36.290  1.00  0.00     0.099 C 
ATOM     15  O   UNL     1       9.166 -25.308  36.250  1.00  0.00    -0.544 OA
ATOM     16  O   UNL     1       9.774 -23.107  36.434  1.00  0.00    -0.544 OA
ENDBRANCH   9  14
ENDBRANCH   8   9
ENDBRANCH   1   8
TORSDOF 7
ENDMDL
MODEL 6
REMARK VINA RESULT:    -3.732      3.088      5.439
REMARK INTER + INTRA:          -5.165
REMARK INTER:                  -4.611
REMARK INTRA:                  -0.555
REMARK UNBOUND:                -0.125
REMARK SMILES [NH3+]CCCC[C@@H]([NH3+])C(=O)[O-]
REMARK SMILES IDX 4 1 3 2 2 3 1 4 5 8 6 9 7 10 8 14 9 15 10 16
REMARK H PARENT 1 5 1 6 1 7 7 11 7 12 7 13
REMARK Flexibility Score: inf
ROOT
ATOM      1  C   UNL     1      14.709 -14.485  38.604  1.00  0.00     0.012 C 
ENDROOT
BRANCH   1   2
ATOM      2  C   UNL     1      15.016 -12.981  38.530  1.00  0.00     0.061 C 
BRANCH   2   3
ATOM      3  C   UNL     1      13.764 -12.135  38.247  1.00  0.00     0.258 C 
BRANCH   3   4
ATOM      4  N   UNL     1      13.615 -11.889  36.813  1.00  0.00    -0.358 N 
ATOM      5  H   UNL     1      14.041 -10.967  36.562  1.00  0.00     0.344 HD
ATOM      6  H   UNL     1      14.075 -12.653  36.267  1.00  0.00     0.344 HD
ATOM      7  H   UNL     1      12.597 -11.868  36.574  1.00  0.00     0.344 HD
ENDBRANCH   3   4
ENDBRANCH   2   3
ENDBRANCH   1   2
BRANCH   1   8
ATOM      8  C   UNL     1      15.530 -15.309  37.595  1.00  0.00     0.072 C 
BRANCH   8   9
ATOM      9  C   UNL     1      14.994 -15.167  36.154  1.00  0.00     0.227 C 
BRANCH   9  10
ATOM     10  N   UNL     1      15.770 -16.005  35.233  1.00  0.00    -0.350 N 
ATOM     11  H   UNL     1      15.175 -16.285  34.419  1.00  0.00     0.345 HD
ATOM     12  H   UNL     1      16.588 -15.465  34.867  1.00  0.00     0.345 HD
ATOM     13  H   UNL     1      16.117 -16.865  35.718  1.00  0.00     0.345 HD
ENDBRANCH   9  10
BRANCH   9  14
ATOM     14  C   UNL     1      13.536 -15.538  36.081  1.00  0.00     0.099 C 
ATOM     15  O   UNL     1      13.174 -16.728  36.277  1.00  0.00    -0.544 OA
ATOM     16  O   UNL     1      12.579 -14.570  35.791  1.00  0.00    -0.544 OA
ENDBRANCH   9  14
ENDBRANCH   8   9
ENDBRANCH   1   8
TORSDOF 7
ENDMDL
MODEL 7
REMARK VINA RESULT:    -3.705      2.200      2.718
REMARK INTER + INTRA:          -5.129
REMARK INTER:                  -4.628
REMARK INTRA:                  -0.501
REMARK UNBOUND:                -0.125
REMARK SMILES [NH3+]CCCC[C@@H]([NH3+])C(=O)[O-]
REMARK SMILES IDX 4 1 3 2 2 3 1 4 5 8 6 9 7 10 8 14 9 15 10 16
REMARK H PARENT 1 5 1 6 1 7 7 11 7 12 7 13
REMARK Flexibility Score: inf
ROOT
ATOM      1  C   UNL     1      11.922 -17.428  31.150  1.00  0.00     0.012 C 
ENDROOT
BRANCH   1   2
ATOM      2  C   UNL     1      13.324 -17.164  30.578  1.00  0.00     0.061 C 
BRANCH   2   3
ATOM      3  C   UNL     1      14.318 -18.289  30.905  1.00  0.00     0.258 C 
BRANCH   3   4
ATOM      4  N   UNL     1      15.479 -17.765  31.625  1.00  0.00    -0.358 N 
ATOM      5  H   UNL     1      16.071 -17.191  30.981  1.00  0.00     0.344 HD
ATOM      6  H   UNL     1      15.167 -17.180  32.434  1.00  0.00     0.344 HD
ATOM      7  H   UNL     1      16.048 -18.565  31.985  1.00  0.00     0.344 HD
ENDBRANCH   3   4
ENDBRANCH   2   3
ENDBRANCH   1   2
BRANCH   1   8
ATOM      8  C   UNL     1      11.962 -17.972  32.590  1.00  0.00     0.072 C 
BRANCH   8   9
ATOM      9  C   UNL     1      11.623 -16.884  33.634  1.00  0.00     0.227 C 
BRANCH   9  10
ATOM     10  N   UNL     1      10.844 -17.457  34.737  1.00  0.00    -0.350 N 
ATOM     11  H   UNL     1      10.178 -16.742  35.111  1.00  0.00     0.345 HD
ATOM     12  H   UNL     1      10.286 -18.272  34.390  1.00  0.00     0.345 HD
ATOM     13  H   UNL     1      11.474 -17.777  35.508  1.00  0.00     0.345 HD
ENDBRANCH   9  10
BRANCH   9  14
ATOM     14  C   UNL     1      12.876 -16.241  34.169  1.00  0.00     0.099 C 
ATOM     15  O   UNL     1      12.856 -15.044  34.561  1.00  0.00    -0.544 OA
ATOM     16  O   UNL     1      14.064 -16.961  34.229  1.00  0.00    -0.544 OA
ENDBRANCH   9  14
ENDBRANCH   8   9
ENDBRANCH   1   8
TORSDOF 7
ENDMDL
MODEL 8
REMARK VINA RESULT:    -3.661      6.132      7.973
REMARK INTER + INTRA:          -5.070
REMARK INTER:                  -4.921
REMARK INTRA:                  -0.149
REMARK UNBOUND:                -0.125
REMARK SMILES [NH3+]CCCC[C@@H]([NH3+])C(=O)[O-]
REMARK SMILES IDX 4 1 3 2 2 3 1 4 5 8 6 9 7 10 8 14 9 15 10 16
REMARK H PARENT 1 5 1 6 1 7 7 11 7 12 7 13
REMARK Flexibility Score: inf
ROOT
ATOM      1  C   UNL     1      12.198 -18.386  29.669  1.00  0.00     0.012 C 
ENDROOT
BRANCH   1   2
ATOM      2  C   UNL     1      13.379 -17.495  30.083  1.00  0.00     0.061 C 
BRANCH   2   3
ATOM      3  C   UNL     1      13.941 -17.861  31.466  1.00  0.00     0.258 C 
BRANCH   3   4
ATOM      4  N   UNL     1      15.401 -17.757  31.479  1.00  0.00    -0.358 N 
ATOM      5  H   UNL     1      15.689 -16.789  31.750  1.00  0.00     0.344 HD
ATOM      6  H   UNL     1      15.804 -18.448  32.152  1.00  0.00     0.344 HD
ATOM      7  H   UNL     1      15.767 -17.964  30.522  1.00  0.00     0.344 HD
ENDBRANCH   3   4
ENDBRANCH   2   3
ENDBRANCH   1   2
BRANCH   1   8
ATOM      8  C   UNL     1      12.548 -19.335  28.508  1.00  0.00     0.072 C 
BRANCH   8   9
ATOM      9  C   UNL     1      11.486 -19.301  27.387  1.00  0.00     0.227 C 
BRANCH   9  10
ATOM     10  N   UNL     1      10.305 -18.547  27.823  1.00  0.00    -0.350 N 
ATOM     11  H   UNL     1      10.081 -17.802  27.123  1.00  0.00     0.345 HD
ATOM     12  H   UNL     1       9.481 -19.188  27.891  1.00  0.00     0.345 HD
ATOM     13  H   UNL     1      10.472 -18.104  28.756  1.00  0.00     0.345 HD
ENDBRANCH   9  10
BRANCH   9  14
ATOM     14  C   UNL     1      12.049 -18.693  26.128  1.00  0.00     0.099 C 
ATOM     15  O   UNL     1      12.567 -17.546  26.155  1.00  0.00    -0.544 OA
ATOM     16  O   UNL     1      11.994 -19.392  24.927  1.00  0.00    -0.544 OA
ENDBRANCH   9  14
ENDBRANCH   8   9
ENDBRANCH   1   8
TORSDOF 7
ENDMDL
MODEL 9
REMARK VINA RESULT:    -3.657      8.544      9.629
REMARK INTER + INTRA:          -5.064
REMARK INTER:                  -4.903
REMARK INTRA:                  -0.161
REMARK UNBOUND:                -0.125
REMARK SMILES [NH3+]CCCC[C@@H]([NH3+])C(=O)[O-]
REMARK SMILES IDX 4 1 3 2 2 3 1 4 5 8 6 9 7 10 8 14 9 15 10 16
REMARK H PARENT 1 5 1 6 1 7 7 11 7 12 7 13
REMARK Flexibility Score: inf
ROOT
ATOM      1  C   UNL     1      12.069 -23.385  38.260  1.00  0.00     0.012 C 
ENDROOT
BRANCH   1   2
ATOM      2  C   UNL     1      13.288 -23.390  39.195  1.00  0.00     0.061 C 
BRANCH   2   3
ATOM      3  C   UNL     1      13.692 -21.978  39.649  1.00  0.00     0.258 C 
BRANCH   3   4
ATOM      4  N   UNL     1      13.003 -20.959  38.856  1.00  0.00    -0.358 N 
ATOM      5  H   UNL     1      13.699 -20.299  38.439  1.00  0.00     0.344 HD
ATOM      6  H   UNL     1      12.446 -21.412  38.095  1.00  0.00     0.344 HD
ATOM      7  H   UNL     1      12.356 -20.422  39.476  1.00  0.00     0.344 HD
ENDBRANCH   3   4
ENDBRANCH   2   3
ENDBRANCH   1   2
BRANCH   1   8
ATOM      8  C   UNL     1      12.408 -23.872  36.839  1.00  0.00     0.072 C 
BRANCH   8   9
ATOM      9  C   UNL     1      11.333 -24.827  36.278  1.00  0.00     0.227 C 
BRANCH   9  10
ATOM     10  N   UNL     1      11.794 -25.438  35.025  1.00  0.00    -0.350 N 
ATOM     11  H   UNL     1      11.763 -26.480  35.105  1.00  0.00     0.345 HD
ATOM     12  H   UNL     1      11.163 -25.153  34.240  1.00  0.00     0.345 HD
ATOM     13  H   UNL     1      12.772 -25.138  34.805  1.00  0.00     0.345 HD
ENDBRANCH   9  10
BRANCH   9  14
ATOM     14  C   UNL     1      10.990 -25.902  37.277  1.00  0.00     0.099 C 
ATOM     15  O   UNL     1       9.811 -26.019  37.702  1.00  0.00    -0.544 OA
ATOM     16  O   UNL     1      11.975 -26.768  37.742  1.00  0.00    -0.544 OA
ENDBRANCH   9  14
ENDBRANCH   8   9
ENDBRANCH   1   8
TORSDOF 7
ENDMDL
