MODEL 1
REMARK VINA RESULT:    -5.186      0.000      0.000
REMARK INTER + INTRA:          -5.900
REMARK INTER:                  -5.793
REMARK INTRA:                  -0.107
REMARK UNBOUND:                -0.107
REMARK SMILES COc1cc2ccc(=O)oc2cc1OC
REMARK SMILES IDX 3 1 13 2 12 3 11 4 5 5 4 6 6 7 7 8 8 9 9 10 10 11 2 12 1 13
REMARK SMILES IDX 14 14 15 15
REMARK H PARENT
REMARK Flexibility Score: inf
ROOT
ATOM      1  C   UNL     1      18.539 -45.409   7.786  1.00  0.00     0.161 A 
ATOM      2  C   UNL     1      19.511 -46.247   7.213  1.00  0.00     0.164 A 
ATOM      3  C   UNL     1      20.854 -45.826   7.158  1.00  0.00     0.098 A 
ATOM      4  C   UNL     1      21.225 -44.580   7.670  1.00  0.00     0.142 A 
ATOM      5  C   UNL     1      20.251 -43.738   8.245  1.00  0.00     0.022 A 
ATOM      6  C   UNL     1      18.915 -44.152   8.301  1.00  0.00     0.062 A 
ATOM      7  C   UNL     1      20.655 -42.497   8.747  1.00  0.00     0.019 A 
ATOM      8  C   UNL     1      21.998 -42.130   8.668  1.00  0.00     0.094 A 
ATOM      9  C   UNL     1      22.908 -43.017   8.084  1.00  0.00     0.336 A 
ATOM     10  O   UNL     1      24.125 -42.704   8.002  1.00  0.00    -0.246 OA
ATOM     11  O   UNL     1      22.497 -44.191   7.613  1.00  0.00    -0.423 OA
ENDROOT
BRANCH   1  12
ATOM     12  O   UNL     1      17.209 -45.861   7.823  1.00  0.00    -0.493 OA
ATOM     13  C   UNL     1      16.123 -45.131   8.384  1.00  0.00     0.278 C 
ENDBRANCH   1  12
BRANCH   2  14
ATOM     14  O   UNL     1      19.101 -47.492   6.708  1.00  0.00    -0.493 OA
ATOM     15  C   UNL     1      19.552 -48.053   5.480  1.00  0.00     0.278 C 
ENDBRANCH   2  14
TORSDOF 2
ENDMDL
MODEL 2
REMARK VINA RESULT:    -4.833      1.667      2.311
REMARK INTER + INTRA:          -5.505
REMARK INTER:                  -5.390
REMARK INTRA:                  -0.115
REMARK UNBOUND:                -0.107
REMARK SMILES COc1cc2ccc(=O)oc2cc1OC
REMARK SMILES IDX 3 1 13 2 12 3 11 4 5 5 4 6 6 7 7 8 8 9 9 10 10 11 2 12 1 13
REMARK SMILES IDX 14 14 15 15
REMARK H PARENT
REMARK Flexibility Score: inf
ROOT
ATOM      1  C   UNL     1      19.793 -46.923   6.195  1.00  0.00     0.161 A 
ATOM      2  C   UNL     1      21.146 -47.237   6.406  1.00  0.00     0.164 A 
ATOM      3  C   UNL     1      22.011 -46.272   6.957  1.00  0.00     0.098 A 
ATOM      4  C   UNL     1      21.533 -45.005   7.296  1.00  0.00     0.142 A 
ATOM      5  C   UNL     1      20.175 -44.688   7.086  1.00  0.00     0.022 A 
ATOM      6  C   UNL     1      19.311 -45.643   6.537  1.00  0.00     0.062 A 
ATOM      7  C   UNL     1      19.727 -43.410   7.435  1.00  0.00     0.019 A 
ATOM      8  C   UNL     1      20.626 -42.493   7.978  1.00  0.00     0.094 A 
ATOM      9  C   UNL     1      21.959 -42.878   8.158  1.00  0.00     0.336 A 
ATOM     10  O   UNL     1      22.787 -42.065   8.646  1.00  0.00    -0.246 OA
ATOM     11  O   UNL     1      22.359 -44.100   7.817  1.00  0.00    -0.423 OA
ENDROOT
BRANCH   1  12
ATOM     12  O   UNL     1      18.958 -47.908   5.643  1.00  0.00    -0.493 OA
ATOM     13  C   UNL     1      18.191 -48.836   6.403  1.00  0.00     0.278 C 
ENDBRANCH   1  12
BRANCH   2  14
ATOM     14  O   UNL     1      21.592 -48.521   6.052  1.00  0.00    -0.493 OA
ATOM     15  C   UNL     1      22.298 -48.829   4.855  1.00  0.00     0.278 C 
ENDBRANCH   2  14
TORSDOF 2
ENDMDL
MODEL 3
REMARK VINA RESULT:    -4.707      1.157      2.884
REMARK INTER + INTRA:          -5.364
REMARK INTER:                  -5.259
REMARK INTRA:                  -0.105
REMARK UNBOUND:                -0.107
REMARK SMILES COc1cc2ccc(=O)oc2cc1OC
REMARK SMILES IDX 3 1 13 2 12 3 11 4 5 5 4 6 6 7 7 8 8 9 9 10 10 11 2 12 1 13
REMARK SMILES IDX 14 14 15 15
REMARK H PARENT
REMARK Flexibility Score: inf
ROOT
ATOM      1  C   UNL     1      20.016 -45.810   7.034  1.00  0.00     0.161 A 
ATOM      2  C   UNL     1      19.297 -44.648   7.361  1.00  0.00     0.164 A 
ATOM      3  C   UNL     1      19.984 -43.499   7.800  1.00  0.00     0.098 A 
ATOM      4  C   UNL     1      21.376 -43.508   7.912  1.00  0.00     0.142 A 
ATOM      5  C   UNL     1      22.100 -44.673   7.584  1.00  0.00     0.022 A 
ATOM      6  C   UNL     1      21.421 -45.818   7.149  1.00  0.00     0.062 A 
ATOM      7  C   UNL     1      23.492 -44.651   7.708  1.00  0.00     0.019 A 
ATOM      8  C   UNL     1      24.122 -43.487   8.146  1.00  0.00     0.094 A 
ATOM      9  C   UNL     1      23.340 -42.368   8.453  1.00  0.00     0.336 A 
ATOM     10  O   UNL     1      23.889 -41.308   8.852  1.00  0.00    -0.246 OA
ATOM     11  O   UNL     1      22.016 -42.417   8.327  1.00  0.00    -0.423 OA
ENDROOT
BRANCH   1  12
ATOM     12  O   UNL     1      19.299 -46.937   6.601  1.00  0.00    -0.493 OA
ATOM     13  C   UNL     1      19.701 -47.791   5.535  1.00  0.00     0.278 C 
ENDBRANCH   1  12
BRANCH   2  14
ATOM     14  O   UNL     1      17.898 -44.675   7.236  1.00  0.00    -0.493 OA
ATOM     15  C   UNL     1      16.999 -44.984   8.296  1.00  0.00     0.278 C 
ENDBRANCH   2  14
TORSDOF 2
ENDMDL
MODEL 4
REMARK VINA RESULT:    -4.602      1.582      5.487
REMARK INTER + INTRA:          -5.247
REMARK INTER:                  -5.167
REMARK INTRA:                  -0.080
REMARK UNBOUND:                -0.107
REMARK SMILES COc1cc2ccc(=O)oc2cc1OC
REMARK SMILES IDX 3 1 13 2 12 3 11 4 5 5 4 6 6 7 7 8 8 9 9 10 10 11 2 12 1 13
REMARK SMILES IDX 14 14 15 15
REMARK H PARENT
REMARK Flexibility Score: inf
ROOT
ATOM      1  C   UNL     1      22.066 -44.842   7.654  1.00  0.00     0.161 A 
ATOM      2  C   UNL     1      21.546 -43.555   7.877  1.00  0.00     0.164 A 
ATOM      3  C   UNL     1      20.160 -43.383   8.063  1.00  0.00     0.098 A 
ATOM      4  C   UNL     1      19.300 -44.484   8.029  1.00  0.00     0.142 A 
ATOM      5  C   UNL     1      19.821 -45.775   7.806  1.00  0.00     0.022 A 
ATOM      6  C   UNL     1      21.197 -45.951   7.619  1.00  0.00     0.062 A 
ATOM      7  C   UNL     1      18.934 -46.855   7.776  1.00  0.00     0.019 A 
ATOM      8  C   UNL     1      17.571 -46.629   7.968  1.00  0.00     0.094 A 
ATOM      9  C   UNL     1      17.127 -45.320   8.185  1.00  0.00     0.336 A 
ATOM     10  O   UNL     1      15.901 -45.094   8.359  1.00  0.00    -0.246 OA
ATOM     11  O   UNL     1      17.992 -44.310   8.207  1.00  0.00    -0.423 OA
ENDROOT
BRANCH   1  12
ATOM     12  O   UNL     1      23.452 -44.976   7.471  1.00  0.00    -0.493 OA
ATOM     13  C   UNL     1      24.075 -46.058   6.786  1.00  0.00     0.278 C 
ENDBRANCH   1  12
BRANCH   2  14
ATOM     14  O   UNL     1      22.440 -42.472   7.904  1.00  0.00    -0.493 OA
ATOM     15  C   UNL     1      23.101 -42.001   9.073  1.00  0.00     0.278 C 
ENDBRANCH   2  14
TORSDOF 2
ENDMDL
MODEL 5
REMARK VINA RESULT:    -4.482      2.055      4.379
REMARK INTER + INTRA:          -5.113
REMARK INTER:                  -4.991
REMARK INTRA:                  -0.121
REMARK UNBOUND:                -0.107
REMARK SMILES COc1cc2ccc(=O)oc2cc1OC
REMARK SMILES IDX 3 1 13 2 12 3 11 4 5 5 4 6 6 7 7 8 8 9 9 10 10 11 2 12 1 13
REMARK SMILES IDX 14 14 15 15
REMARK H PARENT
REMARK Flexibility Score: inf
ROOT
ATOM      1  C   UNL     1      18.913 -45.387   7.387  1.00  0.00     0.161 A 
ATOM      2  C   UNL     1      20.138 -44.829   7.792  1.00  0.00     0.164 A 
ATOM      3  C   UNL     1      21.347 -45.430   7.392  1.00  0.00     0.098 A 
ATOM      4  C   UNL     1      21.337 -46.577   6.595  1.00  0.00     0.142 A 
ATOM      5  C   UNL     1      20.109 -47.138   6.187  1.00  0.00     0.022 A 
ATOM      6  C   UNL     1      18.904 -46.544   6.583  1.00  0.00     0.062 A 
ATOM      7  C   UNL     1      20.133 -48.287   5.391  1.00  0.00     0.019 A 
ATOM      8  C   UNL     1      21.359 -48.840   5.023  1.00  0.00     0.094 A 
ATOM      9  C   UNL     1      22.537 -48.229   5.464  1.00  0.00     0.336 A 
ATOM     10  O   UNL     1      23.654 -48.714   5.145  1.00  0.00    -0.246 OA
ATOM     11  O   UNL     1      22.486 -47.137   6.222  1.00  0.00    -0.423 OA
ENDROOT
BRANCH   1  12
ATOM     12  O   UNL     1      17.727 -44.762   7.804  1.00  0.00    -0.493 OA
ATOM     13  C   UNL     1      16.591 -45.448   8.321  1.00  0.00     0.278 C 
ENDBRANCH   1  12
BRANCH   2  14
ATOM     14  O   UNL     1      20.110 -43.676   8.593  1.00  0.00    -0.493 OA
ATOM     15  C   UNL     1      20.723 -42.438   8.249  1.00  0.00     0.278 C 
ENDBRANCH   2  14
TORSDOF 2
ENDMDL
MODEL 6
REMARK VINA RESULT:    -4.268      2.272      4.839
REMARK INTER + INTRA:          -4.875
REMARK INTER:                  -4.751
REMARK INTRA:                  -0.123
REMARK UNBOUND:                -0.107
REMARK SMILES COc1cc2ccc(=O)oc2cc1OC
REMARK SMILES IDX 3 1 13 2 12 3 11 4 5 5 4 6 6 7 7 8 8 9 9 10 10 11 2 12 1 13
REMARK SMILES IDX 14 14 15 15
REMARK H PARENT
REMARK Flexibility Score: inf
ROOT
ATOM      1  C   UNL     1      17.852 -45.558   7.971  1.00  0.00     0.161 A 
ATOM      2  C   UNL     1      18.895 -45.075   7.162  1.00  0.00     0.164 A 
ATOM      3  C   UNL     1      19.825 -45.975   6.607  1.00  0.00     0.098 A 
ATOM      4  C   UNL     1      19.717 -47.346   6.856  1.00  0.00     0.142 A 
ATOM      5  C   UNL     1      18.671 -47.832   7.667  1.00  0.00     0.022 A 
ATOM      6  C   UNL     1      17.745 -46.940   8.222  1.00  0.00     0.062 A 
ATOM      7  C   UNL     1      18.591 -49.209   7.898  1.00  0.00     0.019 A 
ATOM      8  C   UNL     1      19.537 -50.056   7.323  1.00  0.00     0.094 A 
ATOM      9  C   UNL     1      20.547 -49.503   6.528  1.00  0.00     0.336 A 
ATOM     10  O   UNL     1      21.412 -50.250   6.001  1.00  0.00    -0.246 OA
ATOM     11  O   UNL     1      20.601 -48.189   6.326  1.00  0.00    -0.423 OA
ENDROOT
BRANCH   1  12
ATOM     12  O   UNL     1      16.944 -44.631   8.509  1.00  0.00    -0.493 OA
ATOM     13  C   UNL     1      15.533 -44.820   8.562  1.00  0.00     0.278 C 
ENDBRANCH   1  12
BRANCH   2  14
ATOM     14  O   UNL     1      18.973 -43.691   6.934  1.00  0.00    -0.493 OA
ATOM     15  C   UNL     1      20.031 -42.856   7.391  1.00  0.00     0.278 C 
ENDBRANCH   2  14
TORSDOF 2
ENDMDL
MODEL 7
REMARK VINA RESULT:    -4.210      2.216      4.653
REMARK INTER + INTRA:          -4.809
REMARK INTER:                  -4.673
REMARK INTRA:                  -0.137
REMARK UNBOUND:                -0.107
REMARK SMILES COc1cc2ccc(=O)oc2cc1OC
REMARK SMILES IDX 3 1 13 2 12 3 11 4 5 5 4 6 6 7 7 8 8 9 9 10 10 11 2 12 1 13
REMARK SMILES IDX 14 14 15 15
REMARK H PARENT
REMARK Flexibility Score: inf
ROOT
ATOM      1  C   UNL     1      20.478 -44.902   7.757  1.00  0.00     0.161 A 
ATOM      2  C   UNL     1      19.371 -45.446   7.085  1.00  0.00     0.164 A 
ATOM      3  C   UNL     1      19.546 -46.547   6.225  1.00  0.00     0.098 A 
ATOM      4  C   UNL     1      20.814 -47.102   6.036  1.00  0.00     0.142 A 
ATOM      5  C   UNL     1      21.926 -46.557   6.710  1.00  0.00     0.022 A 
ATOM      6  C   UNL     1      21.757 -45.462   7.565  1.00  0.00     0.062 A 
ATOM      7  C   UNL     1      23.182 -47.135   6.499  1.00  0.00     0.019 A 
ATOM      8  C   UNL     1      23.299 -48.225   5.637  1.00  0.00     0.094 A 
ATOM      9  C   UNL     1      22.151 -48.712   5.003  1.00  0.00     0.336 A 
ATOM     10  O   UNL     1      22.235 -49.694   4.220  1.00  0.00    -0.246 OA
ATOM     11  O   UNL     1      20.968 -48.143   5.221  1.00  0.00    -0.423 OA
ENDROOT
BRANCH   1  12
ATOM     12  O   UNL     1      20.267 -43.803   8.607  1.00  0.00    -0.493 OA
ATOM     13  C   UNL     1      20.734 -42.482   8.351  1.00  0.00     0.278 C 
ENDBRANCH   1  12
BRANCH   2  14
ATOM     14  O   UNL     1      18.111 -44.862   7.299  1.00  0.00    -0.493 OA
ATOM     15  C   UNL     1      17.079 -45.437   8.092  1.00  0.00     0.278 C 
ENDBRANCH   2  14
TORSDOF 2
ENDMDL
MODEL 8
REMARK VINA RESULT:    -3.732      2.162      3.582
REMARK INTER + INTRA:          -4.276
REMARK INTER:                  -4.117
REMARK INTRA:                  -0.159
REMARK UNBOUND:                -0.107
REMARK SMILES COc1cc2ccc(=O)oc2cc1OC
REMARK SMILES IDX 3 1 13 2 12 3 11 4 5 5 4 6 6 7 7 8 8 9 9 10 10 11 2 12 1 13
REMARK SMILES IDX 14 14 15 15
REMARK H PARENT
REMARK Flexibility Score: inf
ROOT
ATOM      1  C   UNL     1      21.370 -48.171   7.498  1.00  0.00     0.161 A 
ATOM      2  C   UNL     1      20.051 -47.889   7.892  1.00  0.00     0.164 A 
ATOM      3  C   UNL     1      19.684 -46.568   8.215  1.00  0.00     0.098 A 
ATOM      4  C   UNL     1      20.622 -45.536   8.144  1.00  0.00     0.142 A 
ATOM      5  C   UNL     1      21.946 -45.817   7.748  1.00  0.00     0.022 A 
ATOM      6  C   UNL     1      22.316 -47.129   7.428  1.00  0.00     0.062 A 
ATOM      7  C   UNL     1      22.862 -44.762   7.689  1.00  0.00     0.019 A 
ATOM      8  C   UNL     1      22.445 -43.473   8.018  1.00  0.00     0.094 A 
ATOM      9  C   UNL     1      21.116 -43.269   8.402  1.00  0.00     0.336 A 
ATOM     10  O   UNL     1      20.719 -42.114   8.705  1.00  0.00    -0.246 OA
ATOM     11  O   UNL     1      20.265 -44.291   8.451  1.00  0.00    -0.423 OA
ENDROOT
BRANCH   1  12
ATOM     12  O   UNL     1      21.702 -49.499   7.184  1.00  0.00    -0.493 OA
ATOM     13  C   UNL     1      21.760 -50.027   5.863  1.00  0.00     0.278 C 
ENDBRANCH   1  12
BRANCH   2  14
ATOM     14  O   UNL     1      19.134 -48.952   7.952  1.00  0.00    -0.493 OA
ATOM     15  C   UNL     1      18.193 -49.264   6.931  1.00  0.00     0.278 C 
ENDBRANCH   2  14
TORSDOF 2
ENDMDL
