MODEL 1
REMARK VINA RESULT:    -5.356      0.000      0.000
REMARK INTER + INTRA:          -6.278
REMARK INTER:                  -6.138
REMARK INTRA:                  -0.139
REMARK UNBOUND:                -0.139
REMARK SMILES O=C([O-])C=Cc1ccc(O)cc1
REMARK SMILES IDX 6 1 7 2 12 3 8 4 11 5 9 6 5 7 4 8 2 9 1 10 3 11 10 12
REMARK H PARENT 10 13
REMARK Flexibility Score: inf
ROOT
ATOM      1  C   UNL     1     -12.887  -7.266  37.708  1.00  0.00    -0.025 A 
ATOM      2  C   UNL     1     -13.916  -6.815  36.863  1.00  0.00     0.012 A 
ATOM      3  C   UNL     1     -12.926  -6.917  39.074  1.00  0.00     0.012 A 
ATOM      4  C   UNL     1     -14.974  -6.055  37.374  1.00  0.00     0.047 A 
ATOM      5  C   UNL     1     -13.986  -6.157  39.579  1.00  0.00     0.047 A 
ATOM      6  C   UNL     1     -15.012  -5.726  38.733  1.00  0.00     0.115 A 
ENDROOT
BRANCH   1   7
ATOM      7  C   UNL     1     -11.781  -8.061  37.117  1.00  0.00     0.010 C 
ATOM      8  C   UNL     1     -10.954  -8.833  37.834  1.00  0.00     0.025 C 
BRANCH   8   9
ATOM      9  C   UNL     1      -9.874  -9.618  37.212  1.00  0.00     0.064 C 
ATOM     10  O   UNL     1      -9.126 -10.361  37.903  1.00  0.00    -0.545 OA
ATOM     11  O   UNL     1      -9.678  -9.543  35.839  1.00  0.00    -0.545 OA
ENDBRANCH   8   9
ENDBRANCH   1   7
BRANCH   6  12
ATOM     12  O   UNL     1     -16.060  -4.970  39.253  1.00  0.00    -0.508 OA
ATOM     13  H   UNL     1     -15.890  -4.161  39.839  1.00  0.00     0.293 HD
ENDBRANCH   6  12
TORSDOF 3
ENDMDL
MODEL 2
REMARK VINA RESULT:    -5.352      0.072      1.399
REMARK INTER + INTRA:          -6.273
REMARK INTER:                  -6.121
REMARK INTRA:                  -0.152
REMARK UNBOUND:                -0.139
REMARK SMILES O=C([O-])C=Cc1ccc(O)cc1
REMARK SMILES IDX 6 1 7 2 12 3 8 4 11 5 9 6 5 7 4 8 2 9 1 10 3 11 10 12
REMARK H PARENT 10 13
REMARK Flexibility Score: inf
ROOT
ATOM      1  C   UNL     1     -12.899  -7.250  37.593  1.00  0.00    -0.025 A 
ATOM      2  C   UNL     1     -12.889  -6.945  38.965  1.00  0.00     0.012 A 
ATOM      3  C   UNL     1     -13.976  -6.797  36.804  1.00  0.00     0.012 A 
ATOM      4  C   UNL     1     -13.916  -6.184  39.532  1.00  0.00     0.047 A 
ATOM      5  C   UNL     1     -15.001  -6.036  37.375  1.00  0.00     0.047 A 
ATOM      6  C   UNL     1     -14.973  -5.725  38.738  1.00  0.00     0.115 A 
ENDROOT
BRANCH   1   7
ATOM      7  C   UNL     1     -11.792  -8.070  37.040  1.00  0.00     0.010 C 
ATOM      8  C   UNL     1     -10.959  -8.801  37.793  1.00  0.00     0.025 C 
BRANCH   8   9
ATOM      9  C   UNL     1      -9.877  -9.612  37.208  1.00  0.00     0.064 C 
ATOM     10  O   UNL     1      -9.159 -10.357  37.927  1.00  0.00    -0.545 OA
ATOM     11  O   UNL     1      -9.646  -9.557  35.840  1.00  0.00    -0.545 OA
ENDBRANCH   8   9
ENDBRANCH   1   7
BRANCH   6  12
ATOM     12  O   UNL     1     -16.002  -4.966  39.291  1.00  0.00    -0.508 OA
ATOM     13  H   UNL     1     -16.546  -4.322  38.729  1.00  0.00     0.293 HD
ENDBRANCH   6  12
TORSDOF 3
ENDMDL
MODEL 3
REMARK VINA RESULT:    -5.298      1.143      5.734
REMARK INTER + INTRA:          -6.212
REMARK INTER:                  -6.061
REMARK INTRA:                  -0.151
REMARK UNBOUND:                -0.139
REMARK SMILES O=C([O-])C=Cc1ccc(O)cc1
REMARK SMILES IDX 6 1 7 2 12 3 8 4 11 5 9 6 5 7 4 8 2 9 1 10 3 11 10 12
REMARK H PARENT 10 13
REMARK Flexibility Score: inf
ROOT
ATOM      1  C   UNL     1     -11.758  -8.059  38.386  1.00  0.00    -0.025 A 
ATOM      2  C   UNL     1     -11.422  -8.231  37.033  1.00  0.00     0.012 A 
ATOM      3  C   UNL     1     -11.033  -8.772  39.363  1.00  0.00     0.012 A 
ATOM      4  C   UNL     1     -10.370  -9.074  36.663  1.00  0.00     0.047 A 
ATOM      5  C   UNL     1      -9.982  -9.614  38.988  1.00  0.00     0.047 A 
ATOM      6  C   UNL     1      -9.645  -9.766  37.640  1.00  0.00     0.115 A 
ENDROOT
BRANCH   1   7
ATOM      7  C   UNL     1     -12.889  -7.160  38.728  1.00  0.00     0.010 C 
ATOM      8  C   UNL     1     -13.796  -6.733  37.839  1.00  0.00     0.025 C 
BRANCH   8   9
ATOM      9  C   UNL     1     -14.913  -5.850  38.217  1.00  0.00     0.064 C 
ATOM     10  O   UNL     1     -14.705  -4.684  38.647  1.00  0.00    -0.545 OA
ATOM     11  O   UNL     1     -16.218  -6.309  38.094  1.00  0.00    -0.545 OA
ENDBRANCH   8   9
ENDBRANCH   1   7
BRANCH   6  12
ATOM     12  O   UNL     1      -8.595 -10.609  37.283  1.00  0.00    -0.508 OA
ATOM     13  H   UNL     1      -8.704 -11.617  37.278  1.00  0.00     0.293 HD
ENDBRANCH   6  12
TORSDOF 3
ENDMDL
MODEL 4
REMARK VINA RESULT:    -5.274      1.153      5.901
REMARK INTER + INTRA:          -6.183
REMARK INTER:                  -6.045
REMARK INTRA:                  -0.139
REMARK UNBOUND:                -0.139
REMARK SMILES O=C([O-])C=Cc1ccc(O)cc1
REMARK SMILES IDX 6 1 7 2 12 3 8 4 11 5 9 6 5 7 4 8 2 9 1 10 3 11 10 12
REMARK H PARENT 10 13
REMARK Flexibility Score: inf
ROOT
ATOM      1  C   UNL     1     -11.768  -8.100  38.328  1.00  0.00    -0.025 A 
ATOM      2  C   UNL     1     -11.051  -8.720  39.367  1.00  0.00     0.012 A 
ATOM      3  C   UNL     1     -11.373  -8.335  36.995  1.00  0.00     0.012 A 
ATOM      4  C   UNL     1      -9.981  -9.574  39.081  1.00  0.00     0.047 A 
ATOM      5  C   UNL     1     -10.302  -9.189  36.715  1.00  0.00     0.047 A 
ATOM      6  C   UNL     1      -9.606  -9.813  37.754  1.00  0.00     0.115 A 
ENDROOT
BRANCH   1   7
ATOM      7  C   UNL     1     -12.890  -7.194  38.683  1.00  0.00     0.010 C 
ATOM      8  C   UNL     1     -13.773  -6.720  37.793  1.00  0.00     0.025 C 
BRANCH   8   9
ATOM      9  C   UNL     1     -14.881  -5.832  38.184  1.00  0.00     0.064 C 
ATOM     10  O   UNL     1     -14.662  -4.687  38.662  1.00  0.00    -0.545 OA
ATOM     11  O   UNL     1     -16.192  -6.262  38.018  1.00  0.00    -0.545 OA
ENDBRANCH   8   9
ENDBRANCH   1   7
BRANCH   6  12
ATOM     12  O   UNL     1      -8.542 -10.661  37.457  1.00  0.00    -0.508 OA
ATOM     13  H   UNL     1      -7.599 -10.308  37.344  1.00  0.00     0.293 HD
ENDBRANCH   6  12
TORSDOF 3
ENDMDL
MODEL 5
REMARK VINA RESULT:    -5.256      1.811      2.475
REMARK INTER + INTRA:          -6.163
REMARK INTER:                  -6.015
REMARK INTRA:                  -0.148
REMARK UNBOUND:                -0.139
REMARK SMILES O=C([O-])C=Cc1ccc(O)cc1
REMARK SMILES IDX 6 1 7 2 12 3 8 4 11 5 9 6 5 7 4 8 2 9 1 10 3 11 10 12
REMARK H PARENT 10 13
REMARK Flexibility Score: inf
ROOT
ATOM      1  C   UNL     1     -12.067  -7.752  38.882  1.00  0.00    -0.025 A 
ATOM      2  C   UNL     1     -12.234  -7.951  37.501  1.00  0.00     0.012 A 
ATOM      3  C   UNL     1     -12.895  -6.820  39.540  1.00  0.00     0.012 A 
ATOM      4  C   UNL     1     -13.222  -7.255  36.796  1.00  0.00     0.047 A 
ATOM      5  C   UNL     1     -13.881  -6.126  38.832  1.00  0.00     0.047 A 
ATOM      6  C   UNL     1     -14.049  -6.342  37.461  1.00  0.00     0.115 A 
ENDROOT
BRANCH   1   7
ATOM      7  C   UNL     1     -10.999  -8.508  39.583  1.00  0.00     0.010 C 
ATOM      8  C   UNL     1     -10.524  -9.689  39.164  1.00  0.00     0.025 C 
BRANCH   8   9
ATOM      9  C   UNL     1      -9.454 -10.405  39.879  1.00  0.00     0.064 C 
ATOM     10  O   UNL     1      -8.367 -10.692  39.310  1.00  0.00    -0.545 OA
ATOM     11  O   UNL     1      -9.644 -10.767  41.207  1.00  0.00    -0.545 OA
ENDBRANCH   8   9
ENDBRANCH   1   7
BRANCH   6  12
ATOM     12  O   UNL     1     -15.036  -5.642  36.770  1.00  0.00    -0.508 OA
ATOM     13  H   UNL     1     -14.899  -5.342  35.812  1.00  0.00     0.293 HD
ENDBRANCH   6  12
TORSDOF 3
ENDMDL
MODEL 6
REMARK VINA RESULT:    -5.178      1.625      5.830
REMARK INTER + INTRA:          -6.075
REMARK INTER:                  -5.922
REMARK INTRA:                  -0.153
REMARK UNBOUND:                -0.139
REMARK SMILES O=C([O-])C=Cc1ccc(O)cc1
REMARK SMILES IDX 6 1 7 2 12 3 8 4 11 5 9 6 5 7 4 8 2 9 1 10 3 11 10 12
REMARK H PARENT 10 13
REMARK Flexibility Score: inf
ROOT
ATOM      1  C   UNL     1     -11.881  -8.226  38.386  1.00  0.00    -0.025 A 
ATOM      2  C   UNL     1     -11.501  -8.207  39.740  1.00  0.00     0.012 A 
ATOM      3  C   UNL     1     -11.238  -9.126  37.512  1.00  0.00     0.012 A 
ATOM      4  C   UNL     1     -10.521  -9.083  40.215  1.00  0.00     0.047 A 
ATOM      5  C   UNL     1     -10.257 -10.000  37.992  1.00  0.00     0.047 A 
ATOM      6  C   UNL     1      -9.898  -9.983  39.343  1.00  0.00     0.115 A 
ENDROOT
BRANCH   1   7
ATOM      7  C   UNL     1     -12.920  -7.270  37.928  1.00  0.00     0.010 C 
ATOM      8  C   UNL     1     -13.642  -6.501  38.754  1.00  0.00     0.025 C 
BRANCH   8   9
ATOM      9  C   UNL     1     -14.657  -5.554  38.262  1.00  0.00     0.064 C 
ATOM     10  O   UNL     1     -15.201  -5.709  37.136  1.00  0.00    -0.545 OA
ATOM     11  O   UNL     1     -15.025  -4.474  39.054  1.00  0.00    -0.545 OA
ENDBRANCH   8   9
ENDBRANCH   1   7
BRANCH   6  12
ATOM     12  O   UNL     1      -8.920 -10.860  39.806  1.00  0.00    -0.508 OA
ATOM     13  H   UNL     1      -8.235 -11.268  39.179  1.00  0.00     0.293 HD
ENDBRANCH   6  12
TORSDOF 3
ENDMDL
MODEL 7
REMARK VINA RESULT:    -5.101      3.447      4.759
REMARK INTER + INTRA:          -5.986
REMARK INTER:                  -5.832
REMARK INTRA:                  -0.154
REMARK UNBOUND:                -0.139
REMARK SMILES O=C([O-])C=Cc1ccc(O)cc1
REMARK SMILES IDX 6 1 7 2 12 3 8 4 11 5 9 6 5 7 4 8 2 9 1 10 3 11 10 12
REMARK H PARENT 10 13
REMARK Flexibility Score: inf
ROOT
ATOM      1  C   UNL     1     -10.588  -9.449  39.365  1.00  0.00    -0.025 A 
ATOM      2  C   UNL     1     -11.371  -8.373  39.816  1.00  0.00     0.012 A 
ATOM      3  C   UNL     1     -10.611  -9.779  37.994  1.00  0.00     0.012 A 
ATOM      4  C   UNL     1     -12.139  -7.626  38.917  1.00  0.00     0.047 A 
ATOM      5  C   UNL     1     -11.381  -9.029  37.099  1.00  0.00     0.047 A 
ATOM      6  C   UNL     1     -12.144  -7.951  37.556  1.00  0.00     0.115 A 
ENDROOT
BRANCH   1   7
ATOM      7  C   UNL     1      -9.797 -10.217  40.359  1.00  0.00     0.010 C 
ATOM      8  C   UNL     1      -9.771  -9.934  41.669  1.00  0.00     0.025 C 
BRANCH   8   9
ATOM      9  C   UNL     1      -8.983 -10.726  42.628  1.00  0.00     0.064 C 
ATOM     10  O   UNL     1      -8.427 -11.803  42.283  1.00  0.00    -0.545 OA
ATOM     11  O   UNL     1      -8.847 -10.277  43.935  1.00  0.00    -0.545 OA
ENDBRANCH   8   9
ENDBRANCH   1   7
BRANCH   6  12
ATOM     12  O   UNL     1     -12.906  -7.215  36.651  1.00  0.00    -0.508 OA
ATOM     13  H   UNL     1     -13.833  -7.514  36.374  1.00  0.00     0.293 HD
ENDBRANCH   6  12
TORSDOF 3
ENDMDL
MODEL 8
REMARK VINA RESULT:    -5.003      2.689      5.587
REMARK INTER + INTRA:          -5.873
REMARK INTER:                  -5.731
REMARK INTRA:                  -0.142
REMARK UNBOUND:                -0.139
REMARK SMILES O=C([O-])C=Cc1ccc(O)cc1
REMARK SMILES IDX 6 1 7 2 12 3 8 4 11 5 9 6 5 7 4 8 2 9 1 10 3 11 10 12
REMARK H PARENT 10 13
REMARK Flexibility Score: inf
ROOT
ATOM      1  C   UNL     1     -11.355  -8.373  39.401  1.00  0.00    -0.025 A 
ATOM      2  C   UNL     1     -10.632  -9.507  38.994  1.00  0.00     0.012 A 
ATOM      3  C   UNL     1     -11.287  -7.971  40.751  1.00  0.00     0.012 A 
ATOM      4  C   UNL     1      -9.839 -10.211  39.906  1.00  0.00     0.047 A 
ATOM      5  C   UNL     1     -10.493  -8.678  41.660  1.00  0.00     0.047 A 
ATOM      6  C   UNL     1      -9.766  -9.796  41.241  1.00  0.00     0.115 A 
ENDROOT
BRANCH   1   7
ATOM      7  C   UNL     1     -12.189  -7.665  38.397  1.00  0.00     0.010 C 
ATOM      8  C   UNL     1     -13.255  -6.916  38.710  1.00  0.00     0.025 C 
BRANCH   8   9
ATOM      9  C   UNL     1     -14.053  -6.218  37.688  1.00  0.00     0.064 C 
ATOM     10  O   UNL     1     -14.762  -5.219  37.984  1.00  0.00    -0.545 OA
ATOM     11  O   UNL     1     -14.022  -6.666  36.374  1.00  0.00    -0.545 OA
ENDBRANCH   8   9
ENDBRANCH   1   7
BRANCH   6  12
ATOM     12  O   UNL     1      -8.980 -10.489  42.159  1.00  0.00    -0.508 OA
ATOM     13  H   UNL     1      -7.995 -10.658  41.992  1.00  0.00     0.293 HD
ENDBRANCH   6  12
TORSDOF 3
ENDMDL
MODEL 9
REMARK VINA RESULT:    -4.929      3.942      6.752
REMARK INTER + INTRA:          -5.788
REMARK INTER:                  -5.648
REMARK INTRA:                  -0.140
REMARK UNBOUND:                -0.139
REMARK SMILES O=C([O-])C=Cc1ccc(O)cc1
REMARK SMILES IDX 6 1 7 2 12 3 8 4 11 5 9 6 5 7 4 8 2 9 1 10 3 11 10 12
REMARK H PARENT 10 13
REMARK Flexibility Score: inf
ROOT
ATOM      1  C   UNL     1     -16.209  -6.135  40.484  1.00  0.00    -0.025 A 
ATOM      2  C   UNL     1     -17.000  -6.435  39.361  1.00  0.00     0.012 A 
ATOM      3  C   UNL     1     -14.851  -5.807  40.290  1.00  0.00     0.012 A 
ATOM      4  C   UNL     1     -16.456  -6.384  38.074  1.00  0.00     0.047 A 
ATOM      5  C   UNL     1     -14.312  -5.758  39.001  1.00  0.00     0.047 A 
ATOM      6  C   UNL     1     -15.111  -6.043  37.891  1.00  0.00     0.115 A 
ENDROOT
BRANCH   1   7
ATOM      7  C   UNL     1     -16.829  -6.213  41.830  1.00  0.00     0.010 C 
ATOM      8  C   UNL     1     -16.168  -6.588  42.934  1.00  0.00     0.025 C 
BRANCH   8   9
ATOM      9  C   UNL     1     -16.814  -6.642  44.257  1.00  0.00     0.064 C 
ATOM     10  O   UNL     1     -17.811  -7.384  44.466  1.00  0.00    -0.545 OA
ATOM     11  O   UNL     1     -16.314  -5.864  45.293  1.00  0.00    -0.545 OA
ENDBRANCH   8   9
ENDBRANCH   1   7
BRANCH   6  12
ATOM     12  O   UNL     1     -14.559  -5.989  36.613  1.00  0.00    -0.508 OA
ATOM     13  H   UNL     1     -15.099  -6.237  35.792  1.00  0.00     0.293 HD
ENDBRANCH   6  12
TORSDOF 3
ENDMDL
