MODEL 1
REMARK VINA RESULT:    -4.452      0.000      0.000
REMARK INTER + INTRA:         -16.036
REMARK INTER:                 -11.739
REMARK INTRA:                  -4.298
REMARK UNBOUND:                -4.298
REMARK SMILES CCCCCCCCCCCCCCCCCCCCCCCCCCCCCC(=O)[O-]
REMARK SMILES IDX 16 1 17 2 18 3 19 4 20 5 21 6 22 7 23 8 24 9 25 10 26 11
REMARK SMILES IDX 27 12 28 13 29 14 30 15 31 16 32 17 15 18 14 19 13 20 12 21
REMARK SMILES IDX 11 22 10 23 9 24 8 25 7 26 6 27 5 28 4 29 3 30 2 31 1 32
REMARK H PARENT
REMARK Flexibility Score: inf
ROOT
ATOM      1  C   UNL     1      27.453  12.062 -10.893  1.00  0.00     0.000 C 
ENDROOT
BRANCH   1   2
ATOM      2  C   UNL     1      28.835  12.648 -11.245  1.00  0.00     0.000 C 
BRANCH   2   3
ATOM      3  C   UNL     1      30.038  11.850 -10.710  1.00  0.00     0.000 C 
BRANCH   3   4
ATOM      4  C   UNL     1      29.618  10.547 -10.009  1.00  0.00     0.000 C 
BRANCH   4   5
ATOM      5  C   UNL     1      30.342   9.311 -10.570  1.00  0.00     0.000 C 
BRANCH   5   6
ATOM      6  C   UNL     1      30.368   9.289 -12.108  1.00  0.00     0.000 C 
BRANCH   6   7
ATOM      7  C   UNL     1      29.020   8.869 -12.725  1.00  0.00     0.000 C 
BRANCH   7   8
ATOM      8  C   UNL     1      29.083   7.651 -13.665  1.00  0.00     0.000 C 
BRANCH   8   9
ATOM      9  C   UNL     1      30.227   6.686 -13.321  1.00  0.00     0.000 C 
BRANCH   9  10
ATOM     10  C   UNL     1      30.357   5.585 -14.384  1.00  0.00     0.000 C 
BRANCH  10  11
ATOM     11  C   UNL     1      30.181   6.126 -15.817  1.00  0.00     0.000 C 
BRANCH  11  12
ATOM     12  C   UNL     1      29.127   5.369 -16.649  1.00  0.00     0.000 C 
BRANCH  12  13
ATOM     13  C   UNL     1      28.350   6.256 -17.645  1.00  0.00     0.006 C 
BRANCH  13  14
ATOM     14  C   UNL     1      28.220   5.640 -19.048  1.00  0.00     0.053 C 
BRANCH  14  15
ATOM     15  C   UNL     1      27.610   4.272 -19.001  1.00  0.00     0.041 C 
ATOM     16  O   UNL     1      28.035   3.362 -19.760  1.00  0.00    -0.550 OA
ATOM     17  O   UNL     1      26.556   4.008 -18.135  1.00  0.00    -0.550 OA
ENDBRANCH  14  15
ENDBRANCH  13  14
ENDBRANCH  12  13
ENDBRANCH  11  12
ENDBRANCH  10  11
ENDBRANCH   9  10
ENDBRANCH   8   9
ENDBRANCH   7   8
ENDBRANCH   6   7
ENDBRANCH   5   6
ENDBRANCH   4   5
ENDBRANCH   3   4
ENDBRANCH   2   3
ENDBRANCH   1   2
BRANCH   1  18
ATOM     18  C   UNL     1      26.248  12.919 -11.335  1.00  0.00     0.000 C 
BRANCH  18  19
ATOM     19  C   UNL     1      26.404  14.434 -11.091  1.00  0.00     0.000 C 
BRANCH  19  20
ATOM     20  C   UNL     1      26.388  15.302 -12.365  1.00  0.00     0.000 C 
BRANCH  20  21
ATOM     21  C   UNL     1      27.736  15.955 -12.729  1.00  0.00     0.000 C 
BRANCH  21  22
ATOM     22  C   UNL     1      28.682  15.078 -13.570  1.00  0.00     0.000 C 
BRANCH  22  23
ATOM     23  C   UNL     1      29.436  15.880 -14.645  1.00  0.00     0.000 C 
BRANCH  23  24
ATOM     24  C   UNL     1      30.737  15.195 -15.096  1.00  0.00    -0.000 C 
BRANCH  24  25
ATOM     25  C   UNL     1      30.817  15.011 -16.620  1.00  0.00    -0.000 C 
BRANCH  25  26
ATOM     26  C   UNL     1      29.453  14.602 -17.196  1.00  0.00    -0.000 C 
BRANCH  26  27
ATOM     27  C   UNL     1      29.282  13.076 -17.278  1.00  0.00    -0.000 C 
BRANCH  27  28
ATOM     28  C   UNL     1      28.387  12.522 -16.155  1.00  0.00    -0.000 C 
BRANCH  28  29
ATOM     29  C   UNL     1      29.185  11.689 -15.127  1.00  0.00    -0.000 C 
BRANCH  29  30
ATOM     30  C   UNL     1      30.596  11.302 -15.609  1.00  0.00    -0.000 C 
BRANCH  30  31
ATOM     31  C   UNL     1      30.767   9.815 -15.961  1.00  0.00    -0.003 C 
ATOM     32  C   UNL     1      30.331   9.490 -17.390  1.00  0.00     0.004 C 
ENDBRANCH  30  31
ENDBRANCH  29  30
ENDBRANCH  28  29
ENDBRANCH  27  28
ENDBRANCH  26  27
ENDBRANCH  25  26
ENDBRANCH  24  25
ENDBRANCH  23  24
ENDBRANCH  22  23
ENDBRANCH  21  22
ENDBRANCH  20  21
ENDBRANCH  19  20
ENDBRANCH  18  19
ENDBRANCH   1  18
TORSDOF 28
ENDMDL
MODEL 2
REMARK VINA RESULT:    -4.396      2.049      6.265
REMARK INTER + INTRA:         -15.889
REMARK INTER:                 -12.067
REMARK INTRA:                  -3.822
REMARK UNBOUND:                -4.298
REMARK SMILES CCCCCCCCCCCCCCCCCCCCCCCCCCCCCC(=O)[O-]
REMARK SMILES IDX 16 1 17 2 18 3 19 4 20 5 21 6 22 7 23 8 24 9 25 10 26 11
REMARK SMILES IDX 27 12 28 13 29 14 30 15 31 16 32 17 15 18 14 19 13 20 12 21
REMARK SMILES IDX 11 22 10 23 9 24 8 25 7 26 6 27 5 28 4 29 3 30 2 31 1 32
REMARK H PARENT
REMARK Flexibility Score: inf
ROOT
ATOM      1  C   UNL     1      28.420  12.887 -16.789  1.00  0.00     0.000 C 
ENDROOT
BRANCH   1   2
ATOM      2  C   UNL     1      29.389  13.514 -17.812  1.00  0.00     0.000 C 
BRANCH   2   3
ATOM      3  C   UNL     1      30.762  12.824 -17.917  1.00  0.00     0.000 C 
BRANCH   3   4
ATOM      4  C   UNL     1      30.689  11.471 -18.646  1.00  0.00     0.000 C 
BRANCH   4   5
ATOM      5  C   UNL     1      31.033  10.284 -17.730  1.00  0.00     0.000 C 
BRANCH   5   6
ATOM      6  C   UNL     1      30.375   8.971 -18.190  1.00  0.00     0.000 C 
BRANCH   6   7
ATOM      7  C   UNL     1      29.690   8.208 -17.040  1.00  0.00     0.000 C 
BRANCH   7   8
ATOM      8  C   UNL     1      28.501   7.324 -17.459  1.00  0.00     0.000 C 
BRANCH   8   9
ATOM      9  C   UNL     1      28.837   6.378 -18.621  1.00  0.00     0.000 C 
BRANCH   9  10
ATOM     10  C   UNL     1      27.603   5.567 -19.046  1.00  0.00     0.000 C 
BRANCH  10  11
ATOM     11  C   UNL     1      27.432   4.278 -18.218  1.00  0.00     0.000 C 
BRANCH  11  12
ATOM     12  C   UNL     1      26.215   4.295 -17.272  1.00  0.00     0.000 C 
BRANCH  12  13
ATOM     13  C   UNL     1      26.232   3.185 -16.199  1.00  0.00     0.006 C 
BRANCH  13  14
ATOM     14  C   UNL     1      26.507   3.705 -14.778  1.00  0.00     0.053 C 
BRANCH  14  15
ATOM     15  C   UNL     1      25.284   4.315 -14.162  1.00  0.00     0.041 C 
ATOM     16  O   UNL     1      24.492   3.604 -13.490  1.00  0.00    -0.550 OA
ATOM     17  O   UNL     1      25.008   5.663 -14.350  1.00  0.00    -0.550 OA
ENDBRANCH  14  15
ENDBRANCH  13  14
ENDBRANCH  12  13
ENDBRANCH  11  12
ENDBRANCH  10  11
ENDBRANCH   9  10
ENDBRANCH   8   9
ENDBRANCH   7   8
ENDBRANCH   6   7
ENDBRANCH   5   6
ENDBRANCH   4   5
ENDBRANCH   3   4
ENDBRANCH   2   3
ENDBRANCH   1   2
BRANCH   1  18
ATOM     18  C   UNL     1      28.914  12.898 -15.328  1.00  0.00     0.000 C 
BRANCH  18  19
ATOM     19  C   UNL     1      29.200  11.507 -14.728  1.00  0.00     0.000 C 
BRANCH  19  20
ATOM     20  C   UNL     1      30.630  11.314 -14.184  1.00  0.00     0.000 C 
BRANCH  20  21
ATOM     21  C   UNL     1      30.979   9.875 -13.757  1.00  0.00     0.000 C 
BRANCH  21  22
ATOM     22  C   UNL     1      29.771   8.944 -13.542  1.00  0.00     0.000 C 
BRANCH  22  23
ATOM     23  C   UNL     1      29.869   8.137 -12.236  1.00  0.00     0.000 C 
BRANCH  23  24
ATOM     24  C   UNL     1      30.738   8.829 -11.172  1.00  0.00    -0.000 C 
BRANCH  24  25
ATOM     25  C   UNL     1      29.907   9.515 -10.076  1.00  0.00    -0.000 C 
BRANCH  25  26
ATOM     26  C   UNL     1      29.775  11.020 -10.347  1.00  0.00    -0.000 C 
BRANCH  26  27
ATOM     27  C   UNL     1      28.444  11.382 -11.027  1.00  0.00    -0.000 C 
BRANCH  27  28
ATOM     28  C   UNL     1      28.344  12.881 -11.365  1.00  0.00    -0.000 C 
BRANCH  28  29
ATOM     29  C   UNL     1      26.887  13.393 -11.327  1.00  0.00    -0.000 C 
BRANCH  29  30
ATOM     30  C   UNL     1      26.581  14.465 -12.391  1.00  0.00    -0.000 C 
BRANCH  30  31
ATOM     31  C   UNL     1      27.753  15.411 -12.702  1.00  0.00    -0.003 C 
ATOM     32  C   UNL     1      27.334  16.881 -12.742  1.00  0.00     0.004 C 
ENDBRANCH  30  31
ENDBRANCH  29  30
ENDBRANCH  28  29
ENDBRANCH  27  28
ENDBRANCH  26  27
ENDBRANCH  25  26
ENDBRANCH  24  25
ENDBRANCH  23  24
ENDBRANCH  22  23
ENDBRANCH  21  22
ENDBRANCH  20  21
ENDBRANCH  19  20
ENDBRANCH  18  19
ENDBRANCH   1  18
TORSDOF 28
ENDMDL
MODEL 3
REMARK VINA RESULT:    -4.369      3.917      8.686
REMARK INTER + INTRA:         -15.818
REMARK INTER:                 -11.490
REMARK INTRA:                  -4.328
REMARK UNBOUND:                -4.298
REMARK SMILES CCCCCCCCCCCCCCCCCCCCCCCCCCCCCC(=O)[O-]
REMARK SMILES IDX 16 1 17 2 18 3 19 4 20 5 21 6 22 7 23 8 24 9 25 10 26 11
REMARK SMILES IDX 27 12 28 13 29 14 30 15 31 16 32 17 15 18 14 19 13 20 12 21
REMARK SMILES IDX 11 22 10 23 9 24 8 25 7 26 6 27 5 28 4 29 3 30 2 31 1 32
REMARK H PARENT
REMARK Flexibility Score: inf
ROOT
ATOM      1  C   UNL     1      29.190  11.631 -14.198  1.00  0.00     0.000 C 
ENDROOT
BRANCH   1   2
ATOM      2  C   UNL     1      29.258  10.844 -15.521  1.00  0.00     0.000 C 
BRANCH   2   3
ATOM      3  C   UNL     1      30.650  10.787 -16.176  1.00  0.00     0.000 C 
BRANCH   3   4
ATOM      4  C   UNL     1      30.596  10.992 -17.700  1.00  0.00     0.000 C 
BRANCH   4   5
ATOM      5  C   UNL     1      30.823  12.457 -18.110  1.00  0.00     0.000 C 
BRANCH   5   6
ATOM      6  C   UNL     1      29.513  13.261 -18.183  1.00  0.00     0.000 C 
BRANCH   6   7
ATOM      7  C   UNL     1      29.406  14.335 -17.083  1.00  0.00     0.000 C 
BRANCH   7   8
ATOM      8  C   UNL     1      30.703  14.592 -16.294  1.00  0.00     0.000 C 
BRANCH   8   9
ATOM      9  C   UNL     1      30.477  15.422 -15.022  1.00  0.00     0.000 C 
BRANCH   9  10
ATOM     10  C   UNL     1      29.136  15.065 -14.362  1.00  0.00     0.000 C 
BRANCH  10  11
ATOM     11  C   UNL     1      28.520  16.256 -13.600  1.00  0.00     0.000 C 
BRANCH  11  12
ATOM     12  C   UNL     1      27.522  15.847 -12.498  1.00  0.00     0.000 C 
BRANCH  12  13
ATOM     13  C   UNL     1      27.740  14.422 -11.945  1.00  0.00     0.006 C 
BRANCH  13  14
ATOM     14  C   UNL     1      26.445  13.601 -11.830  1.00  0.00     0.053 C 
BRANCH  14  15
ATOM     15  C   UNL     1      25.336  14.393 -11.205  1.00  0.00     0.041 C 
ATOM     16  O   UNL     1      24.542  15.051 -11.927  1.00  0.00    -0.550 OA
ATOM     17  O   UNL     1      25.195  14.424  -9.823  1.00  0.00    -0.550 OA
ENDBRANCH  14  15
ENDBRANCH  13  14
ENDBRANCH  12  13
ENDBRANCH  11  12
ENDBRANCH  10  11
ENDBRANCH   9  10
ENDBRANCH   8   9
ENDBRANCH   7   8
ENDBRANCH   6   7
ENDBRANCH   5   6
ENDBRANCH   4   5
ENDBRANCH   3   4
ENDBRANCH   2   3
ENDBRANCH   1   2
BRANCH   1  18
ATOM     18  C   UNL     1      30.536  11.788 -13.461  1.00  0.00     0.000 C 
BRANCH  18  19
ATOM     19  C   UNL     1      30.424  11.966 -11.933  1.00  0.00     0.000 C 
BRANCH  19  20
ATOM     20  C   UNL     1      29.277  11.177 -11.269  1.00  0.00     0.000 C 
BRANCH  20  21
ATOM     21  C   UNL     1      29.722   9.982 -10.402  1.00  0.00     0.000 C 
BRANCH  21  22
ATOM     22  C   UNL     1      30.440   8.852 -11.163  1.00  0.00     0.000 C 
BRANCH  22  23
ATOM     23  C   UNL     1      29.638   8.350 -12.375  1.00  0.00     0.000 C 
BRANCH  23  24
ATOM     24  C   UNL     1      30.534   7.961 -13.563  1.00  0.00    -0.000 C 
BRANCH  24  25
ATOM     25  C   UNL     1      29.770   7.216 -14.669  1.00  0.00    -0.000 C 
BRANCH  25  26
ATOM     26  C   UNL     1      29.499   5.760 -14.263  1.00  0.00    -0.000 C 
BRANCH  26  27
ATOM     27  C   UNL     1      28.049   5.331 -14.541  1.00  0.00    -0.000 C 
BRANCH  27  28
ATOM     28  C   UNL     1      27.042   6.011 -13.595  1.00  0.00    -0.000 C 
BRANCH  28  29
ATOM     29  C   UNL     1      25.647   5.350 -13.653  1.00  0.00    -0.000 C 
BRANCH  29  30
ATOM     30  C   UNL     1      25.692   3.834 -13.919  1.00  0.00    -0.000 C 
BRANCH  30  31
ATOM     31  C   UNL     1      25.281   2.959 -12.722  1.00  0.00    -0.003 C 
ATOM     32  C   UNL     1      26.404   2.788 -11.699  1.00  0.00     0.004 C 
ENDBRANCH  30  31
ENDBRANCH  29  30
ENDBRANCH  28  29
ENDBRANCH  27  28
ENDBRANCH  26  27
ENDBRANCH  25  26
ENDBRANCH  24  25
ENDBRANCH  23  24
ENDBRANCH  22  23
ENDBRANCH  21  22
ENDBRANCH  20  21
ENDBRANCH  19  20
ENDBRANCH  18  19
ENDBRANCH   1  18
TORSDOF 28
ENDMDL
MODEL 4
REMARK VINA RESULT:    -4.302      1.204      2.310
REMARK INTER + INTRA:         -15.641
REMARK INTER:                 -11.558
REMARK INTRA:                  -4.083
REMARK UNBOUND:                -4.298
REMARK SMILES CCCCCCCCCCCCCCCCCCCCCCCCCCCCCC(=O)[O-]
REMARK SMILES IDX 16 1 17 2 18 3 19 4 20 5 21 6 22 7 23 8 24 9 25 10 26 11
REMARK SMILES IDX 27 12 28 13 29 14 30 15 31 16 32 17 15 18 14 19 13 20 12 21
REMARK SMILES IDX 11 22 10 23 9 24 8 25 7 26 6 27 5 28 4 29 3 30 2 31 1 32
REMARK H PARENT
REMARK Flexibility Score: inf
ROOT
ATOM      1  C   UNL     1      27.074  11.761 -10.509  1.00  0.00     0.000 C 
ENDROOT
BRANCH   1   2
ATOM      2  C   UNL     1      28.543  11.809 -10.972  1.00  0.00     0.000 C 
BRANCH   2   3
ATOM      3  C   UNL     1      29.347  10.518 -10.727  1.00  0.00     0.000 C 
BRANCH   3   4
ATOM      4  C   UNL     1      30.742  10.559 -11.374  1.00  0.00     0.000 C 
BRANCH   4   5
ATOM      5  C   UNL     1      31.028   9.325 -12.246  1.00  0.00     0.000 C 
BRANCH   5   6
ATOM      6  C   UNL     1      29.821   8.376 -12.342  1.00  0.00     0.000 C 
BRANCH   6   7
ATOM      7  C   UNL     1      30.038   7.228 -13.348  1.00  0.00     0.000 C 
BRANCH   7   8
ATOM      8  C   UNL     1      28.830   6.912 -14.249  1.00  0.00     0.000 C 
BRANCH   8   9
ATOM      9  C   UNL     1      29.197   6.824 -15.737  1.00  0.00     0.000 C 
BRANCH   9  10
ATOM     10  C   UNL     1      27.990   6.380 -16.577  1.00  0.00     0.000 C 
BRANCH  10  11
ATOM     11  C   UNL     1      28.114   6.802 -18.055  1.00  0.00     0.000 C 
BRANCH  11  12
ATOM     12  C   UNL     1      27.675   5.716 -19.057  1.00  0.00     0.000 C 
BRANCH  12  13
ATOM     13  C   UNL     1      28.520   4.425 -19.002  1.00  0.00     0.006 C 
BRANCH  13  14
ATOM     14  C   UNL     1      27.679   3.139 -18.966  1.00  0.00     0.053 C 
BRANCH  14  15
ATOM     15  C   UNL     1      26.754   3.111 -17.787  1.00  0.00     0.041 C 
ATOM     16  O   UNL     1      27.217   3.161 -16.617  1.00  0.00    -0.550 OA
ATOM     17  O   UNL     1      25.382   3.008 -17.979  1.00  0.00    -0.550 OA
ENDBRANCH  14  15
ENDBRANCH  13  14
ENDBRANCH  12  13
ENDBRANCH  11  12
ENDBRANCH  10  11
ENDBRANCH   9  10
ENDBRANCH   8   9
ENDBRANCH   7   8
ENDBRANCH   6   7
ENDBRANCH   5   6
ENDBRANCH   4   5
ENDBRANCH   3   4
ENDBRANCH   2   3
ENDBRANCH   1   2
BRANCH   1  18
ATOM     18  C   UNL     1      26.114  12.687 -11.284  1.00  0.00     0.000 C 
BRANCH  18  19
ATOM     19  C   UNL     1      26.256  14.189 -10.960  1.00  0.00     0.000 C 
BRANCH  19  20
ATOM     20  C   UNL     1      26.133  15.131 -12.174  1.00  0.00     0.000 C 
BRANCH  20  21
ATOM     21  C   UNL     1      27.452  15.783 -12.632  1.00  0.00     0.000 C 
BRANCH  21  22
ATOM     22  C   UNL     1      28.557  14.798 -13.056  1.00  0.00     0.000 C 
BRANCH  22  23
ATOM     23  C   UNL     1      29.311  15.259 -14.316  1.00  0.00     0.000 C 
BRANCH  23  24
ATOM     24  C   UNL     1      30.267  14.186 -14.864  1.00  0.00    -0.000 C 
BRANCH  24  25
ATOM     25  C   UNL     1      30.046  12.806 -14.224  1.00  0.00    -0.000 C 
BRANCH  25  26
ATOM     26  C   UNL     1      28.899  12.057 -14.916  1.00  0.00    -0.000 C 
BRANCH  26  27
ATOM     27  C   UNL     1      29.265  10.603 -15.258  1.00  0.00    -0.000 C 
BRANCH  27  28
ATOM     28  C   UNL     1      30.593  10.496 -16.030  1.00  0.00    -0.000 C 
BRANCH  28  29
ATOM     29  C   UNL     1      30.394   9.956 -17.464  1.00  0.00    -0.000 C 
BRANCH  29  30
ATOM     30  C   UNL     1      30.758  10.973 -18.562  1.00  0.00    -0.000 C 
BRANCH  30  31
ATOM     31  C   UNL     1      30.824  12.435 -18.086  1.00  0.00    -0.003 C 
ATOM     32  C   UNL     1      29.541  13.213 -18.379  1.00  0.00     0.004 C 
ENDBRANCH  30  31
ENDBRANCH  29  30
ENDBRANCH  28  29
ENDBRANCH  27  28
ENDBRANCH  26  27
ENDBRANCH  25  26
ENDBRANCH  24  25
ENDBRANCH  23  24
ENDBRANCH  22  23
ENDBRANCH  21  22
ENDBRANCH  20  21
ENDBRANCH  19  20
ENDBRANCH  18  19
ENDBRANCH   1  18
TORSDOF 28
ENDMDL
MODEL 5
REMARK VINA RESULT:    -4.292      2.130      6.120
REMARK INTER + INTRA:         -15.615
REMARK INTER:                 -10.999
REMARK INTRA:                  -4.616
REMARK UNBOUND:                -4.298
REMARK SMILES CCCCCCCCCCCCCCCCCCCCCCCCCCCCCC(=O)[O-]
REMARK SMILES IDX 16 1 17 2 18 3 19 4 20 5 21 6 22 7 23 8 24 9 25 10 26 11
REMARK SMILES IDX 27 12 28 13 29 14 30 15 31 16 32 17 15 18 14 19 13 20 12 21
REMARK SMILES IDX 11 22 10 23 9 24 8 25 7 26 6 27 5 28 4 29 3 30 2 31 1 32
REMARK H PARENT
REMARK Flexibility Score: inf
ROOT
ATOM      1  C   UNL     1      27.005  12.904 -11.133  1.00  0.00     0.000 C 
ENDROOT
BRANCH   1   2
ATOM      2  C   UNL     1      28.056  13.885 -11.690  1.00  0.00     0.000 C 
BRANCH   2   3
ATOM      3  C   UNL     1      27.891  14.242 -13.178  1.00  0.00     0.000 C 
BRANCH   3   4
ATOM      4  C   UNL     1      29.207  14.116 -13.966  1.00  0.00     0.000 C 
BRANCH   4   5
ATOM      5  C   UNL     1      29.655  12.656 -14.143  1.00  0.00     0.000 C 
BRANCH   5   6
ATOM      6  C   UNL     1      28.868  11.924 -15.244  1.00  0.00     0.000 C 
BRANCH   6   7
ATOM      7  C   UNL     1      28.640  12.793 -16.497  1.00  0.00     0.000 C 
BRANCH   7   8
ATOM      8  C   UNL     1      29.829  12.854 -17.474  1.00  0.00     0.000 C 
BRANCH   8   9
ATOM      9  C   UNL     1      30.719  11.604 -17.415  1.00  0.00     0.000 C 
BRANCH   9  10
ATOM     10  C   UNL     1      30.741  10.878 -18.769  1.00  0.00     0.000 C 
BRANCH  10  11
ATOM     11  C   UNL     1      30.712   9.345 -18.615  1.00  0.00     0.000 C 
BRANCH  11  12
ATOM     12  C   UNL     1      30.236   8.861 -17.230  1.00  0.00     0.000 C 
BRANCH  12  13
ATOM     13  C   UNL     1      28.956   7.998 -17.267  1.00  0.00     0.006 C 
BRANCH  13  14
ATOM     14  C   UNL     1      29.226   6.508 -17.539  1.00  0.00     0.053 C 
BRANCH  14  15
ATOM     15  C   UNL     1      28.834   6.117 -18.933  1.00  0.00     0.041 C 
ATOM     16  O   UNL     1      29.719   5.862 -19.791  1.00  0.00    -0.550 OA
ATOM     17  O   UNL     1      27.493   6.057 -19.289  1.00  0.00    -0.550 OA
ENDBRANCH  14  15
ENDBRANCH  13  14
ENDBRANCH  12  13
ENDBRANCH  11  12
ENDBRANCH  10  11
ENDBRANCH   9  10
ENDBRANCH   8   9
ENDBRANCH   7   8
ENDBRANCH   6   7
ENDBRANCH   5   6
ENDBRANCH   4   5
ENDBRANCH   3   4
ENDBRANCH   2   3
ENDBRANCH   1   2
BRANCH   1  18
ATOM     18  C   UNL     1      27.553  11.522 -10.723  1.00  0.00     0.000 C 
BRANCH  18  19
ATOM     19  C   UNL     1      29.091  11.413 -10.701  1.00  0.00     0.000 C 
BRANCH  19  20
ATOM     20  C   UNL     1      29.647  10.002 -10.981  1.00  0.00     0.000 C 
BRANCH  20  21
ATOM     21  C   UNL     1      30.933   9.962 -11.831  1.00  0.00     0.000 C 
BRANCH  21  22
ATOM     22  C   UNL     1      30.783   9.300 -13.213  1.00  0.00     0.000 C 
BRANCH  22  23
ATOM     23  C   UNL     1      29.448   8.554 -13.373  1.00  0.00     0.000 C 
BRANCH  23  24
ATOM     24  C   UNL     1      29.633   7.062 -13.695  1.00  0.00    -0.000 C 
BRANCH  24  25
ATOM     25  C   UNL     1      28.299   6.319 -13.873  1.00  0.00    -0.000 C 
BRANCH  25  26
ATOM     26  C   UNL     1      28.441   4.838 -13.491  1.00  0.00    -0.000 C 
BRANCH  26  27
ATOM     27  C   UNL     1      27.183   4.285 -12.801  1.00  0.00    -0.000 C 
BRANCH  27  28
ATOM     28  C   UNL     1      25.922   5.104 -13.130  1.00  0.00    -0.000 C 
BRANCH  28  29
ATOM     29  C   UNL     1      24.921   4.311 -14.001  1.00  0.00    -0.000 C 
BRANCH  29  30
ATOM     30  C   UNL     1      24.656   4.953 -15.376  1.00  0.00    -0.000 C 
BRANCH  30  31
ATOM     31  C   UNL     1      25.904   5.111 -16.261  1.00  0.00    -0.003 C 
ATOM     32  C   UNL     1      26.397   3.782 -16.833  1.00  0.00     0.004 C 
ENDBRANCH  30  31
ENDBRANCH  29  30
ENDBRANCH  28  29
ENDBRANCH  27  28
ENDBRANCH  26  27
ENDBRANCH  25  26
ENDBRANCH  24  25
ENDBRANCH  23  24
ENDBRANCH  22  23
ENDBRANCH  21  22
ENDBRANCH  20  21
ENDBRANCH  19  20
ENDBRANCH  18  19
ENDBRANCH   1  18
TORSDOF 28
ENDMDL
MODEL 6
REMARK VINA RESULT:    -4.272     11.333     16.321
REMARK INTER + INTRA:         -15.563
REMARK INTER:                 -11.326
REMARK INTRA:                  -4.237
REMARK UNBOUND:                -4.298
REMARK SMILES CCCCCCCCCCCCCCCCCCCCCCCCCCCCCC(=O)[O-]
REMARK SMILES IDX 16 1 17 2 18 3 19 4 20 5 21 6 22 7 23 8 24 9 25 10 26 11
REMARK SMILES IDX 27 12 28 13 29 14 30 15 31 16 32 17 15 18 14 19 13 20 12 21
REMARK SMILES IDX 11 22 10 23 9 24 8 25 7 26 6 27 5 28 4 29 3 30 2 31 1 32
REMARK H PARENT
REMARK Flexibility Score: inf
ROOT
ATOM      1  C   UNL     1      17.571   0.739 -16.638  1.00  0.00     0.000 C 
ENDROOT
BRANCH   1   2
ATOM      2  C   UNL     1      16.827  -0.328 -17.466  1.00  0.00     0.000 C 
BRANCH   2   3
ATOM      3  C   UNL     1      17.681  -1.537 -17.890  1.00  0.00     0.000 C 
BRANCH   3   4
ATOM      4  C   UNL     1      18.825  -1.148 -18.842  1.00  0.00     0.000 C 
BRANCH   4   5
ATOM      5  C   UNL     1      20.191  -1.678 -18.376  1.00  0.00     0.000 C 
BRANCH   5   6
ATOM      6  C   UNL     1      20.398  -1.529 -16.859  1.00  0.00     0.000 C 
BRANCH   6   7
ATOM      7  C   UNL     1      21.419  -0.432 -16.498  1.00  0.00     0.000 C 
BRANCH   7   8
ATOM      8  C   UNL     1      22.048  -0.561 -15.098  1.00  0.00     0.000 C 
BRANCH   8   9
ATOM      9  C   UNL     1      23.490  -0.036 -15.037  1.00  0.00     0.000 C 
BRANCH   9  10
ATOM     10  C   UNL     1      23.706   1.100 -16.048  1.00  0.00     0.000 C 
BRANCH  10  11
ATOM     11  C   UNL     1      23.291   2.475 -15.486  1.00  0.00     0.000 C 
BRANCH  11  12
ATOM     12  C   UNL     1      24.425   3.222 -14.756  1.00  0.00     0.000 C 
BRANCH  12  13
ATOM     13  C   UNL     1      24.012   4.597 -14.186  1.00  0.00     0.006 C 
BRANCH  13  14
ATOM     14  C   UNL     1      23.991   5.719 -15.238  1.00  0.00     0.053 C 
BRANCH  14  15
ATOM     15  C   UNL     1      22.685   6.455 -15.240  1.00  0.00     0.041 C 
ATOM     16  O   UNL     1      21.761   6.104 -16.021  1.00  0.00    -0.550 OA
ATOM     17  O   UNL     1      22.496   7.542 -14.396  1.00  0.00    -0.550 OA
ENDBRANCH  14  15
ENDBRANCH  13  14
ENDBRANCH  12  13
ENDBRANCH  11  12
ENDBRANCH  10  11
ENDBRANCH   9  10
ENDBRANCH   8   9
ENDBRANCH   7   8
ENDBRANCH   6   7
ENDBRANCH   5   6
ENDBRANCH   4   5
ENDBRANCH   3   4
ENDBRANCH   2   3
ENDBRANCH   1   2
BRANCH   1  18
ATOM     18  C   UNL     1      17.272   0.718 -15.125  1.00  0.00     0.000 C 
BRANCH  18  19
ATOM     19  C   UNL     1      18.399   0.134 -14.248  1.00  0.00     0.000 C 
BRANCH  19  20
ATOM     20  C   UNL     1      18.279  -1.375 -13.955  1.00  0.00     0.000 C 
BRANCH  20  21
ATOM     21  C   UNL     1      18.879  -1.830 -12.610  1.00  0.00     0.000 C 
BRANCH  21  22
ATOM     22  C   UNL     1      18.032  -1.498 -11.368  1.00  0.00     0.000 C 
BRANCH  22  23
ATOM     23  C   UNL     1      16.521  -1.621 -11.631  1.00  0.00     0.000 C 
BRANCH  23  24
ATOM     24  C   UNL     1      15.783  -0.278 -11.506  1.00  0.00    -0.000 C 
BRANCH  24  25
ATOM     25  C   UNL     1      14.633  -0.132 -12.516  1.00  0.00    -0.000 C 
BRANCH  25  26
ATOM     26  C   UNL     1      14.526  -1.376 -13.409  1.00  0.00    -0.000 C 
BRANCH  26  27
ATOM     27  C   UNL     1      14.121  -1.031 -14.852  1.00  0.00    -0.000 C 
BRANCH  27  28
ATOM     28  C   UNL     1      12.620  -0.718 -14.984  1.00  0.00    -0.000 C 
BRANCH  28  29
ATOM     29  C   UNL     1      12.351   0.473 -15.931  1.00  0.00    -0.000 C 
BRANCH  29  30
ATOM     30  C   UNL     1      13.584   0.900 -16.751  1.00  0.00    -0.000 C 
BRANCH  30  31
ATOM     31  C   UNL     1      13.402   2.201 -17.551  1.00  0.00    -0.003 C 
ATOM     32  C   UNL     1      14.731   2.873 -17.899  1.00  0.00     0.004 C 
ENDBRANCH  30  31
ENDBRANCH  29  30
ENDBRANCH  28  29
ENDBRANCH  27  28
ENDBRANCH  26  27
ENDBRANCH  25  26
ENDBRANCH  24  25
ENDBRANCH  23  24
ENDBRANCH  22  23
ENDBRANCH  21  22
ENDBRANCH  20  21
ENDBRANCH  19  20
ENDBRANCH  18  19
ENDBRANCH   1  18
TORSDOF 28
ENDMDL
MODEL 7
REMARK VINA RESULT:    -4.272      2.024      3.368
REMARK INTER + INTRA:         -15.561
REMARK INTER:                 -10.715
REMARK INTRA:                  -4.846
REMARK UNBOUND:                -4.298
REMARK SMILES CCCCCCCCCCCCCCCCCCCCCCCCCCCCCC(=O)[O-]
REMARK SMILES IDX 16 1 17 2 18 3 19 4 20 5 21 6 22 7 23 8 24 9 25 10 26 11
REMARK SMILES IDX 27 12 28 13 29 14 30 15 31 16 32 17 15 18 14 19 13 20 12 21
REMARK SMILES IDX 11 22 10 23 9 24 8 25 7 26 6 27 5 28 4 29 3 30 2 31 1 32
REMARK H PARENT
REMARK Flexibility Score: inf
ROOT
ATOM      1  C   UNL     1      27.264  12.257 -10.870  1.00  0.00     0.000 C 
ENDROOT
BRANCH   1   2
ATOM      2  C   UNL     1      28.483  11.352 -11.137  1.00  0.00     0.000 C 
BRANCH   2   3
ATOM      3  C   UNL     1      29.810  11.850 -10.536  1.00  0.00     0.000 C 
BRANCH   3   4
ATOM      4  C   UNL     1      31.040  11.232 -11.223  1.00  0.00     0.000 C 
BRANCH   4   5
ATOM      5  C   UNL     1      31.056  11.476 -12.742  1.00  0.00     0.000 C 
BRANCH   5   6
ATOM      6  C   UNL     1      30.992  10.168 -13.551  1.00  0.00     0.000 C 
BRANCH   6   7
ATOM      7  C   UNL     1      29.558   9.793 -13.972  1.00  0.00     0.000 C 
BRANCH   7   8
ATOM      8  C   UNL     1      29.066   8.424 -13.466  1.00  0.00     0.000 C 
BRANCH   8   9
ATOM      9  C   UNL     1      29.991   7.808 -12.406  1.00  0.00     0.000 C 
BRANCH   9  10
ATOM     10  C   UNL     1      30.732   6.584 -12.965  1.00  0.00     0.000 C 
BRANCH  10  11
ATOM     11  C   UNL     1      30.311   6.251 -14.411  1.00  0.00     0.000 C 
BRANCH  11  12
ATOM     12  C   UNL     1      30.140   4.743 -14.683  1.00  0.00     0.000 C 
BRANCH  12  13
ATOM     13  C   UNL     1      28.692   4.321 -15.016  1.00  0.00     0.006 C 
BRANCH  13  14
ATOM     14  C   UNL     1      27.663   5.449 -14.834  1.00  0.00     0.053 C 
BRANCH  14  15
ATOM     15  C   UNL     1      26.848   5.263 -13.590  1.00  0.00     0.041 C 
ATOM     16  O   UNL     1      27.220   4.448 -12.704  1.00  0.00    -0.550 OA
ATOM     17  O   UNL     1      25.666   5.972 -13.419  1.00  0.00    -0.550 OA
ENDBRANCH  14  15
ENDBRANCH  13  14
ENDBRANCH  12  13
ENDBRANCH  11  12
ENDBRANCH  10  11
ENDBRANCH   9  10
ENDBRANCH   8   9
ENDBRANCH   7   8
ENDBRANCH   6   7
ENDBRANCH   5   6
ENDBRANCH   4   5
ENDBRANCH   3   4
ENDBRANCH   2   3
ENDBRANCH   1   2
BRANCH   1  18
ATOM     18  C   UNL     1      27.073  13.410 -11.876  1.00  0.00     0.000 C 
BRANCH  18  19
ATOM     19  C   UNL     1      27.952  13.321 -13.141  1.00  0.00     0.000 C 
BRANCH  19  20
ATOM     20  C   UNL     1      28.707  14.616 -13.500  1.00  0.00     0.000 C 
BRANCH  20  21
ATOM     21  C   UNL     1      29.852  14.445 -14.518  1.00  0.00     0.000 C 
BRANCH  21  22
ATOM     22  C   UNL     1      29.712  15.274 -15.808  1.00  0.00     0.000 C 
BRANCH  22  23
ATOM     23  C   UNL     1      29.700  14.403 -17.075  1.00  0.00     0.000 C 
BRANCH  23  24
ATOM     24  C   UNL     1      28.903  13.100 -16.895  1.00  0.00    -0.000 C 
BRANCH  24  25
ATOM     25  C   UNL     1      29.795  11.848 -16.904  1.00  0.00    -0.000 C 
BRANCH  25  26
ATOM     26  C   UNL     1      30.445  11.647 -18.280  1.00  0.00    -0.000 C 
BRANCH  26  27
ATOM     27  C   UNL     1      30.694  10.164 -18.603  1.00  0.00    -0.000 C 
BRANCH  27  28
ATOM     28  C   UNL     1      30.606   9.267 -17.355  1.00  0.00    -0.000 C 
BRANCH  28  29
ATOM     29  C   UNL     1      29.441   8.256 -17.442  1.00  0.00    -0.000 C 
BRANCH  29  30
ATOM     30  C   UNL     1      29.859   6.877 -17.988  1.00  0.00    -0.000 C 
BRANCH  30  31
ATOM     31  C   UNL     1      28.761   6.138 -18.771  1.00  0.00    -0.003 C 
ATOM     32  C   UNL     1      27.352   6.519 -18.321  1.00  0.00     0.004 C 
ENDBRANCH  30  31
ENDBRANCH  29  30
ENDBRANCH  28  29
ENDBRANCH  27  28
ENDBRANCH  26  27
ENDBRANCH  25  26
ENDBRANCH  24  25
ENDBRANCH  23  24
ENDBRANCH  22  23
ENDBRANCH  21  22
ENDBRANCH  20  21
ENDBRANCH  19  20
ENDBRANCH  18  19
ENDBRANCH   1  18
TORSDOF 28
ENDMDL
MODEL 8
REMARK VINA RESULT:    -4.271      2.690      3.962
REMARK INTER + INTRA:         -15.560
REMARK INTER:                 -11.791
REMARK INTRA:                  -3.769
REMARK UNBOUND:                -4.298
REMARK SMILES CCCCCCCCCCCCCCCCCCCCCCCCCCCCCC(=O)[O-]
REMARK SMILES IDX 16 1 17 2 18 3 19 4 20 5 21 6 22 7 23 8 24 9 25 10 26 11
REMARK SMILES IDX 27 12 28 13 29 14 30 15 31 16 32 17 15 18 14 19 13 20 12 21
REMARK SMILES IDX 11 22 10 23 9 24 8 25 7 26 6 27 5 28 4 29 3 30 2 31 1 32
REMARK H PARENT
REMARK Flexibility Score: inf
ROOT
ATOM      1  C   UNL     1      28.516  11.166 -10.618  1.00  0.00     0.000 C 
ENDROOT
BRANCH   1   2
ATOM      2  C   UNL     1      29.734  10.355 -10.134  1.00  0.00     0.000 C 
BRANCH   2   3
ATOM      3  C   UNL     1      30.068   9.111 -10.979  1.00  0.00     0.000 C 
BRANCH   3   4
ATOM      4  C   UNL     1      30.434   9.463 -12.431  1.00  0.00     0.000 C 
BRANCH   4   5
ATOM      5  C   UNL     1      29.334   9.071 -13.432  1.00  0.00     0.000 C 
BRANCH   5   6
ATOM      6  C   UNL     1      28.886   7.607 -13.274  1.00  0.00     0.000 C 
BRANCH   6   7
ATOM      7  C   UNL     1      29.118   6.768 -14.546  1.00  0.00     0.000 C 
BRANCH   7   8
ATOM      8  C   UNL     1      29.914   5.467 -14.334  1.00  0.00     0.000 C 
BRANCH   8   9
ATOM      9  C   UNL     1      29.529   4.732 -13.041  1.00  0.00     0.000 C 
BRANCH   9  10
ATOM     10  C   UNL     1      28.595   3.549 -13.337  1.00  0.00     0.000 C 
BRANCH  10  11
ATOM     11  C   UNL     1      27.241   4.000 -13.920  1.00  0.00     0.000 C 
BRANCH  11  12
ATOM     12  C   UNL     1      26.335   4.730 -12.908  1.00  0.00     0.000 C 
BRANCH  12  13
ATOM     13  C   UNL     1      25.543   5.913 -13.507  1.00  0.00     0.006 C 
BRANCH  13  14
ATOM     14  C   UNL     1      24.237   5.492 -14.201  1.00  0.00     0.053 C 
BRANCH  14  15
ATOM     15  C   UNL     1      23.239   6.610 -14.235  1.00  0.00     0.041 C 
ATOM     16  O   UNL     1      23.348   7.581 -13.439  1.00  0.00    -0.550 OA
ATOM     17  O   UNL     1      22.176   6.570 -15.128  1.00  0.00    -0.550 OA
ENDBRANCH  14  15
ENDBRANCH  13  14
ENDBRANCH  12  13
ENDBRANCH  11  12
ENDBRANCH  10  11
ENDBRANCH   9  10
ENDBRANCH   8   9
ENDBRANCH   7   8
ENDBRANCH   6   7
ENDBRANCH   5   6
ENDBRANCH   4   5
ENDBRANCH   3   4
ENDBRANCH   2   3
ENDBRANCH   1   2
BRANCH   1  18
ATOM     18  C   UNL     1      28.835  12.592 -11.112  1.00  0.00     0.000 C 
BRANCH  18  19
ATOM     19  C   UNL     1      27.694  13.282 -11.888  1.00  0.00     0.000 C 
BRANCH  19  20
ATOM     20  C   UNL     1      28.054  13.717 -13.323  1.00  0.00     0.000 C 
BRANCH  20  21
ATOM     21  C   UNL     1      29.400  13.181 -13.850  1.00  0.00     0.000 C 
BRANCH  21  22
ATOM     22  C   UNL     1      29.292  12.084 -14.925  1.00  0.00     0.000 C 
BRANCH  22  23
ATOM     23  C   UNL     1      28.413  12.503 -16.115  1.00  0.00     0.000 C 
BRANCH  23  24
ATOM     24  C   UNL     1      29.027  13.649 -16.935  1.00  0.00    -0.000 C 
BRANCH  24  25
ATOM     25  C   UNL     1      29.474  13.207 -18.338  1.00  0.00    -0.000 C 
BRANCH  25  26
ATOM     26  C   UNL     1      30.829  12.487 -18.280  1.00  0.00    -0.000 C 
BRANCH  26  27
ATOM     27  C   UNL     1      30.727  11.007 -18.684  1.00  0.00    -0.000 C 
BRANCH  27  28
ATOM     28  C   UNL     1      30.867  10.057 -17.481  1.00  0.00    -0.000 C 
BRANCH  28  29
ATOM     29  C   UNL     1      29.732   9.010 -17.426  1.00  0.00    -0.000 C 
BRANCH  29  30
ATOM     30  C   UNL     1      30.002   7.762 -18.288  1.00  0.00    -0.000 C 
BRANCH  30  31
ATOM     31  C   UNL     1      29.015   6.604 -18.065  1.00  0.00    -0.003 C 
ATOM     32  C   UNL     1      29.688   5.232 -18.117  1.00  0.00     0.004 C 
ENDBRANCH  30  31
ENDBRANCH  29  30
ENDBRANCH  28  29
ENDBRANCH  27  28
ENDBRANCH  26  27
ENDBRANCH  25  26
ENDBRANCH  24  25
ENDBRANCH  23  24
ENDBRANCH  22  23
ENDBRANCH  21  22
ENDBRANCH  20  21
ENDBRANCH  19  20
ENDBRANCH  18  19
ENDBRANCH   1  18
TORSDOF 28
ENDMDL
MODEL 9
REMARK VINA RESULT:    -4.193      3.262      8.674
REMARK INTER + INTRA:         -15.354
REMARK INTER:                  -9.457
REMARK INTRA:                  -5.897
REMARK UNBOUND:                -4.298
REMARK SMILES CCCCCCCCCCCCCCCCCCCCCCCCCCCCCC(=O)[O-]
REMARK SMILES IDX 16 1 17 2 18 3 19 4 20 5 21 6 22 7 23 8 24 9 25 10 26 11
REMARK SMILES IDX 27 12 28 13 29 14 30 15 31 16 32 17 15 18 14 19 13 20 12 21
REMARK SMILES IDX 11 22 10 23 9 24 8 25 7 26 6 27 5 28 4 29 3 30 2 31 1 32
REMARK H PARENT
REMARK Flexibility Score: inf
ROOT
ATOM      1  C   UNL     1      29.006   7.622 -17.673  1.00  0.00     0.000 C 
ENDROOT
BRANCH   1   2
ATOM      2  C   UNL     1      29.297   8.399 -16.374  1.00  0.00     0.000 C 
BRANCH   2   3
ATOM      3  C   UNL     1      30.751   8.317 -15.875  1.00  0.00     0.000 C 
BRANCH   3   4
ATOM      4  C   UNL     1      30.896   8.732 -14.401  1.00  0.00     0.000 C 
BRANCH   4   5
ATOM      5  C   UNL     1      29.539   8.910 -13.699  1.00  0.00     0.000 C 
BRANCH   5   6
ATOM      6  C   UNL     1      29.534   8.342 -12.269  1.00  0.00     0.000 C 
BRANCH   6   7
ATOM      7  C   UNL     1      30.314   9.222 -11.272  1.00  0.00     0.000 C 
BRANCH   7   8
ATOM      8  C   UNL     1      29.507  10.378 -10.652  1.00  0.00     0.000 C 
BRANCH   8   9
ATOM      9  C   UNL     1      30.221  11.733 -10.759  1.00  0.00     0.000 C 
BRANCH   9  10
ATOM     10  C   UNL     1      30.284  12.209 -12.219  1.00  0.00     0.000 C 
BRANCH  10  11
ATOM     11  C   UNL     1      28.885  12.444 -12.822  1.00  0.00     0.000 C 
BRANCH  11  12
ATOM     12  C   UNL     1      28.878  12.578 -14.358  1.00  0.00     0.000 C 
BRANCH  12  13
ATOM     13  C   UNL     1      30.256  12.358 -15.019  1.00  0.00     0.006 C 
BRANCH  13  14
ATOM     14  C   UNL     1      30.175  12.034 -16.520  1.00  0.00     0.053 C 
BRANCH  14  15
ATOM     15  C   UNL     1      29.950  13.266 -17.343  1.00  0.00     0.041 C 
ATOM     16  O   UNL     1      29.395  13.182 -18.471  1.00  0.00    -0.550 OA
ATOM     17  O   UNL     1      30.372  14.504 -16.875  1.00  0.00    -0.550 OA
ENDBRANCH  14  15
ENDBRANCH  13  14
ENDBRANCH  12  13
ENDBRANCH  11  12
ENDBRANCH  10  11
ENDBRANCH   9  10
ENDBRANCH   8   9
ENDBRANCH   7   8
ENDBRANCH   6   7
ENDBRANCH   5   6
ENDBRANCH   4   5
ENDBRANCH   3   4
ENDBRANCH   2   3
ENDBRANCH   1   2
BRANCH   1  18
ATOM     18  C   UNL     1      27.637   6.915 -17.719  1.00  0.00     0.000 C 
BRANCH  18  19
ATOM     19  C   UNL     1      27.419   5.998 -18.941  1.00  0.00     0.000 C 
BRANCH  19  20
ATOM     20  C   UNL     1      28.689   5.298 -19.464  1.00  0.00     0.000 C 
BRANCH  20  21
ATOM     21  C   UNL     1      28.729   3.772 -19.254  1.00  0.00     0.000 C 
BRANCH  21  22
ATOM     22  C   UNL     1      29.563   3.297 -18.050  1.00  0.00     0.000 C 
BRANCH  22  23
ATOM     23  C   UNL     1      30.630   4.322 -17.627  1.00  0.00     0.000 C 
BRANCH  23  24
ATOM     24  C   UNL     1      30.576   4.653 -16.126  1.00  0.00    -0.000 C 
BRANCH  24  25
ATOM     25  C   UNL     1      29.217   4.322 -15.489  1.00  0.00    -0.000 C 
BRANCH  25  26
ATOM     26  C   UNL     1      28.946   5.220 -14.274  1.00  0.00    -0.000 C 
BRANCH  26  27
ATOM     27  C   UNL     1      27.536   5.834 -14.297  1.00  0.00    -0.000 C 
BRANCH  27  28
ATOM     28  C   UNL     1      26.588   5.169 -13.283  1.00  0.00    -0.000 C 
BRANCH  28  29
ATOM     29  C   UNL     1      25.389   4.478 -13.969  1.00  0.00    -0.000 C 
BRANCH  29  30
ATOM     30  C   UNL     1      25.468   4.487 -15.507  1.00  0.00    -0.000 C 
BRANCH  30  31
ATOM     31  C   UNL     1      25.785   3.122 -16.141  1.00  0.00    -0.003 C 
ATOM     32  C   UNL     1      25.497   3.084 -17.642  1.00  0.00     0.004 C 
ENDBRANCH  30  31
ENDBRANCH  29  30
ENDBRANCH  28  29
ENDBRANCH  27  28
ENDBRANCH  26  27
ENDBRANCH  25  26
ENDBRANCH  24  25
ENDBRANCH  23  24
ENDBRANCH  22  23
ENDBRANCH  21  22
ENDBRANCH  20  21
ENDBRANCH  19  20
ENDBRANCH  18  19
ENDBRANCH   1  18
TORSDOF 28
ENDMDL
