MODEL 1
REMARK VINA RESULT:     8.592      0.000      0.000
REMARK INTER + INTRA:          11.099
REMARK INTER:                  10.601
REMARK INTRA:                   0.499
REMARK UNBOUND:                 0.499
REMARK SMILES C=C1[C@@H]2CC[C@H]3[C@H]2C(C)(C)CCC[C@@]13C
REMARK SMILES IDX 14 1 6 2 7 3 3 4 2 5 1 6 4 7 5 8 15 9 8 10 9 11 10 12 11 13
REMARK SMILES IDX 13 15 12 16
REMARK H PARENT
REMARK Flexibility Score: 80.00
ROOT
ATOM      1  C   UNL     1     -15.134  -3.343  16.308  1.00  0.00    -0.008 C 
ATOM      2  C   UNL     1     -15.779  -2.698  17.526  1.00  0.00     0.003 C 
ATOM      3  C   UNL     1     -15.251  -1.262  17.344  1.00  0.00     0.006 C 
ATOM      4  C   UNL     1     -13.798  -1.649  17.551  1.00  0.00     0.019 C 
ATOM      5  C   UNL     1     -13.729  -2.737  16.454  1.00  0.00    -0.068 C 
ATOM      6  C   UNL     1     -12.653  -3.032  15.717  1.00  0.00     0.009 C 
ATOM      7  C   UNL     1     -13.810  -2.360  18.898  1.00  0.00     0.008 C 
ATOM      8  C   UNL     1     -15.150  -3.098  18.883  1.00  0.00     0.005 C 
ATOM      9  C   UNL     1     -15.080  -4.884  16.392  1.00  0.00     0.016 C 
ENDROOT
BRANCH   3  10
ATOM     10  C   UNL     1     -16.423  -0.255  17.304  1.00  0.00    -0.032 C 
ATOM     11  C   UNL     1     -17.208  -0.264  18.635  1.00  0.00     0.011 C 
ATOM     12  C   UNL     1     -15.923   1.198  17.073  1.00  0.00     0.011 C 
BRANCH  10  13
ATOM     13  C   UNL     1     -17.354  -0.726  16.095  1.00  0.00     0.007 CG0
ATOM     14  G   UNL     1     -16.636  -1.467  14.884  1.00  0.00     0.000 G0
ENDBRANCH  10  13
ENDBRANCH   3  10
BRANCH   1  15
ATOM     15  C   UNL     1     -16.001  -2.905  15.040  1.00  0.00     0.011 C 
BRANCH  15  16
ATOM     16  C   UNL     1     -16.655  -1.457  14.876  1.00  0.00     0.001 CG0
ATOM     17  G   UNL     1     -17.341  -0.722  16.108  1.00  0.00     0.000 G0
ENDBRANCH  15  16
ENDBRANCH   1  15
TORSDOF 0
ENDMDL
MODEL 2
REMARK VINA RESULT:     9.226      2.063      4.395
REMARK INTER + INTRA:          11.883
REMARK INTER:                  11.358
REMARK INTRA:                   0.525
REMARK UNBOUND:                 0.499
REMARK SMILES C=C1[C@@H]2CC[C@H]3[C@H]2C(C)(C)CCC[C@@]13C
REMARK SMILES IDX 14 1 6 2 7 3 3 4 2 5 1 6 4 7 5 8 15 9 8 10 9 11 10 12 11 13
REMARK SMILES IDX 13 15 12 16
REMARK H PARENT
REMARK Flexibility Score: 80.00
ROOT
ATOM      1  C   UNL     1     -15.633  -2.254  18.164  1.00  0.00    -0.008 C 
ATOM      2  C   UNL     1     -15.421  -3.205  16.995  1.00  0.00     0.003 C 
ATOM      3  C   UNL     1     -14.565  -2.293  16.096  1.00  0.00     0.006 C 
ATOM      4  C   UNL     1     -15.676  -1.282  15.872  1.00  0.00     0.019 C 
ATOM      5  C   UNL     1     -15.973  -0.989  17.361  1.00  0.00    -0.068 C 
ATOM      6  C   UNL     1     -16.379   0.184  17.857  1.00  0.00     0.009 C 
ATOM      7  C   UNL     1     -16.822  -2.130  15.335  1.00  0.00     0.008 C 
ATOM      8  C   UNL     1     -16.670  -3.439  16.112  1.00  0.00     0.005 C 
ATOM      9  C   UNL     1     -16.811  -2.662  19.075  1.00  0.00     0.016 C 
ENDROOT
BRANCH   3  10
ATOM     10  C   UNL     1     -13.230  -2.983  15.739  1.00  0.00    -0.032 C 
ATOM     11  C   UNL     1     -13.468  -4.241  14.875  1.00  0.00     0.011 C 
ATOM     12  C   UNL     1     -12.294  -2.040  14.932  1.00  0.00     0.011 C 
BRANCH  10  13
ATOM     13  C   UNL     1     -12.560  -3.374  17.136  1.00  0.00     0.007 CG0
ATOM     14  G   UNL     1     -12.816  -2.385  18.355  1.00  0.00     0.000 G0
ENDBRANCH  10  13
ENDBRANCH   3  10
BRANCH   1  15
ATOM     15  C   UNL     1     -14.278  -2.252  19.009  1.00  0.00     0.011 C 
BRANCH  15  16
ATOM     16  C   UNL     1     -12.827  -2.383  18.352  1.00  0.00     0.001 CG0
ATOM     17  G   UNL     1     -12.564  -3.374  17.136  1.00  0.00     0.000 G0
ENDBRANCH  15  16
ENDBRANCH   1  15
TORSDOF 0
ENDMDL
MODEL 3
REMARK VINA RESULT:     9.289      2.197      3.803
REMARK INTER + INTRA:          11.960
REMARK INTER:                  11.448
REMARK INTRA:                   0.512
REMARK UNBOUND:                 0.499
REMARK SMILES C=C1[C@@H]2CC[C@H]3[C@H]2C(C)(C)CCC[C@@]13C
REMARK SMILES IDX 14 1 6 2 7 3 3 4 2 5 1 6 4 7 5 8 15 9 8 10 9 11 10 12 11 13
REMARK SMILES IDX 13 15 12 16
REMARK H PARENT
REMARK Flexibility Score: 80.00
ROOT
ATOM      1  C   UNL     1     -13.513  -3.104  16.211  1.00  0.00    -0.008 C 
ATOM      2  C   UNL     1     -14.369  -1.926  16.654  1.00  0.00     0.003 C 
ATOM      3  C   UNL     1     -15.289  -2.659  17.648  1.00  0.00     0.006 C 
ATOM      4  C   UNL     1     -15.940  -3.523  16.583  1.00  0.00     0.019 C 
ATOM      5  C   UNL     1     -14.639  -4.130  16.006  1.00  0.00    -0.068 C 
ATOM      6  C   UNL     1     -14.514  -5.358  15.494  1.00  0.00     0.009 C 
ATOM      7  C   UNL     1     -16.457  -2.508  15.572  1.00  0.00     0.008 C 
ATOM      8  C   UNL     1     -15.380  -1.422  15.597  1.00  0.00     0.005 C 
ATOM      9  C   UNL     1     -12.758  -2.844  14.889  1.00  0.00     0.016 C 
ENDROOT
BRANCH   3  10
ATOM     10  C   UNL     1     -15.229  -1.987  19.038  1.00  0.00    -0.032 C 
ATOM     11  C   UNL     1     -15.767  -0.540  18.980  1.00  0.00     0.011 C 
ATOM     12  C   UNL     1     -16.084  -2.756  20.084  1.00  0.00     0.011 C 
BRANCH  10  13
ATOM     13  C   UNL     1     -13.688  -2.001  19.457  1.00  0.00     0.007 CG0
ATOM     14  G   UNL     1     -12.810  -3.213  18.919  1.00  0.00     0.000 G0
ENDBRANCH  10  13
ENDBRANCH   3  10
BRANCH   1  15
ATOM     15  C   UNL     1     -12.465  -3.380  17.382  1.00  0.00     0.011 C 
BRANCH  15  16
ATOM     16  C   UNL     1     -12.808  -3.207  18.933  1.00  0.00     0.001 CG0
ATOM     17  G   UNL     1     -13.697  -1.992  19.446  1.00  0.00     0.000 G0
ENDBRANCH  15  16
ENDBRANCH   1  15
TORSDOF 0
ENDMDL
MODEL 4
REMARK VINA RESULT:    11.127      1.760      3.185
REMARK INTER + INTRA:          14.228
REMARK INTER:                  13.721
REMARK INTRA:                   0.507
REMARK UNBOUND:                 0.499
REMARK SMILES C=C1[C@@H]2CC[C@H]3[C@H]2C(C)(C)CCC[C@@]13C
REMARK SMILES IDX 14 1 6 2 7 3 3 4 2 5 1 6 4 7 5 8 15 9 8 10 9 11 10 12 11 13
REMARK SMILES IDX 13 15 12 16
REMARK H PARENT
REMARK Flexibility Score: 80.00
ROOT
ATOM      1  C   UNL     1     -15.496  -1.625  16.398  1.00  0.00    -0.008 C 
ATOM      2  C   UNL     1     -15.591  -2.622  17.544  1.00  0.00     0.003 C 
ATOM      3  C   UNL     1     -14.239  -2.336  18.224  1.00  0.00     0.006 C 
ATOM      4  C   UNL     1     -13.415  -2.828  17.048  1.00  0.00     0.019 C 
ATOM      5  C   UNL     1     -14.048  -1.915  15.972  1.00  0.00    -0.068 C 
ATOM      6  C   UNL     1     -13.415  -1.411  14.908  1.00  0.00     0.009 C 
ATOM      7  C   UNL     1     -13.939  -4.239  16.815  1.00  0.00     0.008 C 
ATOM      8  C   UNL     1     -15.430  -4.105  17.130  1.00  0.00     0.005 C 
ATOM      9  C   UNL     1     -16.480  -1.926  15.247  1.00  0.00     0.016 C 
ENDROOT
BRANCH   3  10
ATOM     10  C   UNL     1     -14.448  -1.969  19.710  1.00  0.00    -0.032 C 
ATOM     11  C   UNL     1     -15.064  -3.150  20.493  1.00  0.00     0.011 C 
ATOM     12  C   UNL     1     -13.106  -1.604  20.405  1.00  0.00     0.011 C 
BRANCH  10  13
ATOM     13  C   UNL     1     -15.436  -0.713  19.709  1.00  0.00     0.007 CG0
ATOM     14  G   UNL     1     -15.341   0.273  18.465  1.00  0.00     0.000 G0
ENDBRANCH  10  13
ENDBRANCH   3  10
BRANCH   1  15
ATOM     15  C   UNL     1     -15.813  -0.186  17.012  1.00  0.00     0.011 C 
BRANCH  15  16
ATOM     16  C   UNL     1     -15.359   0.270  18.474  1.00  0.00     0.001 CG0
ATOM     17  G   UNL     1     -15.432  -0.733  19.706  1.00  0.00     0.000 G0
ENDBRANCH  15  16
ENDBRANCH   1  15
TORSDOF 0
ENDMDL
