MODEL 1
REMARK VINA RESULT:    -3.794      0.000      0.000
REMARK INTER + INTRA:          -6.844
REMARK INTER:                  -5.790
REMARK INTRA:                  -1.054
REMARK UNBOUND:                -1.054
REMARK SMILES CCCCCCCCCCC(=O)[O-]
REMARK SMILES IDX 7 1 8 2 9 3 10 4 11 5 12 6 13 7 6 8 5 9 4 10 3 11 2 12 1 13
REMARK H PARENT
REMARK Flexibility Score: inf
ROOT
ATOM      1  C   UNL     1     -20.362 117.955  -2.577  1.00  0.00     0.000 C 
ENDROOT
BRANCH   1   2
ATOM      2  C   UNL     1     -19.850 118.887  -1.469  1.00  0.00     0.000 C 
BRANCH   2   3
ATOM      3  C   UNL     1     -19.936 120.371  -1.859  1.00  0.00     0.006 C 
BRANCH   3   4
ATOM      4  C   UNL     1     -20.901 121.161  -0.966  1.00  0.00     0.053 C 
BRANCH   4   5
ATOM      5  C   UNL     1     -22.320 120.832  -1.310  1.00  0.00     0.041 C 
ATOM      6  O   UNL     1     -22.672 120.729  -2.515  1.00  0.00    -0.550 OA
ATOM      7  O   UNL     1     -23.265 120.689  -0.303  1.00  0.00    -0.550 OA
ENDBRANCH   4   5
ENDBRANCH   3   4
ENDBRANCH   2   3
ENDBRANCH   1   2
BRANCH   1   8
ATOM      8  C   UNL     1     -19.786 116.543  -2.416  1.00  0.00     0.000 C 
BRANCH   8   9
ATOM      9  C   UNL     1     -20.145 115.954  -1.044  1.00  0.00    -0.000 C 
BRANCH   9  10
ATOM     10  C   UNL     1     -21.572 115.380  -0.991  1.00  0.00    -0.000 C 
BRANCH  10  11
ATOM     11  C   UNL     1     -22.376 115.755   0.267  1.00  0.00    -0.000 C 
BRANCH  11  12
ATOM     12  C   UNL     1     -22.643 117.263   0.379  1.00  0.00    -0.003 C 
ATOM     13  C   UNL     1     -21.892 117.867   1.563  1.00  0.00     0.004 C 
ENDBRANCH  11  12
ENDBRANCH  10  11
ENDBRANCH   9  10
ENDBRANCH   8   9
ENDBRANCH   1   8
TORSDOF 9
ENDMDL
MODEL 2
REMARK VINA RESULT:    -3.775      1.424      2.356
REMARK INTER + INTRA:          -6.816
REMARK INTER:                  -5.547
REMARK INTRA:                  -1.268
REMARK UNBOUND:                -1.054
REMARK SMILES CCCCCCCCCCC(=O)[O-]
REMARK SMILES IDX 7 1 8 2 9 3 10 4 11 5 12 6 13 7 6 8 5 9 4 10 3 11 2 12 1 13
REMARK H PARENT
REMARK Flexibility Score: inf
ROOT
ATOM      1  C   UNL     1     -20.354 120.590  -2.052  1.00  0.00     0.000 C 
ENDROOT
BRANCH   1   2
ATOM      2  C   UNL     1     -21.150 121.357  -0.986  1.00  0.00     0.000 C 
BRANCH   2   3
ATOM      3  C   UNL     1     -22.627 120.938  -0.935  1.00  0.00     0.006 C 
BRANCH   3   4
ATOM      4  C   UNL     1     -23.181 120.556  -2.313  1.00  0.00     0.053 C 
BRANCH   4   5
ATOM      5  C   UNL     1     -24.502 121.219  -2.547  1.00  0.00     0.041 C 
ATOM      6  O   UNL     1     -24.809 121.633  -3.696  1.00  0.00    -0.550 OA
ATOM      7  O   UNL     1     -25.374 121.426  -1.486  1.00  0.00    -0.550 OA
ENDBRANCH   4   5
ENDBRANCH   3   4
ENDBRANCH   2   3
ENDBRANCH   1   2
BRANCH   1   8
ATOM      8  C   UNL     1     -19.650 119.373  -1.440  1.00  0.00     0.000 C 
BRANCH   8   9
ATOM      9  C   UNL     1     -20.226 118.064  -2.000  1.00  0.00    -0.000 C 
BRANCH   9  10
ATOM     10  C   UNL     1     -20.832 117.159  -0.912  1.00  0.00    -0.000 C 
BRANCH  10  11
ATOM     11  C   UNL     1     -22.367 117.192  -0.820  1.00  0.00    -0.000 C 
BRANCH  11  12
ATOM     12  C   UNL     1     -22.877 117.475   0.601  1.00  0.00    -0.003 C 
ATOM     13  C   UNL     1     -21.777 118.080   1.469  1.00  0.00     0.004 C 
ENDBRANCH  11  12
ENDBRANCH  10  11
ENDBRANCH   9  10
ENDBRANCH   8   9
ENDBRANCH   1   8
TORSDOF 9
ENDMDL
MODEL 3
REMARK VINA RESULT:    -3.693      1.810      3.629
REMARK INTER + INTRA:          -6.691
REMARK INTER:                  -5.339
REMARK INTRA:                  -1.352
REMARK UNBOUND:                -1.054
REMARK SMILES CCCCCCCCCCC(=O)[O-]
REMARK SMILES IDX 7 1 8 2 9 3 10 4 11 5 12 6 13 7 6 8 5 9 4 10 3 11 2 12 1 13
REMARK H PARENT
REMARK Flexibility Score: inf
ROOT
ATOM      1  C   UNL     1     -21.967 121.301  -1.080  1.00  0.00     0.000 C 
ENDROOT
BRANCH   1   2
ATOM      2  C   UNL     1     -20.719 120.574  -0.557  1.00  0.00     0.000 C 
BRANCH   2   3
ATOM      3  C   UNL     1     -19.865 119.979  -1.687  1.00  0.00     0.006 C 
BRANCH   3   4
ATOM      4  C   UNL     1     -19.710 118.458  -1.573  1.00  0.00     0.053 C 
BRANCH   4   5
ATOM      5  C   UNL     1     -20.481 117.771  -2.656  1.00  0.00     0.041 C 
ATOM      6  O   UNL     1     -20.510 116.513  -2.714  1.00  0.00    -0.550 OA
ATOM      7  O   UNL     1     -21.128 118.519  -3.631  1.00  0.00    -0.550 OA
ENDBRANCH   4   5
ENDBRANCH   3   4
ENDBRANCH   2   3
ENDBRANCH   1   2
BRANCH   1   8
ATOM      8  C   UNL     1     -23.247 120.640  -0.555  1.00  0.00     0.000 C 
BRANCH   8   9
ATOM      9  C   UNL     1     -23.731 119.540  -1.511  1.00  0.00    -0.000 C 
BRANCH   9  10
ATOM     10  C   UNL     1     -23.701 118.137  -0.879  1.00  0.00    -0.000 C 
BRANCH  10  11
ATOM     11  C   UNL     1     -23.190 118.089   0.572  1.00  0.00    -0.000 C 
BRANCH  11  12
ATOM     12  C   UNL     1     -22.093 117.035   0.785  1.00  0.00    -0.003 C 
ATOM     13  C   UNL     1     -22.461 115.715   0.114  1.00  0.00     0.004 C 
ENDBRANCH  11  12
ENDBRANCH  10  11
ENDBRANCH   9  10
ENDBRANCH   8   9
ENDBRANCH   1   8
TORSDOF 9
ENDMDL
MODEL 4
REMARK VINA RESULT:    -3.660      3.293      5.472
REMARK INTER + INTRA:          -6.640
REMARK INTER:                  -5.827
REMARK INTRA:                  -0.813
REMARK UNBOUND:                -1.054
REMARK SMILES CCCCCCCCCCC(=O)[O-]
REMARK SMILES IDX 7 1 8 2 9 3 10 4 11 5 12 6 13 7 6 8 5 9 4 10 3 11 2 12 1 13
REMARK H PARENT
REMARK Flexibility Score: inf
ROOT
ATOM      1  C   UNL     1     -21.073 116.649  -0.260  1.00  0.00     0.000 C 
ENDROOT
BRANCH   1   2
ATOM      2  C   UNL     1     -21.360 115.184  -0.618  1.00  0.00     0.000 C 
BRANCH   2   3
ATOM      3  C   UNL     1     -20.120 114.453  -1.158  1.00  0.00     0.006 C 
BRANCH   3   4
ATOM      4  C   UNL     1     -18.872 114.694  -0.300  1.00  0.00     0.053 C 
BRANCH   4   5
ATOM      5  C   UNL     1     -17.738 115.174  -1.151  1.00  0.00     0.041 C 
ATOM      6  O   UNL     1     -17.967 115.771  -2.236  1.00  0.00    -0.550 OA
ATOM      7  O   UNL     1     -16.427 114.917  -0.771  1.00  0.00    -0.550 OA
ENDBRANCH   4   5
ENDBRANCH   3   4
ENDBRANCH   2   3
ENDBRANCH   1   2
BRANCH   1   8
ATOM      8  C   UNL     1     -21.092 117.534  -1.512  1.00  0.00     0.000 C 
BRANCH   8   9
ATOM      9  C   UNL     1     -19.932 118.540  -1.494  1.00  0.00    -0.000 C 
BRANCH   9  10
ATOM     10  C   UNL     1     -20.325 119.922  -2.047  1.00  0.00    -0.000 C 
BRANCH  10  11
ATOM     11  C   UNL     1     -20.704 120.965  -0.981  1.00  0.00    -0.000 C 
BRANCH  11  12
ATOM     12  C   UNL     1     -22.211 121.004  -0.691  1.00  0.00    -0.003 C 
ATOM     13  C   UNL     1     -23.022 120.798  -1.966  1.00  0.00     0.004 C 
ENDBRANCH  11  12
ENDBRANCH  10  11
ENDBRANCH   9  10
ENDBRANCH   8   9
ENDBRANCH   1   8
TORSDOF 9
ENDMDL
MODEL 5
REMARK VINA RESULT:    -3.660      1.271      3.893
REMARK INTER + INTRA:          -6.639
REMARK INTER:                  -5.556
REMARK INTRA:                  -1.083
REMARK UNBOUND:                -1.054
REMARK SMILES CCCCCCCCCCC(=O)[O-]
REMARK SMILES IDX 7 1 8 2 9 3 10 4 11 5 12 6 13 7 6 8 5 9 4 10 3 11 2 12 1 13
REMARK H PARENT
REMARK Flexibility Score: inf
ROOT
ATOM      1  C   UNL     1     -20.051 115.534  -0.651  1.00  0.00     0.000 C 
ENDROOT
BRANCH   1   2
ATOM      2  C   UNL     1     -21.510 115.073  -0.786  1.00  0.00     0.000 C 
BRANCH   2   3
ATOM      3  C   UNL     1     -22.442 115.757   0.226  1.00  0.00     0.006 C 
BRANCH   3   4
ATOM      4  C   UNL     1     -23.306 116.851  -0.412  1.00  0.00     0.053 C 
BRANCH   4   5
ATOM      5  C   UNL     1     -22.966 118.189   0.166  1.00  0.00     0.041 C 
ATOM      6  O   UNL     1     -23.648 119.203  -0.138  1.00  0.00    -0.550 OA
ATOM      7  O   UNL     1     -21.864 118.326   1.000  1.00  0.00    -0.550 OA
ENDBRANCH   4   5
ENDBRANCH   3   4
ENDBRANCH   2   3
ENDBRANCH   1   2
BRANCH   1   8
ATOM      8  C   UNL     1     -19.580 116.247  -1.924  1.00  0.00     0.000 C 
BRANCH   8   9
ATOM      9  C   UNL     1     -19.873 117.753  -1.852  1.00  0.00    -0.000 C 
BRANCH   9  10
ATOM     10  C   UNL     1     -20.896 118.218  -2.904  1.00  0.00    -0.000 C 
BRANCH  10  11
ATOM     11  C   UNL     1     -21.159 119.734  -2.930  1.00  0.00    -0.000 C 
BRANCH  11  12
ATOM     12  C   UNL     1     -20.144 120.532  -2.098  1.00  0.00    -0.003 C 
ATOM     13  C   UNL     1     -20.813 121.176  -0.886  1.00  0.00     0.004 C 
ENDBRANCH  11  12
ENDBRANCH  10  11
ENDBRANCH   9  10
ENDBRANCH   8   9
ENDBRANCH   1   8
TORSDOF 9
ENDMDL
MODEL 6
REMARK VINA RESULT:    -3.657      1.730      4.225
REMARK INTER + INTRA:          -6.635
REMARK INTER:                  -5.469
REMARK INTRA:                  -1.166
REMARK UNBOUND:                -1.054
REMARK SMILES CCCCCCCCCCC(=O)[O-]
REMARK SMILES IDX 7 1 8 2 9 3 10 4 11 5 12 6 13 7 6 8 5 9 4 10 3 11 2 12 1 13
REMARK H PARENT
REMARK Flexibility Score: inf
ROOT
ATOM      1  C   UNL     1     -20.780 118.034  -2.609  1.00  0.00     0.000 C 
ENDROOT
BRANCH   1   2
ATOM      2  C   UNL     1     -21.805 116.996  -2.126  1.00  0.00     0.000 C 
BRANCH   2   3
ATOM      3  C   UNL     1     -21.333 116.236  -0.877  1.00  0.00     0.006 C 
BRANCH   3   4
ATOM      4  C   UNL     1     -22.446 116.061   0.164  1.00  0.00     0.053 C 
BRANCH   4   5
ATOM      5  C   UNL     1     -22.699 117.351   0.880  1.00  0.00     0.041 C 
ATOM      6  O   UNL     1     -23.827 117.905   0.808  1.00  0.00    -0.550 OA
ATOM      7  O   UNL     1     -21.674 117.967   1.585  1.00  0.00    -0.550 OA
ENDBRANCH   4   5
ENDBRANCH   3   4
ENDBRANCH   2   3
ENDBRANCH   1   2
BRANCH   1   8
ATOM      8  C   UNL     1     -19.915 118.532  -1.445  1.00  0.00     0.000 C 
BRANCH   8   9
ATOM      9  C   UNL     1     -19.635 120.037  -1.572  1.00  0.00    -0.000 C 
BRANCH   9  10
ATOM     10  C   UNL     1     -20.912 120.873  -1.763  1.00  0.00    -0.000 C 
BRANCH  10  11
ATOM     11  C   UNL     1     -21.938 120.763  -0.622  1.00  0.00    -0.000 C 
BRANCH  11  12
ATOM     12  C   UNL     1     -23.391 120.842  -1.113  1.00  0.00    -0.003 C 
ATOM     13  C   UNL     1     -23.463 120.760  -2.635  1.00  0.00     0.004 C 
ENDBRANCH  11  12
ENDBRANCH  10  11
ENDBRANCH   9  10
ENDBRANCH   8   9
ENDBRANCH   1   8
TORSDOF 9
ENDMDL
MODEL 7
REMARK VINA RESULT:    -3.628      2.771      5.166
REMARK INTER + INTRA:          -6.590
REMARK INTER:                  -5.535
REMARK INTRA:                  -1.055
REMARK UNBOUND:                -1.054
REMARK SMILES CCCCCCCCCCC(=O)[O-]
REMARK SMILES IDX 7 1 8 2 9 3 10 4 11 5 12 6 13 7 6 8 5 9 4 10 3 11 2 12 1 13
REMARK H PARENT
REMARK Flexibility Score: inf
ROOT
ATOM      1  C   UNL     1     -21.939 116.334   0.451  1.00  0.00     0.000 C 
ENDROOT
BRANCH   1   2
ATOM      2  C   UNL     1     -21.813 115.295  -0.673  1.00  0.00     0.000 C 
BRANCH   2   3
ATOM      3  C   UNL     1     -20.449 114.587  -0.674  1.00  0.00     0.006 C 
BRANCH   3   4
ATOM      4  C   UNL     1     -19.879 114.403  -2.085  1.00  0.00     0.053 C 
BRANCH   4   5
ATOM      5  C   UNL     1     -18.901 115.491  -2.400  1.00  0.00     0.041 C 
ATOM      6  O   UNL     1     -18.167 115.966  -1.492  1.00  0.00    -0.550 OA
ATOM      7  O   UNL     1     -18.835 116.018  -3.683  1.00  0.00    -0.550 OA
ENDBRANCH   4   5
ENDBRANCH   3   4
ENDBRANCH   2   3
ENDBRANCH   1   2
BRANCH   1   8
ATOM      8  C   UNL     1     -21.851 117.759  -0.108  1.00  0.00     0.000 C 
BRANCH   8   9
ATOM      9  C   UNL     1     -22.152 117.780  -1.614  1.00  0.00    -0.000 C 
BRANCH   9  10
ATOM     10  C   UNL     1     -21.031 118.435  -2.442  1.00  0.00    -0.000 C 
BRANCH  10  11
ATOM     11  C   UNL     1     -19.888 119.051  -1.616  1.00  0.00    -0.000 C 
BRANCH  11  12
ATOM     12  C   UNL     1     -19.794 120.576  -1.770  1.00  0.00    -0.003 C 
ATOM     13  C   UNL     1     -20.888 121.278  -0.970  1.00  0.00     0.004 C 
ENDBRANCH  11  12
ENDBRANCH  10  11
ENDBRANCH   9  10
ENDBRANCH   8   9
ENDBRANCH   1   8
TORSDOF 9
ENDMDL
MODEL 8
REMARK VINA RESULT:    -3.621      1.609      3.185
REMARK INTER + INTRA:          -6.580
REMARK INTER:                  -5.347
REMARK INTRA:                  -1.233
REMARK UNBOUND:                -1.054
REMARK SMILES CCCCCCCCCCC(=O)[O-]
REMARK SMILES IDX 7 1 8 2 9 3 10 4 11 5 12 6 13 7 6 8 5 9 4 10 3 11 2 12 1 13
REMARK H PARENT
REMARK Flexibility Score: inf
ROOT
ATOM      1  C   UNL     1     -21.518 116.667  -2.458  1.00  0.00     0.000 C 
ENDROOT
BRANCH   1   2
ATOM      2  C   UNL     1     -20.650 117.884  -2.814  1.00  0.00     0.000 C 
BRANCH   2   3
ATOM      3  C   UNL     1     -19.864 118.422  -1.608  1.00  0.00     0.006 C 
BRANCH   3   4
ATOM      4  C   UNL     1     -19.932 119.950  -1.494  1.00  0.00     0.053 C 
BRANCH   4   5
ATOM      5  C   UNL     1     -21.043 120.357  -0.578  1.00  0.00     0.041 C 
ATOM      6  O   UNL     1     -21.257 119.713   0.483  1.00  0.00    -0.550 OA
ATOM      7  O   UNL     1     -21.873 121.416  -0.919  1.00  0.00    -0.550 OA
ENDBRANCH   4   5
ENDBRANCH   3   4
ENDBRANCH   2   3
ENDBRANCH   1   2
BRANCH   1   8
ATOM      8  C   UNL     1     -21.543 116.436  -0.943  1.00  0.00     0.000 C 
BRANCH   8   9
ATOM      9  C   UNL     1     -21.141 114.994  -0.599  1.00  0.00    -0.000 C 
BRANCH   9  10
ATOM     10  C   UNL     1     -19.857 114.539  -1.316  1.00  0.00    -0.000 C 
BRANCH  10  11
ATOM     11  C   UNL     1     -18.558 114.749  -0.518  1.00  0.00    -0.000 C 
BRANCH  11  12
ATOM     12  C   UNL     1     -17.493 115.529  -1.303  1.00  0.00    -0.003 C 
ATOM     13  C   UNL     1     -17.759 115.465  -2.804  1.00  0.00     0.004 C 
ENDBRANCH  11  12
ENDBRANCH  10  11
ENDBRANCH   9  10
ENDBRANCH   8   9
ENDBRANCH   1   8
TORSDOF 9
ENDMDL
MODEL 9
REMARK VINA RESULT:    -3.619      2.202      4.642
REMARK INTER + INTRA:          -6.577
REMARK INTER:                  -5.246
REMARK INTRA:                  -1.330
REMARK UNBOUND:                -1.054
REMARK SMILES CCCCCCCCCCC(=O)[O-]
REMARK SMILES IDX 7 1 8 2 9 3 10 4 11 5 12 6 13 7 6 8 5 9 4 10 3 11 2 12 1 13
REMARK H PARENT
REMARK Flexibility Score: inf
ROOT
ATOM      1  C   UNL     1     -22.897 120.606  -0.249  1.00  0.00     0.000 C 
ENDROOT
BRANCH   1   2
ATOM      2  C   UNL     1     -23.817 119.802  -1.179  1.00  0.00     0.000 C 
BRANCH   2   3
ATOM      3  C   UNL     1     -23.760 118.290  -0.906  1.00  0.00     0.006 C 
BRANCH   3   4
ATOM      4  C   UNL     1     -23.747 117.961   0.592  1.00  0.00     0.053 C 
BRANCH   4   5
ATOM      5  C   UNL     1     -22.472 117.270   0.964  1.00  0.00     0.041 C 
ATOM      6  O   UNL     1     -21.631 117.847   1.703  1.00  0.00    -0.550 OA
ATOM      7  O   UNL     1     -22.189 116.010   0.454  1.00  0.00    -0.550 OA
ENDBRANCH   4   5
ENDBRANCH   3   4
ENDBRANCH   2   3
ENDBRANCH   1   2
BRANCH   1   8
ATOM      8  C   UNL     1     -21.830 121.360  -1.052  1.00  0.00     0.000 C 
BRANCH   8   9
ATOM      9  C   UNL     1     -20.421 120.859  -0.702  1.00  0.00    -0.000 C 
BRANCH   9  10
ATOM     10  C   UNL     1     -19.831 119.926  -1.775  1.00  0.00    -0.000 C 
BRANCH  10  11
ATOM     11  C   UNL     1     -19.938 118.424  -1.460  1.00  0.00    -0.000 C 
BRANCH  11  12
ATOM     12  C   UNL     1     -20.522 117.608  -2.623  1.00  0.00    -0.003 C 
ATOM     13  C   UNL     1     -21.233 118.513  -3.626  1.00  0.00     0.004 C 
ENDBRANCH  11  12
ENDBRANCH  10  11
ENDBRANCH   9  10
ENDBRANCH   8   9
ENDBRANCH   1   8
TORSDOF 9
ENDMDL
