MODEL 1
REMARK VINA RESULT:    -4.600      0.000      0.000
REMARK INTER + INTRA:          -6.519
REMARK INTER:                  -6.214
REMARK INTRA:                  -0.306
REMARK UNBOUND:                -0.306
REMARK SMILES CC(=O)CCC=C(C)CCC=C(C)C
REMARK SMILES IDX 7 1 6 2 8 3 9 4 10 5 11 6 13 7 12 8 14 9 5 10 4 11 2 12 3 13
REMARK SMILES IDX 1 14
REMARK H PARENT
REMARK Flexibility Score: inf
ROOT
ATOM      1  C   UNL     1      83.762   3.651  27.409  1.00  0.00    -0.077 C 
ATOM      2  C   UNL     1      82.620   3.484  28.117  1.00  0.00    -0.028 C 
ATOM      3  C   UNL     1      85.120   3.366  28.007  1.00  0.00     0.039 C 
ENDROOT
BRANCH   1   4
ATOM      4  C   UNL     1      83.676   4.156  25.985  1.00  0.00     0.034 C 
BRANCH   4   5
ATOM      5  C   UNL     1      83.371   5.658  25.958  1.00  0.00     0.032 C 
BRANCH   5   6
ATOM      6  C   UNL     1      81.892   5.899  25.782  1.00  0.00    -0.028 C 
ATOM      7  C   UNL     1      81.522   6.399  28.208  1.00  0.00     0.039 C 
ATOM      8  C   UNL     1      81.053   6.256  26.779  1.00  0.00    -0.080 C 
ATOM      9  C   UNL     1      79.604   6.502  26.446  1.00  0.00     0.039 C 
ENDBRANCH   5   6
ENDBRANCH   4   5
ENDBRANCH   1   4
BRANCH   2  10
ATOM     10  C   UNL     1      82.559   2.955  29.529  1.00  0.00     0.035 C 
BRANCH  10  11
ATOM     11  C   UNL     1      81.104   2.684  29.942  1.00  0.00     0.079 C 
BRANCH  11  12
ATOM     12  C   UNL     1      80.725   3.245  31.294  1.00  0.00     0.130 C 
ATOM     13  O   UNL     1      81.361   4.194  31.727  1.00  0.00    -0.300 OA
ATOM     14  C   UNL     1      79.598   2.694  32.125  1.00  0.00     0.087 C 
ENDBRANCH  11  12
ENDBRANCH  10  11
ENDBRANCH   2  10
TORSDOF 6
ENDMDL
MODEL 2
REMARK VINA RESULT:    -4.507      1.321      3.635
REMARK INTER + INTRA:          -6.393
REMARK INTER:                  -5.958
REMARK INTRA:                  -0.435
REMARK UNBOUND:                -0.306
REMARK SMILES CC(=O)CCC=C(C)CCC=C(C)C
REMARK SMILES IDX 7 1 6 2 8 3 9 4 10 5 11 6 13 7 12 8 14 9 5 10 4 11 2 12 3 13
REMARK SMILES IDX 1 14
REMARK H PARENT
REMARK Flexibility Score: inf
ROOT
ATOM      1  C   UNL     1      81.862   5.775  27.492  1.00  0.00    -0.077 C 
ATOM      2  C   UNL     1      82.331   5.572  28.746  1.00  0.00    -0.028 C 
ATOM      3  C   UNL     1      80.392   5.985  27.215  1.00  0.00     0.039 C 
ENDROOT
BRANCH   1   4
ATOM      4  C   UNL     1      82.836   5.770  26.335  1.00  0.00     0.034 C 
BRANCH   4   5
ATOM      5  C   UNL     1      83.420   4.369  26.121  1.00  0.00     0.032 C 
BRANCH   5   6
ATOM      6  C   UNL     1      84.764   4.242  26.796  1.00  0.00    -0.028 C 
ATOM      7  C   UNL     1      83.916   2.660  28.542  1.00  0.00     0.039 C 
ATOM      8  C   UNL     1      85.007   3.460  27.870  1.00  0.00    -0.080 C 
ATOM      9  C   UNL     1      86.412   3.403  28.414  1.00  0.00     0.039 C 
ENDBRANCH   5   6
ENDBRANCH   4   5
ENDBRANCH   1   4
BRANCH   2  10
ATOM     10  C   UNL     1      81.478   5.588  29.991  1.00  0.00     0.035 C 
BRANCH  10  11
ATOM     11  C   UNL     1      81.781   4.365  30.870  1.00  0.00     0.079 C 
BRANCH  11  12
ATOM     12  C   UNL     1      80.873   3.180  30.624  1.00  0.00     0.130 C 
ATOM     13  O   UNL     1      80.865   2.678  29.511  1.00  0.00    -0.300 OA
ATOM     14  C   UNL     1      79.988   2.591  31.688  1.00  0.00     0.087 C 
ENDBRANCH  11  12
ENDBRANCH  10  11
ENDBRANCH   2  10
TORSDOF 6
ENDMDL
MODEL 3
REMARK VINA RESULT:    -4.355     10.830     12.467
REMARK INTER + INTRA:          -6.188
REMARK INTER:                  -5.437
REMARK INTRA:                  -0.751
REMARK UNBOUND:                -0.306
REMARK SMILES CC(=O)CCC=C(C)CCC=C(C)C
REMARK SMILES IDX 7 1 6 2 8 3 9 4 10 5 11 6 13 7 12 8 14 9 5 10 4 11 2 12 3 13
REMARK SMILES IDX 1 14
REMARK H PARENT
REMARK Flexibility Score: inf
ROOT
ATOM      1  C   UNL     1      85.380  -8.474  29.474  1.00  0.00    -0.077 C 
ATOM      2  C   UNL     1      84.531  -7.985  28.540  1.00  0.00    -0.028 C 
ATOM      3  C   UNL     1      85.515  -9.956  29.732  1.00  0.00     0.039 C 
ENDROOT
BRANCH   1   4
ATOM      4  C   UNL     1      86.203  -7.506  30.296  1.00  0.00     0.034 C 
BRANCH   4   5
ATOM      5  C   UNL     1      86.038  -6.074  29.776  1.00  0.00     0.032 C 
BRANCH   5   6
ATOM      6  C   UNL     1      85.264  -5.234  30.762  1.00  0.00    -0.028 C 
ATOM      7  C   UNL     1      83.575  -4.508  29.062  1.00  0.00     0.039 C 
ATOM      8  C   UNL     1      84.142  -4.544  30.461  1.00  0.00    -0.080 C 
ATOM      9  C   UNL     1      83.453  -3.779  31.562  1.00  0.00     0.039 C 
ENDBRANCH   5   6
ENDBRANCH   4   5
ENDBRANCH   1   4
BRANCH   2  10
ATOM     10  C   UNL     1      83.682  -8.836  27.628  1.00  0.00     0.035 C 
BRANCH  10  11
ATOM     11  C   UNL     1      84.079  -8.618  26.159  1.00  0.00     0.079 C 
BRANCH  11  12
ATOM     12  C   UNL     1      83.042  -7.890  25.334  1.00  0.00     0.130 C 
ATOM     13  O   UNL     1      82.708  -6.767  25.683  1.00  0.00    -0.300 OA
ATOM     14  C   UNL     1      82.410  -8.481  24.104  1.00  0.00     0.087 C 
ENDBRANCH  11  12
ENDBRANCH  10  11
ENDBRANCH   2  10
TORSDOF 6
ENDMDL
MODEL 4
REMARK VINA RESULT:    -4.307      9.844     11.863
REMARK INTER + INTRA:          -6.124
REMARK INTER:                  -5.061
REMARK INTRA:                  -1.063
REMARK UNBOUND:                -0.306
REMARK SMILES CC(=O)CCC=C(C)CCC=C(C)C
REMARK SMILES IDX 7 1 6 2 8 3 9 4 10 5 11 6 13 7 12 8 14 9 5 10 4 11 2 12 3 13
REMARK SMILES IDX 1 14
REMARK H PARENT
REMARK Flexibility Score: inf
ROOT
ATOM      1  C   UNL     1      83.126  -4.589  28.402  1.00  0.00    -0.077 C 
ATOM      2  C   UNL     1      82.289  -5.635  28.594  1.00  0.00    -0.028 C 
ATOM      3  C   UNL     1      83.226  -3.881  27.071  1.00  0.00     0.039 C 
ENDROOT
BRANCH   1   4
ATOM      4  C   UNL     1      84.001  -4.129  29.547  1.00  0.00     0.034 C 
BRANCH   4   5
ATOM      5  C   UNL     1      84.037  -5.182  30.661  1.00  0.00     0.032 C 
BRANCH   5   6
ATOM      6  C   UNL     1      85.459  -5.468  31.078  1.00  0.00    -0.028 C 
ATOM      7  C   UNL     1      85.710  -7.387  29.488  1.00  0.00     0.039 C 
ATOM      8  C   UNL     1      86.231  -6.440  30.544  1.00  0.00    -0.080 C 
ATOM      9  C   UNL     1      87.648  -6.583  31.034  1.00  0.00     0.039 C 
ENDBRANCH   5   6
ENDBRANCH   4   5
ENDBRANCH   1   4
BRANCH   2  10
ATOM     10  C   UNL     1      81.338  -6.172  27.552  1.00  0.00     0.035 C 
BRANCH  10  11
ATOM     11  C   UNL     1      81.754  -7.586  27.117  1.00  0.00     0.079 C 
BRANCH  11  12
ATOM     12  C   UNL     1      82.887  -7.624  26.117  1.00  0.00     0.130 C 
ATOM     13  O   UNL     1      82.855  -6.846  25.176  1.00  0.00    -0.300 OA
ATOM     14  C   UNL     1      84.051  -8.570  26.231  1.00  0.00     0.087 C 
ENDBRANCH  11  12
ENDBRANCH  10  11
ENDBRANCH   2  10
TORSDOF 6
ENDMDL
MODEL 5
REMARK VINA RESULT:    -4.300     10.716     12.675
REMARK INTER + INTRA:          -6.114
REMARK INTER:                  -5.307
REMARK INTRA:                  -0.806
REMARK UNBOUND:                -0.306
REMARK SMILES CC(=O)CCC=C(C)CCC=C(C)C
REMARK SMILES IDX 7 1 6 2 8 3 9 4 10 5 11 6 13 7 12 8 14 9 5 10 4 11 2 12 3 13
REMARK SMILES IDX 1 14
REMARK H PARENT
REMARK Flexibility Score: inf
ROOT
ATOM      1  C   UNL     1      84.009  -8.866  27.496  1.00  0.00    -0.077 C 
ATOM      2  C   UNL     1      83.713  -7.551  27.611  1.00  0.00    -0.028 C 
ATOM      3  C   UNL     1      83.557  -9.684  26.309  1.00  0.00     0.039 C 
ENDROOT
BRANCH   1   4
ATOM      4  C   UNL     1      84.796  -9.542  28.597  1.00  0.00     0.034 C 
BRANCH   4   5
ATOM      5  C   UNL     1      84.660  -8.770  29.915  1.00  0.00     0.032 C 
BRANCH   5   6
ATOM      6  C   UNL     1      86.010  -8.567  30.557  1.00  0.00    -0.028 C 
ATOM      7  C   UNL     1      86.100  -6.133  29.976  1.00  0.00     0.039 C 
ATOM      8  C   UNL     1      86.659  -7.384  30.613  1.00  0.00    -0.080 C 
ATOM      9  C   UNL     1      87.986  -7.325  31.323  1.00  0.00     0.039 C 
ENDBRANCH   5   6
ENDBRANCH   4   5
ENDBRANCH   1   4
BRANCH   2  10
ATOM     10  C   UNL     1      82.969  -6.747  26.574  1.00  0.00     0.035 C 
BRANCH  10  11
ATOM     11  C   UNL     1      82.203  -5.590  27.233  1.00  0.00     0.079 C 
BRANCH  11  12
ATOM     12  C   UNL     1      83.044  -4.365  27.516  1.00  0.00     0.130 C 
ATOM     13  O   UNL     1      83.441  -4.186  28.657  1.00  0.00    -0.300 OA
ATOM     14  C   UNL     1      83.417  -3.364  26.457  1.00  0.00     0.087 C 
ENDBRANCH  11  12
ENDBRANCH  10  11
ENDBRANCH   2  10
TORSDOF 6
ENDMDL
MODEL 6
REMARK VINA RESULT:    -4.249     10.194     12.349
REMARK INTER + INTRA:          -6.045
REMARK INTER:                  -5.015
REMARK INTRA:                  -1.030
REMARK UNBOUND:                -0.306
REMARK SMILES CC(=O)CCC=C(C)CCC=C(C)C
REMARK SMILES IDX 7 1 6 2 8 3 9 4 10 5 11 6 13 7 12 8 14 9 5 10 4 11 2 12 3 13
REMARK SMILES IDX 1 14
REMARK H PARENT
REMARK Flexibility Score: inf
ROOT
ATOM      1  C   UNL     1      84.396  -6.883  29.562  1.00  0.00    -0.077 C 
ATOM      2  C   UNL     1      84.531  -5.760  28.818  1.00  0.00    -0.028 C 
ATOM      3  C   UNL     1      83.148  -7.162  30.365  1.00  0.00     0.039 C 
ENDROOT
BRANCH   1   4
ATOM      4  C   UNL     1      85.537  -7.876  29.607  1.00  0.00     0.034 C 
BRANCH   4   5
ATOM      5  C   UNL     1      86.021  -8.084  31.046  1.00  0.00     0.032 C 
BRANCH   5   6
ATOM      6  C   UNL     1      87.409  -7.522  31.229  1.00  0.00    -0.028 C 
ATOM      7  C   UNL     1      86.579  -5.313  32.067  1.00  0.00     0.039 C 
ATOM      8  C   UNL     1      87.676  -6.288  31.709  1.00  0.00    -0.080 C 
ATOM      9  C   UNL     1      89.116  -5.877  31.875  1.00  0.00     0.039 C 
ENDBRANCH   5   6
ENDBRANCH   4   5
ENDBRANCH   1   4
BRANCH   2  10
ATOM     10  C   UNL     1      83.461  -4.708  28.656  1.00  0.00     0.035 C 
BRANCH  10  11
ATOM     11  C   UNL     1      82.877  -4.745  27.235  1.00  0.00     0.079 C 
BRANCH  11  12
ATOM     12  C   UNL     1      82.244  -6.064  26.855  1.00  0.00     0.130 C 
ATOM     13  O   UNL     1      81.231  -6.412  27.442  1.00  0.00    -0.300 OA
ATOM     14  C   UNL     1      82.801  -6.963  25.784  1.00  0.00     0.087 C 
ENDBRANCH  11  12
ENDBRANCH  10  11
ENDBRANCH   2  10
TORSDOF 6
ENDMDL
MODEL 7
REMARK VINA RESULT:    -4.219     10.097     12.164
REMARK INTER + INTRA:          -6.005
REMARK INTER:                  -5.061
REMARK INTRA:                  -0.944
REMARK UNBOUND:                -0.306
REMARK SMILES CC(=O)CCC=C(C)CCC=C(C)C
REMARK SMILES IDX 7 1 6 2 8 3 9 4 10 5 11 6 13 7 12 8 14 9 5 10 4 11 2 12 3 13
REMARK SMILES IDX 1 14
REMARK H PARENT
REMARK Flexibility Score: inf
ROOT
ATOM      1  C   UNL     1      84.352  -4.812  30.444  1.00  0.00    -0.077 C 
ATOM      2  C   UNL     1      84.127  -4.946  29.116  1.00  0.00    -0.028 C 
ATOM      3  C   UNL     1      83.362  -4.126  31.355  1.00  0.00     0.039 C 
ENDROOT
BRANCH   1   4
ATOM      4  C   UNL     1      85.641  -5.347  31.028  1.00  0.00     0.034 C 
BRANCH   4   5
ATOM      5  C   UNL     1      86.388  -6.207  30.002  1.00  0.00     0.032 C 
BRANCH   5   6
ATOM      6  C   UNL     1      86.441  -7.647  30.450  1.00  0.00    -0.028 C 
ATOM      7  C   UNL     1      84.709  -8.392  28.803  1.00  0.00     0.039 C 
ATOM      8  C   UNL     1      85.711  -8.644  29.905  1.00  0.00    -0.080 C 
ATOM      9  C   UNL     1      85.899 -10.043  30.431  1.00  0.00     0.039 C 
ENDBRANCH   5   6
ENDBRANCH   4   5
ENDBRANCH   1   4
BRANCH   2  10
ATOM     10  C   UNL     1      82.873  -4.493  28.411  1.00  0.00     0.035 C 
BRANCH  10  11
ATOM     11  C   UNL     1      82.929  -4.856  26.919  1.00  0.00     0.079 C 
BRANCH  11  12
ATOM     12  C   UNL     1      82.452  -6.255  26.599  1.00  0.00     0.130 C 
ATOM     13  O   UNL     1      82.894  -6.805  25.602  1.00  0.00    -0.300 OA
ATOM     14  C   UNL     1      81.465  -7.001  27.455  1.00  0.00     0.087 C 
ENDBRANCH  11  12
ENDBRANCH  10  11
ENDBRANCH   2  10
TORSDOF 6
ENDMDL
MODEL 8
REMARK VINA RESULT:    -4.191     10.452     12.005
REMARK INTER + INTRA:          -5.967
REMARK INTER:                  -4.785
REMARK INTRA:                  -1.181
REMARK UNBOUND:                -0.306
REMARK SMILES CC(=O)CCC=C(C)CCC=C(C)C
REMARK SMILES IDX 7 1 6 2 8 3 9 4 10 5 11 6 13 7 12 8 14 9 5 10 4 11 2 12 3 13
REMARK SMILES IDX 1 14
REMARK H PARENT
REMARK Flexibility Score: inf
ROOT
ATOM      1  C   UNL     1      82.554  -5.251  28.163  1.00  0.00    -0.077 C 
ATOM      2  C   UNL     1      83.233  -5.764  29.215  1.00  0.00    -0.028 C 
ATOM      3  C   UNL     1      83.125  -4.144  27.308  1.00  0.00     0.039 C 
ENDROOT
BRANCH   1   4
ATOM      4  C   UNL     1      81.176  -5.789  27.846  1.00  0.00     0.034 C 
BRANCH   4   5
ATOM      5  C   UNL     1      81.226  -7.300  27.593  1.00  0.00     0.032 C 
BRANCH   5   6
ATOM      6  C   UNL     1      81.448  -7.590  26.129  1.00  0.00    -0.028 C 
ATOM      7  C   UNL     1      83.828  -8.292  26.464  1.00  0.00     0.039 C 
ATOM      8  C   UNL     1      82.604  -8.059  25.610  1.00  0.00    -0.080 C 
ATOM      9  C   UNL     1      82.666  -8.339  24.131  1.00  0.00     0.039 C 
ENDBRANCH   5   6
ENDBRANCH   4   5
ENDBRANCH   1   4
BRANCH   2  10
ATOM     10  C   UNL     1      84.626  -5.347  29.619  1.00  0.00     0.035 C 
BRANCH  10  11
ATOM     11  C   UNL     1      85.670  -6.310  29.036  1.00  0.00     0.079 C 
BRANCH  11  12
ATOM     12  C   UNL     1      86.051  -7.449  29.954  1.00  0.00     0.130 C 
ATOM     13  O   UNL     1      86.877  -7.237  30.829  1.00  0.00    -0.300 OA
ATOM     14  C   UNL     1      85.455  -8.827  29.844  1.00  0.00     0.087 C 
ENDBRANCH  11  12
ENDBRANCH  10  11
ENDBRANCH   2  10
TORSDOF 6
ENDMDL
MODEL 9
REMARK VINA RESULT:    -4.169     10.310     11.770
REMARK INTER + INTRA:          -5.937
REMARK INTER:                  -4.910
REMARK INTRA:                  -1.027
REMARK UNBOUND:                -0.306
REMARK SMILES CC(=O)CCC=C(C)CCC=C(C)C
REMARK SMILES IDX 7 1 6 2 8 3 9 4 10 5 11 6 13 7 12 8 14 9 5 10 4 11 2 12 3 13
REMARK SMILES IDX 1 14
REMARK H PARENT
REMARK Flexibility Score: inf
ROOT
ATOM      1  C   UNL     1      83.273  -7.969  28.002  1.00  0.00    -0.077 C 
ATOM      2  C   UNL     1      83.858  -7.926  29.222  1.00  0.00    -0.028 C 
ATOM      3  C   UNL     1      84.053  -8.308  26.754  1.00  0.00     0.039 C 
ENDROOT
BRANCH   1   4
ATOM      4  C   UNL     1      81.798  -7.650  27.884  1.00  0.00     0.034 C 
BRANCH   4   5
ATOM      5  C   UNL     1      81.505  -6.236  28.398  1.00  0.00     0.032 C 
BRANCH   5   6
ATOM      6  C   UNL     1      81.994  -5.199  27.417  1.00  0.00    -0.028 C 
ATOM      7  C   UNL     1      83.743  -4.316  28.976  1.00  0.00     0.039 C 
ATOM      8  C   UNL     1      83.014  -4.346  27.653  1.00  0.00    -0.080 C 
ATOM      9  C   UNL     1      83.418  -3.389  26.561  1.00  0.00     0.039 C 
ENDBRANCH   5   6
ENDBRANCH   4   5
ENDBRANCH   1   4
BRANCH   2  10
ATOM     10  C   UNL     1      85.307  -8.256  29.487  1.00  0.00     0.035 C 
BRANCH  10  11
ATOM     11  C   UNL     1      86.046  -7.034  30.053  1.00  0.00     0.079 C 
BRANCH  11  12
ATOM     12  C   UNL     1      87.158  -7.370  31.020  1.00  0.00     0.130 C 
ATOM     13  O   UNL     1      87.164  -8.478  31.535  1.00  0.00    -0.300 OA
ATOM     14  C   UNL     1      88.259  -6.406  31.371  1.00  0.00     0.087 C 
ENDBRANCH  11  12
ENDBRANCH  10  11
ENDBRANCH   2  10
TORSDOF 6
ENDMDL
