MODEL 1
REMARK VINA RESULT:     0.392      0.000      0.000
REMARK INTER + INTRA:           1.402
REMARK INTER:                   0.529
REMARK INTRA:                   0.872
REMARK UNBOUND:                 0.872
REMARK SMILES O=c1c(-c2ccc(O)cc2)coc2c([C@@H]3O[C@@H](CO)[C@@H](O)[C@H](O)[C@H]3O)c(O)ccc12
REMARK SMILES IDX 3 1 11 2 12 3 13 4 30 5 2 6 1 7 29 8 28 9 26 10 14 11 4 12
REMARK SMILES IDX 5 13 6 14 7 15 10 16 9 17 8 18 15 20 24 21 16 22 22 23 17 24
REMARK SMILES IDX 20 25 25 26 23 28 18 30 19 31 21 33 27 35
REMARK H PARENT 8 19 25 27 23 29 19 32 21 34 27 36
REMARK Flexibility Score: inf
ROOT
ATOM      1  C   UNL     1      73.564  34.158  54.353  1.00  0.00     0.065 A 
ATOM      2  C   UNL     1      74.903  33.784  54.539  1.00  0.00     0.208 A 
ATOM      3  O   UNL     1      75.824  34.067  53.627  1.00  0.00    -0.463 OA
ATOM      4  C   UNL     1      75.554  34.715  52.496  1.00  0.00     0.147 A 
ATOM      5  C   UNL     1      74.232  35.142  52.233  1.00  0.00     0.066 A 
ATOM      6  C   UNL     1      73.230  34.858  53.178  1.00  0.00     0.200 A 
ATOM      7  O   UNL     1      72.046  35.247  52.987  1.00  0.00    -0.288 OA
ATOM      8  C   UNL     1      73.955  35.847  51.051  1.00  0.00     0.020 A 
ATOM      9  C   UNL     1      74.975  36.125  50.145  1.00  0.00     0.047 A 
ATOM     10  C   UNL     1      76.286  35.704  50.393  1.00  0.00     0.125 A 
ATOM     11  C   UNL     1      76.589  34.978  51.566  1.00  0.00     0.069 A 
ENDROOT
BRANCH   1  12
ATOM     12  C   UNL     1      72.548  33.809  55.377  1.00  0.00    -0.011 A 
ATOM     13  C   UNL     1      71.391  34.594  55.526  1.00  0.00     0.013 A 
ATOM     14  C   UNL     1      70.444  34.280  56.506  1.00  0.00     0.047 A 
ATOM     15  C   UNL     1      70.646  33.180  57.352  1.00  0.00     0.115 A 
ATOM     16  C   UNL     1      72.743  32.708  56.232  1.00  0.00     0.013 A 
ATOM     17  C   UNL     1      71.796  32.398  57.211  1.00  0.00     0.047 A 
BRANCH  15  18
ATOM     18  O   UNL     1      69.712  32.860  58.334  1.00  0.00    -0.508 OA
ATOM     19  H   UNL     1      68.953  32.211  58.153  1.00  0.00     0.293 HD
ENDBRANCH  15  18
ENDBRANCH   1  12
BRANCH  11  20
ATOM     20  C   UNL     1      78.019  34.541  51.855  1.00  0.00     0.188 C 
ATOM     21  C   UNL     1      78.151  33.009  51.666  1.00  0.00     0.179 C 
ATOM     22  O   UNL     1      78.902  35.251  50.995  1.00  0.00    -0.362 OA
ATOM     23  C   UNL     1      79.604  32.567  51.915  1.00  0.00     0.177 C 
ATOM     24  C   UNL     1      80.271  34.937  51.223  1.00  0.00     0.176 C 
ATOM     25  C   UNL     1      80.549  33.422  51.052  1.00  0.00     0.177 C 
BRANCH  21  26
ATOM     26  O   UNL     1      77.271  32.315  52.516  1.00  0.00    -0.387 OA
ATOM     27  H   UNL     1      76.350  32.633  52.321  1.00  0.00     0.211 HD
ENDBRANCH  21  26
BRANCH  23  28
ATOM     28  O   UNL     1      79.763  31.215  51.570  1.00  0.00    -0.387 OA
ATOM     29  H   UNL     1      80.417  30.828  52.212  1.00  0.00     0.211 HD
ENDBRANCH  23  28
BRANCH  24  30
ATOM     30  C   UNL     1      80.803  35.544  52.543  1.00  0.00     0.191 C 
BRANCH  30  31
ATOM     31  O   UNL     1      81.208  34.530  53.423  1.00  0.00    -0.394 OA
ATOM     32  H   UNL     1      81.505  33.769  52.859  1.00  0.00     0.210 HD
ENDBRANCH  30  31
ENDBRANCH  24  30
BRANCH  25  33
ATOM     33  O   UNL     1      81.901  33.116  51.292  1.00  0.00    -0.388 OA
ATOM     34  H   UNL     1      81.941  32.446  52.025  1.00  0.00     0.211 HD
ENDBRANCH  25  33
ENDBRANCH  11  20
BRANCH  10  35
ATOM     35  O   UNL     1      77.291  36.016  49.474  1.00  0.00    -0.507 OA
ATOM     36  H   UNL     1      77.151  35.913  48.477  1.00  0.00     0.293 HD
ENDBRANCH  10  35
TORSDOF 9
ENDMDL
MODEL 2
REMARK VINA RESULT:     1.246      0.991      2.008
REMARK INTER + INTRA:           2.556
REMARK INTER:                   1.827
REMARK INTRA:                   0.729
REMARK UNBOUND:                 0.872
REMARK SMILES O=c1c(-c2ccc(O)cc2)coc2c([C@@H]3O[C@@H](CO)[C@@H](O)[C@H](O)[C@H]3O)c(O)ccc12
REMARK SMILES IDX 3 1 11 2 12 3 13 4 30 5 2 6 1 7 29 8 28 9 26 10 14 11 4 12
REMARK SMILES IDX 5 13 6 14 7 15 10 16 9 17 8 18 15 20 24 21 16 22 22 23 17 24
REMARK SMILES IDX 20 25 25 26 23 28 18 30 19 31 21 33 27 35
REMARK H PARENT 8 19 25 27 23 29 19 32 21 34 27 36
REMARK Flexibility Score: inf
ROOT
ATOM      1  C   UNL     1      74.025  33.923  54.024  1.00  0.00     0.065 A 
ATOM      2  C   UNL     1      75.293  33.331  54.099  1.00  0.00     0.208 A 
ATOM      3  O   UNL     1      76.216  33.574  53.176  1.00  0.00    -0.463 OA
ATOM      4  C   UNL     1      76.012  34.381  52.138  1.00  0.00     0.147 A 
ATOM      5  C   UNL     1      74.766  35.033  51.992  1.00  0.00     0.066 A 
ATOM      6  C   UNL     1      73.765  34.798  52.952  1.00  0.00     0.200 A 
ATOM      7  O   UNL     1      72.650  35.382  52.867  1.00  0.00    -0.288 OA
ATOM      8  C   UNL     1      74.562  35.903  50.910  1.00  0.00     0.020 A 
ATOM      9  C   UNL     1      75.582  36.125  49.988  1.00  0.00     0.047 A 
ATOM     10  C   UNL     1      76.818  35.483  50.120  1.00  0.00     0.125 A 
ATOM     11  C   UNL     1      77.043  34.589  51.190  1.00  0.00     0.069 A 
ENDROOT
BRANCH   1  12
ATOM     12  C   UNL     1      73.002  33.618  55.056  1.00  0.00    -0.011 A 
ATOM     13  C   UNL     1      71.654  33.955  54.842  1.00  0.00     0.013 A 
ATOM     14  C   UNL     1      70.694  33.689  55.823  1.00  0.00     0.047 A 
ATOM     15  C   UNL     1      71.071  33.087  57.032  1.00  0.00     0.115 A 
ATOM     16  C   UNL     1      73.372  33.017  56.273  1.00  0.00     0.013 A 
ATOM     17  C   UNL     1      72.411  32.753  57.252  1.00  0.00     0.047 A 
BRANCH  15  18
ATOM     18  O   UNL     1      70.124  32.821  58.017  1.00  0.00    -0.508 OA
ATOM     19  H   UNL     1      70.033  31.898  58.429  1.00  0.00     0.293 HD
ENDBRANCH  15  18
ENDBRANCH   1  12
BRANCH  11  20
ATOM     20  C   UNL     1      78.395  33.908  51.354  1.00  0.00     0.188 C 
ATOM     21  C   UNL     1      79.312  34.765  52.262  1.00  0.00     0.179 C 
ATOM     22  O   UNL     1      78.195  32.607  51.894  1.00  0.00    -0.362 OA
ATOM     23  C   UNL     1      80.665  34.061  52.467  1.00  0.00     0.177 C 
ATOM     24  C   UNL     1      79.406  31.876  52.043  1.00  0.00     0.176 C 
ATOM     25  C   UNL     1      80.418  32.621  52.950  1.00  0.00     0.177 C 
BRANCH  21  26
ATOM     26  O   UNL     1      79.499  36.051  51.724  1.00  0.00    -0.387 OA
ATOM     27  H   UNL     1      80.094  35.964  50.933  1.00  0.00     0.211 HD
ENDBRANCH  21  26
BRANCH  23  28
ATOM     28  O   UNL     1      81.424  34.746  53.429  1.00  0.00    -0.387 OA
ATOM     29  H   UNL     1      81.113  34.433  54.320  1.00  0.00     0.211 HD
ENDBRANCH  23  28
BRANCH  24  30
ATOM     30  C   UNL     1      79.981  31.405  50.687  1.00  0.00     0.191 C 
BRANCH  30  31
ATOM     31  O   UNL     1      80.970  32.291  50.237  1.00  0.00    -0.394 OA
ATOM     32  H   UNL     1      81.539  32.502  51.022  1.00  0.00     0.210 HD
ENDBRANCH  30  31
ENDBRANCH  24  30
BRANCH  25  33
ATOM     33  O   UNL     1      81.619  31.900  53.083  1.00  0.00    -0.388 OA
ATOM     34  H   UNL     1      82.317  32.520  53.424  1.00  0.00     0.211 HD
ENDBRANCH  25  33
ENDBRANCH  11  20
BRANCH  10  35
ATOM     35  O   UNL     1      77.827  35.742  49.189  1.00  0.00    -0.507 OA
ATOM     36  H   UNL     1      78.421  35.005  48.829  1.00  0.00     0.293 HD
ENDBRANCH  10  35
TORSDOF 9
ENDMDL
