MODEL 1
REMARK VINA RESULT:    -4.714      0.000      0.000
REMARK INTER + INTRA:          -9.171
REMARK INTER:                  -8.572
REMARK INTRA:                  -0.599
REMARK UNBOUND:                -0.599
REMARK SMILES CCCCCCCCCCCCCCCC(=O)[O-]
REMARK SMILES IDX 9 1 10 2 11 3 12 4 13 5 14 6 15 7 16 8 17 9 18 10 8 11 7 12
REMARK SMILES IDX 6 13 5 14 4 15 3 16 2 17 1 18
REMARK H PARENT
REMARK Flexibility Score: inf
ROOT
ATOM      1  C   UNL     1      37.489  31.446  28.282  1.00  0.00     0.000 C 
ENDROOT
BRANCH   1   2
ATOM      2  C   UNL     1      36.876  30.035  28.231  1.00  0.00     0.000 C 
BRANCH   2   3
ATOM      3  C   UNL     1      35.931  29.694  29.401  1.00  0.00     0.000 C 
BRANCH   3   4
ATOM      4  C   UNL     1      35.143  28.379  29.241  1.00  0.00     0.000 C 
BRANCH   4   5
ATOM      5  C   UNL     1      33.619  28.504  29.444  1.00  0.00     0.000 C 
BRANCH   5   6
ATOM      6  C   UNL     1      32.786  27.352  28.846  1.00  0.00     0.006 C 
BRANCH   6   7
ATOM      7  C   UNL     1      32.064  27.704  27.536  1.00  0.00     0.053 C 
BRANCH   7   8
ATOM      8  C   UNL     1      32.380  26.731  26.442  1.00  0.00     0.041 C 
ATOM      9  O   UNL     1      32.740  27.146  25.309  1.00  0.00    -0.550 OA
ATOM     10  O   UNL     1      32.311  25.365  26.683  1.00  0.00    -0.550 OA
ENDBRANCH   7   8
ENDBRANCH   6   7
ENDBRANCH   5   6
ENDBRANCH   4   5
ENDBRANCH   3   4
ENDBRANCH   2   3
ENDBRANCH   1   2
BRANCH   1  11
ATOM     11  C   UNL     1      38.000  31.825  29.680  1.00  0.00     0.000 C 
BRANCH  11  12
ATOM     12  C   UNL     1      39.500  31.537  29.815  1.00  0.00    -0.000 C 
BRANCH  12  13
ATOM     13  C   UNL     1      40.335  32.754  29.403  1.00  0.00    -0.000 C 
BRANCH  13  14
ATOM     14  C   UNL     1      41.691  32.759  30.125  1.00  0.00    -0.000 C 
BRANCH  14  15
ATOM     15  C   UNL     1      42.880  32.880  29.158  1.00  0.00    -0.000 C 
BRANCH  15  16
ATOM     16  C   UNL     1      43.987  31.827  29.357  1.00  0.00    -0.000 C 
BRANCH  16  17
ATOM     17  C   UNL     1      43.464  30.375  29.400  1.00  0.00    -0.003 C 
ATOM     18  C   UNL     1      44.562  29.350  29.122  1.00  0.00     0.004 C 
ENDBRANCH  16  17
ENDBRANCH  15  16
ENDBRANCH  14  15
ENDBRANCH  13  14
ENDBRANCH  12  13
ENDBRANCH  11  12
ENDBRANCH   1  11
TORSDOF 14
ENDMDL
MODEL 2
REMARK VINA RESULT:    -4.525      1.362      2.196
REMARK INTER + INTRA:          -8.827
REMARK INTER:                  -8.111
REMARK INTRA:                  -0.716
REMARK UNBOUND:                -0.599
REMARK SMILES CCCCCCCCCCCCCCCC(=O)[O-]
REMARK SMILES IDX 9 1 10 2 11 3 12 4 13 5 14 6 15 7 16 8 17 9 18 10 8 11 7 12
REMARK SMILES IDX 6 13 5 14 4 15 3 16 2 17 1 18
REMARK H PARENT
REMARK Flexibility Score: inf
ROOT
ATOM      1  C   UNL     1      37.268  31.371  28.125  1.00  0.00     0.000 C 
ENDROOT
BRANCH   1   2
ATOM      2  C   UNL     1      37.168  30.117  29.012  1.00  0.00     0.000 C 
BRANCH   2   3
ATOM      3  C   UNL     1      35.778  29.448  29.037  1.00  0.00     0.000 C 
BRANCH   3   4
ATOM      4  C   UNL     1      35.751  28.022  29.620  1.00  0.00     0.000 C 
BRANCH   4   5
ATOM      5  C   UNL     1      34.449  27.237  29.362  1.00  0.00     0.000 C 
BRANCH   5   6
ATOM      6  C   UNL     1      33.357  28.018  28.603  1.00  0.00     0.006 C 
BRANCH   6   7
ATOM      7  C   UNL     1      32.159  27.164  28.158  1.00  0.00     0.053 C 
BRANCH   7   8
ATOM      8  C   UNL     1      32.348  26.607  26.780  1.00  0.00     0.041 C 
ATOM      9  O   UNL     1      32.185  25.377  26.567  1.00  0.00    -0.550 OA
ATOM     10  O   UNL     1      32.670  27.451  25.726  1.00  0.00    -0.550 OA
ENDBRANCH   7   8
ENDBRANCH   6   7
ENDBRANCH   5   6
ENDBRANCH   4   5
ENDBRANCH   3   4
ENDBRANCH   2   3
ENDBRANCH   1   2
BRANCH   1  11
ATOM     11  C   UNL     1      38.710  31.873  27.958  1.00  0.00     0.000 C 
BRANCH  11  12
ATOM     12  C   UNL     1      38.976  33.089  28.853  1.00  0.00    -0.000 C 
BRANCH  12  13
ATOM     13  C   UNL     1      39.882  32.719  30.033  1.00  0.00    -0.000 C 
BRANCH  13  14
ATOM     14  C   UNL     1      40.963  31.717  29.601  1.00  0.00    -0.000 C 
BRANCH  14  15
ATOM     15  C   UNL     1      42.386  32.200  29.925  1.00  0.00    -0.000 C 
BRANCH  15  16
ATOM     16  C   UNL     1      42.579  33.728  29.882  1.00  0.00    -0.000 C 
BRANCH  16  17
ATOM     17  C   UNL     1      44.048  34.165  29.707  1.00  0.00    -0.003 C 
ATOM     18  C   UNL     1      44.175  35.603  29.206  1.00  0.00     0.004 C 
ENDBRANCH  16  17
ENDBRANCH  15  16
ENDBRANCH  14  15
ENDBRANCH  13  14
ENDBRANCH  12  13
ENDBRANCH  11  12
ENDBRANCH   1  11
TORSDOF 14
ENDMDL
MODEL 3
REMARK VINA RESULT:    -4.443      4.376      9.573
REMARK INTER + INTRA:          -8.679
REMARK INTER:                  -8.112
REMARK INTRA:                  -0.567
REMARK UNBOUND:                -0.599
REMARK SMILES CCCCCCCCCCCCCCCC(=O)[O-]
REMARK SMILES IDX 9 1 10 2 11 3 12 4 13 5 14 6 15 7 16 8 17 9 18 10 8 11 7 12
REMARK SMILES IDX 6 13 5 14 4 15 3 16 2 17 1 18
REMARK H PARENT
REMARK Flexibility Score: inf
ROOT
ATOM      1  C   UNL     1      38.558  31.592  28.983  1.00  0.00     0.000 C 
ENDROOT
BRANCH   1   2
ATOM      2  C   UNL     1      39.787  31.844  29.874  1.00  0.00     0.000 C 
BRANCH   2   3
ATOM      3  C   UNL     1      40.880  32.729  29.240  1.00  0.00     0.000 C 
BRANCH   3   4
ATOM      4  C   UNL     1      42.234  32.721  29.975  1.00  0.00     0.000 C 
BRANCH   4   5
ATOM      5  C   UNL     1      43.376  31.999  29.230  1.00  0.00     0.000 C 
BRANCH   5   6
ATOM      6  C   UNL     1      43.835  30.673  29.869  1.00  0.00     0.006 C 
BRANCH   6   7
ATOM      7  C   UNL     1      43.544  29.425  29.021  1.00  0.00     0.053 C 
BRANCH   7   8
ATOM      8  C   UNL     1      44.547  28.338  29.258  1.00  0.00     0.041 C 
ATOM      9  O   UNL     1      45.771  28.616  29.356  1.00  0.00    -0.550 OA
ATOM     10  O   UNL     1      44.127  27.023  29.406  1.00  0.00    -0.550 OA
ENDBRANCH   7   8
ENDBRANCH   6   7
ENDBRANCH   5   6
ENDBRANCH   4   5
ENDBRANCH   3   4
ENDBRANCH   2   3
ENDBRANCH   1   2
BRANCH   1  11
ATOM     11  C   UNL     1      37.581  30.572  29.586  1.00  0.00     0.000 C 
BRANCH  11  12
ATOM     12  C   UNL     1      36.399  30.320  28.643  1.00  0.00    -0.000 C 
BRANCH  12  13
ATOM     13  C   UNL     1      35.904  28.873  28.753  1.00  0.00    -0.000 C 
BRANCH  13  14
ATOM     14  C   UNL     1      34.912  28.720  29.915  1.00  0.00    -0.000 C 
BRANCH  14  15
ATOM     15  C   UNL     1      33.446  28.710  29.450  1.00  0.00    -0.000 C 
BRANCH  15  16
ATOM     16  C   UNL     1      32.952  27.364  28.888  1.00  0.00    -0.000 C 
BRANCH  16  17
ATOM     17  C   UNL     1      32.715  27.375  27.363  1.00  0.00    -0.003 C 
ATOM     18  C   UNL     1      32.328  26.000  26.821  1.00  0.00     0.004 C 
ENDBRANCH  16  17
ENDBRANCH  15  16
ENDBRANCH  14  15
ENDBRANCH  13  14
ENDBRANCH  12  13
ENDBRANCH  11  12
ENDBRANCH   1  11
TORSDOF 14
ENDMDL
MODEL 4
REMARK VINA RESULT:    -4.415      5.030      9.884
REMARK INTER + INTRA:          -8.627
REMARK INTER:                  -7.743
REMARK INTRA:                  -0.884
REMARK UNBOUND:                -0.599
REMARK SMILES CCCCCCCCCCCCCCCC(=O)[O-]
REMARK SMILES IDX 9 1 10 2 11 3 12 4 13 5 14 6 15 7 16 8 17 9 18 10 8 11 7 12
REMARK SMILES IDX 6 13 5 14 4 15 3 16 2 17 1 18
REMARK H PARENT
REMARK Flexibility Score: inf
ROOT
ATOM      1  C   UNL     1      39.086  32.672  28.195  1.00  0.00     0.000 C 
ENDROOT
BRANCH   1   2
ATOM      2  C   UNL     1      39.966  32.819  29.449  1.00  0.00     0.000 C 
BRANCH   2   3
ATOM      3  C   UNL     1      41.046  31.730  29.618  1.00  0.00     0.000 C 
BRANCH   3   4
ATOM      4  C   UNL     1      42.430  32.246  30.055  1.00  0.00     0.000 C 
BRANCH   4   5
ATOM      5  C   UNL     1      42.561  33.781  30.125  1.00  0.00     0.000 C 
BRANCH   5   6
ATOM      6  C   UNL     1      43.714  34.375  29.290  1.00  0.00     0.006 C 
BRANCH   6   7
ATOM      7  C   UNL     1      43.611  34.104  27.781  1.00  0.00     0.053 C 
BRANCH   7   8
ATOM      8  C   UNL     1      43.988  35.304  26.968  1.00  0.00     0.041 C 
ATOM      9  O   UNL     1      44.712  36.205  27.466  1.00  0.00    -0.550 OA
ATOM     10  O   UNL     1      43.569  35.409  25.648  1.00  0.00    -0.550 OA
ENDBRANCH   7   8
ENDBRANCH   6   7
ENDBRANCH   5   6
ENDBRANCH   4   5
ENDBRANCH   3   4
ENDBRANCH   2   3
ENDBRANCH   1   2
BRANCH   1  11
ATOM     11  C   UNL     1      37.620  32.356  28.527  1.00  0.00     0.000 C 
BRANCH  11  12
ATOM     12  C   UNL     1      37.290  30.891  28.219  1.00  0.00    -0.000 C 
BRANCH  12  13
ATOM     13  C   UNL     1      37.573  29.996  29.431  1.00  0.00    -0.000 C 
BRANCH  13  14
ATOM     14  C   UNL     1      36.266  29.477  30.047  1.00  0.00    -0.000 C 
BRANCH  14  15
ATOM     15  C   UNL     1      35.192  29.165  28.992  1.00  0.00    -0.000 C 
BRANCH  15  16
ATOM     16  C   UNL     1      34.480  27.811  29.171  1.00  0.00    -0.000 C 
BRANCH  16  17
ATOM     17  C   UNL     1      33.005  27.818  28.716  1.00  0.00    -0.003 C 
ATOM     18  C   UNL     1      32.080  28.466  29.744  1.00  0.00     0.004 C 
ENDBRANCH  16  17
ENDBRANCH  15  16
ENDBRANCH  14  15
ENDBRANCH  13  14
ENDBRANCH  12  13
ENDBRANCH  11  12
ENDBRANCH   1  11
TORSDOF 14
ENDMDL
MODEL 5
REMARK VINA RESULT:    -4.348      5.437     10.540
REMARK INTER + INTRA:          -8.505
REMARK INTER:                  -7.915
REMARK INTRA:                  -0.590
REMARK UNBOUND:                -0.599
REMARK SMILES CCCCCCCCCCCCCCCC(=O)[O-]
REMARK SMILES IDX 9 1 10 2 11 3 12 4 13 5 14 6 15 7 16 8 17 9 18 10 8 11 7 12
REMARK SMILES IDX 6 13 5 14 4 15 3 16 2 17 1 18
REMARK H PARENT
REMARK Flexibility Score: inf
ROOT
ATOM      1  C   UNL     1      38.728  31.828  28.460  1.00  0.00     0.000 C 
ENDROOT
BRANCH   1   2
ATOM      2  C   UNL     1      39.363  31.459  29.812  1.00  0.00     0.000 C 
BRANCH   2   3
ATOM      3  C   UNL     1      40.904  31.528  29.848  1.00  0.00     0.000 C 
BRANCH   3   4
ATOM      4  C   UNL     1      41.496  32.948  29.766  1.00  0.00     0.000 C 
BRANCH   4   5
ATOM      5  C   UNL     1      42.895  33.035  29.124  1.00  0.00     0.000 C 
BRANCH   5   6
ATOM      6  C   UNL     1      43.954  33.774  29.967  1.00  0.00     0.006 C 
BRANCH   6   7
ATOM      7  C   UNL     1      43.714  35.285  30.106  1.00  0.00     0.053 C 
BRANCH   7   8
ATOM      8  C   UNL     1      44.577  36.079  29.174  1.00  0.00     0.041 C 
ATOM      9  O   UNL     1      44.376  36.035  27.932  1.00  0.00    -0.550 OA
ATOM     10  O   UNL     1      45.581  36.895  29.680  1.00  0.00    -0.550 OA
ENDBRANCH   7   8
ENDBRANCH   6   7
ENDBRANCH   5   6
ENDBRANCH   4   5
ENDBRANCH   3   4
ENDBRANCH   2   3
ENDBRANCH   1   2
BRANCH   1  11
ATOM     11  C   UNL     1      37.401  31.099  28.203  1.00  0.00     0.000 C 
BRANCH  11  12
ATOM     12  C   UNL     1      36.831  30.520  29.504  1.00  0.00    -0.000 C 
BRANCH  12  13
ATOM     13  C   UNL     1      36.336  29.084  29.298  1.00  0.00    -0.000 C 
BRANCH  13  14
ATOM     14  C   UNL     1      34.868  29.069  28.846  1.00  0.00    -0.000 C 
BRANCH  14  15
ATOM     15  C   UNL     1      33.964  28.252  29.783  1.00  0.00    -0.000 C 
BRANCH  15  16
ATOM     16  C   UNL     1      32.818  27.497  29.084  1.00  0.00    -0.000 C 
BRANCH  16  17
ATOM     17  C   UNL     1      33.011  27.346  27.560  1.00  0.00    -0.003 C 
ATOM     18  C   UNL     1      31.989  26.401  26.931  1.00  0.00     0.004 C 
ENDBRANCH  16  17
ENDBRANCH  15  16
ENDBRANCH  14  15
ENDBRANCH  13  14
ENDBRANCH  12  13
ENDBRANCH  11  12
ENDBRANCH   1  11
TORSDOF 14
ENDMDL
MODEL 6
REMARK VINA RESULT:    -4.074     12.905     15.852
REMARK INTER + INTRA:          -8.007
REMARK INTER:                  -7.400
REMARK INTRA:                  -0.607
REMARK UNBOUND:                -0.599
REMARK SMILES CCCCCCCCCCCCCCCC(=O)[O-]
REMARK SMILES IDX 9 1 10 2 11 3 12 4 13 5 14 6 15 7 16 8 17 9 18 10 8 11 7 12
REMARK SMILES IDX 6 13 5 14 4 15 3 16 2 17 1 18
REMARK H PARENT
REMARK Flexibility Score: inf
ROOT
ATOM      1  C   UNL     1      39.429  26.604  18.011  1.00  0.00     0.000 C 
ENDROOT
BRANCH   1   2
ATOM      2  C   UNL     1      40.963  26.725  18.065  1.00  0.00     0.000 C 
BRANCH   2   3
ATOM      3  C   UNL     1      41.592  27.529  16.908  1.00  0.00     0.000 C 
BRANCH   3   4
ATOM      4  C   UNL     1      41.799  29.029  17.193  1.00  0.00     0.000 C 
BRANCH   4   5
ATOM      5  C   UNL     1      42.354  29.847  16.009  1.00  0.00     0.000 C 
BRANCH   5   6
ATOM      6  C   UNL     1      42.722  31.307  16.341  1.00  0.00     0.006 C 
BRANCH   6   7
ATOM      7  C   UNL     1      43.880  31.876  15.507  1.00  0.00     0.053 C 
BRANCH   7   8
ATOM      8  C   UNL     1      45.215  31.551  16.104  1.00  0.00     0.041 C 
ATOM      9  O   UNL     1      46.021  30.807  15.487  1.00  0.00    -0.550 OA
ATOM     10  O   UNL     1      45.582  32.100  17.326  1.00  0.00    -0.550 OA
ENDBRANCH   7   8
ENDBRANCH   6   7
ENDBRANCH   5   6
ENDBRANCH   4   5
ENDBRANCH   3   4
ENDBRANCH   2   3
ENDBRANCH   1   2
BRANCH   1  11
ATOM     11  C   UNL     1      38.923  25.997  16.694  1.00  0.00     0.000 C 
BRANCH  11  12
ATOM     12  C   UNL     1      37.589  26.626  16.276  1.00  0.00    -0.000 C 
BRANCH  12  13
ATOM     13  C   UNL     1      36.465  25.584  16.270  1.00  0.00    -0.000 C 
BRANCH  13  14
ATOM     14  C   UNL     1      35.188  26.159  15.640  1.00  0.00    -0.000 C 
BRANCH  14  15
ATOM     15  C   UNL     1      35.050  27.676  15.848  1.00  0.00    -0.000 C 
BRANCH  15  16
ATOM     16  C   UNL     1      35.036  28.509  14.553  1.00  0.00    -0.000 C 
BRANCH  16  17
ATOM     17  C   UNL     1      35.011  30.034  14.794  1.00  0.00    -0.003 C 
ATOM     18  C   UNL     1      34.325  30.794  13.660  1.00  0.00     0.004 C 
ENDBRANCH  16  17
ENDBRANCH  15  16
ENDBRANCH  14  15
ENDBRANCH  13  14
ENDBRANCH  12  13
ENDBRANCH  11  12
ENDBRANCH   1  11
TORSDOF 14
ENDMDL
MODEL 7
REMARK VINA RESULT:    -4.039     12.262     13.097
REMARK INTER + INTRA:          -7.944
REMARK INTER:                  -7.405
REMARK INTRA:                  -0.539
REMARK UNBOUND:                -0.599
REMARK SMILES CCCCCCCCCCCCCCCC(=O)[O-]
REMARK SMILES IDX 9 1 10 2 11 3 12 4 13 5 14 6 15 7 16 8 17 9 18 10 8 11 7 12
REMARK SMILES IDX 6 13 5 14 4 15 3 16 2 17 1 18
REMARK H PARENT
REMARK Flexibility Score: inf
ROOT
ATOM      1  C   UNL     1      41.705  28.084  16.917  1.00  0.00     0.000 C 
ENDROOT
BRANCH   1   2
ATOM      2  C   UNL     1      41.383  27.373  18.244  1.00  0.00     0.000 C 
BRANCH   2   3
ATOM      3  C   UNL     1      39.994  26.704  18.303  1.00  0.00     0.000 C 
BRANCH   3   4
ATOM      4  C   UNL     1      39.373  26.367  16.934  1.00  0.00     0.000 C 
BRANCH   4   5
ATOM      5  C   UNL     1      37.939  25.803  16.990  1.00  0.00     0.000 C 
BRANCH   5   6
ATOM      6  C   UNL     1      37.055  26.148  15.774  1.00  0.00     0.006 C 
BRANCH   6   7
ATOM      7  C   UNL     1      35.545  26.123  16.059  1.00  0.00     0.053 C 
BRANCH   7   8
ATOM      8  C   UNL     1      34.933  27.486  15.964  1.00  0.00     0.041 C 
ATOM      9  O   UNL     1      34.342  27.986  16.957  1.00  0.00    -0.550 OA
ATOM     10  O   UNL     1      35.046  28.220  14.790  1.00  0.00    -0.550 OA
ENDBRANCH   7   8
ENDBRANCH   6   7
ENDBRANCH   5   6
ENDBRANCH   4   5
ENDBRANCH   3   4
ENDBRANCH   2   3
ENDBRANCH   1   2
BRANCH   1  11
ATOM     11  C   UNL     1      41.740  29.614  17.052  1.00  0.00     0.000 C 
BRANCH  11  12
ATOM     12  C   UNL     1      42.481  30.253  15.871  1.00  0.00    -0.000 C 
BRANCH  12  13
ATOM     13  C   UNL     1      43.050  31.623  16.254  1.00  0.00    -0.000 C 
BRANCH  13  14
ATOM     14  C   UNL     1      44.349  31.911  15.488  1.00  0.00    -0.000 C 
BRANCH  14  15
ATOM     15  C   UNL     1      45.565  31.178  16.079  1.00  0.00    -0.000 C 
BRANCH  15  16
ATOM     16  C   UNL     1      46.530  30.580  15.038  1.00  0.00    -0.000 C 
BRANCH  16  17
ATOM     17  C   UNL     1      47.818  29.990  15.651  1.00  0.00    -0.003 C 
ATOM     18  C   UNL     1      49.055  30.273  14.800  1.00  0.00     0.004 C 
ENDBRANCH  16  17
ENDBRANCH  15  16
ENDBRANCH  14  15
ENDBRANCH  13  14
ENDBRANCH  12  13
ENDBRANCH  11  12
ENDBRANCH   1  11
TORSDOF 14
ENDMDL
MODEL 8
REMARK VINA RESULT:    -4.009      1.986      3.082
REMARK INTER + INTRA:          -7.890
REMARK INTER:                  -7.198
REMARK INTRA:                  -0.692
REMARK UNBOUND:                -0.599
REMARK SMILES CCCCCCCCCCCCCCCC(=O)[O-]
REMARK SMILES IDX 9 1 10 2 11 3 12 4 13 5 14 6 15 7 16 8 17 9 18 10 8 11 7 12
REMARK SMILES IDX 6 13 5 14 4 15 3 16 2 17 1 18
REMARK H PARENT
REMARK Flexibility Score: inf
ROOT
ATOM      1  C   UNL     1      39.001  32.335  28.302  1.00  0.00     0.000 C 
ENDROOT
BRANCH   1   2
ATOM      2  C   UNL     1      37.718  31.490  28.393  1.00  0.00     0.000 C 
BRANCH   2   3
ATOM      3  C   UNL     1      37.734  30.397  29.482  1.00  0.00     0.000 C 
BRANCH   3   4
ATOM      4  C   UNL     1      36.346  29.957  29.985  1.00  0.00     0.000 C 
BRANCH   4   5
ATOM      5  C   UNL     1      35.768  28.706  29.291  1.00  0.00     0.000 C 
BRANCH   5   6
ATOM      6  C   UNL     1      34.238  28.716  29.099  1.00  0.00     0.006 C 
BRANCH   6   7
ATOM      7  C   UNL     1      33.644  27.369  28.658  1.00  0.00     0.053 C 
BRANCH   7   8
ATOM      8  C   UNL     1      32.185  27.266  28.980  1.00  0.00     0.041 C 
ATOM      9  O   UNL     1      31.725  27.811  30.017  1.00  0.00    -0.550 OA
ATOM     10  O   UNL     1      31.328  26.597  28.116  1.00  0.00    -0.550 OA
ENDBRANCH   7   8
ENDBRANCH   6   7
ENDBRANCH   5   6
ENDBRANCH   4   5
ENDBRANCH   3   4
ENDBRANCH   2   3
ENDBRANCH   1   2
BRANCH   1  11
ATOM     11  C   UNL     1      40.121  31.822  29.219  1.00  0.00     0.000 C 
BRANCH  11  12
ATOM     12  C   UNL     1      41.286  32.817  29.274  1.00  0.00    -0.000 C 
BRANCH  12  13
ATOM     13  C   UNL     1      42.623  32.091  29.462  1.00  0.00    -0.000 C 
BRANCH  13  14
ATOM     14  C   UNL     1      43.659  33.012  30.125  1.00  0.00    -0.000 C 
BRANCH  14  15
ATOM     15  C   UNL     1      43.354  34.504  29.911  1.00  0.00    -0.000 C 
BRANCH  15  16
ATOM     16  C   UNL     1      44.470  35.300  29.208  1.00  0.00    -0.000 C 
BRANCH  16  17
ATOM     17  C   UNL     1      44.002  36.037  27.935  1.00  0.00    -0.003 C 
ATOM     18  C   UNL     1      43.998  35.133  26.704  1.00  0.00     0.004 C 
ENDBRANCH  16  17
ENDBRANCH  15  16
ENDBRANCH  14  15
ENDBRANCH  13  14
ENDBRANCH  12  13
ENDBRANCH  11  12
ENDBRANCH   1  11
TORSDOF 14
ENDMDL
