MODEL 1
REMARK VINA RESULT:    -3.816      0.000      0.000
REMARK INTER + INTRA:          -4.055
REMARK INTER:                  -4.039
REMARK INTRA:                  -0.016
REMARK UNBOUND:                -0.016
REMARK SMILES O=C([O-])c1cccnc1
REMARK SMILES IDX 4 1 5 2 9 3 6 4 8 5 7 6 2 7 1 8 3 9
REMARK H PARENT
REMARK Flexibility Score: inf
ROOT
ATOM      1  C   UNL     1      26.945  24.896 -17.903  1.00  0.00     0.016 A 
ATOM      2  C   UNL     1      28.004  24.059 -18.295  1.00  0.00     0.013 A 
ATOM      3  C   UNL     1      25.987  25.257 -18.865  1.00  0.00     0.120 A 
ATOM      4  C   UNL     1      28.088  23.606 -19.613  1.00  0.00     0.021 A 
ATOM      5  N   UNL     1      26.093  24.801 -20.143  1.00  0.00    -0.264 NA
ATOM      6  C   UNL     1      27.112  23.992 -20.532  1.00  0.00     0.111 A 
ENDROOT
BRANCH   1   7
ATOM      7  C   UNL     1      26.838  25.387 -16.512  1.00  0.00     0.073 C 
ATOM      8  O   UNL     1      26.072  24.818 -15.689  1.00  0.00    -0.545 OA
ATOM      9  O   UNL     1      27.580  26.486 -16.095  1.00  0.00    -0.545 OA
ENDBRANCH   1   7
TORSDOF 1
ENDMDL
MODEL 2
REMARK VINA RESULT:    -3.742      0.925      1.602
REMARK INTER + INTRA:          -3.977
REMARK INTER:                  -3.960
REMARK INTRA:                  -0.016
REMARK UNBOUND:                -0.016
REMARK SMILES O=C([O-])c1cccnc1
REMARK SMILES IDX 4 1 5 2 9 3 6 4 8 5 7 6 2 7 1 8 3 9
REMARK H PARENT
REMARK Flexibility Score: inf
ROOT
ATOM      1  C   UNL     1      26.987  24.938 -17.861  1.00  0.00     0.016 A 
ATOM      2  C   UNL     1      26.016  25.266 -18.822  1.00  0.00     0.013 A 
ATOM      3  C   UNL     1      28.067  24.128 -18.252  1.00  0.00     0.120 A 
ATOM      4  C   UNL     1      26.135  24.792 -20.130  1.00  0.00     0.021 A 
ATOM      5  N   UNL     1      28.159  23.679 -19.533  1.00  0.00    -0.264 NA
ATOM      6  C   UNL     1      27.226  23.991 -20.470  1.00  0.00     0.111 A 
ENDROOT
BRANCH   1   7
ATOM      7  C   UNL     1      26.879  25.429 -16.471  1.00  0.00     0.073 C 
ATOM      8  O   UNL     1      26.099  24.870 -15.653  1.00  0.00    -0.545 OA
ATOM      9  O   UNL     1      27.634  26.516 -16.047  1.00  0.00    -0.545 OA
ENDBRANCH   1   7
TORSDOF 1
ENDMDL
MODEL 3
REMARK VINA RESULT:    -3.633      3.188      3.954
REMARK INTER + INTRA:          -3.862
REMARK INTER:                  -3.844
REMARK INTRA:                  -0.017
REMARK UNBOUND:                -0.016
REMARK SMILES O=C([O-])c1cccnc1
REMARK SMILES IDX 4 1 5 2 9 3 6 4 8 5 7 6 2 7 1 8 3 9
REMARK H PARENT
REMARK Flexibility Score: inf
ROOT
ATOM      1  C   UNL     1      28.103  23.581 -19.663  1.00  0.00     0.016 A 
ATOM      2  C   UNL     1      27.096  24.032 -20.533  1.00  0.00     0.013 A 
ATOM      3  C   UNL     1      28.046  23.974 -18.315  1.00  0.00     0.120 A 
ATOM      4  C   UNL     1      26.071  24.851 -20.054  1.00  0.00     0.021 A 
ATOM      5  N   UNL     1      27.037  24.773 -17.875  1.00  0.00    -0.264 NA
ATOM      6  C   UNL     1      26.058  25.214 -18.708  1.00  0.00     0.111 A 
ENDROOT
BRANCH   1   7
ATOM      7  C   UNL     1      29.197  22.714 -20.149  1.00  0.00     0.073 C 
ATOM      8  O   UNL     1      28.955  21.547 -20.560  1.00  0.00    -0.545 OA
ATOM      9  O   UNL     1      30.509  23.173 -20.157  1.00  0.00    -0.545 OA
ENDBRANCH   1   7
TORSDOF 1
ENDMDL
MODEL 4
REMARK VINA RESULT:    -3.481      2.899      3.571
REMARK INTER + INTRA:          -3.700
REMARK INTER:                  -3.677
REMARK INTRA:                  -0.024
REMARK UNBOUND:                -0.016
REMARK SMILES O=C([O-])c1cccnc1
REMARK SMILES IDX 4 1 5 2 9 3 6 4 8 5 7 6 2 7 1 8 3 9
REMARK H PARENT
REMARK Flexibility Score: inf
ROOT
ATOM      1  C   UNL     1      27.107  24.326 -18.532  1.00  0.00     0.016 A 
ATOM      2  C   UNL     1      28.048  23.337 -18.196  1.00  0.00     0.013 A 
ATOM      3  C   UNL     1      26.657  25.192 -17.521  1.00  0.00     0.120 A 
ATOM      4  C   UNL     1      28.514  23.231 -16.884  1.00  0.00     0.021 A 
ATOM      5  N   UNL     1      27.127  25.066 -16.251  1.00  0.00    -0.264 NA
ATOM      6  C   UNL     1      28.037  24.114 -15.915  1.00  0.00     0.111 A 
ENDROOT
BRANCH   1   7
ATOM      7  C   UNL     1      26.600  24.455 -19.915  1.00  0.00     0.073 C 
ATOM      8  O   UNL     1      25.729  25.320 -20.199  1.00  0.00    -0.545 OA
ATOM      9  O   UNL     1      27.076  23.622 -20.921  1.00  0.00    -0.545 OA
ENDBRANCH   1   7
TORSDOF 1
ENDMDL
MODEL 5
REMARK VINA RESULT:    -3.438      1.713      2.295
REMARK INTER + INTRA:          -3.655
REMARK INTER:                  -3.639
REMARK INTRA:                  -0.017
REMARK UNBOUND:                -0.016
REMARK SMILES O=C([O-])c1cccnc1
REMARK SMILES IDX 4 1 5 2 9 3 6 4 8 5 7 6 2 7 1 8 3 9
REMARK H PARENT
REMARK Flexibility Score: inf
ROOT
ATOM      1  C   UNL     1      27.775  24.223 -18.154  1.00  0.00     0.016 A 
ATOM      2  C   UNL     1      27.875  23.701 -19.455  1.00  0.00     0.013 A 
ATOM      3  C   UNL     1      26.756  25.153 -17.884  1.00  0.00     0.120 A 
ATOM      4  C   UNL     1      26.976  24.106 -20.444  1.00  0.00     0.021 A 
ATOM      5  N   UNL     1      25.894  25.530 -18.866  1.00  0.00    -0.264 NA
ATOM      6  C   UNL     1      25.981  25.031 -20.127  1.00  0.00     0.111 A 
ENDROOT
BRANCH   1   7
ATOM      7  C   UNL     1      28.717  23.809 -17.093  1.00  0.00     0.073 C 
ATOM      8  O   UNL     1      29.928  24.155 -17.141  1.00  0.00    -0.545 OA
ATOM      9  O   UNL     1      28.281  23.028 -16.029  1.00  0.00    -0.545 OA
ENDBRANCH   1   7
TORSDOF 1
ENDMDL
MODEL 6
REMARK VINA RESULT:    -3.356      2.870      3.812
REMARK INTER + INTRA:          -3.568
REMARK INTER:                  -3.552
REMARK INTRA:                  -0.016
REMARK UNBOUND:                -0.016
REMARK SMILES O=C([O-])c1cccnc1
REMARK SMILES IDX 4 1 5 2 9 3 6 4 8 5 7 6 2 7 1 8 3 9
REMARK H PARENT
REMARK Flexibility Score: inf
ROOT
ATOM      1  C   UNL     1      27.878  25.968 -16.974  1.00  0.00     0.016 A 
ATOM      2  C   UNL     1      27.918  27.352 -16.734  1.00  0.00     0.013 A 
ATOM      3  C   UNL     1      29.093  25.285 -17.153  1.00  0.00     0.120 A 
ATOM      4  C   UNL     1      29.144  28.018 -16.677  1.00  0.00     0.021 A 
ATOM      5  N   UNL     1      30.273  25.959 -17.094  1.00  0.00    -0.264 NA
ATOM      6  C   UNL     1      30.324  27.297 -16.861  1.00  0.00     0.111 A 
ENDROOT
BRANCH   1   7
ATOM      7  C   UNL     1      26.591  25.244 -17.038  1.00  0.00     0.073 C 
ATOM      8  O   UNL     1      26.013  24.869 -15.982  1.00  0.00    -0.545 OA
ATOM      9  O   UNL     1      26.000  24.965 -18.265  1.00  0.00    -0.545 OA
ENDBRANCH   1   7
TORSDOF 1
ENDMDL
MODEL 7
REMARK VINA RESULT:    -3.284      2.307      2.928
REMARK INTER + INTRA:          -3.492
REMARK INTER:                  -3.470
REMARK INTRA:                  -0.021
REMARK UNBOUND:                -0.016
REMARK SMILES O=C([O-])c1cccnc1
REMARK SMILES IDX 4 1 5 2 9 3 6 4 8 5 7 6 2 7 1 8 3 9
REMARK H PARENT
REMARK Flexibility Score: inf
ROOT
ATOM      1  C   UNL     1      27.644  23.773 -18.802  1.00  0.00     0.016 A 
ATOM      2  C   UNL     1      27.878  23.416 -20.141  1.00  0.00     0.013 A 
ATOM      3  C   UNL     1      28.297  23.045 -17.792  1.00  0.00     0.120 A 
ATOM      4  C   UNL     1      28.741  22.361 -20.444  1.00  0.00     0.021 A 
ATOM      5  N   UNL     1      29.133  22.021 -18.116  1.00  0.00    -0.264 NA
ATOM      6  C   UNL     1      29.366  21.668 -19.407  1.00  0.00     0.111 A 
ENDROOT
BRANCH   1   7
ATOM      7  C   UNL     1      26.734  24.886 -18.459  1.00  0.00     0.073 C 
ATOM      8  O   UNL     1      26.927  25.575 -17.421  1.00  0.00    -0.545 OA
ATOM      9  O   UNL     1      25.650  25.187 -19.275  1.00  0.00    -0.545 OA
ENDBRANCH   1   7
TORSDOF 1
ENDMDL
MODEL 8
REMARK VINA RESULT:    -3.229      2.761      4.085
REMARK INTER + INTRA:          -3.434
REMARK INTER:                  -3.418
REMARK INTRA:                  -0.016
REMARK UNBOUND:                -0.016
REMARK SMILES O=C([O-])c1cccnc1
REMARK SMILES IDX 4 1 5 2 9 3 6 4 8 5 7 6 2 7 1 8 3 9
REMARK H PARENT
REMARK Flexibility Score: inf
ROOT
ATOM      1  C   UNL     1      26.993  25.372 -17.060  1.00  0.00     0.016 A 
ATOM      2  C   UNL     1      26.378  24.910 -15.884  1.00  0.00     0.013 A 
ATOM      3  C   UNL     1      27.968  26.379 -16.953  1.00  0.00     0.120 A 
ATOM      4  C   UNL     1      26.737  25.449 -14.647  1.00  0.00     0.021 A 
ATOM      5  N   UNL     1      28.298  26.887 -15.735  1.00  0.00    -0.264 NA
ATOM      6  C   UNL     1      27.709  26.447 -14.592  1.00  0.00     0.111 A 
ENDROOT
BRANCH   1   7
ATOM      7  C   UNL     1      26.628  24.816 -18.380  1.00  0.00     0.073 C 
ATOM      8  O   UNL     1      25.675  25.310 -19.042  1.00  0.00    -0.545 OA
ATOM      9  O   UNL     1      27.328  23.738 -18.910  1.00  0.00    -0.545 OA
ENDBRANCH   1   7
TORSDOF 1
ENDMDL
MODEL 9
REMARK VINA RESULT:    -3.227      2.734      3.522
REMARK INTER + INTRA:          -3.432
REMARK INTER:                  -3.413
REMARK INTRA:                  -0.019
REMARK UNBOUND:                -0.016
REMARK SMILES O=C([O-])c1cccnc1
REMARK SMILES IDX 4 1 5 2 9 3 6 4 8 5 7 6 2 7 1 8 3 9
REMARK H PARENT
REMARK Flexibility Score: inf
ROOT
ATOM      1  C   UNL     1      28.983  26.412 -16.968  1.00  0.00     0.016 A 
ATOM      2  C   UNL     1      27.579  26.373 -17.003  1.00  0.00     0.013 A 
ATOM      3  C   UNL     1      29.694  25.278 -17.398  1.00  0.00     0.120 A 
ATOM      4  C   UNL     1      26.921  25.228 -17.456  1.00  0.00     0.021 A 
ATOM      5  N   UNL     1      29.028  24.176 -17.834  1.00  0.00    -0.264 NA
ATOM      6  C   UNL     1      27.670  24.128 -17.872  1.00  0.00     0.111 A 
ENDROOT
BRANCH   1   7
ATOM      7  C   UNL     1      29.700  27.614 -16.491  1.00  0.00     0.073 C 
ATOM      8  O   UNL     1      30.644  27.510 -15.663  1.00  0.00    -0.545 OA
ATOM      9  O   UNL     1      29.341  28.876 -16.948  1.00  0.00    -0.545 OA
ENDBRANCH   1   7
TORSDOF 1
ENDMDL
