MODEL 1
REMARK VINA RESULT:    21.590      0.000      0.000
REMARK INTER + INTRA:          26.276
REMARK INTER:                  26.008
REMARK INTRA:                   0.269
REMARK UNBOUND:                 0.269
REMARK SMILES Oc1cc(O)c2cc(O)c(-c3ccc(O)c(O)c3)[o+]c2c1
REMARK SMILES IDX 10 1 19 2 20 3 21 4 2 5 3 6 4 7 6 8 7 9 8 10 11 11 12 12
REMARK SMILES IDX 13 13 14 14 18 15 16 16 15 17 17 19 9 21 1 23 5 25
REMARK H PARENT 15 18 17 20 9 22 1 24 5 26
REMARK Flexibility Score: inf
ROOT
ATOM      1  C   UNL     1      29.858  23.636  45.367  1.00  0.00     0.402 A 
ATOM      2  O   UNL     1      29.206  23.071  46.382  1.00  0.00    -0.202 OA
ATOM      3  C   UNL     1      27.881  23.085  46.494  1.00  0.00     0.368 A 
ATOM      4  C   UNL     1      27.273  22.472  47.593  1.00  0.00     0.162 A 
ATOM      5  C   UNL     1      25.878  22.484  47.724  1.00  0.00     0.128 A 
ATOM      6  C   UNL     1      25.091  23.110  46.752  1.00  0.00     0.093 A 
ATOM      7  C   UNL     1      25.687  23.728  45.643  1.00  0.00     0.136 A 
ATOM      8  C   UNL     1      27.089  23.716  45.511  1.00  0.00     0.125 A 
ATOM      9  C   UNL     1      27.737  24.310  44.422  1.00  0.00     0.078 A 
ATOM     10  C   UNL     1      29.132  24.265  44.335  1.00  0.00     0.223 A 
ENDROOT
BRANCH   1  11
ATOM     11  C   UNL     1      31.336  23.562  45.358  1.00  0.00     0.087 A 
ATOM     12  C   UNL     1      32.019  22.474  45.929  1.00  0.00     0.022 A 
ATOM     13  C   UNL     1      33.415  22.415  45.888  1.00  0.00     0.051 A 
ATOM     14  C   UNL     1      34.148  23.433  45.264  1.00  0.00     0.157 A 
ATOM     15  C   UNL     1      32.074  24.570  44.716  1.00  0.00     0.068 A 
ATOM     16  C   UNL     1      33.472  24.514  44.673  1.00  0.00     0.158 A 
BRANCH  14  17
ATOM     17  O   UNL     1      35.540  23.373  45.226  1.00  0.00    -0.504 OA
ATOM     18  H   UNL     1      36.068  23.800  44.474  1.00  0.00     0.293 HD
ENDBRANCH  14  17
BRANCH  16  19
ATOM     19  O   UNL     1      34.171  25.540  44.038  1.00  0.00    -0.504 OA
ATOM     20  H   UNL     1      33.698  26.308  43.576  1.00  0.00     0.293 HD
ENDBRANCH  16  19
ENDBRANCH   1  11
BRANCH  10  21
ATOM     21  O   UNL     1      29.781  24.810  43.228  1.00  0.00    -0.500 OA
ATOM     22  H   UNL     1      29.322  25.476  42.617  1.00  0.00     0.294 HD
ENDBRANCH  10  21
BRANCH   5  23
ATOM     23  O   UNL     1      25.263  21.875  48.816  1.00  0.00    -0.507 OA
ATOM     24  H   UNL     1      25.217  22.330  49.721  1.00  0.00     0.293 HD
ENDBRANCH   5  23
BRANCH   7  25
ATOM     25  O   UNL     1      24.890  24.348  44.679  1.00  0.00    -0.507 OA
ATOM     26  H   UNL     1      23.964  24.004  44.453  1.00  0.00     0.293 HD
ENDBRANCH   7  25
TORSDOF 6
ENDMDL
MODEL 2
REMARK VINA RESULT:    23.055     10.339     11.016
REMARK INTER + INTRA:          28.041
REMARK INTER:                  28.367
REMARK INTRA:                  -0.326
REMARK UNBOUND:                 0.269
REMARK SMILES Oc1cc(O)c2cc(O)c(-c3ccc(O)c(O)c3)[o+]c2c1
REMARK SMILES IDX 10 1 19 2 20 3 21 4 2 5 3 6 4 7 6 8 7 9 8 10 11 11 12 12
REMARK SMILES IDX 13 13 14 14 18 15 16 16 15 17 17 19 9 21 1 23 5 25
REMARK H PARENT 15 18 17 20 9 22 1 24 5 26
REMARK Flexibility Score: inf
ROOT
ATOM      1  C   UNL     1      29.151  33.430  48.564  1.00  0.00     0.402 A 
ATOM      2  O   UNL     1      29.417  32.408  49.377  1.00  0.00    -0.202 OA
ATOM      3  C   UNL     1      29.180  31.141  49.052  1.00  0.00     0.368 A 
ATOM      4  C   UNL     1      29.484  30.125  49.965  1.00  0.00     0.162 A 
ATOM      5  C   UNL     1      29.236  28.786  49.636  1.00  0.00     0.128 A 
ATOM      6  C   UNL     1      28.684  28.463  48.392  1.00  0.00     0.093 A 
ATOM      7  C   UNL     1      28.375  29.471  47.466  1.00  0.00     0.136 A 
ATOM      8  C   UNL     1      28.625  30.817  47.797  1.00  0.00     0.125 A 
ATOM      9  C   UNL     1      28.344  31.863  46.910  1.00  0.00     0.078 A 
ATOM     10  C   UNL     1      28.616  33.183  47.284  1.00  0.00     0.223 A 
ENDROOT
BRANCH   1  11
ATOM     11  C   UNL     1      29.450  34.799  49.042  1.00  0.00     0.087 A 
ATOM     12  C   UNL     1      30.749  35.334  48.968  1.00  0.00     0.022 A 
ATOM     13  C   UNL     1      31.002  36.637  49.404  1.00  0.00     0.051 A 
ATOM     14  C   UNL     1      29.962  37.430  49.906  1.00  0.00     0.157 A 
ATOM     15  C   UNL     1      28.407  35.605  49.526  1.00  0.00     0.068 A 
ATOM     16  C   UNL     1      28.657  36.911  49.964  1.00  0.00     0.158 A 
BRANCH  14  17
ATOM     17  O   UNL     1      30.217  38.729  50.342  1.00  0.00    -0.504 OA
ATOM     18  H   UNL     1      29.486  39.310  50.734  1.00  0.00     0.293 HD
ENDBRANCH  14  17
BRANCH  16  19
ATOM     19  O   UNL     1      27.598  37.676  50.451  1.00  0.00    -0.504 OA
ATOM     20  H   UNL     1      27.146  37.469  51.333  1.00  0.00     0.293 HD
ENDBRANCH  16  19
ENDBRANCH   1  11
BRANCH  10  21
ATOM     21  O   UNL     1      28.386  34.225  46.386  1.00  0.00    -0.500 OA
ATOM     22  H   UNL     1      28.871  35.111  46.464  1.00  0.00     0.294 HD
ENDBRANCH  10  21
BRANCH   5  23
ATOM     23  O   UNL     1      29.536  27.768  50.539  1.00  0.00    -0.507 OA
ATOM     24  H   UNL     1      29.004  27.643  51.393  1.00  0.00     0.293 HD
ENDBRANCH   5  23
BRANCH   7  25
ATOM     25  O   UNL     1      27.826  29.136  46.228  1.00  0.00    -0.507 OA
ATOM     26  H   UNL     1      26.839  28.930  46.122  1.00  0.00     0.293 HD
ENDBRANCH   7  25
TORSDOF 6
ENDMDL
MODEL 3
REMARK VINA RESULT:    23.837     10.684     11.572
REMARK INTER + INTRA:          28.983
REMARK INTER:                  29.286
REMARK INTRA:                  -0.303
REMARK UNBOUND:                 0.269
REMARK SMILES Oc1cc(O)c2cc(O)c(-c3ccc(O)c(O)c3)[o+]c2c1
REMARK SMILES IDX 10 1 19 2 20 3 21 4 2 5 3 6 4 7 6 8 7 9 8 10 11 11 12 12
REMARK SMILES IDX 13 13 14 14 18 15 16 16 15 17 17 19 9 21 1 23 5 25
REMARK H PARENT 15 18 17 20 9 22 1 24 5 26
REMARK Flexibility Score: inf
ROOT
ATOM      1  C   UNL     1      29.522  33.658  49.259  1.00  0.00     0.402 A 
ATOM      2  O   UNL     1      28.819  33.247  48.205  1.00  0.00    -0.202 OA
ATOM      3  C   UNL     1      28.546  31.967  47.967  1.00  0.00     0.368 A 
ATOM      4  C   UNL     1      27.805  31.618  46.834  1.00  0.00     0.162 A 
ATOM      5  C   UNL     1      27.514  30.273  46.570  1.00  0.00     0.128 A 
ATOM      6  C   UNL     1      27.966  29.277  47.443  1.00  0.00     0.093 A 
ATOM      7  C   UNL     1      28.710  29.613  48.584  1.00  0.00     0.136 A 
ATOM      8  C   UNL     1      29.002  30.965  48.849  1.00  0.00     0.125 A 
ATOM      9  C   UNL     1      29.733  31.359  49.975  1.00  0.00     0.078 A 
ATOM     10  C   UNL     1      29.991  32.715  50.196  1.00  0.00     0.223 A 
ENDROOT
BRANCH   1  11
ATOM     11  C   UNL     1      29.769  35.110  49.412  1.00  0.00     0.087 A 
ATOM     12  C   UNL     1      31.037  35.667  49.168  1.00  0.00     0.022 A 
ATOM     13  C   UNL     1      31.240  37.044  49.297  1.00  0.00     0.051 A 
ATOM     14  C   UNL     1      30.179  37.885  49.657  1.00  0.00     0.157 A 
ATOM     15  C   UNL     1      28.704  35.960  49.752  1.00  0.00     0.068 A 
ATOM     16  C   UNL     1      28.904  37.339  49.882  1.00  0.00     0.158 A 
BRANCH  14  17
ATOM     17  O   UNL     1      30.385  39.258  49.787  1.00  0.00    -0.504 OA
ATOM     18  H   UNL     1      31.277  39.634  50.084  1.00  0.00     0.293 HD
ENDBRANCH  14  17
BRANCH  16  19
ATOM     19  O   UNL     1      27.825  38.149  50.235  1.00  0.00    -0.504 OA
ATOM     20  H   UNL     1      27.910  38.889  50.922  1.00  0.00     0.293 HD
ENDBRANCH  16  19
ENDBRANCH   1  11
BRANCH  10  21
ATOM     21  O   UNL     1      30.674  33.119  51.343  1.00  0.00    -0.500 OA
ATOM     22  H   UNL     1      30.621  34.070  51.687  1.00  0.00     0.294 HD
ENDBRANCH  10  21
BRANCH   5  23
ATOM     23  O   UNL     1      26.777  29.915  45.444  1.00  0.00    -0.507 OA
ATOM     24  H   UNL     1      26.503  30.600  44.749  1.00  0.00     0.293 HD
ENDBRANCH   5  23
BRANCH   7  25
ATOM     25  O   UNL     1      29.153  28.610  49.447  1.00  0.00    -0.507 OA
ATOM     26  H   UNL     1      30.021  28.113  49.283  1.00  0.00     0.293 HD
ENDBRANCH   7  25
TORSDOF 6
ENDMDL
