MODEL 1
REMARK VINA RESULT:    -3.770      0.000      0.000
REMARK INTER + INTRA:          -8.801
REMARK INTER:                  -6.856
REMARK INTRA:                  -1.945
REMARK UNBOUND:                -1.945
REMARK SMILES CCCCCCCCCCCCCCCC(=O)[O-]
REMARK SMILES IDX 9 1 10 2 11 3 12 4 13 5 14 6 15 7 16 8 17 9 18 10 8 11 7 12
REMARK SMILES IDX 6 13 5 14 4 15 3 16 2 17 1 18
REMARK H PARENT
REMARK Flexibility Score: inf
ROOT
ATOM      1  C   UNL     1      -5.384  -4.028   8.913  1.00  0.00     0.000 C 
ENDROOT
BRANCH   1   2
ATOM      2  C   UNL     1      -6.197  -3.915  10.215  1.00  0.00     0.000 C 
BRANCH   2   3
ATOM      3  C   UNL     1      -5.794  -2.746  11.136  1.00  0.00     0.000 C 
BRANCH   3   4
ATOM      4  C   UNL     1      -4.380  -2.840  11.735  1.00  0.00     0.000 C 
BRANCH   4   5
ATOM      5  C   UNL     1      -3.585  -1.532  11.611  1.00  0.00     0.000 C 
BRANCH   5   6
ATOM      6  C   UNL     1      -2.586  -1.608  10.451  1.00  0.00     0.006 C 
BRANCH   6   7
ATOM      7  C   UNL     1      -2.598  -0.316   9.630  1.00  0.00     0.053 C 
BRANCH   7   8
ATOM      8  C   UNL     1      -1.410   0.530   9.962  1.00  0.00     0.041 C 
ATOM      9  O   UNL     1      -0.615   0.891   9.055  1.00  0.00    -0.550 OA
ATOM     10  O   UNL     1      -1.208   0.963  11.267  1.00  0.00    -0.550 OA
ENDBRANCH   7   8
ENDBRANCH   6   7
ENDBRANCH   5   6
ENDBRANCH   4   5
ENDBRANCH   3   4
ENDBRANCH   2   3
ENDBRANCH   1   2
BRANCH   1  11
ATOM     11  C   UNL     1      -5.264  -2.689   8.166  1.00  0.00     0.000 C 
BRANCH  11  12
ATOM     12  C   UNL     1      -4.269  -2.747   6.992  1.00  0.00    -0.000 C 
BRANCH  12  13
ATOM     13  C   UNL     1      -3.188  -3.842   7.105  1.00  0.00    -0.000 C 
BRANCH  13  14
ATOM     14  C   UNL     1      -1.737  -3.329   7.097  1.00  0.00    -0.000 C 
BRANCH  14  15
ATOM     15  C   UNL     1      -1.608  -1.910   6.523  1.00  0.00    -0.000 C 
BRANCH  15  16
ATOM     16  C   UNL     1      -0.716  -1.904   5.272  1.00  0.00    -0.000 C 
BRANCH  16  17
ATOM     17  C   UNL     1      -1.464  -1.420   4.020  1.00  0.00    -0.003 C 
ATOM     18  C   UNL     1      -2.093  -2.567   3.230  1.00  0.00     0.004 C 
ENDBRANCH  16  17
ENDBRANCH  15  16
ENDBRANCH  14  15
ENDBRANCH  13  14
ENDBRANCH  12  13
ENDBRANCH  11  12
ENDBRANCH   1  11
TORSDOF 14
ENDMDL
MODEL 2
REMARK VINA RESULT:    -3.710      2.449      5.228
REMARK INTER + INTRA:          -8.692
REMARK INTER:                  -6.529
REMARK INTRA:                  -2.162
REMARK UNBOUND:                -1.945
REMARK SMILES CCCCCCCCCCCCCCCC(=O)[O-]
REMARK SMILES IDX 9 1 10 2 11 3 12 4 13 5 14 6 15 7 16 8 17 9 18 10 8 11 7 12
REMARK SMILES IDX 6 13 5 14 4 15 3 16 2 17 1 18
REMARK H PARENT
REMARK Flexibility Score: inf
ROOT
ATOM      1  C   UNL     1      -6.109  -2.841   8.674  1.00  0.00     0.000 C 
ENDROOT
BRANCH   1   2
ATOM      2  C   UNL     1      -5.226  -2.982   7.421  1.00  0.00     0.000 C 
BRANCH   2   3
ATOM      3  C   UNL     1      -4.162  -4.095   7.492  1.00  0.00     0.000 C 
BRANCH   3   4
ATOM      4  C   UNL     1      -3.016  -3.974   6.473  1.00  0.00     0.000 C 
BRANCH   4   5
ATOM      5  C   UNL     1      -1.741  -3.363   7.070  1.00  0.00     0.000 C 
BRANCH   5   6
ATOM      6  C   UNL     1      -1.402  -2.032   6.389  1.00  0.00     0.006 C 
BRANCH   6   7
ATOM      7  C   UNL     1      -1.925  -2.002   4.950  1.00  0.00     0.053 C 
BRANCH   7   8
ATOM      8  C   UNL     1      -0.888  -1.447   4.025  1.00  0.00     0.041 C 
ATOM      9  O   UNL     1       0.296  -1.872   4.072  1.00  0.00    -0.550 OA
ATOM     10  O   UNL     1      -1.241  -0.496   3.076  1.00  0.00    -0.550 OA
ENDBRANCH   7   8
ENDBRANCH   6   7
ENDBRANCH   5   6
ENDBRANCH   4   5
ENDBRANCH   3   4
ENDBRANCH   2   3
ENDBRANCH   1   2
BRANCH   1  11
ATOM     11  C   UNL     1      -5.832  -3.931   9.723  1.00  0.00     0.000 C 
BRANCH  11  12
ATOM     12  C   UNL     1      -5.843  -3.388  11.164  1.00  0.00    -0.000 C 
BRANCH  12  13
ATOM     13  C   UNL     1      -5.999  -1.858  11.286  1.00  0.00    -0.000 C 
BRANCH  13  14
ATOM     14  C   UNL     1      -4.687  -1.084  11.503  1.00  0.00    -0.000 C 
BRANCH  14  15
ATOM     15  C   UNL     1      -3.451  -1.996  11.522  1.00  0.00    -0.000 C 
BRANCH  15  16
ATOM     16  C   UNL     1      -2.580  -1.762  10.279  1.00  0.00    -0.000 C 
BRANCH  16  17
ATOM     17  C   UNL     1      -3.088  -0.598   9.414  1.00  0.00    -0.003 C 
ATOM     18  C   UNL     1      -1.984   0.397   9.059  1.00  0.00     0.004 C 
ENDBRANCH  16  17
ENDBRANCH  15  16
ENDBRANCH  14  15
ENDBRANCH  13  14
ENDBRANCH  12  13
ENDBRANCH  11  12
ENDBRANCH   1  11
TORSDOF 14
ENDMDL
MODEL 3
REMARK VINA RESULT:    -3.655      2.268      3.418
REMARK INTER + INTRA:          -8.592
REMARK INTER:                  -6.391
REMARK INTRA:                  -2.201
REMARK UNBOUND:                -1.945
REMARK SMILES CCCCCCCCCCCCCCCC(=O)[O-]
REMARK SMILES IDX 9 1 10 2 11 3 12 4 13 5 14 6 15 7 16 8 17 9 18 10 8 11 7 12
REMARK SMILES IDX 6 13 5 14 4 15 3 16 2 17 1 18
REMARK H PARENT
REMARK Flexibility Score: inf
ROOT
ATOM      1  C   UNL     1      -5.898  -1.725   7.795  1.00  0.00     0.000 C 
ENDROOT
BRANCH   1   2
ATOM      2  C   UNL     1      -4.711  -0.821   7.416  1.00  0.00     0.000 C 
BRANCH   2   3
ATOM      3  C   UNL     1      -4.160   0.049   8.563  1.00  0.00     0.000 C 
BRANCH   3   4
ATOM      4  C   UNL     1      -2.760  -0.342   9.069  1.00  0.00     0.000 C 
BRANCH   4   5
ATOM      5  C   UNL     1      -2.760  -1.625   9.911  1.00  0.00     0.000 C 
BRANCH   5   6
ATOM      6  C   UNL     1      -3.254  -1.343  11.335  1.00  0.00     0.006 C 
BRANCH   6   7
ATOM      7  C   UNL     1      -4.068  -2.521  11.877  1.00  0.00     0.053 C 
BRANCH   7   8
ATOM      8  C   UNL     1      -5.492  -2.427  11.428  1.00  0.00     0.041 C 
ATOM      9  O   UNL     1      -6.042  -1.302  11.294  1.00  0.00    -0.550 OA
ATOM     10  O   UNL     1      -6.198  -3.580  11.108  1.00  0.00    -0.550 OA
ENDBRANCH   7   8
ENDBRANCH   6   7
ENDBRANCH   5   6
ENDBRANCH   4   5
ENDBRANCH   3   4
ENDBRANCH   2   3
ENDBRANCH   1   2
BRANCH   1  11
ATOM     11  C   UNL     1      -5.805  -3.126   7.168  1.00  0.00     0.000 C 
BRANCH  11  12
ATOM     12  C   UNL     1      -4.873  -4.069   7.951  1.00  0.00    -0.000 C 
BRANCH  12  13
ATOM     13  C   UNL     1      -3.861  -4.853   7.089  1.00  0.00    -0.000 C 
BRANCH  13  14
ATOM     14  C   UNL     1      -3.055  -4.001   6.092  1.00  0.00    -0.000 C 
BRANCH  14  15
ATOM     15  C   UNL     1      -1.895  -3.243   6.755  1.00  0.00    -0.000 C 
BRANCH  15  16
ATOM     16  C   UNL     1      -1.571  -1.955   5.983  1.00  0.00    -0.000 C 
BRANCH  16  17
ATOM     17  C   UNL     1      -0.145  -1.955   5.412  1.00  0.00    -0.003 C 
ATOM     18  C   UNL     1      -0.111  -1.674   3.910  1.00  0.00     0.004 C 
ENDBRANCH  16  17
ENDBRANCH  15  16
ENDBRANCH  14  15
ENDBRANCH  13  14
ENDBRANCH  12  13
ENDBRANCH  11  12
ENDBRANCH   1  11
TORSDOF 14
ENDMDL
MODEL 4
REMARK VINA RESULT:    -3.650      2.263      5.899
REMARK INTER + INTRA:          -8.582
REMARK INTER:                  -6.880
REMARK INTRA:                  -1.702
REMARK UNBOUND:                -1.945
REMARK SMILES CCCCCCCCCCCCCCCC(=O)[O-]
REMARK SMILES IDX 9 1 10 2 11 3 12 4 13 5 14 6 15 7 16 8 17 9 18 10 8 11 7 12
REMARK SMILES IDX 6 13 5 14 4 15 3 16 2 17 1 18
REMARK H PARENT
REMARK Flexibility Score: inf
ROOT
ATOM      1  C   UNL     1      -4.306  -2.785   7.136  1.00  0.00     0.000 C 
ENDROOT
BRANCH   1   2
ATOM      2  C   UNL     1      -3.246  -3.868   7.407  1.00  0.00     0.000 C 
BRANCH   2   3
ATOM      3  C   UNL     1      -1.795  -3.455   7.089  1.00  0.00     0.000 C 
BRANCH   3   4
ATOM      4  C   UNL     1      -1.620  -2.013   6.580  1.00  0.00     0.000 C 
BRANCH   4   5
ATOM      5  C   UNL     1      -0.523  -1.880   5.515  1.00  0.00     0.000 C 
BRANCH   5   6
ATOM      6  C   UNL     1      -1.116  -1.982   4.105  1.00  0.00     0.006 C 
BRANCH   6   7
ATOM      7  C   UNL     1      -0.612  -0.845   3.212  1.00  0.00     0.053 C 
BRANCH   7   8
ATOM      8  C   UNL     1      -1.697   0.158   2.975  1.00  0.00     0.041 C 
ATOM      9  O   UNL     1      -2.357   0.619   3.943  1.00  0.00    -0.550 OA
ATOM     10  O   UNL     1      -1.946   0.622   1.689  1.00  0.00    -0.550 OA
ENDBRANCH   7   8
ENDBRANCH   6   7
ENDBRANCH   5   6
ENDBRANCH   4   5
ENDBRANCH   3   4
ENDBRANCH   2   3
ENDBRANCH   1   2
BRANCH   1  11
ATOM     11  C   UNL     1      -5.433  -2.778   8.184  1.00  0.00     0.000 C 
BRANCH  11  12
ATOM     12  C   UNL     1      -5.426  -4.033   9.075  1.00  0.00    -0.000 C 
BRANCH  12  13
ATOM     13  C   UNL     1      -6.073  -3.852  10.464  1.00  0.00    -0.000 C 
BRANCH  13  14
ATOM     14  C   UNL     1      -5.645  -2.583  11.223  1.00  0.00    -0.000 C 
BRANCH  14  15
ATOM     15  C   UNL     1      -4.231  -2.689  11.814  1.00  0.00    -0.000 C 
BRANCH  15  16
ATOM     16  C   UNL     1      -3.418  -1.419  11.520  1.00  0.00    -0.000 C 
BRANCH  16  17
ATOM     17  C   UNL     1      -2.568  -1.547  10.246  1.00  0.00    -0.003 C 
ATOM     18  C   UNL     1      -1.937  -0.221   9.825  1.00  0.00     0.004 C 
ENDBRANCH  16  17
ENDBRANCH  15  16
ENDBRANCH  14  15
ENDBRANCH  13  14
ENDBRANCH  12  13
ENDBRANCH  11  12
ENDBRANCH   1  11
TORSDOF 14
ENDMDL
MODEL 5
REMARK VINA RESULT:    -3.594      2.178      4.881
REMARK INTER + INTRA:          -8.480
REMARK INTER:                  -6.626
REMARK INTRA:                  -1.854
REMARK UNBOUND:                -1.945
REMARK SMILES CCCCCCCCCCCCCCCC(=O)[O-]
REMARK SMILES IDX 9 1 10 2 11 3 12 4 13 5 14 6 15 7 16 8 17 9 18 10 8 11 7 12
REMARK SMILES IDX 6 13 5 14 4 15 3 16 2 17 1 18
REMARK H PARENT
REMARK Flexibility Score: inf
ROOT
ATOM      1  C   UNL     1      -6.149  -3.840  10.223  1.00  0.00     0.000 C 
ENDROOT
BRANCH   1   2
ATOM      2  C   UNL     1      -5.209  -4.012   9.017  1.00  0.00     0.000 C 
BRANCH   2   3
ATOM      3  C   UNL     1      -5.136  -2.799   8.068  1.00  0.00     0.000 C 
BRANCH   3   4
ATOM      4  C   UNL     1      -4.284  -3.006   6.803  1.00  0.00     0.000 C 
BRANCH   4   5
ATOM      5  C   UNL     1      -3.104  -3.963   7.022  1.00  0.00     0.000 C 
BRANCH   5   6
ATOM      6  C   UNL     1      -1.774  -3.200   7.010  1.00  0.00     0.006 C 
BRANCH   6   7
ATOM      7  C   UNL     1      -1.900  -1.886   6.234  1.00  0.00     0.053 C 
BRANCH   7   8
ATOM      8  C   UNL     1      -1.284  -2.015   4.876  1.00  0.00     0.041 C 
ATOM      9  O   UNL     1      -2.000  -2.299   3.880  1.00  0.00    -0.550 OA
ATOM     10  O   UNL     1       0.072  -1.772   4.702  1.00  0.00    -0.550 OA
ENDBRANCH   7   8
ENDBRANCH   6   7
ENDBRANCH   5   6
ENDBRANCH   4   5
ENDBRANCH   3   4
ENDBRANCH   2   3
ENDBRANCH   1   2
BRANCH   1  11
ATOM     11  C   UNL     1      -5.755  -2.657  11.123  1.00  0.00     0.000 C 
BRANCH  11  12
ATOM     12  C   UNL     1      -4.332  -2.790  11.697  1.00  0.00    -0.000 C 
BRANCH  12  13
ATOM     13  C   UNL     1      -3.452  -1.530  11.563  1.00  0.00    -0.000 C 
BRANCH  13  14
ATOM     14  C   UNL     1      -2.504  -1.522  10.351  1.00  0.00    -0.000 C 
BRANCH  14  15
ATOM     15  C   UNL     1      -2.753  -0.337   9.406  1.00  0.00    -0.000 C 
BRANCH  15  16
ATOM     16  C   UNL     1      -1.437   0.381   9.071  1.00  0.00    -0.000 C 
BRANCH  16  17
ATOM     17  C   UNL     1      -1.396   1.818   9.615  1.00  0.00    -0.003 C 
ATOM     18  C   UNL     1      -0.204   2.615   9.086  1.00  0.00     0.004 C 
ENDBRANCH  16  17
ENDBRANCH  15  16
ENDBRANCH  14  15
ENDBRANCH  13  14
ENDBRANCH  12  13
ENDBRANCH  11  12
ENDBRANCH   1  11
TORSDOF 14
ENDMDL
MODEL 6
REMARK VINA RESULT:    -3.539      3.084      4.628
REMARK INTER + INTRA:          -8.380
REMARK INTER:                  -6.057
REMARK INTRA:                  -2.323
REMARK UNBOUND:                -1.945
REMARK SMILES CCCCCCCCCCCCCCCC(=O)[O-]
REMARK SMILES IDX 9 1 10 2 11 3 12 4 13 5 14 6 15 7 16 8 17 9 18 10 8 11 7 12
REMARK SMILES IDX 6 13 5 14 4 15 3 16 2 17 1 18
REMARK H PARENT
REMARK Flexibility Score: inf
ROOT
ATOM      1  C   UNL     1      -2.005  -0.377   8.775  1.00  0.00     0.000 C 
ENDROOT
BRANCH   1   2
ATOM      2  C   UNL     1      -2.016  -0.402  10.314  1.00  0.00     0.000 C 
BRANCH   2   3
ATOM      3  C   UNL     1      -2.973  -1.433  10.944  1.00  0.00     0.000 C 
BRANCH   3   4
ATOM      4  C   UNL     1      -4.246  -0.846  11.578  1.00  0.00     0.000 C 
BRANCH   4   5
ATOM      5  C   UNL     1      -5.504  -1.674  11.285  1.00  0.00     0.000 C 
BRANCH   5   6
ATOM      6  C   UNL     1      -5.168  -3.168  11.211  1.00  0.00     0.006 C 
BRANCH   6   7
ATOM      7  C   UNL     1      -6.123  -3.900  10.264  1.00  0.00     0.053 C 
BRANCH   7   8
ATOM      8  C   UNL     1      -7.544  -3.685  10.680  1.00  0.00     0.041 C 
ATOM      9  O   UNL     1      -8.377  -3.205   9.866  1.00  0.00    -0.550 OA
ATOM     10  O   UNL     1      -7.962  -4.062  11.950  1.00  0.00    -0.550 OA
ENDBRANCH   7   8
ENDBRANCH   6   7
ENDBRANCH   5   6
ENDBRANCH   4   5
ENDBRANCH   3   4
ENDBRANCH   2   3
ENDBRANCH   1   2
BRANCH   1  11
ATOM     11  C   UNL     1      -2.863   0.758   8.190  1.00  0.00     0.000 C 
BRANCH  11  12
ATOM     12  C   UNL     1      -3.962   0.247   7.241  1.00  0.00    -0.000 C 
BRANCH  12  13
ATOM     13  C   UNL     1      -4.689  -1.031   7.710  1.00  0.00    -0.000 C 
BRANCH  13  14
ATOM     14  C   UNL     1      -4.431  -2.281   6.850  1.00  0.00    -0.000 C 
BRANCH  14  15
ATOM     15  C   UNL     1      -3.573  -3.333   7.569  1.00  0.00    -0.000 C 
BRANCH  15  16
ATOM     16  C   UNL     1      -2.220  -3.510   6.864  1.00  0.00    -0.000 C 
BRANCH  16  17
ATOM     17  C   UNL     1      -1.990  -2.466   5.760  1.00  0.00    -0.003 C 
ATOM     18  C   UNL     1      -0.535  -2.009   5.675  1.00  0.00     0.004 C 
ENDBRANCH  16  17
ENDBRANCH  15  16
ENDBRANCH  14  15
ENDBRANCH  13  14
ENDBRANCH  12  13
ENDBRANCH  11  12
ENDBRANCH   1  11
TORSDOF 14
ENDMDL
MODEL 7
REMARK VINA RESULT:    -3.509      2.752      4.911
REMARK INTER + INTRA:          -8.326
REMARK INTER:                  -5.844
REMARK INTRA:                  -2.482
REMARK UNBOUND:                -1.945
REMARK SMILES CCCCCCCCCCCCCCCC(=O)[O-]
REMARK SMILES IDX 9 1 10 2 11 3 12 4 13 5 14 6 15 7 16 8 17 9 18 10 8 11 7 12
REMARK SMILES IDX 6 13 5 14 4 15 3 16 2 17 1 18
REMARK H PARENT
REMARK Flexibility Score: inf
ROOT
ATOM      1  C   UNL     1      -1.597  -1.009   6.687  1.00  0.00     0.000 C 
ENDROOT
BRANCH   1   2
ATOM      2  C   UNL     1      -3.020  -0.482   6.946  1.00  0.00     0.000 C 
BRANCH   2   3
ATOM      3  C   UNL     1      -3.335  -0.146   8.417  1.00  0.00     0.000 C 
BRANCH   3   4
ATOM      4  C   UNL     1      -2.202  -0.444   9.415  1.00  0.00     0.000 C 
BRANCH   4   5
ATOM      5  C   UNL     1      -2.566  -1.533  10.433  1.00  0.00     0.000 C 
BRANCH   5   6
ATOM      6  C   UNL     1      -3.979  -2.069  10.177  1.00  0.00     0.006 C 
BRANCH   6   7
ATOM      7  C   UNL     1      -4.660  -2.471  11.487  1.00  0.00     0.053 C 
BRANCH   7   8
ATOM      8  C   UNL     1      -5.936  -3.205  11.214  1.00  0.00     0.041 C 
ATOM      9  O   UNL     1      -7.009  -2.834  11.759  1.00  0.00    -0.550 OA
ATOM     10  O   UNL     1      -5.949  -4.266  10.318  1.00  0.00    -0.550 OA
ENDBRANCH   7   8
ENDBRANCH   6   7
ENDBRANCH   5   6
ENDBRANCH   4   5
ENDBRANCH   3   4
ENDBRANCH   2   3
ENDBRANCH   1   2
BRANCH   1  11
ATOM     11  C   UNL     1      -1.582  -2.452   6.156  1.00  0.00     0.000 C 
BRANCH  11  12
ATOM     12  C   UNL     1      -1.961  -3.488   7.230  1.00  0.00    -0.000 C 
BRANCH  12  13
ATOM     13  C   UNL     1      -3.066  -4.483   6.818  1.00  0.00    -0.000 C 
BRANCH  13  14
ATOM     14  C   UNL     1      -4.504  -4.018   7.109  1.00  0.00    -0.000 C 
BRANCH  14  15
ATOM     15  C   UNL     1      -5.296  -3.690   5.835  1.00  0.00    -0.000 C 
BRANCH  15  16
ATOM     16  C   UNL     1      -6.130  -2.413   6.022  1.00  0.00    -0.000 C 
BRANCH  16  17
ATOM     17  C   UNL     1      -6.383  -2.088   7.502  1.00  0.00    -0.003 C 
ATOM     18  C   UNL     1      -7.820  -2.378   7.931  1.00  0.00     0.004 C 
ENDBRANCH  16  17
ENDBRANCH  15  16
ENDBRANCH  14  15
ENDBRANCH  13  14
ENDBRANCH  12  13
ENDBRANCH  11  12
ENDBRANCH   1  11
TORSDOF 14
ENDMDL
MODEL 8
REMARK VINA RESULT:    -3.446      2.709      5.766
REMARK INTER + INTRA:          -8.211
REMARK INTER:                  -6.234
REMARK INTRA:                  -1.976
REMARK UNBOUND:                -1.945
REMARK SMILES CCCCCCCCCCCCCCCC(=O)[O-]
REMARK SMILES IDX 9 1 10 2 11 3 12 4 13 5 14 6 15 7 16 8 17 9 18 10 8 11 7 12
REMARK SMILES IDX 6 13 5 14 4 15 3 16 2 17 1 18
REMARK H PARENT
REMARK Flexibility Score: inf
ROOT
ATOM      1  C   UNL     1      -5.410  -3.605   7.461  1.00  0.00     0.000 C 
ENDROOT
BRANCH   1   2
ATOM      2  C   UNL     1      -4.564  -4.888   7.538  1.00  0.00     0.000 C 
BRANCH   2   3
ATOM      3  C   UNL     1      -3.467  -5.013   6.462  1.00  0.00     0.000 C 
BRANCH   3   4
ATOM      4  C   UNL     1      -2.872  -3.680   5.974  1.00  0.00     0.000 C 
BRANCH   4   5
ATOM      5  C   UNL     1      -1.652  -3.231   6.789  1.00  0.00     0.000 C 
BRANCH   5   6
ATOM      6  C   UNL     1      -0.921  -2.080   6.089  1.00  0.00     0.006 C 
BRANCH   6   7
ATOM      7  C   UNL     1      -1.745  -1.537   4.918  1.00  0.00     0.053 C 
BRANCH   7   8
ATOM      8  C   UNL     1      -0.857  -1.194   3.764  1.00  0.00     0.041 C 
ATOM      9  O   UNL     1       0.323  -1.631   3.720  1.00  0.00    -0.550 OA
ATOM     10  O   UNL     1      -1.349  -0.433   2.710  1.00  0.00    -0.550 OA
ENDBRANCH   7   8
ENDBRANCH   6   7
ENDBRANCH   5   6
ENDBRANCH   4   5
ENDBRANCH   3   4
ENDBRANCH   2   3
ENDBRANCH   1   2
BRANCH   1  11
ATOM     11  C   UNL     1      -5.145  -2.645   8.633  1.00  0.00     0.000 C 
BRANCH  11  12
ATOM     12  C   UNL     1      -4.708  -1.243   8.169  1.00  0.00    -0.000 C 
BRANCH  12  13
ATOM     13  C   UNL     1      -3.358  -0.758   8.736  1.00  0.00    -0.000 C 
BRANCH  13  14
ATOM     14  C   UNL     1      -2.722  -1.683   9.789  1.00  0.00    -0.000 C 
BRANCH  14  15
ATOM     15  C   UNL     1      -2.900  -1.167  11.224  1.00  0.00    -0.000 C 
BRANCH  15  16
ATOM     16  C   UNL     1      -3.908  -2.033  11.996  1.00  0.00    -0.000 C 
BRANCH  16  17
ATOM     17  C   UNL     1      -5.012  -1.198  12.663  1.00  0.00    -0.003 C 
ATOM     18  C   UNL     1      -6.292  -1.142  11.832  1.00  0.00     0.004 C 
ENDBRANCH  16  17
ENDBRANCH  15  16
ENDBRANCH  14  15
ENDBRANCH  13  14
ENDBRANCH  12  13
ENDBRANCH  11  12
ENDBRANCH   1  11
TORSDOF 14
ENDMDL
MODEL 9
REMARK VINA RESULT:    -3.438      1.553      1.836
REMARK INTER + INTRA:          -8.197
REMARK INTER:                  -6.079
REMARK INTRA:                  -2.118
REMARK UNBOUND:                -1.945
REMARK SMILES CCCCCCCCCCCCCCCC(=O)[O-]
REMARK SMILES IDX 9 1 10 2 11 3 12 4 13 5 14 6 15 7 16 8 17 9 18 10 8 11 7 12
REMARK SMILES IDX 6 13 5 14 4 15 3 16 2 17 1 18
REMARK H PARENT
REMARK Flexibility Score: inf
ROOT
ATOM      1  C   UNL     1      -6.066  -2.904   8.729  1.00  0.00     0.000 C 
ENDROOT
BRANCH   1   2
ATOM      2  C   UNL     1      -5.745  -3.793   9.944  1.00  0.00     0.000 C 
BRANCH   2   3
ATOM      3  C   UNL     1      -5.958  -3.125  11.316  1.00  0.00     0.000 C 
BRANCH   3   4
ATOM      4  C   UNL     1      -5.006  -1.957  11.632  1.00  0.00     0.000 C 
BRANCH   4   5
ATOM      5  C   UNL     1      -3.526  -2.359  11.593  1.00  0.00     0.000 C 
BRANCH   5   6
ATOM      6  C   UNL     1      -2.777  -1.582  10.504  1.00  0.00     0.006 C 
BRANCH   6   7
ATOM      7  C   UNL     1      -2.824  -0.076  10.774  1.00  0.00     0.053 C 
BRANCH   7   8
ATOM      8  C   UNL     1      -3.329   0.659   9.572  1.00  0.00     0.041 C 
ATOM      9  O   UNL     1      -4.531   0.539   9.214  1.00  0.00    -0.550 OA
ATOM     10  O   UNL     1      -2.486   1.516   8.875  1.00  0.00    -0.550 OA
ENDBRANCH   7   8
ENDBRANCH   6   7
ENDBRANCH   5   6
ENDBRANCH   4   5
ENDBRANCH   3   4
ENDBRANCH   2   3
ENDBRANCH   1   2
BRANCH   1  11
ATOM     11  C   UNL     1      -4.917  -2.852   7.708  1.00  0.00     0.000 C 
BRANCH  11  12
ATOM     12  C   UNL     1      -4.479  -4.248   7.229  1.00  0.00    -0.000 C 
BRANCH  12  13
ATOM     13  C   UNL     1      -3.071  -4.313   6.602  1.00  0.00    -0.000 C 
BRANCH  13  14
ATOM     14  C   UNL     1      -2.001  -3.462   7.309  1.00  0.00    -0.000 C 
BRANCH  14  15
ATOM     15  C   UNL     1      -1.265  -2.512   6.354  1.00  0.00    -0.000 C 
BRANCH  15  16
ATOM     16  C   UNL     1      -1.742  -1.065   6.545  1.00  0.00    -0.000 C 
BRANCH  16  17
ATOM     17  C   UNL     1      -2.556  -0.550   5.348  1.00  0.00    -0.003 C 
ATOM     18  C   UNL     1      -3.804   0.223   5.773  1.00  0.00     0.004 C 
ENDBRANCH  16  17
ENDBRANCH  15  16
ENDBRANCH  14  15
ENDBRANCH  13  14
ENDBRANCH  12  13
ENDBRANCH  11  12
ENDBRANCH   1  11
TORSDOF 14
ENDMDL
