MODEL 1
REMARK VINA RESULT:    -2.966      0.000      0.000
REMARK INTER + INTRA:          -3.572
REMARK INTER:                  -3.486
REMARK INTRA:                  -0.085
REMARK UNBOUND:                -0.085
REMARK SMILES O=C([O-])CCC(=O)[O-]
REMARK SMILES IDX 4 1 2 2 1 3 3 4 5 5 6 6 7 7 8 8
REMARK H PARENT
REMARK Flexibility Score: inf
ROOT
ATOM      1  C   UNL     1     -10.736   3.761  19.880  1.00  0.00     0.059 C 
ENDROOT
BRANCH   1   2
ATOM      2  C   UNL     1     -10.212   2.724  18.934  1.00  0.00     0.042 C 
ATOM      3  O   UNL     1     -10.923   1.734  18.618  1.00  0.00    -0.550 OA
ATOM      4  O   UNL     1      -8.951   2.873  18.369  1.00  0.00    -0.550 OA
ENDBRANCH   1   2
BRANCH   1   5
ATOM      5  C   UNL     1      -9.600   4.478  20.617  1.00  0.00     0.059 C 
BRANCH   5   6
ATOM      6  C   UNL     1      -9.348   5.842  20.050  1.00  0.00     0.042 C 
ATOM      7  O   UNL     1      -9.972   6.228  19.027  1.00  0.00    -0.550 OA
ATOM      8  O   UNL     1      -8.392   6.670  20.628  1.00  0.00    -0.550 OA
ENDBRANCH   5   6
ENDBRANCH   1   5
TORSDOF 3
ENDMDL
MODEL 2
REMARK VINA RESULT:    -2.965      1.322      3.999
REMARK INTER + INTRA:          -3.571
REMARK INTER:                  -3.455
REMARK INTRA:                  -0.115
REMARK UNBOUND:                -0.085
REMARK SMILES O=C([O-])CCC(=O)[O-]
REMARK SMILES IDX 4 1 2 2 1 3 3 4 5 5 6 6 7 7 8 8
REMARK H PARENT
REMARK Flexibility Score: inf
ROOT
ATOM      1  C   UNL     1     -10.533   3.719  20.034  1.00  0.00     0.059 C 
ENDROOT
BRANCH   1   2
ATOM      2  C   UNL     1      -9.527   4.811  19.840  1.00  0.00     0.042 C 
ATOM      3  O   UNL     1      -8.801   5.184  20.798  1.00  0.00    -0.550 OA
ATOM      4  O   UNL     1      -9.364   5.390  18.587  1.00  0.00    -0.550 OA
ENDBRANCH   1   2
BRANCH   1   5
ATOM      5  C   UNL     1     -10.156   2.457  19.249  1.00  0.00     0.059 C 
BRANCH   5   6
ATOM      6  C   UNL     1     -11.213   2.091  18.252  1.00  0.00     0.042 C 
ATOM      7  O   UNL     1     -11.798   2.987  17.590  1.00  0.00    -0.550 OA
ATOM      8  O   UNL     1     -11.579   0.760  18.085  1.00  0.00    -0.550 OA
ENDBRANCH   5   6
ENDBRANCH   1   5
TORSDOF 3
ENDMDL
MODEL 3
REMARK VINA RESULT:    -2.958      0.506      1.240
REMARK INTER + INTRA:          -3.562
REMARK INTER:                  -3.470
REMARK INTRA:                  -0.092
REMARK UNBOUND:                -0.085
REMARK SMILES O=C([O-])CCC(=O)[O-]
REMARK SMILES IDX 4 1 2 2 1 3 3 4 5 5 6 6 7 7 8 8
REMARK H PARENT
REMARK Flexibility Score: inf
ROOT
ATOM      1  C   UNL     1     -10.329   4.002  20.306  1.00  0.00     0.059 C 
ENDROOT
BRANCH   1   2
ATOM      2  C   UNL     1      -9.969   3.023  19.231  1.00  0.00     0.042 C 
ATOM      3  O   UNL     1     -10.738   2.063  18.963  1.00  0.00    -0.550 OA
ATOM      4  O   UNL     1      -8.803   3.196  18.497  1.00  0.00    -0.550 OA
ENDBRANCH   1   2
BRANCH   1   5
ATOM      5  C   UNL     1      -9.123   4.851  20.724  1.00  0.00     0.059 C 
BRANCH   5   6
ATOM      6  C   UNL     1      -9.188   6.229  20.139  1.00  0.00     0.042 C 
ATOM      7  O   UNL     1      -8.335   7.096  20.464  1.00  0.00    -0.550 OA
ATOM      8  O   UNL     1     -10.216   6.567  19.267  1.00  0.00    -0.550 OA
ENDBRANCH   5   6
ENDBRANCH   1   5
TORSDOF 3
ENDMDL
MODEL 4
REMARK VINA RESULT:    -2.953      0.524      3.856
REMARK INTER + INTRA:          -3.556
REMARK INTER:                  -3.463
REMARK INTRA:                  -0.094
REMARK UNBOUND:                -0.085
REMARK SMILES O=C([O-])CCC(=O)[O-]
REMARK SMILES IDX 4 1 2 2 1 3 3 4 5 5 6 6 7 7 8 8
REMARK H PARENT
REMARK Flexibility Score: inf
ROOT
ATOM      1  C   UNL     1      -9.146   4.879  20.731  1.00  0.00     0.059 C 
ENDROOT
BRANCH   1   2
ATOM      2  C   UNL     1      -9.227   6.260  20.155  1.00  0.00     0.042 C 
ATOM      3  O   UNL     1      -8.353   7.120  20.440  1.00  0.00    -0.550 OA
ATOM      4  O   UNL     1     -10.247   6.584  19.269  1.00  0.00    -0.550 OA
ENDBRANCH   1   2
BRANCH   1   5
ATOM      5  C   UNL     1     -10.341   4.019  20.305  1.00  0.00     0.059 C 
BRANCH   5   6
ATOM      6  C   UNL     1      -9.966   3.047  19.228  1.00  0.00     0.042 C 
ATOM      7  O   UNL     1     -10.690   2.043  19.000  1.00  0.00    -0.550 OA
ATOM      8  O   UNL     1      -8.794   3.229  18.504  1.00  0.00    -0.550 OA
ENDBRANCH   5   6
ENDBRANCH   1   5
TORSDOF 3
ENDMDL
MODEL 5
REMARK VINA RESULT:    -2.943      0.538      3.974
REMARK INTER + INTRA:          -3.544
REMARK INTER:                  -3.450
REMARK INTRA:                  -0.094
REMARK UNBOUND:                -0.085
REMARK SMILES O=C([O-])CCC(=O)[O-]
REMARK SMILES IDX 4 1 2 2 1 3 3 4 5 5 6 6 7 7 8 8
REMARK H PARENT
REMARK Flexibility Score: inf
ROOT
ATOM      1  C   UNL     1      -9.115   4.912  20.722  1.00  0.00     0.059 C 
ENDROOT
BRANCH   1   2
ATOM      2  C   UNL     1      -9.190   6.298  20.158  1.00  0.00     0.042 C 
ATOM      3  O   UNL     1      -8.315   7.153  20.455  1.00  0.00    -0.550 OA
ATOM      4  O   UNL     1     -10.206   6.634  19.272  1.00  0.00    -0.550 OA
ENDBRANCH   1   2
BRANCH   1   5
ATOM      5  C   UNL     1     -10.301   4.053  20.268  1.00  0.00     0.059 C 
BRANCH   5   6
ATOM      6  C   UNL     1      -9.898   3.070  19.212  1.00  0.00     0.042 C 
ATOM      7  O   UNL     1      -8.817   3.221  18.584  1.00  0.00    -0.550 OA
ATOM      8  O   UNL     1     -10.738   2.009  18.893  1.00  0.00    -0.550 OA
ENDBRANCH   5   6
ENDBRANCH   1   5
TORSDOF 3
ENDMDL
MODEL 6
REMARK VINA RESULT:    -2.854      1.819      2.262
REMARK INTER + INTRA:          -3.440
REMARK INTER:                  -3.340
REMARK INTRA:                  -0.101
REMARK UNBOUND:                -0.085
REMARK SMILES O=C([O-])CCC(=O)[O-]
REMARK SMILES IDX 4 1 2 2 1 3 3 4 5 5 6 6 7 7 8 8
REMARK H PARENT
REMARK Flexibility Score: inf
ROOT
ATOM      1  C   UNL     1      -9.430   5.412  21.051  1.00  0.00     0.059 C 
ENDROOT
BRANCH   1   2
ATOM      2  C   UNL     1      -9.556   4.479  19.886  1.00  0.00     0.042 C 
ATOM      3  O   UNL     1     -10.156   3.380  20.014  1.00  0.00    -0.550 OA
ATOM      4  O   UNL     1      -9.044   4.842  18.647  1.00  0.00    -0.550 OA
ENDBRANCH   1   2
BRANCH   1   5
ATOM      5  C   UNL     1      -8.596   6.648  20.697  1.00  0.00     0.059 C 
BRANCH   5   6
ATOM      6  C   UNL     1      -9.448   7.876  20.584  1.00  0.00     0.042 C 
ATOM      7  O   UNL     1     -10.700   7.773  20.497  1.00  0.00    -0.550 OA
ATOM      8  O   UNL     1      -8.855   9.132  20.535  1.00  0.00    -0.550 OA
ENDBRANCH   5   6
ENDBRANCH   1   5
TORSDOF 3
ENDMDL
MODEL 7
REMARK VINA RESULT:    -2.850      1.809      4.462
REMARK INTER + INTRA:          -3.435
REMARK INTER:                  -3.330
REMARK INTRA:                  -0.105
REMARK UNBOUND:                -0.085
REMARK SMILES O=C([O-])CCC(=O)[O-]
REMARK SMILES IDX 4 1 2 2 1 3 3 4 5 5 6 6 7 7 8 8
REMARK H PARENT
REMARK Flexibility Score: inf
ROOT
ATOM      1  C   UNL     1      -8.566   6.731  20.654  1.00  0.00     0.059 C 
ENDROOT
BRANCH   1   2
ATOM      2  C   UNL     1      -9.432   7.952  20.575  1.00  0.00     0.042 C 
ATOM      3  O   UNL     1      -8.912   9.099  20.565  1.00  0.00    -0.550 OA
ATOM      4  O   UNL     1     -10.811   7.820  20.473  1.00  0.00    -0.550 OA
ENDBRANCH   1   2
BRANCH   1   5
ATOM      5  C   UNL     1      -9.386   5.479  20.984  1.00  0.00     0.059 C 
BRANCH   5   6
ATOM      6  C   UNL     1      -9.493   4.562  19.804  1.00  0.00     0.042 C 
ATOM      7  O   UNL     1      -9.096   4.939  18.671  1.00  0.00    -0.550 OA
ATOM      8  O   UNL     1     -10.069   3.305  19.950  1.00  0.00    -0.550 OA
ENDBRANCH   5   6
ENDBRANCH   1   5
TORSDOF 3
ENDMDL
MODEL 8
REMARK VINA RESULT:    -2.742      1.707      2.196
REMARK INTER + INTRA:          -3.309
REMARK INTER:                  -3.205
REMARK INTRA:                  -0.104
REMARK UNBOUND:                -0.085
REMARK SMILES O=C([O-])CCC(=O)[O-]
REMARK SMILES IDX 4 1 2 2 1 3 3 4 5 5 6 6 7 7 8 8
REMARK H PARENT
REMARK Flexibility Score: inf
ROOT
ATOM      1  C   UNL     1      -9.147   4.778  18.927  1.00  0.00     0.059 C 
ENDROOT
BRANCH   1   2
ATOM      2  C   UNL     1      -9.166   3.319  18.589  1.00  0.00     0.042 C 
ATOM      3  O   UNL     1      -8.372   2.856  17.729  1.00  0.00    -0.550 OA
ATOM      4  O   UNL     1     -10.033   2.463  19.256  1.00  0.00    -0.550 OA
ENDBRANCH   1   2
BRANCH   1   5
ATOM      5  C   UNL     1      -9.182   5.008  20.442  1.00  0.00     0.059 C 
BRANCH   5   6
ATOM      6  C   UNL     1     -10.504   5.555  20.887  1.00  0.00     0.042 C 
ATOM      7  O   UNL     1     -10.644   6.790  21.088  1.00  0.00    -0.550 OA
ATOM      8  O   UNL     1     -11.570   4.694  21.120  1.00  0.00    -0.550 OA
ENDBRANCH   5   6
ENDBRANCH   1   5
TORSDOF 3
ENDMDL
MODEL 9
REMARK VINA RESULT:    -2.700      1.500      3.816
REMARK INTER + INTRA:          -3.259
REMARK INTER:                  -3.131
REMARK INTRA:                  -0.129
REMARK UNBOUND:                -0.085
REMARK SMILES O=C([O-])CCC(=O)[O-]
REMARK SMILES IDX 4 1 2 2 1 3 3 4 5 5 6 6 7 7 8 8
REMARK H PARENT
REMARK Flexibility Score: inf
ROOT
ATOM      1  C   UNL     1      -9.125   5.266  18.825  1.00  0.00     0.059 C 
ENDROOT
BRANCH   1   2
ATOM      2  C   UNL     1      -9.290   6.402  19.788  1.00  0.00     0.042 C 
ATOM      3  O   UNL     1     -10.302   7.148  19.722  1.00  0.00    -0.550 OA
ATOM      4  O   UNL     1      -8.345   6.610  20.785  1.00  0.00    -0.550 OA
ENDBRANCH   1   2
BRANCH   1   5
ATOM      5  C   UNL     1     -10.431   4.486  18.642  1.00  0.00     0.059 C 
BRANCH   5   6
ATOM      6  C   UNL     1     -10.658   3.518  19.763  1.00  0.00     0.042 C 
ATOM      7  O   UNL     1     -10.182   2.354  19.702  1.00  0.00    -0.550 OA
ATOM      8  O   UNL     1     -11.430   3.890  20.858  1.00  0.00    -0.550 OA
ENDBRANCH   5   6
ENDBRANCH   1   5
TORSDOF 3
ENDMDL
