MODEL 1
REMARK VINA RESULT:    -3.246      0.000      0.000
REMARK INTER + INTRA:          -4.565
REMARK INTER:                  -4.290
REMARK INTRA:                  -0.274
REMARK UNBOUND:                -0.274
REMARK SMILES CCCCCCCO
REMARK SMILES IDX 5 1 4 2 3 3 2 4 1 5 6 6 7 7 8 8
REMARK H PARENT 8 9
REMARK Flexibility Score: inf
ROOT
ATOM      1  C   UNL     1     160.300 175.798 151.466  1.00  0.00     0.002 C 
ENDROOT
BRANCH   1   2
ATOM      2  C   UNL     1     160.748 176.849 150.443  1.00  0.00     0.000 C 
BRANCH   2   3
ATOM      3  C   UNL     1     161.658 177.899 151.096  1.00  0.00    -0.000 C 
BRANCH   3   4
ATOM      4  C   UNL     1     163.140 177.494 151.072  1.00  0.00    -0.003 C 
ATOM      5  C   UNL     1     163.786 177.533 152.456  1.00  0.00     0.004 C 
ENDBRANCH   3   4
ENDBRANCH   2   3
ENDBRANCH   1   2
BRANCH   1   6
ATOM      6  C   UNL     1     160.124 176.422 152.856  1.00  0.00     0.028 C 
BRANCH   6   7
ATOM      7  C   UNL     1     160.598 175.478 153.967  1.00  0.00     0.156 C 
BRANCH   7   8
ATOM      8  O   UNL     1     159.846 175.664 155.136  1.00  0.00    -0.396 OA
ATOM      9  H   UNL     1     159.865 174.801 155.626  1.00  0.00     0.210 HD
ENDBRANCH   7   8
ENDBRANCH   6   7
ENDBRANCH   1   6
TORSDOF 6
ENDMDL
MODEL 2
REMARK VINA RESULT:    -3.224      1.618      2.620
REMARK INTER + INTRA:          -4.535
REMARK INTER:                  -4.168
REMARK INTRA:                  -0.367
REMARK UNBOUND:                -0.274
REMARK SMILES CCCCCCCO
REMARK SMILES IDX 5 1 4 2 3 3 2 4 1 5 6 6 7 7 8 8
REMARK H PARENT 8 9
REMARK Flexibility Score: inf
ROOT
ATOM      1  C   UNL     1     161.242 178.125 152.870  1.00  0.00     0.002 C 
ENDROOT
BRANCH   1   2
ATOM      2  C   UNL     1     160.337 177.842 151.666  1.00  0.00     0.000 C 
BRANCH   2   3
ATOM      3  C   UNL     1     160.944 176.758 150.764  1.00  0.00    -0.000 C 
BRANCH   3   4
ATOM      4  C   UNL     1     160.859 175.356 151.386  1.00  0.00    -0.003 C 
ATOM      5  C   UNL     1     159.447 174.999 151.848  1.00  0.00     0.004 C 
ENDBRANCH   3   4
ENDBRANCH   2   3
ENDBRANCH   1   2
BRANCH   1   6
ATOM      6  C   UNL     1     160.484 177.921 154.189  1.00  0.00     0.028 C 
BRANCH   6   7
ATOM      7  C   UNL     1     160.930 176.645 154.910  1.00  0.00     0.156 C 
BRANCH   7   8
ATOM      8  O   UNL     1     159.823 175.867 155.281  1.00  0.00    -0.396 OA
ATOM      9  H   UNL     1     159.284 176.421 155.904  1.00  0.00     0.210 HD
ENDBRANCH   7   8
ENDBRANCH   6   7
ENDBRANCH   1   6
TORSDOF 6
ENDMDL
MODEL 3
REMARK VINA RESULT:    -3.121      1.929      2.450
REMARK INTER + INTRA:          -4.399
REMARK INTER:                  -4.131
REMARK INTRA:                  -0.269
REMARK UNBOUND:                -0.274
REMARK SMILES CCCCCCCO
REMARK SMILES IDX 5 1 4 2 3 3 2 4 1 5 6 6 7 7 8 8
REMARK H PARENT 8 9
REMARK Flexibility Score: inf
ROOT
ATOM      1  C   UNL     1     162.032 174.858 151.523  1.00  0.00     0.002 C 
ENDROOT
BRANCH   1   2
ATOM      2  C   UNL     1     162.108 176.287 150.971  1.00  0.00     0.000 C 
BRANCH   2   3
ATOM      3  C   UNL     1     160.755 176.726 150.393  1.00  0.00    -0.000 C 
BRANCH   3   4
ATOM      4  C   UNL     1     160.262 178.054 150.985  1.00  0.00    -0.003 C 
ATOM      5  C   UNL     1     160.433 178.125 152.502  1.00  0.00     0.004 C 
ENDBRANCH   3   4
ENDBRANCH   2   3
ENDBRANCH   1   2
BRANCH   1   6
ATOM      6  C   UNL     1     160.579 174.446 151.789  1.00  0.00     0.028 C 
BRANCH   6   7
ATOM      7  C   UNL     1     160.377 173.969 153.231  1.00  0.00     0.156 C 
BRANCH   7   8
ATOM      8  O   UNL     1     159.360 173.005 153.301  1.00  0.00    -0.396 OA
ATOM      9  H   UNL     1     158.533 173.440 152.966  1.00  0.00     0.210 HD
ENDBRANCH   7   8
ENDBRANCH   6   7
ENDBRANCH   1   6
TORSDOF 6
ENDMDL
MODEL 4
REMARK VINA RESULT:    -3.096      3.882      5.495
REMARK INTER + INTRA:          -4.366
REMARK INTER:                  -4.226
REMARK INTRA:                  -0.139
REMARK UNBOUND:                -0.274
REMARK SMILES CCCCCCCO
REMARK SMILES IDX 5 1 4 2 3 3 2 4 1 5 6 6 7 7 8 8
REMARK H PARENT 8 9
REMARK Flexibility Score: inf
ROOT
ATOM      1  C   UNL     1     164.632 177.794 151.653  1.00  0.00     0.002 C 
ENDROOT
BRANCH   1   2
ATOM      2  C   UNL     1     163.164 177.703 151.221  1.00  0.00     0.000 C 
BRANCH   2   3
ATOM      3  C   UNL     1     162.737 176.241 151.024  1.00  0.00    -0.000 C 
BRANCH   3   4
ATOM      4  C   UNL     1     161.241 176.100 150.706  1.00  0.00    -0.003 C 
ATOM      5  C   UNL     1     160.609 177.412 150.241  1.00  0.00     0.004 C 
ENDBRANCH   3   4
ENDBRANCH   2   3
ENDBRANCH   1   2
BRANCH   1   6
ATOM      6  C   UNL     1     165.539 178.124 150.460  1.00  0.00     0.028 C 
BRANCH   6   7
ATOM      7  C   UNL     1     166.590 177.035 150.226  1.00  0.00     0.156 C 
BRANCH   7   8
ATOM      8  O   UNL     1     167.551 177.458 149.296  1.00  0.00    -0.396 OA
ATOM      9  H   UNL     1     167.991 178.258 149.687  1.00  0.00     0.210 HD
ENDBRANCH   7   8
ENDBRANCH   6   7
ENDBRANCH   1   6
TORSDOF 6
ENDMDL
MODEL 5
REMARK VINA RESULT:    -3.082     10.244     12.168
REMARK INTER + INTRA:          -4.347
REMARK INTER:                  -4.191
REMARK INTRA:                  -0.156
REMARK UNBOUND:                -0.274
REMARK SMILES CCCCCCCO
REMARK SMILES IDX 5 1 4 2 3 3 2 4 1 5 6 6 7 7 8 8
REMARK H PARENT 8 9
REMARK Flexibility Score: inf
ROOT
ATOM      1  C   UNL     1     172.869 176.991 151.508  1.00  0.00     0.002 C 
ENDROOT
BRANCH   1   2
ATOM      2  C   UNL     1     173.935 177.768 150.725  1.00  0.00     0.000 C 
BRANCH   2   3
ATOM      3  C   UNL     1     175.331 177.174 150.958  1.00  0.00    -0.000 C 
BRANCH   3   4
ATOM      4  C   UNL     1     175.286 175.834 151.707  1.00  0.00    -0.003 C 
ATOM      5  C   UNL     1     176.215 174.784 151.098  1.00  0.00     0.004 C 
ENDBRANCH   3   4
ENDBRANCH   2   3
ENDBRANCH   1   2
BRANCH   1   6
ATOM      6  C   UNL     1     171.810 177.937 152.086  1.00  0.00     0.028 C 
BRANCH   6   7
ATOM      7  C   UNL     1     170.435 177.266 152.176  1.00  0.00     0.156 C 
BRANCH   7   8
ATOM      8  O   UNL     1     169.745 177.691 153.321  1.00  0.00    -0.396 OA
ATOM      9  H   UNL     1     170.263 177.363 154.102  1.00  0.00     0.210 HD
ENDBRANCH   7   8
ENDBRANCH   6   7
ENDBRANCH   1   6
TORSDOF 6
ENDMDL
MODEL 6
REMARK VINA RESULT:    -3.065     13.291     14.750
REMARK INTER + INTRA:          -4.325
REMARK INTER:                  -4.224
REMARK INTRA:                  -0.101
REMARK UNBOUND:                -0.274
REMARK SMILES CCCCCCCO
REMARK SMILES IDX 5 1 4 2 3 3 2 4 1 5 6 6 7 7 8 8
REMARK H PARENT 8 9
REMARK Flexibility Score: inf
ROOT
ATOM      1  C   UNL     1     175.601 174.014 151.143  1.00  0.00     0.002 C 
ENDROOT
BRANCH   1   2
ATOM      2  C   UNL     1     175.384 175.531 151.163  1.00  0.00     0.000 C 
BRANCH   2   3
ATOM      3  C   UNL     1     173.903 175.878 150.952  1.00  0.00    -0.000 C 
BRANCH   3   4
ATOM      4  C   UNL     1     173.676 177.378 150.712  1.00  0.00    -0.003 C 
ATOM      5  C   UNL     1     174.960 178.120 150.347  1.00  0.00     0.004 C 
ENDBRANCH   3   4
ENDBRANCH   2   3
ENDBRANCH   1   2
BRANCH   1   6
ATOM      6  C   UNL     1     176.904 173.635 151.860  1.00  0.00     0.028 C 
BRANCH   6   7
ATOM      7  C   UNL     1     176.688 172.505 152.872  1.00  0.00     0.156 C 
BRANCH   7   8
ATOM      8  O   UNL     1     177.745 172.449 153.793  1.00  0.00    -0.396 OA
ATOM      9  H   UNL     1     178.256 171.622 153.588  1.00  0.00     0.210 HD
ENDBRANCH   7   8
ENDBRANCH   6   7
ENDBRANCH   1   6
TORSDOF 6
ENDMDL
MODEL 7
REMARK VINA RESULT:    -3.031     13.378     15.007
REMARK INTER + INTRA:          -4.280
REMARK INTER:                  -4.073
REMARK INTRA:                  -0.208
REMARK UNBOUND:                -0.274
REMARK SMILES CCCCCCCO
REMARK SMILES IDX 5 1 4 2 3 3 2 4 1 5 6 6 7 7 8 8
REMARK H PARENT 8 9
REMARK Flexibility Score: inf
ROOT
ATOM      1  C   UNL     1     176.605 174.064 151.374  1.00  0.00     0.002 C 
ENDROOT
BRANCH   1   2
ATOM      2  C   UNL     1     175.915 175.403 151.091  1.00  0.00     0.000 C 
BRANCH   2   3
ATOM      3  C   UNL     1     174.388 175.240 151.054  1.00  0.00    -0.000 C 
BRANCH   3   4
ATOM      4  C   UNL     1     173.660 176.555 150.740  1.00  0.00    -0.003 C 
ATOM      5  C   UNL     1     174.613 177.672 150.316  1.00  0.00     0.004 C 
ENDBRANCH   3   4
ENDBRANCH   2   3
ENDBRANCH   1   2
BRANCH   1   6
ATOM      6  C   UNL     1     175.750 172.889 150.883  1.00  0.00     0.028 C 
BRANCH   6   7
ATOM      7  C   UNL     1     176.465 172.082 149.794  1.00  0.00     0.156 C 
BRANCH   7   8
ATOM      8  O   UNL     1     177.558 172.795 149.279  1.00  0.00    -0.396 OA
ATOM      9  H   UNL     1     178.376 172.333 149.602  1.00  0.00     0.210 HD
ENDBRANCH   7   8
ENDBRANCH   6   7
ENDBRANCH   1   6
TORSDOF 6
ENDMDL
MODEL 8
REMARK VINA RESULT:    -2.994     19.809     20.393
REMARK INTER + INTRA:          -4.231
REMARK INTER:                  -3.937
REMARK INTRA:                  -0.295
REMARK UNBOUND:                -0.274
REMARK SMILES CCCCCCCO
REMARK SMILES IDX 5 1 4 2 3 3 2 4 1 5 6 6 7 7 8 8
REMARK H PARENT 8 9
REMARK Flexibility Score: inf
ROOT
ATOM      1  C   UNL     1     173.129 160.576 150.389  1.00  0.00     0.002 C 
ENDROOT
BRANCH   1   2
ATOM      2  C   UNL     1     174.224 161.489 149.825  1.00  0.00     0.000 C 
BRANCH   2   3
ATOM      3  C   UNL     1     175.583 160.775 149.813  1.00  0.00    -0.000 C 
BRANCH   3   4
ATOM      4  C   UNL     1     176.506 161.242 150.949  1.00  0.00    -0.003 C 
ATOM      5  C   UNL     1     176.390 162.740 151.227  1.00  0.00     0.004 C 
ENDBRANCH   3   4
ENDBRANCH   2   3
ENDBRANCH   1   2
BRANCH   1   6
ATOM      6  C   UNL     1     172.534 161.160 151.677  1.00  0.00     0.028 C 
BRANCH   6   7
ATOM      7  C   UNL     1     173.270 160.654 152.923  1.00  0.00     0.156 C 
BRANCH   7   8
ATOM      8  O   UNL     1     172.703 159.458 153.388  1.00  0.00    -0.396 OA
ATOM      9  H   UNL     1     172.612 159.551 154.372  1.00  0.00     0.210 HD
ENDBRANCH   7   8
ENDBRANCH   6   7
ENDBRANCH   1   6
TORSDOF 6
ENDMDL
MODEL 9
REMARK VINA RESULT:    -2.962     13.201     14.910
REMARK INTER + INTRA:          -4.189
REMARK INTER:                  -3.982
REMARK INTRA:                  -0.207
REMARK UNBOUND:                -0.274
REMARK SMILES CCCCCCCO
REMARK SMILES IDX 5 1 4 2 3 3 2 4 1 5 6 6 7 7 8 8
REMARK H PARENT 8 9
REMARK Flexibility Score: inf
ROOT
ATOM      1  C   UNL     1     174.737 174.826 151.098  1.00  0.00     0.002 C 
ENDROOT
BRANCH   1   2
ATOM      2  C   UNL     1     176.252 175.057 151.142  1.00  0.00     0.000 C 
BRANCH   2   3
ATOM      3  C   UNL     1     177.007 173.881 150.506  1.00  0.00    -0.000 C 
BRANCH   3   4
ATOM      4  C   UNL     1     176.393 172.520 150.866  1.00  0.00    -0.003 C 
ATOM      5  C   UNL     1     176.231 171.605 149.653  1.00  0.00     0.004 C 
ENDBRANCH   3   4
ENDBRANCH   2   3
ENDBRANCH   1   2
BRANCH   1   6
ATOM      6  C   UNL     1     173.991 176.120 150.746  1.00  0.00     0.028 C 
BRANCH   6   7
ATOM      7  C   UNL     1     174.922 177.337 150.771  1.00  0.00     0.156 C 
BRANCH   7   8
ATOM      8  O   UNL     1     174.756 178.117 149.618  1.00  0.00    -0.396 OA
ATOM      9  H   UNL     1     175.586 178.653 149.516  1.00  0.00     0.210 HD
ENDBRANCH   7   8
ENDBRANCH   6   7
ENDBRANCH   1   6
TORSDOF 6
ENDMDL
