MODEL 1
REMARK VINA RESULT:    -4.793      0.000      0.000
REMARK INTER + INTRA:          -9.805
REMARK INTER:                  -8.716
REMARK INTRA:                  -1.089
REMARK UNBOUND:                -1.089
REMARK SMILES CCCCCC=CCC=CCCCCCCCC(=O)[O-]
REMARK SMILES IDX 11 1 12 2 13 3 14 4 15 5 16 6 17 7 18 8 19 9 20 10 10 11
REMARK SMILES IDX 9 12 8 13 7 14 6 15 5 16 4 17 3 18 2 19 1 20
REMARK H PARENT
REMARK Flexibility Score: inf
ROOT
ATOM      1  C   UNL     1      25.352 -32.999  23.389  1.00  0.00     0.027 C 
ENDROOT
BRANCH   1   2
ATOM      2  C   UNL     1      25.777 -33.490  21.999  1.00  0.00     0.004 C 
BRANCH   2   3
ATOM      3  C   UNL     1      26.340 -34.921  22.031  1.00  0.00     0.000 C 
BRANCH   3   4
ATOM      4  C   UNL     1      25.784 -35.740  23.214  1.00  0.00     0.000 C 
BRANCH   4   5
ATOM      5  C   UNL     1      25.716 -37.256  22.940  1.00  0.00     0.000 C 
BRANCH   5   6
ATOM      6  C   UNL     1      24.300 -37.805  22.697  1.00  0.00     0.006 C 
BRANCH   6   7
ATOM      7  C   UNL     1      23.764 -37.464  21.300  1.00  0.00     0.053 C 
BRANCH   7   8
ATOM      8  C   UNL     1      22.356 -37.948  21.151  1.00  0.00     0.041 C 
ATOM      9  O   UNL     1      21.726 -37.741  20.081  1.00  0.00    -0.550 OA
ATOM     10  O   UNL     1      21.722 -38.581  22.212  1.00  0.00    -0.550 OA
ENDBRANCH   7   8
ENDBRANCH   6   7
ENDBRANCH   5   6
ENDBRANCH   4   5
ENDBRANCH   3   4
ENDBRANCH   2   3
ENDBRANCH   1   2
BRANCH   1  11
ATOM     11  C   UNL     1      25.274 -31.492  23.444  1.00  0.00    -0.031 C 
ATOM     12  C   UNL     1      24.304 -30.777  24.044  1.00  0.00    -0.027 C 
BRANCH  12  13
ATOM     13  C   UNL     1      23.148 -31.348  24.827  1.00  0.00     0.054 C 
BRANCH  13  14
ATOM     14  C   UNL     1      23.090 -30.742  26.199  1.00  0.00    -0.027 C 
ATOM     15  C   UNL     1      23.608 -29.532  26.460  1.00  0.00    -0.031 C 
BRANCH  15  16
ATOM     16  C   UNL     1      23.538 -28.925  27.834  1.00  0.00     0.027 C 
BRANCH  16  17
ATOM     17  C   UNL     1      22.533 -29.676  28.720  1.00  0.00     0.004 C 
BRANCH  17  18
ATOM     18  C   UNL     1      23.219 -30.597  29.742  1.00  0.00     0.000 C 
BRANCH  18  19
ATOM     19  C   UNL     1      24.732 -30.353  29.832  1.00  0.00    -0.003 C 
ATOM     20  C   UNL     1      25.508 -31.661  29.703  1.00  0.00     0.004 C 
ENDBRANCH  18  19
ENDBRANCH  17  18
ENDBRANCH  16  17
ENDBRANCH  15  16
ENDBRANCH  13  14
ENDBRANCH  12  13
ENDBRANCH   1  11
TORSDOF 14
ENDMDL
MODEL 2
REMARK VINA RESULT:    -4.793      1.679      4.059
REMARK INTER + INTRA:          -9.804
REMARK INTER:                  -8.278
REMARK INTRA:                  -1.527
REMARK UNBOUND:                -1.089
REMARK SMILES CCCCCC=CCC=CCCCCCCCC(=O)[O-]
REMARK SMILES IDX 11 1 12 2 13 3 14 4 15 5 16 6 17 7 18 8 19 9 20 10 10 11
REMARK SMILES IDX 9 12 8 13 7 14 6 15 5 16 4 17 3 18 2 19 1 20
REMARK H PARENT
REMARK Flexibility Score: inf
ROOT
ATOM      1  C   UNL     1      25.603 -36.678  23.664  1.00  0.00     0.027 C 
ENDROOT
BRANCH   1   2
ATOM      2  C   UNL     1      26.467 -37.946  23.630  1.00  0.00     0.004 C 
BRANCH   2   3
ATOM      3  C   UNL     1      25.843 -39.057  22.769  1.00  0.00     0.000 C 
BRANCH   3   4
ATOM      4  C   UNL     1      25.221 -40.179  23.627  1.00  0.00     0.000 C 
BRANCH   4   5
ATOM      5  C   UNL     1      23.702 -40.023  23.841  1.00  0.00     0.000 C 
BRANCH   5   6
ATOM      6  C   UNL     1      22.865 -40.023  22.551  1.00  0.00     0.006 C 
BRANCH   6   7
ATOM      7  C   UNL     1      22.238 -38.655  22.251  1.00  0.00     0.053 C 
BRANCH   7   8
ATOM      8  C   UNL     1      22.222 -38.404  20.776  1.00  0.00     0.041 C 
ATOM      9  O   UNL     1      23.256 -38.606  20.088  1.00  0.00    -0.550 OA
ATOM     10  O   UNL     1      21.080 -37.897  20.169  1.00  0.00    -0.550 OA
ENDBRANCH   7   8
ENDBRANCH   6   7
ENDBRANCH   5   6
ENDBRANCH   4   5
ENDBRANCH   3   4
ENDBRANCH   2   3
ENDBRANCH   1   2
BRANCH   1  11
ATOM     11  C   UNL     1      24.973 -36.401  22.320  1.00  0.00    -0.031 C 
ATOM     12  C   UNL     1      25.231 -35.337  21.536  1.00  0.00    -0.027 C 
BRANCH  12  13
ATOM     13  C   UNL     1      26.245 -34.258  21.825  1.00  0.00     0.054 C 
BRANCH  13  14
ATOM     14  C   UNL     1      25.562 -33.001  22.281  1.00  0.00    -0.027 C 
ATOM     15  C   UNL     1      25.145 -32.843  23.547  1.00  0.00    -0.031 C 
BRANCH  15  16
ATOM     16  C   UNL     1      24.470 -31.578  24.000  1.00  0.00     0.027 C 
BRANCH  16  17
ATOM     17  C   UNL     1      23.099 -31.877  24.626  1.00  0.00     0.004 C 
BRANCH  17  18
ATOM     18  C   UNL     1      22.746 -30.908  25.766  1.00  0.00     0.000 C 
BRANCH  18  19
ATOM     19  C   UNL     1      23.806 -29.814  25.959  1.00  0.00    -0.003 C 
ATOM     20  C   UNL     1      23.578 -29.051  27.260  1.00  0.00     0.004 C 
ENDBRANCH  18  19
ENDBRANCH  17  18
ENDBRANCH  16  17
ENDBRANCH  15  16
ENDBRANCH  13  14
ENDBRANCH  12  13
ENDBRANCH   1  11
TORSDOF 14
ENDMDL
MODEL 3
REMARK VINA RESULT:    -4.767      4.294      8.621
REMARK INTER + INTRA:          -9.757
REMARK INTER:                  -8.141
REMARK INTRA:                  -1.616
REMARK UNBOUND:                -1.089
REMARK SMILES CCCCCC=CCC=CCCCCCCCC(=O)[O-]
REMARK SMILES IDX 11 1 12 2 13 3 14 4 15 5 16 6 17 7 18 8 19 9 20 10 10 11
REMARK SMILES IDX 9 12 8 13 7 14 6 15 5 16 4 17 3 18 2 19 1 20
REMARK H PARENT
REMARK Flexibility Score: inf
ROOT
ATOM      1  C   UNL     1      24.131 -32.287  26.997  1.00  0.00     0.027 C 
ENDROOT
BRANCH   1   2
ATOM      2  C   UNL     1      23.541 -31.400  28.101  1.00  0.00     0.004 C 
BRANCH   2   3
ATOM      3  C   UNL     1      24.068 -29.956  28.035  1.00  0.00     0.000 C 
BRANCH   3   4
ATOM      4  C   UNL     1      22.987 -28.963  27.557  1.00  0.00     0.000 C 
BRANCH   4   5
ATOM      5  C   UNL     1      21.565 -29.558  27.537  1.00  0.00     0.000 C 
BRANCH   5   6
ATOM      6  C   UNL     1      20.706 -29.220  28.767  1.00  0.00     0.006 C 
BRANCH   6   7
ATOM      7  C   UNL     1      20.169 -27.783  28.737  1.00  0.00     0.053 C 
BRANCH   7   8
ATOM      8  C   UNL     1      18.922 -27.712  27.914  1.00  0.00     0.041 C 
ATOM      9  O   UNL     1      18.666 -26.678  27.242  1.00  0.00    -0.550 OA
ATOM     10  O   UNL     1      18.018 -28.765  27.928  1.00  0.00    -0.550 OA
ENDBRANCH   7   8
ENDBRANCH   6   7
ENDBRANCH   5   6
ENDBRANCH   4   5
ENDBRANCH   3   4
ENDBRANCH   2   3
ENDBRANCH   1   2
BRANCH   1  11
ATOM     11  C   UNL     1      23.147 -32.501  25.872  1.00  0.00    -0.031 C 
ATOM     12  C   UNL     1      23.195 -31.909  24.663  1.00  0.00    -0.027 C 
BRANCH  12  13
ATOM     13  C   UNL     1      24.277 -30.972  24.187  1.00  0.00     0.054 C 
BRANCH  13  14
ATOM     14  C   UNL     1      25.227 -31.687  23.270  1.00  0.00    -0.027 C 
ATOM     15  C   UNL     1      24.927 -32.878  22.730  1.00  0.00    -0.031 C 
BRANCH  15  16
ATOM     16  C   UNL     1      25.879 -33.585  21.805  1.00  0.00     0.027 C 
BRANCH  16  17
ATOM     17  C   UNL     1      26.148 -35.022  22.280  1.00  0.00     0.004 C 
BRANCH  17  18
ATOM     18  C   UNL     1      25.306 -35.406  23.507  1.00  0.00     0.000 C 
BRANCH  18  19
ATOM     19  C   UNL     1      25.050 -36.917  23.596  1.00  0.00    -0.003 C 
ATOM     20  C   UNL     1      26.101 -37.603  24.463  1.00  0.00     0.004 C 
ENDBRANCH  18  19
ENDBRANCH  17  18
ENDBRANCH  16  17
ENDBRANCH  15  16
ENDBRANCH  13  14
ENDBRANCH  12  13
ENDBRANCH   1  11
TORSDOF 14
ENDMDL
MODEL 4
REMARK VINA RESULT:    -4.725      3.437      8.677
REMARK INTER + INTRA:          -9.681
REMARK INTER:                  -8.095
REMARK INTRA:                  -1.586
REMARK UNBOUND:                -1.089
REMARK SMILES CCCCCC=CCC=CCCCCCCCC(=O)[O-]
REMARK SMILES IDX 11 1 12 2 13 3 14 4 15 5 16 6 17 7 18 8 19 9 20 10 10 11
REMARK SMILES IDX 9 12 8 13 7 14 6 15 5 16 4 17 3 18 2 19 1 20
REMARK H PARENT
REMARK Flexibility Score: inf
ROOT
ATOM      1  C   UNL     1      25.835 -37.138  24.310  1.00  0.00     0.027 C 
ENDROOT
BRANCH   1   2
ATOM      2  C   UNL     1      25.167 -35.914  23.669  1.00  0.00     0.004 C 
BRANCH   2   3
ATOM      3  C   UNL     1      25.627 -35.689  22.219  1.00  0.00     0.000 C 
BRANCH   3   4
ATOM      4  C   UNL     1      26.076 -34.233  21.969  1.00  0.00     0.000 C 
BRANCH   4   5
ATOM      5  C   UNL     1      25.041 -33.182  22.414  1.00  0.00     0.000 C 
BRANCH   5   6
ATOM      6  C   UNL     1      25.506 -32.262  23.556  1.00  0.00     0.006 C 
BRANCH   6   7
ATOM      7  C   UNL     1      24.602 -31.034  23.732  1.00  0.00     0.053 C 
BRANCH   7   8
ATOM      8  C   UNL     1      23.606 -31.275  24.822  1.00  0.00     0.041 C 
ATOM      9  O   UNL     1      23.845 -30.886  25.995  1.00  0.00    -0.550 OA
ATOM     10  O   UNL     1      22.436 -31.973  24.554  1.00  0.00    -0.550 OA
ENDBRANCH   7   8
ENDBRANCH   6   7
ENDBRANCH   5   6
ENDBRANCH   4   5
ENDBRANCH   3   4
ENDBRANCH   2   3
ENDBRANCH   1   2
BRANCH   1  11
ATOM     11  C   UNL     1      26.679 -37.895  23.313  1.00  0.00    -0.031 C 
ATOM     12  C   UNL     1      26.404 -39.117  22.818  1.00  0.00    -0.027 C 
BRANCH  12  13
ATOM     13  C   UNL     1      25.169 -39.928  23.119  1.00  0.00     0.054 C 
BRANCH  13  14
ATOM     14  C   UNL     1      24.031 -39.504  22.235  1.00  0.00    -0.027 C 
ATOM     15  C   UNL     1      24.229 -39.117  20.966  1.00  0.00    -0.031 C 
BRANCH  15  16
ATOM     16  C   UNL     1      23.084 -38.701  20.083  1.00  0.00     0.027 C 
BRANCH  16  17
ATOM     17  C   UNL     1      21.899 -38.191  20.917  1.00  0.00     0.004 C 
BRANCH  17  18
ATOM     18  C   UNL     1      20.542 -38.637  20.349  1.00  0.00     0.000 C 
BRANCH  18  19
ATOM     19  C   UNL     1      19.732 -39.477  21.348  1.00  0.00    -0.003 C 
ATOM     20  C   UNL     1      20.314 -39.370  22.754  1.00  0.00     0.004 C 
ENDBRANCH  18  19
ENDBRANCH  17  18
ENDBRANCH  16  17
ENDBRANCH  15  16
ENDBRANCH  13  14
ENDBRANCH  12  13
ENDBRANCH   1  11
TORSDOF 14
ENDMDL
MODEL 5
REMARK VINA RESULT:    -4.603      3.536      7.370
REMARK INTER + INTRA:          -9.460
REMARK INTER:                  -7.575
REMARK INTRA:                  -1.885
REMARK UNBOUND:                -1.089
REMARK SMILES CCCCCC=CCC=CCCCCCCCC(=O)[O-]
REMARK SMILES IDX 11 1 12 2 13 3 14 4 15 5 16 6 17 7 18 8 19 9 20 10 10 11
REMARK SMILES IDX 9 12 8 13 7 14 6 15 5 16 4 17 3 18 2 19 1 20
REMARK H PARENT
REMARK Flexibility Score: inf
ROOT
ATOM      1  C   UNL     1      23.622 -29.752  26.882  1.00  0.00     0.027 C 
ENDROOT
BRANCH   1   2
ATOM      2  C   UNL     1      22.216 -29.328  27.325  1.00  0.00     0.004 C 
BRANCH   2   3
ATOM      3  C   UNL     1      21.129 -29.778  26.334  1.00  0.00     0.000 C 
BRANCH   3   4
ATOM      4  C   UNL     1      20.430 -31.078  26.786  1.00  0.00     0.000 C 
BRANCH   4   5
ATOM      5  C   UNL     1      20.978 -32.345  26.102  1.00  0.00     0.000 C 
BRANCH   5   6
ATOM      6  C   UNL     1      20.734 -33.653  26.875  1.00  0.00     0.006 C 
BRANCH   6   7
ATOM      7  C   UNL     1      22.013 -34.212  27.512  1.00  0.00     0.053 C 
BRANCH   7   8
ATOM      8  C   UNL     1      22.304 -33.505  28.798  1.00  0.00     0.041 C 
ATOM      9  O   UNL     1      21.607 -33.738  29.820  1.00  0.00    -0.550 OA
ATOM     10  O   UNL     1      23.312 -32.551  28.855  1.00  0.00    -0.550 OA
ENDBRANCH   7   8
ENDBRANCH   6   7
ENDBRANCH   5   6
ENDBRANCH   4   5
ENDBRANCH   3   4
ENDBRANCH   2   3
ENDBRANCH   1   2
BRANCH   1  11
ATOM     11  C   UNL     1      23.743 -29.783  25.377  1.00  0.00    -0.031 C 
ATOM     12  C   UNL     1      24.095 -30.853  24.639  1.00  0.00    -0.027 C 
BRANCH  12  13
ATOM     13  C   UNL     1      24.372 -32.236  25.174  1.00  0.00     0.054 C 
BRANCH  13  14
ATOM     14  C   UNL     1      24.801 -33.154  24.066  1.00  0.00    -0.027 C 
ATOM     15  C   UNL     1      25.128 -32.690  22.850  1.00  0.00    -0.031 C 
BRANCH  15  16
ATOM     16  C   UNL     1      25.565 -33.613  21.747  1.00  0.00     0.027 C 
BRANCH  16  17
ATOM     17  C   UNL     1      26.066 -34.952  22.311  1.00  0.00     0.004 C 
BRANCH  17  18
ATOM     18  C   UNL     1      25.121 -36.120  21.989  1.00  0.00     0.000 C 
BRANCH  18  19
ATOM     19  C   UNL     1      24.648 -36.860  23.249  1.00  0.00    -0.003 C 
ATOM     20  C   UNL     1      25.833 -37.326  24.089  1.00  0.00     0.004 C 
ENDBRANCH  18  19
ENDBRANCH  17  18
ENDBRANCH  16  17
ENDBRANCH  15  16
ENDBRANCH  13  14
ENDBRANCH  12  13
ENDBRANCH   1  11
TORSDOF 14
ENDMDL
MODEL 6
REMARK VINA RESULT:    -4.599      3.150      7.444
REMARK INTER + INTRA:          -9.452
REMARK INTER:                  -7.908
REMARK INTRA:                  -1.544
REMARK UNBOUND:                -1.089
REMARK SMILES CCCCCC=CCC=CCCCCCCCC(=O)[O-]
REMARK SMILES IDX 11 1 12 2 13 3 14 4 15 5 16 6 17 7 18 8 19 9 20 10 10 11
REMARK SMILES IDX 9 12 8 13 7 14 6 15 5 16 4 17 3 18 2 19 1 20
REMARK H PARENT
REMARK Flexibility Score: inf
ROOT
ATOM      1  C   UNL     1      22.691 -29.635  26.219  1.00  0.00     0.027 C 
ENDROOT
BRANCH   1   2
ATOM      2  C   UNL     1      23.060 -28.961  27.547  1.00  0.00     0.004 C 
BRANCH   2   3
ATOM      3  C   UNL     1      24.332 -29.558  28.174  1.00  0.00     0.000 C 
BRANCH   3   4
ATOM      4  C   UNL     1      24.048 -30.879  28.921  1.00  0.00     0.000 C 
BRANCH   4   5
ATOM      5  C   UNL     1      24.379 -32.139  28.098  1.00  0.00     0.000 C 
BRANCH   5   6
ATOM      6  C   UNL     1      23.155 -32.890  27.546  1.00  0.00     0.006 C 
BRANCH   6   7
ATOM      7  C   UNL     1      22.065 -33.104  28.605  1.00  0.00     0.053 C 
BRANCH   7   8
ATOM      8  C   UNL     1      20.787 -32.457  28.173  1.00  0.00     0.041 C 
ATOM      9  O   UNL     1      20.011 -33.054  27.382  1.00  0.00    -0.550 OA
ATOM     10  O   UNL     1      20.477 -31.173  28.603  1.00  0.00    -0.550 OA
ENDBRANCH   7   8
ENDBRANCH   6   7
ENDBRANCH   5   6
ENDBRANCH   4   5
ENDBRANCH   3   4
ENDBRANCH   2   3
ENDBRANCH   1   2
BRANCH   1  11
ATOM     11  C   UNL     1      23.625 -29.220  25.108  1.00  0.00    -0.031 C 
ATOM     12  C   UNL     1      24.311 -30.055  24.305  1.00  0.00    -0.027 C 
BRANCH  12  13
ATOM     13  C   UNL     1      24.224 -31.560  24.324  1.00  0.00     0.054 C 
BRANCH  13  14
ATOM     14  C   UNL     1      25.227 -32.159  23.381  1.00  0.00    -0.027 C 
ATOM     15  C   UNL     1      24.884 -33.099  22.487  1.00  0.00    -0.031 C 
BRANCH  15  16
ATOM     16  C   UNL     1      25.892 -33.688  21.539  1.00  0.00     0.027 C 
BRANCH  16  17
ATOM     17  C   UNL     1      26.410 -35.041  22.052  1.00  0.00     0.004 C 
BRANCH  17  18
ATOM     18  C   UNL     1      25.579 -35.586  23.224  1.00  0.00     0.000 C 
BRANCH  18  19
ATOM     19  C   UNL     1      25.314 -37.094  23.108  1.00  0.00    -0.003 C 
ATOM     20  C   UNL     1      26.579 -37.898  23.391  1.00  0.00     0.004 C 
ENDBRANCH  18  19
ENDBRANCH  17  18
ENDBRANCH  16  17
ENDBRANCH  15  16
ENDBRANCH  13  14
ENDBRANCH  12  13
ENDBRANCH   1  11
TORSDOF 14
ENDMDL
MODEL 7
REMARK VINA RESULT:    -4.561      4.108      8.120
REMARK INTER + INTRA:          -9.384
REMARK INTER:                  -7.718
REMARK INTRA:                  -1.665
REMARK UNBOUND:                -1.089
REMARK SMILES CCCCCC=CCC=CCCCCCCCC(=O)[O-]
REMARK SMILES IDX 11 1 12 2 13 3 14 4 15 5 16 6 17 7 18 8 19 9 20 10 10 11
REMARK SMILES IDX 9 12 8 13 7 14 6 15 5 16 4 17 3 18 2 19 1 20
REMARK H PARENT
REMARK Flexibility Score: inf
ROOT
ATOM      1  C   UNL     1      23.077 -29.736  26.138  1.00  0.00     0.027 C 
ENDROOT
BRANCH   1   2
ATOM      2  C   UNL     1      21.643 -30.263  26.000  1.00  0.00     0.004 C 
BRANCH   2   3
ATOM      3  C   UNL     1      21.188 -31.055  27.238  1.00  0.00     0.000 C 
BRANCH   3   4
ATOM      4  C   UNL     1      22.055 -32.310  27.478  1.00  0.00     0.000 C 
BRANCH   4   5
ATOM      5  C   UNL     1      22.040 -32.801  28.939  1.00  0.00     0.000 C 
BRANCH   5   6
ATOM      6  C   UNL     1      23.368 -32.619  29.695  1.00  0.00     0.006 C 
BRANCH   6   7
ATOM      7  C   UNL     1      24.364 -31.732  28.936  1.00  0.00     0.053 C 
BRANCH   7   8
ATOM      8  C   UNL     1      24.460 -30.387  29.585  1.00  0.00     0.041 C 
ATOM      9  O   UNL     1      25.550 -30.002  30.083  1.00  0.00    -0.550 OA
ATOM     10  O   UNL     1      23.334 -29.581  29.686  1.00  0.00    -0.550 OA
ENDBRANCH   7   8
ENDBRANCH   6   7
ENDBRANCH   5   6
ENDBRANCH   4   5
ENDBRANCH   3   4
ENDBRANCH   2   3
ENDBRANCH   1   2
BRANCH   1  11
ATOM     11  C   UNL     1      23.791 -29.716  24.808  1.00  0.00    -0.031 C 
ATOM     12  C   UNL     1      24.398 -30.768  24.226  1.00  0.00    -0.027 C 
BRANCH  12  13
ATOM     13  C   UNL     1      24.422 -32.176  24.765  1.00  0.00     0.054 C 
BRANCH  13  14
ATOM     14  C   UNL     1      25.209 -33.075  23.857  1.00  0.00    -0.027 C 
ATOM     15  C   UNL     1      25.162 -32.948  22.522  1.00  0.00    -0.031 C 
BRANCH  15  16
ATOM     16  C   UNL     1      25.960 -33.845  21.617  1.00  0.00     0.027 C 
BRANCH  16  17
ATOM     17  C   UNL     1      26.226 -35.205  22.281  1.00  0.00     0.004 C 
BRANCH  17  18
ATOM     18  C   UNL     1      25.065 -36.193  22.089  1.00  0.00     0.000 C 
BRANCH  18  19
ATOM     19  C   UNL     1      25.168 -37.412  23.018  1.00  0.00    -0.003 C 
ATOM     20  C   UNL     1      25.008 -37.003  24.480  1.00  0.00     0.004 C 
ENDBRANCH  18  19
ENDBRANCH  17  18
ENDBRANCH  16  17
ENDBRANCH  15  16
ENDBRANCH  13  14
ENDBRANCH  12  13
ENDBRANCH   1  11
TORSDOF 14
ENDMDL
MODEL 8
REMARK VINA RESULT:    -4.541      2.751      4.469
REMARK INTER + INTRA:          -9.347
REMARK INTER:                  -8.364
REMARK INTRA:                  -0.983
REMARK UNBOUND:                -1.089
REMARK SMILES CCCCCC=CCC=CCCCCCCCC(=O)[O-]
REMARK SMILES IDX 11 1 12 2 13 3 14 4 15 5 16 6 17 7 18 8 19 9 20 10 10 11
REMARK SMILES IDX 9 12 8 13 7 14 6 15 5 16 4 17 3 18 2 19 1 20
REMARK H PARENT
REMARK Flexibility Score: inf
ROOT
ATOM      1  C   UNL     1      23.330 -31.426  25.064  1.00  0.00     0.027 C 
ENDROOT
BRANCH   1   2
ATOM      2  C   UNL     1      24.589 -32.278  24.852  1.00  0.00     0.004 C 
BRANCH   2   3
ATOM      3  C   UNL     1      25.245 -32.022  23.485  1.00  0.00     0.000 C 
BRANCH   3   4
ATOM      4  C   UNL     1      24.837 -33.078  22.435  1.00  0.00     0.000 C 
BRANCH   4   5
ATOM      5  C   UNL     1      26.034 -33.741  21.727  1.00  0.00     0.000 C 
BRANCH   5   6
ATOM      6  C   UNL     1      26.264 -35.217  22.095  1.00  0.00     0.006 C 
BRANCH   6   7
ATOM      7  C   UNL     1      25.536 -35.627  23.382  1.00  0.00     0.053 C 
BRANCH   7   8
ATOM      8  C   UNL     1      25.683 -37.098  23.616  1.00  0.00     0.041 C 
ATOM      9  O   UNL     1      26.246 -37.519  24.660  1.00  0.00    -0.550 OA
ATOM     10  O   UNL     1      25.244 -38.002  22.658  1.00  0.00    -0.550 OA
ENDBRANCH   7   8
ENDBRANCH   6   7
ENDBRANCH   5   6
ENDBRANCH   4   5
ENDBRANCH   3   4
ENDBRANCH   2   3
ENDBRANCH   1   2
BRANCH   1  11
ATOM     11  C   UNL     1      23.676 -29.974  25.293  1.00  0.00    -0.031 C 
ATOM     12  C   UNL     1      23.748 -29.362  26.490  1.00  0.00    -0.027 C 
BRANCH  12  13
ATOM     13  C   UNL     1      23.561 -30.030  27.830  1.00  0.00     0.054 C 
BRANCH  13  14
ATOM     14  C   UNL     1      22.590 -29.256  28.673  1.00  0.00    -0.027 C 
ATOM     15  C   UNL     1      21.264 -29.351  28.491  1.00  0.00    -0.031 C 
BRANCH  15  16
ATOM     16  C   UNL     1      20.295 -28.580  29.346  1.00  0.00     0.027 C 
BRANCH  16  17
ATOM     17  C   UNL     1      20.444 -27.067  29.124  1.00  0.00     0.004 C 
BRANCH  17  18
ATOM     18  C   UNL     1      19.090 -26.344  29.051  1.00  0.00     0.000 C 
BRANCH  18  19
ATOM     19  C   UNL     1      18.586 -26.182  27.609  1.00  0.00    -0.003 C 
ATOM     20  C   UNL     1      17.734 -27.375  27.188  1.00  0.00     0.004 C 
ENDBRANCH  18  19
ENDBRANCH  17  18
ENDBRANCH  16  17
ENDBRANCH  15  16
ENDBRANCH  13  14
ENDBRANCH  12  13
ENDBRANCH   1  11
TORSDOF 14
ENDMDL
MODEL 9
REMARK VINA RESULT:    -4.508      1.423      2.674
REMARK INTER + INTRA:          -9.288
REMARK INTER:                  -7.613
REMARK INTRA:                  -1.675
REMARK UNBOUND:                -1.089
REMARK SMILES CCCCCC=CCC=CCCCCCCCC(=O)[O-]
REMARK SMILES IDX 11 1 12 2 13 3 14 4 15 5 16 6 17 7 18 8 19 9 20 10 10 11
REMARK SMILES IDX 9 12 8 13 7 14 6 15 5 16 4 17 3 18 2 19 1 20
REMARK H PARENT
REMARK Flexibility Score: inf
ROOT
ATOM      1  C   UNL     1      24.462 -31.498  23.864  1.00  0.00     0.027 C 
ENDROOT
BRANCH   1   2
ATOM      2  C   UNL     1      25.604 -32.461  23.514  1.00  0.00     0.004 C 
BRANCH   2   3
ATOM      3  C   UNL     1      25.445 -33.074  22.112  1.00  0.00     0.000 C 
BRANCH   3   4
ATOM      4  C   UNL     1      25.994 -34.515  22.040  1.00  0.00     0.000 C 
BRANCH   4   5
ATOM      5  C   UNL     1      25.584 -35.393  23.239  1.00  0.00     0.000 C 
BRANCH   5   6
ATOM      6  C   UNL     1      25.569 -36.905  22.955  1.00  0.00     0.006 C 
BRANCH   6   7
ATOM      7  C   UNL     1      24.234 -37.564  23.326  1.00  0.00     0.053 C 
BRANCH   7   8
ATOM      8  C   UNL     1      23.583 -38.138  22.108  1.00  0.00     0.041 C 
ATOM      9  O   UNL     1      23.275 -39.358  22.070  1.00  0.00    -0.550 OA
ATOM     10  O   UNL     1      23.360 -37.338  20.995  1.00  0.00    -0.550 OA
ENDBRANCH   7   8
ENDBRANCH   6   7
ENDBRANCH   5   6
ENDBRANCH   4   5
ENDBRANCH   3   4
ENDBRANCH   2   3
ENDBRANCH   1   2
BRANCH   1  11
ATOM     11  C   UNL     1      23.303 -32.222  24.505  1.00  0.00    -0.031 C 
ATOM     12  C   UNL     1      23.217 -32.576  25.802  1.00  0.00    -0.027 C 
BRANCH  12  13
ATOM     13  C   UNL     1      24.235 -32.256  26.868  1.00  0.00     0.054 C 
BRANCH  13  14
ATOM     14  C   UNL     1      23.792 -31.076  27.683  1.00  0.00    -0.027 C 
ATOM     15  C   UNL     1      23.792 -29.831  27.184  1.00  0.00    -0.031 C 
BRANCH  15  16
ATOM     16  C   UNL     1      23.339 -28.654  28.003  1.00  0.00     0.027 C 
BRANCH  16  17
ATOM     17  C   UNL     1      22.101 -29.008  28.843  1.00  0.00     0.004 C 
BRANCH  17  18
ATOM     18  C   UNL     1      20.788 -28.830  28.064  1.00  0.00     0.000 C 
BRANCH  18  19
ATOM     19  C   UNL     1      20.155 -30.171  27.662  1.00  0.00    -0.003 C 
ATOM     20  C   UNL     1      20.339 -30.439  26.171  1.00  0.00     0.004 C 
ENDBRANCH  18  19
ENDBRANCH  17  18
ENDBRANCH  16  17
ENDBRANCH  15  16
ENDBRANCH  13  14
ENDBRANCH  12  13
ENDBRANCH   1  11
TORSDOF 14
ENDMDL
