MODEL 1
REMARK VINA RESULT:    -2.941      0.000      0.000
REMARK INTER + INTRA:          -4.564
REMARK INTER:                  -4.316
REMARK INTRA:                  -0.247
REMARK UNBOUND:                -0.247
REMARK SMILES CCCCCCCCCC=O
REMARK SMILES IDX 6 1 5 2 4 3 3 4 2 5 1 6 7 7 8 8 9 9 10 10 11 11
REMARK H PARENT
REMARK Flexibility Score: inf
ROOT
ATOM      1  C   UNL     1     239.062 225.953 233.901  1.00  0.00     0.000 C 
ENDROOT
BRANCH   1   2
ATOM      2  C   UNL     1     237.644 226.549 233.864  1.00  0.00     0.000 C 
BRANCH   2   3
ATOM      3  C   UNL     1     237.637 228.073 234.072  1.00  0.00    -0.000 C 
BRANCH   3   4
ATOM      4  C   UNL     1     236.289 228.712 233.694  1.00  0.00    -0.000 C 
BRANCH   4   5
ATOM      5  C   UNL     1     236.454 230.101 233.058  1.00  0.00    -0.003 C 
ATOM      6  C   UNL     1     235.509 230.329 231.879  1.00  0.00     0.004 C 
ENDBRANCH   4   5
ENDBRANCH   3   4
ENDBRANCH   2   3
ENDBRANCH   1   2
BRANCH   1   7
ATOM      7  C   UNL     1     239.354 225.033 232.701  1.00  0.00     0.000 C 
BRANCH   7   8
ATOM      8  C   UNL     1     240.727 225.249 232.039  1.00  0.00     0.008 C 
BRANCH   8   9
ATOM      9  C   UNL     1     241.696 226.050 232.919  1.00  0.00     0.072 C 
BRANCH   9  10
ATOM     10  C   UNL     1     243.105 225.562 232.759  1.00  0.00     0.224 C 
ATOM     11  O   UNL     1     243.986 226.340 232.433  1.00  0.00    -0.303 OA
ENDBRANCH   9  10
ENDBRANCH   8   9
ENDBRANCH   7   8
ENDBRANCH   1   7
TORSDOF 8
ENDMDL
MODEL 2
REMARK VINA RESULT:    -2.881     10.812     12.882
REMARK INTER + INTRA:          -4.476
REMARK INTER:                  -3.515
REMARK INTRA:                  -0.962
REMARK UNBOUND:                -0.247
REMARK SMILES CCCCCCCCCC=O
REMARK SMILES IDX 6 1 5 2 4 3 3 4 2 5 1 6 7 7 8 8 9 9 10 10 11 11
REMARK H PARENT
REMARK Flexibility Score: inf
ROOT
ATOM      1  C   UNL     1     240.510 239.987 236.532  1.00  0.00     0.000 C 
ENDROOT
BRANCH   1   2
ATOM      2  C   UNL     1     239.319 239.431 235.732  1.00  0.00     0.000 C 
BRANCH   2   3
ATOM      3  C   UNL     1     239.383 237.905 235.557  1.00  0.00    -0.000 C 
BRANCH   3   4
ATOM      4  C   UNL     1     239.365 237.481 234.077  1.00  0.00    -0.000 C 
BRANCH   4   5
ATOM      5  C   UNL     1     240.609 236.670 233.682  1.00  0.00    -0.003 C 
ATOM      6  C   UNL     1     241.446 236.244 234.888  1.00  0.00     0.004 C 
ENDBRANCH   4   5
ENDBRANCH   3   4
ENDBRANCH   2   3
ENDBRANCH   1   2
BRANCH   1   7
ATOM      7  C   UNL     1     241.854 239.812 235.802  1.00  0.00     0.000 C 
BRANCH   7   8
ATOM      8  C   UNL     1     241.919 240.455 234.404  1.00  0.00     0.008 C 
BRANCH   8   9
ATOM      9  C   UNL     1     242.812 239.676 233.428  1.00  0.00     0.072 C 
BRANCH   9  10
ATOM     10  C   UNL     1     243.077 240.470 232.184  1.00  0.00     0.224 C 
ATOM     11  O   UNL     1     242.888 241.676 232.179  1.00  0.00    -0.303 OA
ENDBRANCH   9  10
ENDBRANCH   8   9
ENDBRANCH   7   8
ENDBRANCH   1   7
TORSDOF 8
ENDMDL
MODEL 3
REMARK VINA RESULT:    -2.874     11.016     12.733
REMARK INTER + INTRA:          -4.465
REMARK INTER:                  -4.095
REMARK INTRA:                  -0.370
REMARK UNBOUND:                -0.247
REMARK SMILES CCCCCCCCCC=O
REMARK SMILES IDX 6 1 5 2 4 3 3 4 2 5 1 6 7 7 8 8 9 9 10 10 11 11
REMARK H PARENT
REMARK Flexibility Score: inf
ROOT
ATOM      1  C   UNL     1     228.690 230.496 234.547  1.00  0.00     0.000 C 
ENDROOT
BRANCH   1   2
ATOM      2  C   UNL     1     229.597 231.569 233.922  1.00  0.00     0.000 C 
BRANCH   2   3
ATOM      3  C   UNL     1     228.828 232.534 233.004  1.00  0.00    -0.000 C 
BRANCH   3   4
ATOM      4  C   UNL     1     229.714 233.119 231.891  1.00  0.00    -0.000 C 
BRANCH   4   5
ATOM      5  C   UNL     1     231.214 232.938 232.176  1.00  0.00    -0.003 C 
ATOM      6  C   UNL     1     231.936 234.265 232.411  1.00  0.00     0.004 C 
ENDBRANCH   4   5
ENDBRANCH   3   4
ENDBRANCH   2   3
ENDBRANCH   1   2
BRANCH   1   7
ATOM      7  C   UNL     1     227.225 230.610 234.088  1.00  0.00     0.000 C 
BRANCH   7   8
ATOM      8  C   UNL     1     226.456 229.277 234.036  1.00  0.00     0.008 C 
BRANCH   8   9
ATOM      9  C   UNL     1     225.282 229.301 233.048  1.00  0.00     0.072 C 
BRANCH   9  10
ATOM     10  C   UNL     1     225.307 228.103 232.146  1.00  0.00     0.224 C 
ATOM     11  O   UNL     1     225.898 227.094 232.492  1.00  0.00    -0.303 OA
ENDBRANCH   9  10
ENDBRANCH   8   9
ENDBRANCH   7   8
ENDBRANCH   1   7
TORSDOF 8
ENDMDL
MODEL 4
REMARK VINA RESULT:    -2.838      9.218     11.009
REMARK INTER + INTRA:          -4.413
REMARK INTER:                  -3.652
REMARK INTRA:                  -0.761
REMARK UNBOUND:                -0.247
REMARK SMILES CCCCCCCCCC=O
REMARK SMILES IDX 6 1 5 2 4 3 3 4 2 5 1 6 7 7 8 8 9 9 10 10 11 11
REMARK H PARENT
REMARK Flexibility Score: inf
ROOT
ATOM      1  C   UNL     1     240.291 235.845 235.564  1.00  0.00     0.000 C 
ENDROOT
BRANCH   1   2
ATOM      2  C   UNL     1     241.505 236.250 234.711  1.00  0.00     0.000 C 
BRANCH   2   3
ATOM      3  C   UNL     1     242.156 237.559 235.189  1.00  0.00    -0.000 C 
BRANCH   3   4
ATOM      4  C   UNL     1     242.004 238.700 234.168  1.00  0.00    -0.000 C 
BRANCH   4   5
ATOM      5  C   UNL     1     241.318 239.938 234.767  1.00  0.00    -0.003 C 
ATOM      6  C   UNL     1     240.007 239.602 235.478  1.00  0.00     0.004 C 
ENDBRANCH   4   5
ENDBRANCH   3   4
ENDBRANCH   2   3
ENDBRANCH   1   2
BRANCH   1   7
ATOM      7  C   UNL     1     238.974 235.844 234.766  1.00  0.00     0.000 C 
BRANCH   7   8
ATOM      8  C   UNL     1     239.053 236.523 233.386  1.00  0.00     0.008 C 
BRANCH   8   9
ATOM      9  C   UNL     1     238.849 235.541 232.224  1.00  0.00     0.072 C 
BRANCH   9  10
ATOM     10  C   UNL     1     237.396 235.407 231.876  1.00  0.00     0.224 C 
ATOM     11  O   UNL     1     236.595 236.236 232.277  1.00  0.00    -0.303 OA
ENDBRANCH   9  10
ENDBRANCH   8   9
ENDBRANCH   7   8
ENDBRANCH   1   7
TORSDOF 8
ENDMDL
MODEL 5
REMARK VINA RESULT:    -2.838     12.502     16.085
REMARK INTER + INTRA:          -4.412
REMARK INTER:                  -4.079
REMARK INTRA:                  -0.333
REMARK UNBOUND:                -0.247
REMARK SMILES CCCCCCCCCC=O
REMARK SMILES IDX 6 1 5 2 4 3 3 4 2 5 1 6 7 7 8 8 9 9 10 10 11 11
REMARK H PARENT
REMARK Flexibility Score: inf
ROOT
ATOM      1  C   UNL     1     232.011 241.434 234.795  1.00  0.00     0.000 C 
ENDROOT
BRANCH   1   2
ATOM      2  C   UNL     1     230.704 242.222 234.981  1.00  0.00     0.000 C 
BRANCH   2   3
ATOM      3  C   UNL     1     229.742 242.065 233.792  1.00  0.00    -0.000 C 
BRANCH   3   4
ATOM      4  C   UNL     1     229.426 243.407 233.109  1.00  0.00    -0.000 C 
BRANCH   4   5
ATOM      5  C   UNL     1     228.139 243.352 232.271  1.00  0.00    -0.003 C 
ATOM      6  C   UNL     1     226.999 242.624 232.983  1.00  0.00     0.004 C 
ENDBRANCH   4   5
ENDBRANCH   3   4
ENDBRANCH   2   3
ENDBRANCH   1   2
BRANCH   1   7
ATOM      7  C   UNL     1     232.181 240.888 233.365  1.00  0.00     0.000 C 
BRANCH   7   8
ATOM      8  C   UNL     1     232.359 239.362 233.271  1.00  0.00     0.008 C 
BRANCH   8   9
ATOM      9  C   UNL     1     233.134 238.925 232.020  1.00  0.00     0.072 C 
BRANCH   9  10
ATOM     10  C   UNL     1     233.136 237.432 231.877  1.00  0.00     0.224 C 
ATOM     11  O   UNL     1     233.695 236.742 232.713  1.00  0.00    -0.303 OA
ENDBRANCH   9  10
ENDBRANCH   8   9
ENDBRANCH   7   8
ENDBRANCH   1   7
TORSDOF 8
ENDMDL
MODEL 6
REMARK VINA RESULT:    -2.826      2.836      6.011
REMARK INTER + INTRA:          -4.396
REMARK INTER:                  -3.927
REMARK INTRA:                  -0.468
REMARK UNBOUND:                -0.247
REMARK SMILES CCCCCCCCCC=O
REMARK SMILES IDX 6 1 5 2 4 3 3 4 2 5 1 6 7 7 8 8 9 9 10 10 11 11
REMARK H PARENT
REMARK Flexibility Score: inf
ROOT
ATOM      1  C   UNL     1     238.587 227.064 235.017  1.00  0.00     0.000 C 
ENDROOT
BRANCH   1   2
ATOM      2  C   UNL     1     239.824 226.502 234.296  1.00  0.00     0.000 C 
BRANCH   2   3
ATOM      3  C   UNL     1     239.457 225.577 233.123  1.00  0.00    -0.000 C 
BRANCH   3   4
ATOM      4  C   UNL     1     240.599 225.443 232.100  1.00  0.00    -0.000 C 
BRANCH   4   5
ATOM      5  C   UNL     1     241.957 225.876 232.675  1.00  0.00    -0.003 C 
ATOM      6  C   UNL     1     243.083 224.899 232.337  1.00  0.00     0.004 C 
ENDBRANCH   4   5
ENDBRANCH   3   4
ENDBRANCH   2   3
ENDBRANCH   1   2
BRANCH   1   7
ATOM      7  C   UNL     1     237.269 226.720 234.298  1.00  0.00     0.000 C 
BRANCH   7   8
ATOM      8  C   UNL     1     236.542 227.923 233.668  1.00  0.00     0.008 C 
BRANCH   8   9
ATOM      9  C   UNL     1     237.252 229.258 233.935  1.00  0.00     0.072 C 
BRANCH   9  10
ATOM     10  C   UNL     1     236.751 230.331 233.015  1.00  0.00     0.224 C 
ATOM     11  O   UNL     1     235.819 230.101 232.262  1.00  0.00    -0.303 OA
ENDBRANCH   9  10
ENDBRANCH   8   9
ENDBRANCH   7   8
ENDBRANCH   1   7
TORSDOF 8
ENDMDL
MODEL 7
REMARK VINA RESULT:    -2.805     12.088     15.046
REMARK INTER + INTRA:          -4.364
REMARK INTER:                  -3.527
REMARK INTRA:                  -0.837
REMARK UNBOUND:                -0.247
REMARK SMILES CCCCCCCCCC=O
REMARK SMILES IDX 6 1 5 2 4 3 3 4 2 5 1 6 7 7 8 8 9 9 10 10 11 11
REMARK H PARENT
REMARK Flexibility Score: inf
ROOT
ATOM      1  C   UNL     1     232.494 240.631 234.956  1.00  0.00     0.000 C 
ENDROOT
BRANCH   1   2
ATOM      2  C   UNL     1     231.680 241.443 233.935  1.00  0.00     0.000 C 
BRANCH   2   3
ATOM      3  C   UNL     1     230.541 242.244 234.587  1.00  0.00    -0.000 C 
BRANCH   3   4
ATOM      4  C   UNL     1     229.205 241.481 234.581  1.00  0.00    -0.000 C 
BRANCH   4   5
ATOM      5  C   UNL     1     228.893 240.831 235.938  1.00  0.00    -0.003 C 
ATOM      6  C   UNL     1     228.698 239.318 235.840  1.00  0.00     0.004 C 
ENDBRANCH   4   5
ENDBRANCH   3   4
ENDBRANCH   2   3
ENDBRANCH   1   2
BRANCH   1   7
ATOM      7  C   UNL     1     232.443 239.115 234.689  1.00  0.00     0.000 C 
BRANCH   7   8
ATOM      8  C   UNL     1     231.513 238.691 233.538  1.00  0.00     0.008 C 
BRANCH   8   9
ATOM      9  C   UNL     1     232.065 237.511 232.726  1.00  0.00     0.072 C 
BRANCH   9  10
ATOM     10  C   UNL     1     233.515 237.276 233.028  1.00  0.00     0.224 C 
ATOM     11  O   UNL     1     234.334 237.278 232.124  1.00  0.00    -0.303 OA
ENDBRANCH   9  10
ENDBRANCH   8   9
ENDBRANCH   7   8
ENDBRANCH   1   7
TORSDOF 8
ENDMDL
MODEL 8
REMARK VINA RESULT:    -2.780      3.722      5.781
REMARK INTER + INTRA:          -4.328
REMARK INTER:                  -3.338
REMARK INTRA:                  -0.989
REMARK UNBOUND:                -0.247
REMARK SMILES CCCCCCCCCC=O
REMARK SMILES IDX 6 1 5 2 4 3 3 4 2 5 1 6 7 7 8 8 9 9 10 10 11 11
REMARK H PARENT
REMARK Flexibility Score: inf
ROOT
ATOM      1  C   UNL     1     236.660 227.255 233.751  1.00  0.00     0.000 C 
ENDROOT
BRANCH   1   2
ATOM      2  C   UNL     1     237.918 226.469 234.157  1.00  0.00     0.000 C 
BRANCH   2   3
ATOM      3  C   UNL     1     238.577 227.020 235.432  1.00  0.00    -0.000 C 
BRANCH   3   4
ATOM      4  C   UNL     1     239.649 228.081 235.129  1.00  0.00    -0.000 C 
BRANCH   4   5
ATOM      5  C   UNL     1     239.934 228.991 236.335  1.00  0.00    -0.003 C 
ATOM      6  C   UNL     1     238.697 229.234 237.199  1.00  0.00     0.004 C 
ENDBRANCH   4   5
ENDBRANCH   3   4
ENDBRANCH   2   3
ENDBRANCH   1   2
BRANCH   1   7
ATOM      7  C   UNL     1     235.995 227.972 234.941  1.00  0.00     0.000 C 
BRANCH   7   8
ATOM      8  C   UNL     1     235.876 229.500 234.791  1.00  0.00     0.008 C 
BRANCH   8   9
ATOM      9  C   UNL     1     236.839 230.075 233.742  1.00  0.00     0.072 C 
BRANCH   9  10
ATOM     10  C   UNL     1     236.091 230.741 232.626  1.00  0.00     0.224 C 
ATOM     11  O   UNL     1     235.398 230.074 231.875  1.00  0.00    -0.303 OA
ENDBRANCH   9  10
ENDBRANCH   8   9
ENDBRANCH   7   8
ENDBRANCH   1   7
TORSDOF 8
ENDMDL
MODEL 9
REMARK VINA RESULT:    -2.756      1.429      2.237
REMARK INTER + INTRA:          -4.293
REMARK INTER:                  -3.769
REMARK INTRA:                  -0.524
REMARK UNBOUND:                -0.247
REMARK SMILES CCCCCCCCCC=O
REMARK SMILES IDX 6 1 5 2 4 3 3 4 2 5 1 6 7 7 8 8 9 9 10 10 11 11
REMARK H PARENT
REMARK Flexibility Score: inf
ROOT
ATOM      1  C   UNL     1     237.514 227.620 235.770  1.00  0.00     0.000 C 
ENDROOT
BRANCH   1   2
ATOM      2  C   UNL     1     236.314 227.289 234.866  1.00  0.00     0.000 C 
BRANCH   2   3
ATOM      3  C   UNL     1     236.315 228.098 233.558  1.00  0.00    -0.000 C 
BRANCH   3   4
ATOM      4  C   UNL     1     236.794 229.546 233.763  1.00  0.00    -0.000 C 
BRANCH   4   5
ATOM      5  C   UNL     1     236.294 230.492 232.660  1.00  0.00    -0.003 C 
ATOM      6  C   UNL     1     235.115 229.917 231.875  1.00  0.00     0.004 C 
ENDBRANCH   4   5
ENDBRANCH   3   4
ENDBRANCH   2   3
ENDBRANCH   1   2
BRANCH   1   7
ATOM      7  C   UNL     1     238.658 226.597 235.643  1.00  0.00     0.000 C 
BRANCH   7   8
ATOM      8  C   UNL     1     239.565 226.790 234.413  1.00  0.00     0.008 C 
BRANCH   8   9
ATOM      9  C   UNL     1     239.304 225.756 233.309  1.00  0.00     0.072 C 
BRANCH   9  10
ATOM     10  C   UNL     1     240.581 225.351 232.633  1.00  0.00     0.224 C 
ATOM     11  O   UNL     1     241.536 226.109 232.634  1.00  0.00    -0.303 OA
ENDBRANCH   9  10
ENDBRANCH   8   9
ENDBRANCH   7   8
ENDBRANCH   1   7
TORSDOF 8
ENDMDL
