MODEL 1
REMARK VINA RESULT:    -4.134      0.000      0.000
REMARK INTER + INTRA:          -4.804
REMARK INTER:                  -4.497
REMARK INTRA:                  -0.307
REMARK UNBOUND:                -0.307
REMARK SMILES CC(=O)c1cc(C)ccc1O
REMARK SMILES IDX 7 1 6 2 5 3 4 4 10 5 9 6 8 7 2 8 3 9 1 10 11 11
REMARK H PARENT 11 12
REMARK Flexibility Score: inf
ROOT
ATOM      1  C   UNL     1      28.391  38.990  17.537  1.00  0.00     0.044 C 
ATOM      2  C   UNL     1      27.611  39.671  18.623  1.00  0.00    -0.050 A 
ATOM      3  C   UNL     1      27.667  41.066  18.764  1.00  0.00     0.019 A 
ATOM      4  C   UNL     1      26.910  41.727  19.753  1.00  0.00     0.059 A 
ATOM      5  C   UNL     1      26.080  40.956  20.600  1.00  0.00     0.126 A 
ATOM      6  C   UNL     1      26.013  39.565  20.440  1.00  0.00     0.047 A 
ATOM      7  C   UNL     1      26.768  38.928  19.456  1.00  0.00     0.007 A 
ENDROOT
BRANCH   4   8
ATOM      8  C   UNL     1      26.985  43.210  19.889  1.00  0.00     0.163 C 
ATOM      9  O   UNL     1      27.307  43.730  20.991  1.00  0.00    -0.294 OA
ATOM     10  C   UNL     1      26.651  44.125  18.747  1.00  0.00     0.093 C 
ENDBRANCH   4   8
BRANCH   5  11
ATOM     11  O   UNL     1      25.327  41.564  21.605  1.00  0.00    -0.507 OA
ATOM     12  H   UNL     1      24.376  41.875  21.443  1.00  0.00     0.293 HD
ENDBRANCH   5  11
TORSDOF 2
ENDMDL
MODEL 2
REMARK VINA RESULT:    -3.795      1.998      3.850
REMARK INTER + INTRA:          -4.434
REMARK INTER:                  -4.132
REMARK INTRA:                  -0.302
REMARK UNBOUND:                -0.307
REMARK SMILES CC(=O)c1cc(C)ccc1O
REMARK SMILES IDX 7 1 6 2 5 3 4 4 10 5 9 6 8 7 2 8 3 9 1 10 11 11
REMARK H PARENT 11 12
REMARK Flexibility Score: inf
ROOT
ATOM      1  C   UNL     1      29.075  43.715  20.514  1.00  0.00     0.044 C 
ATOM      2  C   UNL     1      28.043  42.627  20.462  1.00  0.00    -0.050 A 
ATOM      3  C   UNL     1      28.383  41.356  19.977  1.00  0.00     0.019 A 
ATOM      4  C   UNL     1      27.437  40.310  19.958  1.00  0.00     0.059 A 
ATOM      5  C   UNL     1      26.135  40.563  20.449  1.00  0.00     0.126 A 
ATOM      6  C   UNL     1      25.809  41.830  20.952  1.00  0.00     0.047 A 
ATOM      7  C   UNL     1      26.757  42.853  20.964  1.00  0.00     0.007 A 
ENDROOT
BRANCH   4   8
ATOM      8  C   UNL     1      27.816  38.965  19.435  1.00  0.00     0.163 C 
ATOM      9  O   UNL     1      27.490  37.925  20.069  1.00  0.00    -0.294 OA
ATOM     10  C   UNL     1      28.615  38.804  18.175  1.00  0.00     0.093 C 
ENDBRANCH   4   8
BRANCH   5  11
ATOM     11  O   UNL     1      25.161  39.564  20.433  1.00  0.00    -0.507 OA
ATOM     12  H   UNL     1      25.406  38.581  20.452  1.00  0.00     0.293 HD
ENDBRANCH   5  11
TORSDOF 2
ENDMDL
MODEL 3
REMARK VINA RESULT:    -3.677      2.378      4.428
REMARK INTER + INTRA:          -4.306
REMARK INTER:                  -3.998
REMARK INTRA:                  -0.308
REMARK UNBOUND:                -0.307
REMARK SMILES CC(=O)c1cc(C)ccc1O
REMARK SMILES IDX 7 1 6 2 5 3 4 4 10 5 9 6 8 7 2 8 3 9 1 10 11 11
REMARK H PARENT 11 12
REMARK Flexibility Score: inf
ROOT
ATOM      1  C   UNL     1      27.984  42.549  24.128  1.00  0.00     0.044 C 
ATOM      2  C   UNL     1      27.653  42.701  22.672  1.00  0.00    -0.050 A 
ATOM      3  C   UNL     1      27.428  41.567  21.878  1.00  0.00     0.019 A 
ATOM      4  C   UNL     1      27.077  41.692  20.518  1.00  0.00     0.059 A 
ATOM      5  C   UNL     1      26.946  42.988  19.967  1.00  0.00     0.126 A 
ATOM      6  C   UNL     1      27.153  44.117  20.772  1.00  0.00     0.047 A 
ATOM      7  C   UNL     1      27.498  43.975  22.115  1.00  0.00     0.007 A 
ENDROOT
BRANCH   4   8
ATOM      8  C   UNL     1      26.844  40.474  19.688  1.00  0.00     0.163 C 
ATOM      9  O   UNL     1      27.435  40.338  18.583  1.00  0.00    -0.294 OA
ATOM     10  C   UNL     1      25.887  39.400  20.115  1.00  0.00     0.093 C 
ENDBRANCH   4   8
BRANCH   5  11
ATOM     11  O   UNL     1      26.620  43.160  18.621  1.00  0.00    -0.507 OA
ATOM     12  H   UNL     1      26.142  42.439  18.093  1.00  0.00     0.293 HD
ENDBRANCH   5  11
TORSDOF 2
ENDMDL
MODEL 4
REMARK VINA RESULT:    -3.534      1.709      2.021
REMARK INTER + INTRA:          -4.150
REMARK INTER:                  -4.014
REMARK INTRA:                  -0.136
REMARK UNBOUND:                -0.307
REMARK SMILES CC(=O)c1cc(C)ccc1O
REMARK SMILES IDX 7 1 6 2 5 3 4 4 10 5 9 6 8 7 2 8 3 9 1 10 11 11
REMARK H PARENT 11 12
REMARK Flexibility Score: inf
ROOT
ATOM      1  C   UNL     1      29.095  38.458  18.538  1.00  0.00     0.044 C 
ATOM      2  C   UNL     1      28.184  39.305  19.377  1.00  0.00    -0.050 A 
ATOM      3  C   UNL     1      28.704  40.370  20.127  1.00  0.00     0.019 A 
ATOM      4  C   UNL     1      27.857  41.201  20.890  1.00  0.00     0.059 A 
ATOM      5  C   UNL     1      26.466  40.948  20.877  1.00  0.00     0.126 A 
ATOM      6  C   UNL     1      25.951  39.895  20.108  1.00  0.00     0.047 A 
ATOM      7  C   UNL     1      26.802  39.084  19.359  1.00  0.00     0.007 A 
ENDROOT
BRANCH   4   8
ATOM      8  C   UNL     1      28.429  42.327  21.684  1.00  0.00     0.163 C 
ATOM      9  O   UNL     1      28.618  43.450  21.144  1.00  0.00    -0.294 OA
ATOM     10  C   UNL     1      28.825  42.158  23.121  1.00  0.00     0.093 C 
ENDBRANCH   4   8
BRANCH   5  11
ATOM     11  O   UNL     1      25.592  41.733  21.631  1.00  0.00    -0.507 OA
ATOM     12  H   UNL     1      24.610  41.814  21.393  1.00  0.00     0.293 HD
ENDBRANCH   5  11
TORSDOF 2
ENDMDL
MODEL 5
REMARK VINA RESULT:    -3.516      2.524      4.524
REMARK INTER + INTRA:          -4.130
REMARK INTER:                  -3.841
REMARK INTRA:                  -0.289
REMARK UNBOUND:                -0.307
REMARK SMILES CC(=O)c1cc(C)ccc1O
REMARK SMILES IDX 7 1 6 2 5 3 4 4 10 5 9 6 8 7 2 8 3 9 1 10 11 11
REMARK H PARENT 11 12
REMARK Flexibility Score: inf
ROOT
ATOM      1  C   UNL     1      27.231  42.824  22.881  1.00  0.00     0.044 C 
ATOM      2  C   UNL     1      27.271  42.097  21.569  1.00  0.00    -0.050 A 
ATOM      3  C   UNL     1      27.365  40.698  21.540  1.00  0.00     0.019 A 
ATOM      4  C   UNL     1      27.364  39.996  20.317  1.00  0.00     0.059 A 
ATOM      5  C   UNL     1      27.255  40.730  19.113  1.00  0.00     0.126 A 
ATOM      6  C   UNL     1      27.141  42.127  19.150  1.00  0.00     0.047 A 
ATOM      7  C   UNL     1      27.143  42.805  20.369  1.00  0.00     0.007 A 
ENDROOT
BRANCH   4   8
ATOM      8  C   UNL     1      27.466  38.508  20.306  1.00  0.00     0.163 C 
ATOM      9  O   UNL     1      28.472  37.947  19.793  1.00  0.00    -0.294 OA
ATOM     10  C   UNL     1      26.379  37.638  20.864  1.00  0.00     0.093 C 
ENDBRANCH   4   8
BRANCH   5  11
ATOM     11  O   UNL     1      27.269  40.080  17.878  1.00  0.00    -0.507 OA
ATOM     12  H   UNL     1      26.718  40.412  17.095  1.00  0.00     0.293 HD
ENDBRANCH   5  11
TORSDOF 2
ENDMDL
MODEL 6
REMARK VINA RESULT:    -3.371     15.388     16.940
REMARK INTER + INTRA:          -3.973
REMARK INTER:                  -3.681
REMARK INTRA:                  -0.292
REMARK UNBOUND:                -0.307
REMARK SMILES CC(=O)c1cc(C)ccc1O
REMARK SMILES IDX 7 1 6 2 5 3 4 4 10 5 9 6 8 7 2 8 3 9 1 10 11 11
REMARK H PARENT 11 12
REMARK Flexibility Score: inf
ROOT
ATOM      1  C   UNL     1      29.107  24.319  29.923  1.00  0.00     0.044 C 
ATOM      2  C   UNL     1      28.083  25.300  29.434  1.00  0.00    -0.050 A 
ATOM      3  C   UNL     1      28.462  26.355  28.591  1.00  0.00     0.019 A 
ATOM      4  C   UNL     1      27.506  27.263  28.089  1.00  0.00     0.059 A 
ATOM      5  C   UNL     1      26.149  27.084  28.444  1.00  0.00     0.126 A 
ATOM      6  C   UNL     1      25.774  26.015  29.270  1.00  0.00     0.047 A 
ATOM      7  C   UNL     1      26.732  25.126  29.756  1.00  0.00     0.007 A 
ENDROOT
BRANCH   4   8
ATOM      8  C   UNL     1      27.929  28.380  27.196  1.00  0.00     0.163 C 
ATOM      9  O   UNL     1      27.495  28.445  26.015  1.00  0.00    -0.294 OA
ATOM     10  C   UNL     1      28.898  29.431  27.653  1.00  0.00     0.093 C 
ENDBRANCH   4   8
BRANCH   5  11
ATOM     11  O   UNL     1      25.171  27.968  27.987  1.00  0.00    -0.507 OA
ATOM     12  H   UNL     1      25.323  28.970  27.975  1.00  0.00     0.293 HD
ENDBRANCH   5  11
TORSDOF 2
ENDMDL
MODEL 7
REMARK VINA RESULT:    -3.348     13.902     15.450
REMARK INTER + INTRA:          -3.948
REMARK INTER:                  -3.655
REMARK INTRA:                  -0.293
REMARK UNBOUND:                -0.307
REMARK SMILES CC(=O)c1cc(C)ccc1O
REMARK SMILES IDX 7 1 6 2 5 3 4 4 10 5 9 6 8 7 2 8 3 9 1 10 11 11
REMARK H PARENT 11 12
REMARK Flexibility Score: inf
ROOT
ATOM      1  C   UNL     1      27.023  24.427  25.505  1.00  0.00     0.044 C 
ATOM      2  C   UNL     1      27.263  25.646  26.348  1.00  0.00    -0.050 A 
ATOM      3  C   UNL     1      27.632  26.858  25.746  1.00  0.00     0.019 A 
ATOM      4  C   UNL     1      27.822  28.022  26.518  1.00  0.00     0.059 A 
ATOM      5  C   UNL     1      27.623  27.950  27.917  1.00  0.00     0.126 A 
ATOM      6  C   UNL     1      27.234  26.740  28.509  1.00  0.00     0.047 A 
ATOM      7  C   UNL     1      27.049  25.598  27.730  1.00  0.00     0.007 A 
ENDROOT
BRANCH   4   8
ATOM      8  C   UNL     1      28.217  29.302  25.861  1.00  0.00     0.163 C 
ATOM      9  O   UNL     1      29.064  30.059  26.408  1.00  0.00    -0.294 OA
ATOM     10  C   UNL     1      27.607  29.744  24.563  1.00  0.00     0.093 C 
ENDBRANCH   4   8
BRANCH   5  11
ATOM     11  O   UNL     1      27.818  29.072  28.723  1.00  0.00    -0.507 OA
ATOM     12  H   UNL     1      27.058  29.702  28.952  1.00  0.00     0.293 HD
ENDBRANCH   5  11
TORSDOF 2
ENDMDL
MODEL 8
REMARK VINA RESULT:    -3.267     15.730     17.286
REMARK INTER + INTRA:          -3.860
REMARK INTER:                  -3.562
REMARK INTRA:                  -0.298
REMARK UNBOUND:                -0.307
REMARK SMILES CC(=O)c1cc(C)ccc1O
REMARK SMILES IDX 7 1 6 2 5 3 4 4 10 5 9 6 8 7 2 8 3 9 1 10 11 11
REMARK H PARENT 11 12
REMARK Flexibility Score: inf
ROOT
ATOM      1  C   UNL     1      27.166  24.565  25.177  1.00  0.00     0.044 C 
ATOM      2  C   UNL     1      26.888  24.957  26.599  1.00  0.00    -0.050 A 
ATOM      3  C   UNL     1      27.092  26.280  27.018  1.00  0.00     0.019 A 
ATOM      4  C   UNL     1      26.799  26.675  28.340  1.00  0.00     0.059 A 
ATOM      5  C   UNL     1      26.282  25.712  29.238  1.00  0.00     0.126 A 
ATOM      6  C   UNL     1      26.061  24.397  28.805  1.00  0.00     0.047 A 
ATOM      7  C   UNL     1      26.356  24.024  27.495  1.00  0.00     0.007 A 
ENDROOT
BRANCH   4   8
ATOM      8  C   UNL     1      27.025  28.086  28.769  1.00  0.00     0.163 C 
ATOM      9  O   UNL     1      26.168  28.677  29.479  1.00  0.00    -0.294 OA
ATOM     10  C   UNL     1      28.245  28.852  28.348  1.00  0.00     0.093 C 
ENDBRANCH   4   8
BRANCH   5  11
ATOM     11  O   UNL     1      25.995  26.053  30.560  1.00  0.00    -0.507 OA
ATOM     12  H   UNL     1      26.033  27.013  30.882  1.00  0.00     0.293 HD
ENDBRANCH   5  11
TORSDOF 2
ENDMDL
MODEL 9
REMARK VINA RESULT:    -3.226     15.995     17.312
REMARK INTER + INTRA:          -3.816
REMARK INTER:                  -3.540
REMARK INTRA:                  -0.276
REMARK UNBOUND:                -0.307
REMARK SMILES CC(=O)c1cc(C)ccc1O
REMARK SMILES IDX 7 1 6 2 5 3 4 4 10 5 9 6 8 7 2 8 3 9 1 10 11 11
REMARK H PARENT 11 12
REMARK Flexibility Score: inf
ROOT
ATOM      1  C   UNL     1      27.967  23.913  30.295  1.00  0.00     0.044 C 
ATOM      2  C   UNL     1      27.643  24.987  29.299  1.00  0.00    -0.050 A 
ATOM      3  C   UNL     1      26.688  25.968  29.605  1.00  0.00     0.019 A 
ATOM      4  C   UNL     1      26.399  27.008  28.696  1.00  0.00     0.059 A 
ATOM      5  C   UNL     1      27.100  27.050  27.469  1.00  0.00     0.126 A 
ATOM      6  C   UNL     1      28.068  26.078  27.178  1.00  0.00     0.047 A 
ATOM      7  C   UNL     1      28.342  25.058  28.089  1.00  0.00     0.007 A 
ENDROOT
BRANCH   4   8
ATOM      8  C   UNL     1      25.379  28.041  29.038  1.00  0.00     0.163 C 
ATOM      9  O   UNL     1      24.294  28.094  28.400  1.00  0.00    -0.294 OA
ATOM     10  C   UNL     1      25.618  29.060  30.114  1.00  0.00     0.093 C 
ENDBRANCH   4   8
BRANCH   5  11
ATOM     11  O   UNL     1      26.835  28.050  26.531  1.00  0.00    -0.507 OA
ATOM     12  H   UNL     1      26.621  27.830  25.565  1.00  0.00     0.293 HD
ENDBRANCH   5  11
TORSDOF 2
ENDMDL
