MODEL 1
REMARK VINA RESULT:    -3.523      0.000      0.000
REMARK INTER + INTRA:          -4.232
REMARK INTER:                  -4.141
REMARK INTRA:                  -0.092
REMARK UNBOUND:                -0.092
REMARK SMILES CCCCC(=O)[O-]
REMARK SMILES IDX 4 1 5 2 6 3 7 4 3 5 2 6 1 7
REMARK H PARENT
REMARK Flexibility Score: inf
ROOT
ATOM      1  C   UNL     1      13.373 -10.945  49.875  1.00  0.00     0.053 C 
ENDROOT
BRANCH   1   2
ATOM      2  C   UNL     1      12.064 -10.228  49.971  1.00  0.00     0.041 C 
ATOM      3  O   UNL     1      11.897  -9.325  50.834  1.00  0.00    -0.550 OA
ATOM      4  O   UNL     1      11.010 -10.591  49.143  1.00  0.00    -0.550 OA
ENDBRANCH   1   2
BRANCH   1   5
ATOM      5  C   UNL     1      13.192 -12.302  49.183  1.00  0.00     0.006 C 
BRANCH   5   6
ATOM      6  C   UNL     1      13.773 -12.321  47.760  1.00  0.00    -0.003 C 
ATOM      7  C   UNL     1      12.769 -12.812  46.719  1.00  0.00     0.004 C 
ENDBRANCH   5   6
ENDBRANCH   1   5
TORSDOF 3
ENDMDL
MODEL 2
REMARK VINA RESULT:    -3.419      2.155      3.601
REMARK INTER + INTRA:          -4.110
REMARK INTER:                  -3.998
REMARK INTRA:                  -0.112
REMARK UNBOUND:                -0.092
REMARK SMILES CCCCC(=O)[O-]
REMARK SMILES IDX 4 1 5 2 6 3 7 4 3 5 2 6 1 7
REMARK H PARENT
REMARK Flexibility Score: inf
ROOT
ATOM      1  C   UNL     1      13.786 -12.228  47.744  1.00  0.00     0.053 C 
ENDROOT
BRANCH   1   2
ATOM      2  C   UNL     1      12.731 -11.997  46.708  1.00  0.00     0.041 C 
ATOM      3  O   UNL     1      12.200 -12.973  46.115  1.00  0.00    -0.550 OA
ATOM      4  O   UNL     1      12.369 -10.702  46.361  1.00  0.00    -0.550 OA
ENDBRANCH   1   2
BRANCH   1   5
ATOM      5  C   UNL     1      13.173 -12.191  49.150  1.00  0.00     0.006 C 
BRANCH   5   6
ATOM      6  C   UNL     1      13.370 -10.834  49.843  1.00  0.00    -0.003 C 
ATOM      7  C   UNL     1      12.104  -9.979  49.837  1.00  0.00     0.004 C 
ENDBRANCH   5   6
ENDBRANCH   1   5
TORSDOF 3
ENDMDL
MODEL 3
REMARK VINA RESULT:    -3.406     18.366     18.848
REMARK INTER + INTRA:          -4.095
REMARK INTER:                  -4.023
REMARK INTRA:                  -0.072
REMARK UNBOUND:                -0.092
REMARK SMILES CCCCC(=O)[O-]
REMARK SMILES IDX 4 1 5 2 6 3 7 4 3 5 2 6 1 7
REMARK H PARENT
REMARK Flexibility Score: inf
ROOT
ATOM      1  C   UNL     1      10.153   1.525  36.360  1.00  0.00     0.053 C 
ENDROOT
BRANCH   1   2
ATOM      2  C   UNL     1       8.982   1.541  35.429  1.00  0.00     0.041 C 
ATOM      3  O   UNL     1       9.064   2.127  34.317  1.00  0.00    -0.550 OA
ATOM      4  O   UNL     1       7.784   0.951  35.808  1.00  0.00    -0.550 OA
ENDBRANCH   1   2
BRANCH   1   5
ATOM      5  C   UNL     1      11.377   2.165  35.692  1.00  0.00     0.006 C 
BRANCH   5   6
ATOM      6  C   UNL     1      12.621   1.265  35.756  1.00  0.00    -0.003 C 
ATOM      7  C   UNL     1      12.739   0.332  34.553  1.00  0.00     0.004 C 
ENDBRANCH   5   6
ENDBRANCH   1   5
TORSDOF 3
ENDMDL
MODEL 4
REMARK VINA RESULT:    -3.404     18.021     18.461
REMARK INTER + INTRA:          -4.092
REMARK INTER:                  -3.982
REMARK INTRA:                  -0.110
REMARK UNBOUND:                -0.092
REMARK SMILES CCCCC(=O)[O-]
REMARK SMILES IDX 4 1 5 2 6 3 7 4 3 5 2 6 1 7
REMARK H PARENT
REMARK Flexibility Score: inf
ROOT
ATOM      1  C   UNL     1      10.586   2.165  35.876  1.00  0.00     0.053 C 
ENDROOT
BRANCH   1   2
ATOM      2  C   UNL     1      11.678   1.213  35.503  1.00  0.00     0.041 C 
ATOM      3  O   UNL     1      12.773   1.229  36.126  1.00  0.00    -0.550 OA
ATOM      4  O   UNL     1      11.507   0.342  34.435  1.00  0.00    -0.550 OA
ENDBRANCH   1   2
BRANCH   1   5
ATOM      5  C   UNL     1       9.577   1.483  36.808  1.00  0.00     0.006 C 
BRANCH   5   6
ATOM      6  C   UNL     1       8.247   1.166  36.107  1.00  0.00    -0.003 C 
ATOM      7  C   UNL     1       8.150  -0.289  35.653  1.00  0.00     0.004 C 
ENDBRANCH   5   6
ENDBRANCH   1   5
TORSDOF 3
ENDMDL
MODEL 5
REMARK VINA RESULT:    -3.403     18.502     18.901
REMARK INTER + INTRA:          -4.091
REMARK INTER:                  -4.028
REMARK INTRA:                  -0.063
REMARK UNBOUND:                -0.092
REMARK SMILES CCCCC(=O)[O-]
REMARK SMILES IDX 4 1 5 2 6 3 7 4 3 5 2 6 1 7
REMARK H PARENT
REMARK Flexibility Score: inf
ROOT
ATOM      1  C   UNL     1       9.097   1.690  34.624  1.00  0.00     0.053 C 
ENDROOT
BRANCH   1   2
ATOM      2  C   UNL     1       8.566   1.425  35.997  1.00  0.00     0.041 C 
ATOM      3  O   UNL     1       7.419   0.926  36.147  1.00  0.00    -0.550 OA
ATOM      4  O   UNL     1       9.315   1.775  37.112  1.00  0.00    -0.550 OA
ENDBRANCH   1   2
BRANCH   1   5
ATOM      5  C   UNL     1       9.022   0.421  33.766  1.00  0.00     0.006 C 
BRANCH   5   6
ATOM      6  C   UNL     1      10.353  -0.348  33.732  1.00  0.00    -0.003 C 
ATOM      7  C   UNL     1      11.541   0.511  34.160  1.00  0.00     0.004 C 
ENDBRANCH   5   6
ENDBRANCH   1   5
TORSDOF 3
ENDMDL
MODEL 6
REMARK VINA RESULT:    -3.387     18.148     18.644
REMARK INTER + INTRA:          -4.072
REMARK INTER:                  -3.946
REMARK INTRA:                  -0.126
REMARK UNBOUND:                -0.092
REMARK SMILES CCCCC(=O)[O-]
REMARK SMILES IDX 4 1 5 2 6 3 7 4 3 5 2 6 1 7
REMARK H PARENT
REMARK Flexibility Score: inf
ROOT
ATOM      1  C   UNL     1       9.568   1.563  36.855  1.00  0.00     0.053 C 
ENDROOT
BRANCH   1   2
ATOM      2  C   UNL     1      10.725   1.788  35.933  1.00  0.00     0.041 C 
ATOM      3  O   UNL     1      10.580   2.483  34.892  1.00  0.00    -0.550 OA
ATOM      4  O   UNL     1      11.950   1.189  36.194  1.00  0.00    -0.550 OA
ENDBRANCH   1   2
BRANCH   1   5
ATOM      5  C   UNL     1       8.317   1.173  36.058  1.00  0.00     0.006 C 
BRANCH   5   6
ATOM      6  C   UNL     1       8.424  -0.229  35.439  1.00  0.00    -0.003 C 
ATOM      7  C   UNL     1       8.284  -0.216  33.918  1.00  0.00     0.004 C 
ENDBRANCH   5   6
ENDBRANCH   1   5
TORSDOF 3
ENDMDL
MODEL 7
REMARK VINA RESULT:    -3.285     18.172     18.794
REMARK INTER + INTRA:          -3.953
REMARK INTER:                  -3.897
REMARK INTRA:                  -0.055
REMARK UNBOUND:                -0.092
REMARK SMILES CCCCC(=O)[O-]
REMARK SMILES IDX 4 1 5 2 6 3 7 4 3 5 2 6 1 7
REMARK H PARENT
REMARK Flexibility Score: inf
ROOT
ATOM      1  C   UNL     1      11.184   1.043  34.062  1.00  0.00     0.053 C 
ENDROOT
BRANCH   1   2
ATOM      2  C   UNL     1      12.420   0.745  34.850  1.00  0.00     0.041 C 
ATOM      3  O   UNL     1      13.163  -0.219  34.523  1.00  0.00    -0.550 OA
ATOM      4  O   UNL     1      12.728   1.498  35.975  1.00  0.00    -0.550 OA
ENDBRANCH   1   2
BRANCH   1   5
ATOM      5  C   UNL     1      10.416  -0.250  33.760  1.00  0.00     0.006 C 
BRANCH   5   6
ATOM      6  C   UNL     1       8.929  -0.155  34.135  1.00  0.00    -0.003 C 
ATOM      7  C   UNL     1       8.708   0.017  35.636  1.00  0.00     0.004 C 
ENDBRANCH   5   6
ENDBRANCH   1   5
TORSDOF 3
ENDMDL
MODEL 8
REMARK VINA RESULT:    -3.277     18.867     19.457
REMARK INTER + INTRA:          -3.943
REMARK INTER:                  -3.823
REMARK INTRA:                  -0.120
REMARK UNBOUND:                -0.092
REMARK SMILES CCCCC(=O)[O-]
REMARK SMILES IDX 4 1 5 2 6 3 7 4 3 5 2 6 1 7
REMARK H PARENT
REMARK Flexibility Score: inf
ROOT
ATOM      1  C   UNL     1      12.730   0.320  34.514  1.00  0.00     0.053 C 
ENDROOT
BRANCH   1   2
ATOM      2  C   UNL     1      13.138   1.749  34.688  1.00  0.00     0.041 C 
ATOM      3  O   UNL     1      13.248   2.504  33.686  1.00  0.00    -0.550 OA
ATOM      4  O   UNL     1      13.446   2.235  35.952  1.00  0.00    -0.550 OA
ENDBRANCH   1   2
BRANCH   1   5
ATOM      5  C   UNL     1      11.266   0.233  34.062  1.00  0.00     0.006 C 
BRANCH   5   6
ATOM      6  C   UNL     1      10.318   1.018  34.981  1.00  0.00    -0.003 C 
ATOM      7  C   UNL     1       9.383   1.948  34.210  1.00  0.00     0.004 C 
ENDBRANCH   5   6
ENDBRANCH   1   5
TORSDOF 3
ENDMDL
MODEL 9
REMARK VINA RESULT:    -3.189      1.715      2.099
REMARK INTER + INTRA:          -3.840
REMARK INTER:                  -3.772
REMARK INTRA:                  -0.068
REMARK UNBOUND:                -0.092
REMARK SMILES CCCCC(=O)[O-]
REMARK SMILES IDX 4 1 5 2 6 3 7 4 3 5 2 6 1 7
REMARK H PARENT
REMARK Flexibility Score: inf
ROOT
ATOM      1  C   UNL     1      11.627 -10.546  49.240  1.00  0.00     0.053 C 
ENDROOT
BRANCH   1   2
ATOM      2  C   UNL     1      11.178 -10.195  47.857  1.00  0.00     0.041 C 
ATOM      3  O   UNL     1      11.652  -9.183  47.274  1.00  0.00    -0.550 OA
ATOM      4  O   UNL     1      10.201 -10.954  47.228  1.00  0.00    -0.550 OA
ENDBRANCH   1   2
BRANCH   1   5
ATOM      5  C   UNL     1      13.114 -10.921  49.242  1.00  0.00     0.006 C 
BRANCH   5   6
ATOM      6  C   UNL     1      13.360 -12.361  48.766  1.00  0.00    -0.003 C 
ATOM      7  C   UNL     1      13.850 -12.430  47.321  1.00  0.00     0.004 C 
ENDBRANCH   5   6
ENDBRANCH   1   5
TORSDOF 3
ENDMDL
