MODEL 1
REMARK VINA RESULT:    -3.768      0.000      0.000
REMARK INTER + INTRA:          -4.135
REMARK INTER:                  -4.099
REMARK INTRA:                  -0.036
REMARK UNBOUND:                -0.036
REMARK SMILES O=C([O-])c1ccc(O)cc1
REMARK SMILES IDX 7 1 6 2 9 3 5 4 10 5 4 6 8 7 2 9 1 10 3 11
REMARK H PARENT 8 8
REMARK Flexibility Score: inf
ROOT
ATOM      1  C   UNL     1      -7.485  -1.308   9.029  1.00  0.00     0.115 A 
ATOM      2  C   UNL     1      -7.101  -0.924   7.738  1.00  0.00     0.047 A 
ATOM      3  C   UNL     1      -8.816  -1.654   9.281  1.00  0.00     0.047 A 
ATOM      4  C   UNL     1      -8.043  -0.888   6.705  1.00  0.00     0.014 A 
ATOM      5  C   UNL     1      -9.760  -1.620   8.251  1.00  0.00     0.014 A 
ATOM      6  C   UNL     1      -9.383  -1.236   6.951  1.00  0.00    -0.003 A 
ENDROOT
BRANCH   1   7
ATOM      7  O   UNL     1      -6.555  -1.347  10.065  1.00  0.00    -0.508 OA
ATOM      8  H   UNL     1      -6.510  -2.130  10.707  1.00  0.00     0.293 HD
ENDBRANCH   1   7
BRANCH   6   9
ATOM      9  C   UNL     1     -10.377  -1.197   5.857  1.00  0.00     0.071 C 
ATOM     10  O   UNL     1     -10.074  -0.718   4.731  1.00  0.00    -0.545 OA
ATOM     11  O   UNL     1     -11.663  -1.689   6.054  1.00  0.00    -0.545 OA
ENDBRANCH   6   9
TORSDOF 2
ENDMDL
MODEL 2
REMARK VINA RESULT:    -3.654     10.179     11.774
REMARK INTER + INTRA:          -4.010
REMARK INTER:                  -3.976
REMARK INTRA:                  -0.034
REMARK UNBOUND:                -0.036
REMARK SMILES O=C([O-])c1ccc(O)cc1
REMARK SMILES IDX 7 1 6 2 9 3 5 4 10 5 4 6 8 7 2 9 1 10 3 11
REMARK H PARENT 8 8
REMARK Flexibility Score: inf
ROOT
ATOM      1  C   UNL     1     -11.253   1.436  -2.372  1.00  0.00     0.115 A 
ATOM      2  C   UNL     1     -10.858   2.108  -3.536  1.00  0.00     0.047 A 
ATOM      3  C   UNL     1     -11.875   2.146  -1.340  1.00  0.00     0.047 A 
ATOM      4  C   UNL     1     -11.086   3.481  -3.668  1.00  0.00     0.014 A 
ATOM      5  C   UNL     1     -12.105   3.519  -1.469  1.00  0.00     0.014 A 
ATOM      6  C   UNL     1     -11.713   4.201  -2.636  1.00  0.00    -0.003 A 
ENDROOT
BRANCH   1   7
ATOM      7  O   UNL     1     -11.030   0.068  -2.230  1.00  0.00    -0.508 OA
ATOM      8  H   UNL     1     -11.493  -0.471  -1.507  1.00  0.00     0.293 HD
ENDBRANCH   1   7
BRANCH   6   9
ATOM      9  C   UNL     1     -11.953   5.654  -2.777  1.00  0.00     0.071 C 
ATOM     10  O   UNL     1     -12.009   6.397  -1.761  1.00  0.00    -0.545 OA
ATOM     11  O   UNL     1     -12.120   6.221  -4.036  1.00  0.00    -0.545 OA
ENDBRANCH   6   9
TORSDOF 2
ENDMDL
MODEL 3
REMARK VINA RESULT:    -3.542      1.177      4.427
REMARK INTER + INTRA:          -3.888
REMARK INTER:                  -3.855
REMARK INTRA:                  -0.033
REMARK UNBOUND:                -0.036
REMARK SMILES O=C([O-])c1ccc(O)cc1
REMARK SMILES IDX 7 1 6 2 9 3 5 4 10 5 4 6 8 7 2 9 1 10 3 11
REMARK H PARENT 8 8
REMARK Flexibility Score: inf
ROOT
ATOM      1  C   UNL     1     -10.438  -0.875   5.939  1.00  0.00     0.115 A 
ATOM      2  C   UNL     1     -10.770  -0.491   7.244  1.00  0.00     0.047 A 
ATOM      3  C   UNL     1      -9.121  -1.237   5.638  1.00  0.00     0.047 A 
ATOM      4  C   UNL     1      -9.791  -0.471   8.242  1.00  0.00     0.014 A 
ATOM      5  C   UNL     1      -8.141  -1.219   6.634  1.00  0.00     0.014 A 
ATOM      6  C   UNL     1      -8.466  -0.835   7.948  1.00  0.00    -0.003 A 
ENDROOT
BRANCH   1   7
ATOM      7  O   UNL     1     -11.404  -0.898   4.936  1.00  0.00    -0.508 OA
ATOM      8  H   UNL     1     -11.224  -0.510   4.018  1.00  0.00     0.293 HD
ENDBRANCH   1   7
BRANCH   6   9
ATOM      9  C   UNL     1      -7.433  -0.813   9.006  1.00  0.00     0.071 C 
ATOM     10  O   UNL     1      -6.475  -1.633   8.985  1.00  0.00    -0.545 OA
ATOM     11  O   UNL     1      -7.502   0.114  10.040  1.00  0.00    -0.545 OA
ENDBRANCH   6   9
TORSDOF 2
ENDMDL
MODEL 4
REMARK VINA RESULT:    -3.200     18.996     19.316
REMARK INTER + INTRA:          -3.517
REMARK INTER:                  -3.483
REMARK INTRA:                  -0.034
REMARK UNBOUND:                -0.036
REMARK SMILES O=C([O-])c1ccc(O)cc1
REMARK SMILES IDX 7 1 6 2 9 3 5 4 10 5 4 6 8 7 2 9 1 10 3 11
REMARK H PARENT 8 8
REMARK Flexibility Score: inf
ROOT
ATOM      1  C   UNL     1       7.169  -4.991  -3.019  1.00  0.00     0.115 A 
ATOM      2  C   UNL     1       6.087  -5.839  -3.294  1.00  0.00     0.047 A 
ATOM      3  C   UNL     1       7.326  -3.810  -3.750  1.00  0.00     0.047 A 
ATOM      4  C   UNL     1       5.168  -5.504  -4.293  1.00  0.00     0.014 A 
ATOM      5  C   UNL     1       6.408  -3.473  -4.750  1.00  0.00     0.014 A 
ATOM      6  C   UNL     1       5.319  -4.318  -5.032  1.00  0.00    -0.003 A 
ENDROOT
BRANCH   1   7
ATOM      7  O   UNL     1       8.090  -5.314  -2.026  1.00  0.00    -0.508 OA
ATOM      8  H   UNL     1       9.080  -5.130  -2.142  1.00  0.00     0.293 HD
ENDBRANCH   1   7
BRANCH   6   9
ATOM      9  C   UNL     1       4.345  -3.967  -6.089  1.00  0.00     0.071 C 
ATOM     10  O   UNL     1       4.126  -2.762  -6.385  1.00  0.00    -0.545 OA
ATOM     11  O   UNL     1       3.657  -4.963  -6.772  1.00  0.00    -0.545 OA
ENDBRANCH   6   9
TORSDOF 2
ENDMDL
MODEL 5
REMARK VINA RESULT:    -3.197     18.942     19.243
REMARK INTER + INTRA:          -3.513
REMARK INTER:                  -3.479
REMARK INTRA:                  -0.034
REMARK UNBOUND:                -0.036
REMARK SMILES O=C([O-])c1ccc(O)cc1
REMARK SMILES IDX 7 1 6 2 9 3 5 4 10 5 4 6 8 7 2 9 1 10 3 11
REMARK H PARENT 8 8
REMARK Flexibility Score: inf
ROOT
ATOM      1  C   UNL     1       7.155  -4.993  -3.001  1.00  0.00     0.115 A 
ATOM      2  C   UNL     1       7.350  -3.828  -3.754  1.00  0.00     0.047 A 
ATOM      3  C   UNL     1       6.041  -5.800  -3.249  1.00  0.00     0.047 A 
ATOM      4  C   UNL     1       6.434  -3.473  -4.749  1.00  0.00     0.014 A 
ATOM      5  C   UNL     1       5.124  -5.447  -4.244  1.00  0.00     0.014 A 
ATOM      6  C   UNL     1       5.312  -4.279  -5.005  1.00  0.00    -0.003 A 
ENDROOT
BRANCH   1   7
ATOM      7  O   UNL     1       8.061  -5.357  -2.006  1.00  0.00    -0.508 OA
ATOM      8  H   UNL     1       8.433  -4.676  -1.355  1.00  0.00     0.293 HD
ENDBRANCH   1   7
BRANCH   6   9
ATOM      9  C   UNL     1       4.345  -3.901  -6.059  1.00  0.00     0.071 C 
ATOM     10  O   UNL     1       4.161  -2.690  -6.356  1.00  0.00    -0.545 OA
ATOM     11  O   UNL     1       3.624  -4.878  -6.738  1.00  0.00    -0.545 OA
ENDBRANCH   6   9
TORSDOF 2
ENDMDL
MODEL 6
REMARK VINA RESULT:    -3.144     18.346     18.928
REMARK INTER + INTRA:          -3.456
REMARK INTER:                  -3.420
REMARK INTRA:                  -0.036
REMARK UNBOUND:                -0.036
REMARK SMILES O=C([O-])c1ccc(O)cc1
REMARK SMILES IDX 7 1 6 2 9 3 5 4 10 5 4 6 8 7 2 9 1 10 3 11
REMARK H PARENT 8 8
REMARK Flexibility Score: inf
ROOT
ATOM      1  C   UNL     1       2.455  -4.832  -8.132  1.00  0.00     0.115 A 
ATOM      2  C   UNL     1       1.780  -3.736  -8.684  1.00  0.00     0.047 A 
ATOM      3  C   UNL     1       1.748  -6.000  -7.830  1.00  0.00     0.047 A 
ATOM      4  C   UNL     1       0.406  -3.808  -8.934  1.00  0.00     0.014 A 
ATOM      5  C   UNL     1       0.374  -6.075  -8.079  1.00  0.00     0.014 A 
ATOM      6  C   UNL     1      -0.311  -4.979  -8.634  1.00  0.00    -0.003 A 
ENDROOT
BRANCH   1   7
ATOM      7  O   UNL     1       3.823  -4.771  -7.879  1.00  0.00    -0.508 OA
ATOM      8  H   UNL     1       4.194  -4.249  -7.094  1.00  0.00     0.293 HD
ENDBRANCH   1   7
BRANCH   6   9
ATOM      9  C   UNL     1      -1.765  -5.053  -8.899  1.00  0.00     0.071 C 
ATOM     10  O   UNL     1      -2.400  -6.124  -8.701  1.00  0.00    -0.545 OA
ATOM     11  O   UNL     1      -2.453  -3.940  -9.371  1.00  0.00    -0.545 OA
ENDBRANCH   6   9
TORSDOF 2
ENDMDL
MODEL 7
REMARK VINA RESULT:    -3.139     18.393     19.004
REMARK INTER + INTRA:          -3.450
REMARK INTER:                  -3.414
REMARK INTRA:                  -0.036
REMARK UNBOUND:                -0.036
REMARK SMILES O=C([O-])c1ccc(O)cc1
REMARK SMILES IDX 7 1 6 2 9 3 5 4 10 5 4 6 8 7 2 9 1 10 3 11
REMARK H PARENT 8 8
REMARK Flexibility Score: inf
ROOT
ATOM      1  C   UNL     1       2.486  -4.610  -8.203  1.00  0.00     0.115 A 
ATOM      2  C   UNL     1       1.808  -5.762  -7.786  1.00  0.00     0.047 A 
ATOM      3  C   UNL     1       1.787  -3.595  -8.862  1.00  0.00     0.047 A 
ATOM      4  C   UNL     1       0.437  -5.897  -8.026  1.00  0.00     0.014 A 
ATOM      5  C   UNL     1       0.416  -3.726  -9.103  1.00  0.00     0.014 A 
ATOM      6  C   UNL     1      -0.274  -4.880  -8.687  1.00  0.00    -0.003 A 
ENDROOT
BRANCH   1   7
ATOM      7  O   UNL     1       3.852  -4.465  -7.970  1.00  0.00    -0.508 OA
ATOM      8  H   UNL     1       4.201  -3.997  -7.142  1.00  0.00     0.293 HD
ENDBRANCH   1   7
BRANCH   6   9
ATOM      9  C   UNL     1      -1.724  -5.025  -8.940  1.00  0.00     0.071 C 
ATOM     10  O   UNL     1      -2.305  -6.124  -8.731  1.00  0.00    -0.545 OA
ATOM     11  O   UNL     1      -2.469  -3.949  -9.411  1.00  0.00    -0.545 OA
ENDBRANCH   6   9
TORSDOF 2
ENDMDL
MODEL 8
REMARK VINA RESULT:    -3.082     10.530     12.548
REMARK INTER + INTRA:          -3.388
REMARK INTER:                  -3.353
REMARK INTRA:                  -0.035
REMARK UNBOUND:                -0.036
REMARK SMILES O=C([O-])c1ccc(O)cc1
REMARK SMILES IDX 7 1 6 2 9 3 5 4 10 5 4 6 8 7 2 9 1 10 3 11
REMARK H PARENT 8 8
REMARK Flexibility Score: inf
ROOT
ATOM      1  C   UNL     1     -11.754   2.427  -1.763  1.00  0.00     0.115 A 
ATOM      2  C   UNL     1     -11.395   1.789  -2.957  1.00  0.00     0.047 A 
ATOM      3  C   UNL     1     -12.118   3.776  -1.780  1.00  0.00     0.047 A 
ATOM      4  C   UNL     1     -11.401   2.499  -4.162  1.00  0.00     0.014 A 
ATOM      5  C   UNL     1     -12.125   4.488  -2.983  1.00  0.00     0.014 A 
ATOM      6  C   UNL     1     -11.766   3.856  -4.188  1.00  0.00    -0.003 A 
ENDROOT
BRANCH   1   7
ATOM      7  O   UNL     1     -11.752   1.730  -0.556  1.00  0.00    -0.508 OA
ATOM      8  H   UNL     1     -10.944   1.732   0.055  1.00  0.00     0.293 HD
ENDBRANCH   1   7
BRANCH   6   9
ATOM      9  C   UNL     1     -11.771   4.604  -5.464  1.00  0.00     0.071 C 
ATOM     10  O   UNL     1     -11.744   3.993  -6.566  1.00  0.00    -0.545 OA
ATOM     11  O   UNL     1     -11.806   5.994  -5.466  1.00  0.00    -0.545 OA
ENDBRANCH   6   9
TORSDOF 2
ENDMDL
