MODEL 1
REMARK VINA RESULT:    -5.287      0.000      0.000
REMARK INTER + INTRA:          -7.306
REMARK INTER:                  -6.678
REMARK INTRA:                  -0.628
REMARK UNBOUND:                -0.628
REMARK SMILES Oc1cc(O)cc(CCc2ccccc2O)c1
REMARK SMILES IDX 9 1 10 2 12 3 13 4 11 5 14 6 15 7 16 8 8 10 7 11 6 12 17 13
REMARK SMILES IDX 4 14 2 15 3 16 5 17 1 19
REMARK H PARENT 16 9 5 18 1 20
REMARK Flexibility Score: inf
ROOT
ATOM      1  C   UNL     1     -14.270  83.743  -9.946  1.00  0.00     0.044 C 
ENDROOT
BRANCH   1   2
ATOM      2  C   UNL     1     -13.293  82.953 -10.785  1.00  0.00    -0.006 A 
ATOM      3  C   UNL     1     -11.095  81.925 -10.991  1.00  0.00     0.001 A 
ATOM      4  C   UNL     1     -11.400  81.517 -12.289  1.00  0.00     0.004 A 
ATOM      5  C   UNL     1     -12.032  82.641 -10.244  1.00  0.00     0.007 A 
ATOM      6  C   UNL     1     -12.641  81.833 -12.848  1.00  0.00     0.046 A 
ATOM      7  C   UNL     1     -13.590  82.555 -12.113  1.00  0.00     0.118 A 
BRANCH   7   8
ATOM      8  O   UNL     1     -14.804  82.859 -12.733  1.00  0.00    -0.508 OA
ATOM      9  H   UNL     1     -15.582  83.293 -12.257  1.00  0.00     0.293 HD
ENDBRANCH   7   8
ENDBRANCH   1   2
BRANCH   1  10
ATOM     10  C   UNL     1     -13.531  84.707  -9.013  1.00  0.00     0.040 C 
BRANCH  10  11
ATOM     11  C   UNL     1     -13.445  86.077  -9.630  1.00  0.00    -0.040 A 
ATOM     12  C   UNL     1     -14.615  86.805  -9.900  1.00  0.00     0.050 A 
ATOM     13  C   UNL     1     -12.195  86.663  -9.886  1.00  0.00     0.050 A 
ATOM     14  C   UNL     1     -14.539  88.092 -10.442  1.00  0.00     0.119 A 
ATOM     15  C   UNL     1     -12.116  87.953 -10.430  1.00  0.00     0.119 A 
ATOM     16  C   UNL     1     -13.288  88.663 -10.709  1.00  0.00     0.092 A 
BRANCH  14  17
ATOM     17  O   UNL     1     -15.712  88.795 -10.710  1.00  0.00    -0.508 OA
ATOM     18  H   UNL     1     -15.763  89.801 -10.600  1.00  0.00     0.293 HD
ENDBRANCH  14  17
BRANCH  15  19
ATOM     19  O   UNL     1     -10.879  88.537 -10.692  1.00  0.00    -0.508 OA
ATOM     20  H   UNL     1     -10.108  87.999 -11.071  1.00  0.00     0.293 HD
ENDBRANCH  15  19
ENDBRANCH  10  11
ENDBRANCH   1  10
TORSDOF 6
ENDMDL
MODEL 2
REMARK VINA RESULT:    -5.282      0.250      2.049
REMARK INTER + INTRA:          -7.300
REMARK INTER:                  -6.648
REMARK INTRA:                  -0.652
REMARK UNBOUND:                -0.628
REMARK SMILES Oc1cc(O)cc(CCc2ccccc2O)c1
REMARK SMILES IDX 9 1 10 2 12 3 13 4 11 5 14 6 15 7 16 8 8 10 7 11 6 12 17 13
REMARK SMILES IDX 4 14 2 15 3 16 5 17 1 19
REMARK H PARENT 16 9 5 18 1 20
REMARK Flexibility Score: inf
ROOT
ATOM      1  C   UNL     1     -14.232  83.553  -9.726  1.00  0.00     0.044 C 
ENDROOT
BRANCH   1   2
ATOM      2  C   UNL     1     -13.254  82.857 -10.644  1.00  0.00    -0.006 A 
ATOM      3  C   UNL     1     -11.040  81.898 -10.971  1.00  0.00     0.001 A 
ATOM      4  C   UNL     1     -11.360  81.593 -12.294  1.00  0.00     0.004 A 
ATOM      5  C   UNL     1     -11.978  82.529 -10.152  1.00  0.00     0.007 A 
ATOM      6  C   UNL     1     -12.617  81.927 -12.804  1.00  0.00     0.046 A 
ATOM      7  C   UNL     1     -13.567  82.564 -11.996  1.00  0.00     0.118 A 
BRANCH   7   8
ATOM      8  O   UNL     1     -14.798  82.893 -12.568  1.00  0.00    -0.508 OA
ATOM      9  H   UNL     1     -14.928  83.066 -13.555  1.00  0.00     0.293 HD
ENDBRANCH   7   8
ENDBRANCH   1   2
BRANCH   1  10
ATOM     10  C   UNL     1     -13.501  84.508  -8.777  1.00  0.00     0.040 C 
BRANCH  10  11
ATOM     11  C   UNL     1     -13.398  85.881  -9.385  1.00  0.00    -0.040 A 
ATOM     12  C   UNL     1     -12.139  86.449  -9.639  1.00  0.00     0.050 A 
ATOM     13  C   UNL     1     -14.557  86.580  -9.758  1.00  0.00     0.050 A 
ATOM     14  C   UNL     1     -12.039  87.710 -10.234  1.00  0.00     0.119 A 
ATOM     15  C   UNL     1     -14.459  87.845 -10.355  1.00  0.00     0.119 A 
ATOM     16  C   UNL     1     -13.200  88.407 -10.589  1.00  0.00     0.092 A 
BRANCH  14  17
ATOM     17  O   UNL     1     -10.780  88.260 -10.471  1.00  0.00    -0.508 OA
ATOM     18  H   UNL     1     -10.667  89.112 -11.007  1.00  0.00     0.293 HD
ENDBRANCH  14  17
BRANCH  15  19
ATOM     19  O   UNL     1     -15.605  88.547 -10.721  1.00  0.00    -0.508 OA
ATOM     20  H   UNL     1     -15.911  89.366 -10.210  1.00  0.00     0.293 HD
ENDBRANCH  15  19
ENDBRANCH  10  11
ENDBRANCH   1  10
TORSDOF 6
ENDMDL
MODEL 3
REMARK VINA RESULT:    -5.010      4.399      6.084
REMARK INTER + INTRA:          -6.956
REMARK INTER:                  -6.555
REMARK INTRA:                  -0.401
REMARK UNBOUND:                -0.628
REMARK SMILES Oc1cc(O)cc(CCc2ccccc2O)c1
REMARK SMILES IDX 9 1 10 2 12 3 13 4 11 5 14 6 15 7 16 8 8 10 7 11 6 12 17 13
REMARK SMILES IDX 4 14 2 15 3 16 5 17 1 19
REMARK H PARENT 16 9 5 18 1 20
REMARK Flexibility Score: inf
ROOT
ATOM      1  C   UNL     1      -9.307  82.590  -9.503  1.00  0.00     0.044 C 
ENDROOT
BRANCH   1   2
ATOM      2  C   UNL     1     -10.786  82.286  -9.469  1.00  0.00    -0.006 A 
ATOM      3  C   UNL     1     -12.814  81.995  -8.152  1.00  0.00     0.001 A 
ATOM      4  C   UNL     1     -13.531  81.696  -9.311  1.00  0.00     0.004 A 
ATOM      5  C   UNL     1     -11.450  82.285  -8.229  1.00  0.00     0.007 A 
ATOM      6  C   UNL     1     -12.883  81.675 -10.548  1.00  0.00     0.046 A 
ATOM      7  C   UNL     1     -11.515  81.959 -10.641  1.00  0.00     0.118 A 
BRANCH   7   8
ATOM      8  O   UNL     1     -10.918  81.902 -11.903  1.00  0.00    -0.508 OA
ATOM      9  H   UNL     1     -10.790  82.708 -12.498  1.00  0.00     0.293 HD
ENDBRANCH   7   8
ENDBRANCH   1   2
BRANCH   1  10
ATOM     10  C   UNL     1      -9.017  83.950  -8.859  1.00  0.00     0.040 C 
BRANCH  10  11
ATOM     11  C   UNL     1      -7.728  84.520  -9.386  1.00  0.00    -0.040 A 
ATOM     12  C   UNL     1      -6.626  83.681  -9.616  1.00  0.00     0.050 A 
ATOM     13  C   UNL     1      -7.634  85.884  -9.707  1.00  0.00     0.050 A 
ATOM     14  C   UNL     1      -5.437  84.201 -10.137  1.00  0.00     0.119 A 
ATOM     15  C   UNL     1      -6.443  86.408 -10.229  1.00  0.00     0.119 A 
ATOM     16  C   UNL     1      -5.347  85.566 -10.440  1.00  0.00     0.092 A 
BRANCH  14  17
ATOM     17  O   UNL     1      -4.352  83.353 -10.352  1.00  0.00    -0.508 OA
ATOM     18  H   UNL     1      -4.402  82.585 -11.010  1.00  0.00     0.293 HD
ENDBRANCH  14  17
BRANCH  15  19
ATOM     19  O   UNL     1      -6.342  87.761 -10.543  1.00  0.00    -0.508 OA
ATOM     20  H   UNL     1      -7.098  88.258 -10.999  1.00  0.00     0.293 HD
ENDBRANCH  15  19
ENDBRANCH  10  11
ENDBRANCH   1  10
TORSDOF 6
ENDMDL
MODEL 4
REMARK VINA RESULT:    -4.969      4.422      5.879
REMARK INTER + INTRA:          -6.904
REMARK INTER:                  -6.509
REMARK INTRA:                  -0.394
REMARK UNBOUND:                -0.628
REMARK SMILES Oc1cc(O)cc(CCc2ccccc2O)c1
REMARK SMILES IDX 9 1 10 2 12 3 13 4 11 5 14 6 15 7 16 8 8 10 7 11 6 12 17 13
REMARK SMILES IDX 4 14 2 15 3 16 5 17 1 19
REMARK H PARENT 16 9 5 18 1 20
REMARK Flexibility Score: inf
ROOT
ATOM      1  C   UNL     1      -9.270  82.727  -9.475  1.00  0.00     0.044 C 
ENDROOT
BRANCH   1   2
ATOM      2  C   UNL     1     -10.731  82.346  -9.465  1.00  0.00    -0.006 A 
ATOM      3  C   UNL     1     -12.760  81.940  -8.180  1.00  0.00     0.001 A 
ATOM      4  C   UNL     1     -13.444  81.613  -9.350  1.00  0.00     0.004 A 
ATOM      5  C   UNL     1     -11.412  82.301  -8.234  1.00  0.00     0.007 A 
ATOM      6  C   UNL     1     -12.779  81.637 -10.578  1.00  0.00     0.046 A 
ATOM      7  C   UNL     1     -11.426  81.992 -10.649  1.00  0.00     0.118 A 
BRANCH   7   8
ATOM      8  O   UNL     1     -10.809  81.975 -11.903  1.00  0.00    -0.508 OA
ATOM      9  H   UNL     1     -11.303  82.130 -12.771  1.00  0.00     0.293 HD
ENDBRANCH   7   8
ENDBRANCH   1   2
BRANCH   1  10
ATOM     10  C   UNL     1      -9.081  84.171  -8.997  1.00  0.00     0.040 C 
BRANCH  10  11
ATOM     11  C   UNL     1      -7.773  84.725  -9.493  1.00  0.00    -0.040 A 
ATOM     12  C   UNL     1      -7.675  86.072  -9.877  1.00  0.00     0.050 A 
ATOM     13  C   UNL     1      -6.625  83.916  -9.520  1.00  0.00     0.050 A 
ATOM     14  C   UNL     1      -6.453  86.599 -10.307  1.00  0.00     0.119 A 
ATOM     15  C   UNL     1      -5.399  84.442  -9.950  1.00  0.00     0.119 A 
ATOM     16  C   UNL     1      -5.317  85.781 -10.345  1.00  0.00     0.092 A 
BRANCH  14  17
ATOM     17  O   UNL     1      -6.379  87.936 -10.692  1.00  0.00    -0.508 OA
ATOM     18  H   UNL     1      -7.202  88.526 -10.716  1.00  0.00     0.293 HD
ENDBRANCH  14  17
BRANCH  15  19
ATOM     19  O   UNL     1      -4.258  83.643  -9.986  1.00  0.00    -0.508 OA
ATOM     20  H   UNL     1      -3.334  84.031  -9.836  1.00  0.00     0.293 HD
ENDBRANCH  15  19
ENDBRANCH  10  11
ENDBRANCH   1  10
TORSDOF 6
ENDMDL
MODEL 5
REMARK VINA RESULT:    -4.948      3.528      5.744
REMARK INTER + INTRA:          -6.878
REMARK INTER:                  -6.236
REMARK INTRA:                  -0.642
REMARK UNBOUND:                -0.628
REMARK SMILES Oc1cc(O)cc(CCc2ccccc2O)c1
REMARK SMILES IDX 9 1 10 2 12 3 13 4 11 5 14 6 15 7 16 8 8 10 7 11 6 12 17 13
REMARK SMILES IDX 4 14 2 15 3 16 5 17 1 19
REMARK H PARENT 16 9 5 18 1 20
REMARK Flexibility Score: inf
ROOT
ATOM      1  C   UNL     1      -9.857  84.516  -7.768  1.00  0.00     0.044 C 
ENDROOT
BRANCH   1   2
ATOM      2  C   UNL     1      -8.578  84.712  -8.547  1.00  0.00    -0.006 A 
ATOM      3  C   UNL     1      -6.265  84.056  -8.934  1.00  0.00     0.001 A 
ATOM      4  C   UNL     1      -6.147  85.032  -9.924  1.00  0.00     0.004 A 
ATOM      5  C   UNL     1      -7.470  83.899  -8.247  1.00  0.00     0.007 A 
ATOM      6  C   UNL     1      -7.232  85.859 -10.223  1.00  0.00     0.046 A 
ATOM      7  C   UNL     1      -8.446  85.716  -9.539  1.00  0.00     0.118 A 
BRANCH   7   8
ATOM      8  O   UNL     1      -9.488  86.587  -9.867  1.00  0.00    -0.508 OA
ATOM      9  H   UNL     1     -10.014  87.113  -9.183  1.00  0.00     0.293 HD
ENDBRANCH   7   8
ENDBRANCH   1   2
BRANCH   1  10
ATOM     10  C   UNL     1     -10.313  83.054  -7.830  1.00  0.00     0.040 C 
BRANCH  10  11
ATOM     11  C   UNL     1     -11.185  82.823  -9.034  1.00  0.00    -0.040 A 
ATOM     12  C   UNL     1     -12.498  83.322  -9.062  1.00  0.00     0.050 A 
ATOM     13  C   UNL     1     -10.676  82.160 -10.163  1.00  0.00     0.050 A 
ATOM     14  C   UNL     1     -13.301  83.139 -10.192  1.00  0.00     0.119 A 
ATOM     15  C   UNL     1     -11.480  81.975 -11.297  1.00  0.00     0.119 A 
ATOM     16  C   UNL     1     -12.791  82.463 -11.307  1.00  0.00     0.092 A 
BRANCH  14  17
ATOM     17  O   UNL     1     -14.603  83.635 -10.197  1.00  0.00    -0.508 OA
ATOM     18  H   UNL     1     -15.151  83.676 -11.048  1.00  0.00     0.293 HD
ENDBRANCH  14  17
BRANCH  15  19
ATOM     19  O   UNL     1     -10.984  81.312 -12.417  1.00  0.00    -0.508 OA
ATOM     20  H   UNL     1     -11.300  81.540 -13.352  1.00  0.00     0.293 HD
ENDBRANCH  15  19
ENDBRANCH  10  11
ENDBRANCH   1  10
TORSDOF 6
ENDMDL
MODEL 6
REMARK VINA RESULT:    -4.935      3.485      5.972
REMARK INTER + INTRA:          -6.861
REMARK INTER:                  -6.206
REMARK INTRA:                  -0.655
REMARK UNBOUND:                -0.628
REMARK SMILES Oc1cc(O)cc(CCc2ccccc2O)c1
REMARK SMILES IDX 9 1 10 2 12 3 13 4 11 5 14 6 15 7 16 8 8 10 7 11 6 12 17 13
REMARK SMILES IDX 4 14 2 15 3 16 5 17 1 19
REMARK H PARENT 16 9 5 18 1 20
REMARK Flexibility Score: inf
ROOT
ATOM      1  C   UNL     1      -9.937  84.506  -7.718  1.00  0.00     0.044 C 
ENDROOT
BRANCH   1   2
ATOM      2  C   UNL     1      -8.662  84.716  -8.500  1.00  0.00    -0.006 A 
ATOM      3  C   UNL     1      -6.340  84.092  -8.885  1.00  0.00     0.001 A 
ATOM      4  C   UNL     1      -6.238  85.061  -9.883  1.00  0.00     0.004 A 
ATOM      5  C   UNL     1      -7.541  83.922  -8.195  1.00  0.00     0.007 A 
ATOM      6  C   UNL     1      -7.335  85.869 -10.187  1.00  0.00     0.046 A 
ATOM      7  C   UNL     1      -8.547  85.714  -9.501  1.00  0.00     0.118 A 
BRANCH   7   8
ATOM      8  O   UNL     1      -9.602  86.566  -9.834  1.00  0.00    -0.508 OA
ATOM      9  H   UNL     1      -9.649  87.087 -10.698  1.00  0.00     0.293 HD
ENDBRANCH   7   8
ENDBRANCH   1   2
BRANCH   1  10
ATOM     10  C   UNL     1     -10.421  83.058  -7.845  1.00  0.00     0.040 C 
BRANCH  10  11
ATOM     11  C   UNL     1     -11.253  82.886  -9.088  1.00  0.00    -0.040 A 
ATOM     12  C   UNL     1     -10.743  82.176 -10.187  1.00  0.00     0.050 A 
ATOM     13  C   UNL     1     -12.565  83.383  -9.137  1.00  0.00     0.050 A 
ATOM     14  C   UNL     1     -11.524  81.985 -11.330  1.00  0.00     0.119 A 
ATOM     15  C   UNL     1     -13.351  83.193 -10.283  1.00  0.00     0.119 A 
ATOM     16  C   UNL     1     -12.827  82.497 -11.377  1.00  0.00     0.092 A 
BRANCH  14  17
ATOM     17  O   UNL     1     -10.998  81.284 -12.413  1.00  0.00    -0.508 OA
ATOM     18  H   UNL     1      -9.998  81.184 -12.544  1.00  0.00     0.293 HD
ENDBRANCH  14  17
BRANCH  15  19
ATOM     19  O   UNL     1     -14.651  83.689 -10.341  1.00  0.00    -0.508 OA
ATOM     20  H   UNL     1     -15.065  83.990 -11.216  1.00  0.00     0.293 HD
ENDBRANCH  15  19
ENDBRANCH  10  11
ENDBRANCH   1  10
TORSDOF 6
ENDMDL
MODEL 7
REMARK VINA RESULT:    -4.894     11.248     12.347
REMARK INTER + INTRA:          -6.809
REMARK INTER:                  -6.303
REMARK INTRA:                  -0.506
REMARK UNBOUND:                -0.628
REMARK SMILES Oc1cc(O)cc(CCc2ccccc2O)c1
REMARK SMILES IDX 9 1 10 2 12 3 13 4 11 5 14 6 15 7 16 8 8 10 7 11 6 12 17 13
REMARK SMILES IDX 4 14 2 15 3 16 5 17 1 19
REMARK H PARENT 16 9 5 18 1 20
REMARK Flexibility Score: inf
ROOT
ATOM      1  C   UNL     1      -4.447  91.226 -13.089  1.00  0.00     0.044 C 
ENDROOT
BRANCH   1   2
ATOM      2  C   UNL     1      -4.657  91.397 -14.575  1.00  0.00    -0.006 A 
ATOM      3  C   UNL     1      -6.174  91.909 -16.410  1.00  0.00     0.001 A 
ATOM      4  C   UNL     1      -5.144  91.703 -17.328  1.00  0.00     0.004 A 
ATOM      5  C   UNL     1      -5.935  91.754 -15.043  1.00  0.00     0.007 A 
ATOM      6  C   UNL     1      -3.874  91.333 -16.881  1.00  0.00     0.046 A 
ATOM      7  C   UNL     1      -3.619  91.169 -15.514  1.00  0.00     0.118 A 
BRANCH   7   8
ATOM      8  O   UNL     1      -2.335  90.776 -15.130  1.00  0.00    -0.508 OA
ATOM      9  H   UNL     1      -1.914  89.898 -15.400  1.00  0.00     0.293 HD
ENDBRANCH   7   8
ENDBRANCH   1   2
BRANCH   1  10
ATOM     10  C   UNL     1      -5.454  92.068 -12.297  1.00  0.00     0.040 C 
BRANCH  10  11
ATOM     11  C   UNL     1      -4.738  93.041 -11.400  1.00  0.00    -0.040 A 
ATOM     12  C   UNL     1      -4.960  93.019 -10.013  1.00  0.00     0.050 A 
ATOM     13  C   UNL     1      -3.800  93.939 -11.934  1.00  0.00     0.050 A 
ATOM     14  C   UNL     1      -4.272  93.899  -9.173  1.00  0.00     0.119 A 
ATOM     15  C   UNL     1      -3.109  94.823 -11.092  1.00  0.00     0.119 A 
ATOM     16  C   UNL     1      -3.349  94.803  -9.715  1.00  0.00     0.092 A 
BRANCH  14  17
ATOM     17  O   UNL     1      -4.512  93.867  -7.800  1.00  0.00    -0.508 OA
ATOM     18  H   UNL     1      -5.407  93.577  -7.426  1.00  0.00     0.293 HD
ENDBRANCH  14  17
BRANCH  15  19
ATOM     19  O   UNL     1      -2.182  95.722 -11.616  1.00  0.00    -0.508 OA
ATOM     20  H   UNL     1      -1.600  95.480 -12.409  1.00  0.00     0.293 HD
ENDBRANCH  15  19
ENDBRANCH  10  11
ENDBRANCH   1  10
TORSDOF 6
ENDMDL
MODEL 8
REMARK VINA RESULT:    -4.885     11.293     12.467
REMARK INTER + INTRA:          -6.798
REMARK INTER:                  -6.294
REMARK INTRA:                  -0.503
REMARK UNBOUND:                -0.628
REMARK SMILES Oc1cc(O)cc(CCc2ccccc2O)c1
REMARK SMILES IDX 9 1 10 2 12 3 13 4 11 5 14 6 15 7 16 8 8 10 7 11 6 12 17 13
REMARK SMILES IDX 4 14 2 15 3 16 5 17 1 19
REMARK H PARENT 16 9 5 18 1 20
REMARK Flexibility Score: inf
ROOT
ATOM      1  C   UNL     1      -4.318  91.177 -13.144  1.00  0.00     0.044 C 
ENDROOT
BRANCH   1   2
ATOM      2  C   UNL     1      -4.551  91.367 -14.624  1.00  0.00    -0.006 A 
ATOM      3  C   UNL     1      -6.104  91.868 -16.432  1.00  0.00     0.001 A 
ATOM      4  C   UNL     1      -5.080  91.706 -17.365  1.00  0.00     0.004 A 
ATOM      5  C   UNL     1      -5.843  91.697 -15.071  1.00  0.00     0.007 A 
ATOM      6  C   UNL     1      -3.795  91.363 -16.941  1.00  0.00     0.046 A 
ATOM      7  C   UNL     1      -3.519  91.183 -15.579  1.00  0.00     0.118 A 
BRANCH   7   8
ATOM      8  O   UNL     1      -2.220  90.818 -15.218  1.00  0.00    -0.508 OA
ATOM      9  H   UNL     1      -1.524  90.499 -15.877  1.00  0.00     0.293 HD
ENDBRANCH   7   8
ENDBRANCH   1   2
BRANCH   1  10
ATOM     10  C   UNL     1      -5.329  91.987 -12.326  1.00  0.00     0.040 C 
BRANCH  10  11
ATOM     11  C   UNL     1      -4.620  92.955 -11.418  1.00  0.00    -0.040 A 
ATOM     12  C   UNL     1      -3.730  93.902 -11.951  1.00  0.00     0.050 A 
ATOM     13  C   UNL     1      -4.886  92.959 -10.040  1.00  0.00     0.050 A 
ATOM     14  C   UNL     1      -3.095  94.825 -11.115  1.00  0.00     0.119 A 
ATOM     15  C   UNL     1      -4.250  93.884  -9.199  1.00  0.00     0.119 A 
ATOM     16  C   UNL     1      -3.354  94.812  -9.739  1.00  0.00     0.092 A 
BRANCH  14  17
ATOM     17  O   UNL     1      -2.209  95.751 -11.662  1.00  0.00    -0.508 OA
ATOM     18  H   UNL     1      -1.278  95.483 -11.958  1.00  0.00     0.293 HD
ENDBRANCH  14  17
BRANCH  15  19
ATOM     19  O   UNL     1      -4.504  93.889  -7.830  1.00  0.00    -0.508 OA
ATOM     20  H   UNL     1      -4.352  94.716  -7.265  1.00  0.00     0.293 HD
ENDBRANCH  15  19
ENDBRANCH  10  11
ENDBRANCH   1  10
TORSDOF 6
ENDMDL
MODEL 9
REMARK VINA RESULT:    -4.850     12.212     14.465
REMARK INTER + INTRA:          -6.754
REMARK INTER:                  -6.131
REMARK INTRA:                  -0.624
REMARK UNBOUND:                -0.628
REMARK SMILES Oc1cc(O)cc(CCc2ccccc2O)c1
REMARK SMILES IDX 9 1 10 2 12 3 13 4 11 5 14 6 15 7 16 8 8 10 7 11 6 12 17 13
REMARK SMILES IDX 4 14 2 15 3 16 5 17 1 19
REMARK H PARENT 16 9 5 18 1 20
REMARK Flexibility Score: inf
ROOT
ATOM      1  C   UNL     1      -3.793  93.343 -16.915  1.00  0.00     0.044 C 
ENDROOT
BRANCH   1   2
ATOM      2  C   UNL     1      -4.246  92.234 -15.994  1.00  0.00    -0.006 A 
ATOM      3  C   UNL     1      -4.133  91.186 -13.798  1.00  0.00     0.001 A 
ATOM      4  C   UNL     1      -5.008  90.187 -14.223  1.00  0.00     0.004 A 
ATOM      5  C   UNL     1      -3.751  92.201 -14.677  1.00  0.00     0.007 A 
ATOM      6  C   UNL     1      -5.496  90.194 -15.532  1.00  0.00     0.046 A 
ATOM      7  C   UNL     1      -5.118  91.203 -16.427  1.00  0.00     0.118 A 
BRANCH   7   8
ATOM      8  O   UNL     1      -5.621  91.145 -17.729  1.00  0.00    -0.508 OA
ATOM      9  H   UNL     1      -5.039  91.077 -18.551  1.00  0.00     0.293 HD
ENDBRANCH   7   8
ENDBRANCH   1   2
BRANCH   1  10
ATOM     10  C   UNL     1      -2.501  92.953 -17.641  1.00  0.00     0.040 C 
BRANCH  10  11
ATOM     11  C   UNL     1      -2.787  92.602 -19.076  1.00  0.00    -0.040 A 
ATOM     12  C   UNL     1      -2.192  91.471 -19.658  1.00  0.00     0.050 A 
ATOM     13  C   UNL     1      -3.695  93.366 -19.826  1.00  0.00     0.050 A 
ATOM     14  C   UNL     1      -2.481  91.121 -20.981  1.00  0.00     0.119 A 
ATOM     15  C   UNL     1      -3.986  93.018 -21.153  1.00  0.00     0.119 A 
ATOM     16  C   UNL     1      -3.376  91.899 -21.727  1.00  0.00     0.092 A 
BRANCH  14  17
ATOM     17  O   UNL     1      -1.875  90.000 -21.544  1.00  0.00    -0.508 OA
ATOM     18  H   UNL     1      -2.349  89.433 -22.237  1.00  0.00     0.293 HD
ENDBRANCH  14  17
BRANCH  15  19
ATOM     19  O   UNL     1      -4.881  93.776 -21.904  1.00  0.00    -0.508 OA
ATOM     20  H   UNL     1      -4.660  94.721 -22.196  1.00  0.00     0.293 HD
ENDBRANCH  15  19
ENDBRANCH  10  11
ENDBRANCH   1  10
TORSDOF 6
ENDMDL
