MODEL 1
REMARK VINA RESULT:    -3.195      0.000      0.000
REMARK INTER + INTRA:          -3.574
REMARK INTER:                  -3.569
REMARK INTRA:                  -0.005
REMARK UNBOUND:                -0.005
REMARK SMILES CCCC(=O)[O-]
REMARK SMILES IDX 3 1 4 2 5 3 6 4 2 5 1 6
REMARK H PARENT
REMARK Flexibility Score: inf
ROOT
ATOM      1  C   UNL     1       3.924   6.805  16.932  1.00  0.00     0.052 C 
ENDROOT
BRANCH   1   2
ATOM      2  C   UNL     1       4.320   8.139  16.377  1.00  0.00     0.041 C 
ATOM      3  O   UNL     1       4.964   8.210  15.296  1.00  0.00    -0.550 OA
ATOM      4  O   UNL     1       4.006   9.301  17.069  1.00  0.00    -0.550 OA
ENDBRANCH   1   2
BRANCH   1   5
ATOM      5  C   UNL     1       2.455   6.480  16.635  1.00  0.00     0.003 C 
ATOM      6  C   UNL     1       1.979   5.222  17.360  1.00  0.00     0.004 C 
ENDBRANCH   1   5
TORSDOF 2
ENDMDL
MODEL 2
REMARK VINA RESULT:    -2.887      2.010      2.907
REMARK INTER + INTRA:          -3.230
REMARK INTER:                  -3.213
REMARK INTRA:                  -0.017
REMARK UNBOUND:                -0.005
REMARK SMILES CCCC(=O)[O-]
REMARK SMILES IDX 3 1 4 2 5 3 6 4 2 5 1 6
REMARK H PARENT
REMARK Flexibility Score: inf
ROOT
ATOM      1  C   UNL     1       3.415   6.676  17.889  1.00  0.00     0.052 C 
ENDROOT
BRANCH   1   2
ATOM      2  C   UNL     1       2.880   7.866  18.626  1.00  0.00     0.041 C 
ATOM      3  O   UNL     1       2.920   9.009  18.097  1.00  0.00    -0.550 OA
ATOM      4  O   UNL     1       2.369   7.718  19.908  1.00  0.00    -0.550 OA
ENDBRANCH   1   2
BRANCH   1   5
ATOM      5  C   UNL     1       4.553   7.062  16.937  1.00  0.00     0.003 C 
ATOM      6  C   UNL     1       4.104   7.097  15.477  1.00  0.00     0.004 C 
ENDBRANCH   1   5
TORSDOF 2
ENDMDL
MODEL 3
REMARK VINA RESULT:    -2.880      2.632      3.607
REMARK INTER + INTRA:          -3.221
REMARK INTER:                  -3.215
REMARK INTRA:                  -0.006
REMARK UNBOUND:                -0.005
REMARK SMILES CCCC(=O)[O-]
REMARK SMILES IDX 3 1 4 2 5 3 6 4 2 5 1 6
REMARK H PARENT
REMARK Flexibility Score: inf
ROOT
ATOM      1  C   UNL     1       3.827   6.809  17.497  1.00  0.00     0.052 C 
ENDROOT
BRANCH   1   2
ATOM      2  C   UNL     1       2.515   6.234  17.936  1.00  0.00     0.041 C 
ATOM      3  O   UNL     1       1.875   6.765  18.883  1.00  0.00    -0.550 OA
ATOM      4  O   UNL     1       2.016   5.093  17.323  1.00  0.00    -0.550 OA
ENDBRANCH   1   2
BRANCH   1   5
ATOM      5  C   UNL     1       3.938   6.865  15.968  1.00  0.00     0.003 C 
ATOM      6  C   UNL     1       4.823   8.015  15.492  1.00  0.00     0.004 C 
ENDBRANCH   1   5
TORSDOF 2
ENDMDL
MODEL 4
REMARK VINA RESULT:    -2.712      1.576      2.019
REMARK INTER + INTRA:          -3.034
REMARK INTER:                  -2.995
REMARK INTRA:                  -0.039
REMARK UNBOUND:                -0.005
REMARK SMILES CCCC(=O)[O-]
REMARK SMILES IDX 3 1 4 2 5 3 6 4 2 5 1 6
REMARK H PARENT
REMARK Flexibility Score: inf
ROOT
ATOM      1  C   UNL     1       4.041   6.788  17.596  1.00  0.00     0.052 C 
ENDROOT
BRANCH   1   2
ATOM      2  C   UNL     1       4.112   7.705  16.414  1.00  0.00     0.041 C 
ATOM      3  O   UNL     1       4.379   8.926  16.574  1.00  0.00    -0.550 OA
ATOM      4  O   UNL     1       3.849   7.219  15.140  1.00  0.00    -0.550 OA
ENDBRANCH   1   2
BRANCH   1   5
ATOM      5  C   UNL     1       2.633   6.756  18.205  1.00  0.00     0.003 C 
ATOM      6  C   UNL     1       2.474   7.751  19.354  1.00  0.00     0.004 C 
ENDBRANCH   1   5
TORSDOF 2
ENDMDL
MODEL 5
REMARK VINA RESULT:    -2.632     17.921     18.702
REMARK INTER + INTRA:          -2.945
REMARK INTER:                  -2.900
REMARK INTRA:                  -0.045
REMARK UNBOUND:                -0.005
REMARK SMILES CCCC(=O)[O-]
REMARK SMILES IDX 3 1 4 2 5 3 6 4 2 5 1 6
REMARK H PARENT
REMARK Flexibility Score: inf
ROOT
ATOM      1  C   UNL     1       5.886  -7.873   6.176  1.00  0.00     0.052 C 
ENDROOT
BRANCH   1   2
ATOM      2  C   UNL     1       4.707  -8.707   6.573  1.00  0.00     0.041 C 
ATOM      3  O   UNL     1       4.542  -9.040   7.776  1.00  0.00    -0.550 OA
ATOM      4  O   UNL     1       3.809  -9.145   5.608  1.00  0.00    -0.550 OA
ENDBRANCH   1   2
BRANCH   1   5
ATOM      5  C   UNL     1       5.612  -6.376   6.372  1.00  0.00     0.003 C 
ATOM      6  C   UNL     1       4.859  -5.764   5.192  1.00  0.00     0.004 C 
ENDBRANCH   1   5
TORSDOF 2
ENDMDL
MODEL 6
REMARK VINA RESULT:    -2.607     17.214     17.907
REMARK INTER + INTRA:          -2.917
REMARK INTER:                  -2.881
REMARK INTRA:                  -0.035
REMARK UNBOUND:                -0.005
REMARK SMILES CCCC(=O)[O-]
REMARK SMILES IDX 3 1 4 2 5 3 6 4 2 5 1 6
REMARK H PARENT
REMARK Flexibility Score: inf
ROOT
ATOM      1  C   UNL     1       5.624  -6.453   6.396  1.00  0.00     0.052 C 
ENDROOT
BRANCH   1   2
ATOM      2  C   UNL     1       4.869  -5.948   5.204  1.00  0.00     0.041 C 
ATOM      3  O   UNL     1       4.868  -6.605   4.129  1.00  0.00    -0.550 OA
ATOM      4  O   UNL     1       4.195  -4.736   5.271  1.00  0.00    -0.550 OA
ENDBRANCH   1   2
BRANCH   1   5
ATOM      5  C   UNL     1       5.809  -7.975   6.346  1.00  0.00     0.003 C 
ATOM      6  C   UNL     1       4.833  -8.710   7.264  1.00  0.00     0.004 C 
ENDBRANCH   1   5
TORSDOF 2
ENDMDL
MODEL 7
REMARK VINA RESULT:    -2.444      2.426      2.736
REMARK INTER + INTRA:          -2.735
REMARK INTER:                  -2.722
REMARK INTRA:                  -0.012
REMARK UNBOUND:                -0.005
REMARK SMILES CCCC(=O)[O-]
REMARK SMILES IDX 3 1 4 2 5 3 6 4 2 5 1 6
REMARK H PARENT
REMARK Flexibility Score: inf
ROOT
ATOM      1  C   UNL     1       3.458   6.864  18.064  1.00  0.00     0.052 C 
ENDROOT
BRANCH   1   2
ATOM      2  C   UNL     1       3.298   6.768  16.577  1.00  0.00     0.041 C 
ATOM      3  O   UNL     1       2.149   6.674  16.068  1.00  0.00    -0.550 OA
ATOM      4  O   UNL     1       4.418   6.747  15.757  1.00  0.00    -0.550 OA
ENDBRANCH   1   2
BRANCH   1   5
ATOM      5  C   UNL     1       2.705   8.071  18.638  1.00  0.00     0.003 C 
ATOM      6  C   UNL     1       2.298   7.862  20.096  1.00  0.00     0.004 C 
ENDBRANCH   1   5
TORSDOF 2
ENDMDL
MODEL 8
REMARK VINA RESULT:    -2.334     22.255     22.797
REMARK INTER + INTRA:          -2.612
REMARK INTER:                  -2.600
REMARK INTRA:                  -0.013
REMARK UNBOUND:                -0.005
REMARK SMILES CCCC(=O)[O-]
REMARK SMILES IDX 3 1 4 2 5 3 6 4 2 5 1 6
REMARK H PARENT
REMARK Flexibility Score: inf
ROOT
ATOM      1  C   UNL     1      17.266  -7.309   4.452  1.00  0.00     0.052 C 
ENDROOT
BRANCH   1   2
ATOM      2  C   UNL     1      16.543  -6.080   4.914  1.00  0.00     0.041 C 
ATOM      3  O   UNL     1      15.819  -5.432   4.112  1.00  0.00    -0.550 OA
ATOM      4  O   UNL     1      16.696  -5.633   6.219  1.00  0.00    -0.550 OA
ENDBRANCH   1   2
BRANCH   1   5
ATOM      5  C   UNL     1      17.698  -8.189   5.633  1.00  0.00     0.003 C 
ATOM      6  C   UNL     1      17.402  -9.669   5.394  1.00  0.00     0.004 C 
ENDBRANCH   1   5
TORSDOF 2
ENDMDL
MODEL 9
REMARK VINA RESULT:    -2.228     20.963     21.547
REMARK INTER + INTRA:          -2.493
REMARK INTER:                  -2.484
REMARK INTRA:                  -0.009
REMARK UNBOUND:                -0.005
REMARK SMILES CCCC(=O)[O-]
REMARK SMILES IDX 3 1 4 2 5 3 6 4 2 5 1 6
REMARK H PARENT
REMARK Flexibility Score: inf
ROOT
ATOM      1  C   UNL     1      15.756  -5.590   4.022  1.00  0.00     0.052 C 
ENDROOT
BRANCH   1   2
ATOM      2  C   UNL     1      16.550  -6.053   5.205  1.00  0.00     0.041 C 
ATOM      3  O   UNL     1      16.591  -5.356   6.254  1.00  0.00    -0.550 OA
ATOM      4  O   UNL     1      17.272  -7.237   5.137  1.00  0.00    -0.550 OA
ENDBRANCH   1   2
BRANCH   1   5
ATOM      5  C   UNL     1      14.274  -5.401   4.374  1.00  0.00     0.003 C 
ATOM      6  C   UNL     1      13.536  -4.550   3.341  1.00  0.00     0.004 C 
ENDBRANCH   1   5
TORSDOF 2
ENDMDL
