MODEL 1
REMARK VINA RESULT:    -5.270      0.000      0.000
REMARK INTER + INTRA:          -8.776
REMARK INTER:                  -7.426
REMARK INTRA:                  -1.350
REMARK UNBOUND:                -1.350
REMARK SMILES OC[C@@H]1O[C@H](O[C@H]2OC=C[C@H]3[C@H](O)[C@@H]4O[C@]4(CO)[C@@H]23)[C@H](O)[C@@H](O)[C@@H]1O
REMARK SMILES IDX 6 1 7 2 10 3 9 4 11 5 8 6 19 7 12 8 16 9 14 10 15 11 13 12
REMARK SMILES IDX 17 14 18 15 5 17 20 18 4 19 22 20 3 21 24 22 21 23 23 25
REMARK SMILES IDX 2 27 1 28 25 30
REMARK H PARENT 13 13 18 16 21 24 23 26 1 29 25 31
REMARK Flexibility Score: inf
ROOT
ATOM      1  O   UNL     1      46.269  -0.337  24.698  1.00  0.00    -0.310 OA
ENDROOT
BRANCH   1   2
ATOM      2  C   UNL     1      46.552   1.051  24.617  1.00  0.00     0.315 C 
ATOM      3  C   UNL     1      47.635   3.539  25.501  1.00  0.00     0.018 C 
ATOM      4  C   UNL     1      46.657   2.947  26.188  1.00  0.00     0.186 C 
ATOM      5  C   UNL     1      48.351   2.853  24.353  1.00  0.00     0.059 C 
ATOM      6  O   UNL     1      46.229   1.658  25.865  1.00  0.00    -0.472 OA
ATOM      7  C   UNL     1      48.028   1.349  24.252  1.00  0.00     0.105 C 
ATOM      8  C   UNL     1      49.872   2.913  24.570  1.00  0.00     0.154 C 
ATOM      9  C   UNL     1      49.112   0.666  25.102  1.00  0.00     0.130 C 
ATOM     10  C   UNL     1      50.238   1.608  25.274  1.00  0.00     0.183 C 
ATOM     11  O   UNL     1      50.329   0.492  24.413  1.00  0.00    -0.360 OA
BRANCH   8  12
ATOM     12  O   UNL     1      50.527   3.003  23.331  1.00  0.00    -0.390 OA
ATOM     13  H   UNL     1      49.964   3.586  22.756  1.00  0.00     0.211 HD
ENDBRANCH   8  12
BRANCH   9  14
ATOM     14  C   UNL     1      48.886  -0.335  26.245  1.00  0.00     0.195 C 
BRANCH  14  15
ATOM     15  O   UNL     1      48.599  -1.609  25.738  1.00  0.00    -0.393 OA
ATOM     16  H   UNL     1      47.967  -1.475  24.985  1.00  0.00     0.210 HD
ENDBRANCH  14  15
ENDBRANCH   9  14
ENDBRANCH   1   2
BRANCH   1  17
ATOM     17  C   UNL     1      45.122  -0.609  25.490  1.00  0.00     0.286 C 
ATOM     18  C   UNL     1      45.089  -2.118  25.855  1.00  0.00     0.202 C 
ATOM     19  O   UNL     1      43.966  -0.282  24.744  1.00  0.00    -0.341 OA
ATOM     20  C   UNL     1      43.639  -2.657  25.927  1.00  0.00     0.179 C 
ATOM     21  C   UNL     1      42.811  -0.268  25.574  1.00  0.00     0.178 C 
ATOM     22  C   UNL     1      42.690  -1.561  26.452  1.00  0.00     0.177 C 
BRANCH  18  23
ATOM     23  O   UNL     1      45.851  -2.891  24.959  1.00  0.00    -0.385 OA
ATOM     24  H   UNL     1      45.652  -2.568  24.040  1.00  0.00     0.211 HD
ENDBRANCH  18  23
BRANCH  20  25
ATOM     25  O   UNL     1      43.604  -3.780  26.772  1.00  0.00    -0.387 OA
ATOM     26  H   UNL     1      44.140  -4.492  26.332  1.00  0.00     0.211 HD
ENDBRANCH  20  25
BRANCH  21  27
ATOM     27  C   UNL     1      41.588  -0.014  24.678  1.00  0.00     0.191 C 
BRANCH  27  28
ATOM     28  O   UNL     1      40.674   0.847  25.307  1.00  0.00    -0.394 OA
ATOM     29  H   UNL     1      40.133   0.286  25.926  1.00  0.00     0.210 HD
ENDBRANCH  27  28
ENDBRANCH  21  27
BRANCH  22  30
ATOM     30  O   UNL     1      41.368  -2.041  26.491  1.00  0.00    -0.387 OA
ATOM     31  H   UNL     1      40.861  -1.566  25.786  1.00  0.00     0.211 HD
ENDBRANCH  22  30
ENDBRANCH   1  17
TORSDOF 10
ENDMDL
MODEL 2
REMARK VINA RESULT:    -5.227      3.886      8.508
REMARK INTER + INTRA:          -8.717
REMARK INTER:                  -7.228
REMARK INTRA:                  -1.489
REMARK UNBOUND:                -1.350
REMARK SMILES OC[C@@H]1O[C@H](O[C@H]2OC=C[C@H]3[C@H](O)[C@@H]4O[C@]4(CO)[C@@H]23)[C@H](O)[C@@H](O)[C@@H]1O
REMARK SMILES IDX 6 1 7 2 10 3 9 4 11 5 8 6 19 7 12 8 16 9 14 10 15 11 13 12
REMARK SMILES IDX 17 14 18 15 5 17 20 18 4 19 22 20 3 21 24 22 21 23 23 25
REMARK SMILES IDX 2 27 1 28 25 30
REMARK H PARENT 13 13 18 16 21 24 23 26 1 29 25 31
REMARK Flexibility Score: inf
ROOT
ATOM      1  O   UNL     1      43.091  -4.604  27.164  1.00  0.00    -0.310 OA
ENDROOT
BRANCH   1   2
ATOM      2  C   UNL     1      43.981  -5.551  27.735  1.00  0.00     0.315 C 
ATOM      3  C   UNL     1      45.639  -6.656  29.779  1.00  0.00     0.018 C 
ATOM      4  C   UNL     1      45.946  -5.483  29.222  1.00  0.00     0.186 C 
ATOM      5  C   UNL     1      44.322  -7.361  29.513  1.00  0.00     0.059 C 
ATOM      6  O   UNL     1      45.064  -4.852  28.342  1.00  0.00    -0.472 OA
ATOM      7  C   UNL     1      43.300  -6.473  28.776  1.00  0.00     0.105 C 
ATOM      8  C   UNL     1      43.641  -7.724  30.843  1.00  0.00     0.154 C 
ATOM      9  C   UNL     1      42.503  -5.792  29.902  1.00  0.00     0.130 C 
ATOM     10  C   UNL     1      42.694  -6.565  31.147  1.00  0.00     0.183 C 
ATOM     11  O   UNL     1      41.479  -6.606  30.428  1.00  0.00    -0.360 OA
BRANCH   8  12
ATOM     12  O   UNL     1      42.922  -8.921  30.699  1.00  0.00    -0.390 OA
ATOM     13  H   UNL     1      42.343  -8.808  29.900  1.00  0.00     0.211 HD
ENDBRANCH   8  12
BRANCH   9  14
ATOM     14  C   UNL     1      42.259  -4.285  30.071  1.00  0.00     0.195 C 
BRANCH  14  15
ATOM     15  O   UNL     1      41.123  -3.883  29.356  1.00  0.00    -0.393 OA
ATOM     16  H   UNL     1      41.133  -4.395  28.505  1.00  0.00     0.210 HD
ENDBRANCH  14  15
ENDBRANCH   9  14
ENDBRANCH   1   2
BRANCH   1  17
ATOM     17  C   UNL     1      43.758  -3.429  26.729  1.00  0.00     0.286 C 
ATOM     18  C   UNL     1      42.772  -2.230  26.760  1.00  0.00     0.202 C 
ATOM     19  O   UNL     1      44.214  -3.627  25.405  1.00  0.00    -0.341 OA
ATOM     20  C   UNL     1      43.057  -1.227  25.615  1.00  0.00     0.179 C 
ATOM     21  C   UNL     1      45.122  -2.604  25.020  1.00  0.00     0.178 C 
ATOM     22  C   UNL     1      44.569  -1.169  25.322  1.00  0.00     0.177 C 
BRANCH  18  23
ATOM     23  O   UNL     1      41.431  -2.653  26.714  1.00  0.00    -0.385 OA
ATOM     24  H   UNL     1      41.088  -2.463  25.800  1.00  0.00     0.211 HD
ENDBRANCH  18  23
BRANCH  20  25
ATOM     25  O   UNL     1      42.581   0.043  25.983  1.00  0.00    -0.387 OA
ATOM     26  H   UNL     1      43.328   0.684  25.846  1.00  0.00     0.211 HD
ENDBRANCH  20  25
BRANCH  21  27
ATOM     27  C   UNL     1      45.486  -2.826  23.542  1.00  0.00     0.191 C 
BRANCH  27  28
ATOM     28  O   UNL     1      46.741  -2.271  23.244  1.00  0.00    -0.394 OA
ATOM     29  H   UNL     1      47.191  -2.100  24.115  1.00  0.00     0.210 HD
ENDBRANCH  27  28
ENDBRANCH  21  27
BRANCH  22  30
ATOM     30  O   UNL     1      44.826  -0.279  24.263  1.00  0.00    -0.387 OA
ATOM     31  H   UNL     1      45.144   0.569  24.661  1.00  0.00     0.211 HD
ENDBRANCH  22  30
ENDBRANCH   1  17
TORSDOF 10
ENDMDL
MODEL 3
REMARK VINA RESULT:    -5.093      3.398      5.276
REMARK INTER + INTRA:          -8.528
REMARK INTER:                  -7.034
REMARK INTRA:                  -1.493
REMARK UNBOUND:                -1.350
REMARK SMILES OC[C@@H]1O[C@H](O[C@H]2OC=C[C@H]3[C@H](O)[C@@H]4O[C@]4(CO)[C@@H]23)[C@H](O)[C@@H](O)[C@@H]1O
REMARK SMILES IDX 6 1 7 2 10 3 9 4 11 5 8 6 19 7 12 8 16 9 14 10 15 11 13 12
REMARK SMILES IDX 17 14 18 15 5 17 20 18 4 19 22 20 3 21 24 22 21 23 23 25
REMARK SMILES IDX 2 27 1 28 25 30
REMARK H PARENT 13 13 18 16 21 24 23 26 1 29 25 31
REMARK Flexibility Score: inf
ROOT
ATOM      1  O   UNL     1      46.092  -1.895  25.223  1.00  0.00    -0.310 OA
ENDROOT
BRANCH   1   2
ATOM      2  C   UNL     1      46.783  -2.807  24.383  1.00  0.00     0.315 C 
ATOM      3  C   UNL     1      49.060  -4.211  23.388  1.00  0.00     0.018 C 
ATOM      4  C   UNL     1      48.973  -2.887  23.255  1.00  0.00     0.186 C 
ATOM      5  C   UNL     1      48.080  -5.008  24.228  1.00  0.00     0.059 C 
ATOM      6  O   UNL     1      47.950  -2.167  23.876  1.00  0.00    -0.472 OA
ATOM      7  C   UNL     1      47.173  -4.121  25.103  1.00  0.00     0.105 C 
ATOM      8  C   UNL     1      48.841  -5.896  25.226  1.00  0.00     0.154 C 
ATOM      9  C   UNL     1      47.933  -3.992  26.434  1.00  0.00     0.130 C 
ATOM     10  C   UNL     1      48.927  -5.082  26.515  1.00  0.00     0.183 C 
ATOM     11  O   UNL     1      47.746  -5.097  27.289  1.00  0.00    -0.360 OA
BRANCH   8  12
ATOM     12  O   UNL     1      48.130  -7.087  25.443  1.00  0.00    -0.390 OA
ATOM     13  H   UNL     1      48.361  -7.694  24.691  1.00  0.00     0.211 HD
ENDBRANCH   8  12
BRANCH   9  14
ATOM     14  C   UNL     1      48.297  -2.688  27.160  1.00  0.00     0.195 C 
BRANCH  14  15
ATOM     15  O   UNL     1      47.229  -2.247  27.953  1.00  0.00    -0.393 OA
ATOM     16  H   UNL     1      46.598  -1.786  27.341  1.00  0.00     0.210 HD
ENDBRANCH  14  15
ENDBRANCH   9  14
ENDBRANCH   1   2
BRANCH   1  17
ATOM     17  C   UNL     1      44.747  -2.285  25.454  1.00  0.00     0.286 C 
ATOM     18  C   UNL     1      43.799  -1.096  25.138  1.00  0.00     0.202 C 
ATOM     19  O   UNL     1      44.605  -2.649  26.813  1.00  0.00    -0.341 OA
ATOM     20  C   UNL     1      42.569  -1.081  26.078  1.00  0.00     0.179 C 
ATOM     21  C   UNL     1      43.366  -3.308  27.038  1.00  0.00     0.178 C 
ATOM     22  C   UNL     1      42.152  -2.522  26.433  1.00  0.00     0.177 C 
BRANCH  18  23
ATOM     23  O   UNL     1      44.471   0.139  25.195  1.00  0.00    -0.385 OA
ATOM     24  H   UNL     1      45.202   0.053  25.864  1.00  0.00     0.211 HD
ENDBRANCH  18  23
BRANCH  20  25
ATOM     25  O   UNL     1      41.510  -0.408  25.444  1.00  0.00    -0.387 OA
ATOM     26  H   UNL     1      41.748   0.557  25.428  1.00  0.00     0.211 HD
ENDBRANCH  20  25
BRANCH  21  27
ATOM     27  C   UNL     1      43.238  -3.572  28.548  1.00  0.00     0.191 C 
BRANCH  27  28
ATOM     28  O   UNL     1      43.085  -2.370  29.258  1.00  0.00    -0.394 OA
ATOM     29  H   UNL     1      43.217  -2.588  30.219  1.00  0.00     0.210 HD
ENDBRANCH  27  28
ENDBRANCH  21  27
BRANCH  22  30
ATOM     30  O   UNL     1      41.052  -2.509  27.310  1.00  0.00    -0.387 OA
ATOM     31  H   UNL     1      41.291  -3.067  28.091  1.00  0.00     0.211 HD
ENDBRANCH  22  30
ENDBRANCH   1  17
TORSDOF 10
ENDMDL
MODEL 4
REMARK VINA RESULT:    -5.092      3.338      4.821
REMARK INTER + INTRA:          -8.526
REMARK INTER:                  -6.966
REMARK INTRA:                  -1.560
REMARK UNBOUND:                -1.350
REMARK SMILES OC[C@@H]1O[C@H](O[C@H]2OC=C[C@H]3[C@H](O)[C@@H]4O[C@]4(CO)[C@@H]23)[C@H](O)[C@@H](O)[C@@H]1O
REMARK SMILES IDX 6 1 7 2 10 3 9 4 11 5 8 6 19 7 12 8 16 9 14 10 15 11 13 12
REMARK SMILES IDX 17 14 18 15 5 17 20 18 4 19 22 20 3 21 24 22 21 23 23 25
REMARK SMILES IDX 2 27 1 28 25 30
REMARK H PARENT 13 13 18 16 21 24 23 26 1 29 25 31
REMARK Flexibility Score: inf
ROOT
ATOM      1  O   UNL     1      44.043  -1.620  26.646  1.00  0.00    -0.310 OA
ENDROOT
BRANCH   1   2
ATOM      2  C   UNL     1      44.305  -2.128  25.347  1.00  0.00     0.315 C 
ATOM      3  C   UNL     1      45.619  -2.236  22.815  1.00  0.00     0.018 C 
ATOM      4  C   UNL     1      44.870  -1.182  23.142  1.00  0.00     0.186 C 
ATOM      5  C   UNL     1      45.974  -3.320  23.815  1.00  0.00     0.059 C 
ATOM      6  O   UNL     1      44.355  -1.037  24.432  1.00  0.00    -0.472 OA
ATOM      7  C   UNL     1      45.620  -2.942  25.267  1.00  0.00     0.105 C 
ATOM      8  C   UNL     1      47.495  -3.547  23.829  1.00  0.00     0.154 C 
ATOM      9  C   UNL     1      46.894  -2.273  25.810  1.00  0.00     0.130 C 
ATOM     10  C   UNL     1      48.032  -2.659  24.950  1.00  0.00     0.183 C 
ATOM     11  O   UNL     1      47.865  -3.198  26.245  1.00  0.00    -0.360 OA
BRANCH   8  12
ATOM     12  O   UNL     1      47.774  -4.897  24.095  1.00  0.00    -0.390 OA
ATOM     13  H   UNL     1      48.594  -4.910  24.656  1.00  0.00     0.211 HD
ENDBRANCH   8  12
BRANCH   9  14
ATOM     14  C   UNL     1      46.991  -0.895  26.483  1.00  0.00     0.195 C 
BRANCH  14  15
ATOM     15  O   UNL     1      46.663  -0.983  27.842  1.00  0.00    -0.393 OA
ATOM     16  H   UNL     1      46.586  -0.050  28.173  1.00  0.00     0.210 HD
ENDBRANCH  14  15
ENDBRANCH   9  14
ENDBRANCH   1   2
BRANCH   1  17
ATOM     17  C   UNL     1      42.918  -2.239  27.251  1.00  0.00     0.286 C 
ATOM     18  C   UNL     1      43.281  -2.679  28.695  1.00  0.00     0.202 C 
ATOM     19  O   UNL     1      42.559  -3.377  26.491  1.00  0.00    -0.341 OA
ATOM     20  C   UNL     1      42.556  -3.988  29.093  1.00  0.00     0.179 C 
ATOM     21  C   UNL     1      41.285  -3.870  26.883  1.00  0.00     0.178 C 
ATOM     22  C   UNL     1      41.163  -4.046  28.436  1.00  0.00     0.177 C 
BRANCH  18  23
ATOM     23  O   UNL     1      44.670  -2.821  28.867  1.00  0.00    -0.385 OA
ATOM     24  H   UNL     1      45.103  -2.614  27.995  1.00  0.00     0.211 HD
ENDBRANCH  18  23
BRANCH  20  25
ATOM     25  O   UNL     1      42.438  -4.045  30.493  1.00  0.00    -0.387 OA
ATOM     26  H   UNL     1      42.848  -3.214  30.853  1.00  0.00     0.211 HD
ENDBRANCH  20  25
BRANCH  21  27
ATOM     27  C   UNL     1      41.016  -5.162  26.093  1.00  0.00     0.191 C 
BRANCH  27  28
ATOM     28  O   UNL     1      42.048  -6.095  26.287  1.00  0.00    -0.394 OA
ATOM     29  H   UNL     1      42.123  -6.615  25.443  1.00  0.00     0.210 HD
ENDBRANCH  27  28
ENDBRANCH  21  27
BRANCH  22  30
ATOM     30  O   UNL     1      40.514  -5.248  28.773  1.00  0.00    -0.387 OA
ATOM     31  H   UNL     1      40.679  -5.888  28.037  1.00  0.00     0.211 HD
ENDBRANCH  22  30
ENDBRANCH   1  17
TORSDOF 10
ENDMDL
MODEL 5
REMARK VINA RESULT:    -5.056      6.439      9.510
REMARK INTER + INTRA:          -8.476
REMARK INTER:                  -7.069
REMARK INTRA:                  -1.408
REMARK UNBOUND:                -1.350
REMARK SMILES OC[C@@H]1O[C@H](O[C@H]2OC=C[C@H]3[C@H](O)[C@@H]4O[C@]4(CO)[C@@H]23)[C@H](O)[C@@H](O)[C@@H]1O
REMARK SMILES IDX 6 1 7 2 10 3 9 4 11 5 8 6 19 7 12 8 16 9 14 10 15 11 13 12
REMARK SMILES IDX 17 14 18 15 5 17 20 18 4 19 22 20 3 21 24 22 21 23 23 25
REMARK SMILES IDX 2 27 1 28 25 30
REMARK H PARENT 13 13 18 16 21 24 23 26 1 29 25 31
REMARK Flexibility Score: inf
ROOT
ATOM      1  O   UNL     1      54.579   0.115  29.677  1.00  0.00    -0.310 OA
ENDROOT
BRANCH   1   2
ATOM      2  C   UNL     1      54.391   1.115  28.689  1.00  0.00     0.315 C 
ATOM      3  C   UNL     1      53.913   2.113  26.057  1.00  0.00     0.018 C 
ATOM      4  C   UNL     1      55.031   1.437  26.330  1.00  0.00     0.186 C 
ATOM      5  C   UNL     1      52.767   2.218  27.045  1.00  0.00     0.059 C 
ATOM      6  O   UNL     1      55.206   0.805  27.563  1.00  0.00    -0.472 OA
ATOM      7  C   UNL     1      52.914   1.262  28.245  1.00  0.00     0.105 C 
ATOM      8  C   UNL     1      51.450   1.800  26.370  1.00  0.00     0.154 C 
ATOM      9  C   UNL     1      52.184  -0.019  27.806  1.00  0.00     0.130 C 
ATOM     10  C   UNL     1      51.281   0.316  26.685  1.00  0.00     0.183 C 
ATOM     11  O   UNL     1      50.787   0.052  27.982  1.00  0.00    -0.360 OA
BRANCH   8  12
ATOM     12  O   UNL     1      50.384   2.541  26.906  1.00  0.00    -0.390 OA
ATOM     13  H   UNL     1      49.979   3.040  26.148  1.00  0.00     0.211 HD
ENDBRANCH   8  12
BRANCH   9  14
ATOM     14  C   UNL     1      52.749  -1.447  27.818  1.00  0.00     0.195 C 
BRANCH  14  15
ATOM     15  O   UNL     1      52.529  -2.057  29.061  1.00  0.00    -0.393 OA
ATOM     16  H   UNL     1      51.624  -1.772  29.356  1.00  0.00     0.210 HD
ENDBRANCH  14  15
ENDBRANCH   9  14
ENDBRANCH   1   2
BRANCH   1  17
ATOM     17  C   UNL     1      54.073   0.505  30.945  1.00  0.00     0.286 C 
ATOM     18  C   UNL     1      55.096   0.129  32.051  1.00  0.00     0.202 C 
ATOM     19  O   UNL     1      52.857  -0.178  31.180  1.00  0.00    -0.341 OA
ATOM     20  C   UNL     1      54.390  -0.279  33.367  1.00  0.00     0.179 C 
ATOM     21  C   UNL     1      52.169   0.376  32.294  1.00  0.00     0.178 C 
ATOM     22  C   UNL     1      53.093   0.534  33.550  1.00  0.00     0.177 C 
BRANCH  18  23
ATOM     23  O   UNL     1      55.971  -0.890  31.631  1.00  0.00    -0.385 OA
ATOM     24  H   UNL     1      55.420  -1.607  31.216  1.00  0.00     0.211 HD
ENDBRANCH  18  23
BRANCH  20  25
ATOM     25  O   UNL     1      55.262  -0.058  34.448  1.00  0.00    -0.387 OA
ATOM     26  H   UNL     1      56.181  -0.003  34.072  1.00  0.00     0.211 HD
ENDBRANCH  20  25
BRANCH  21  27
ATOM     27  C   UNL     1      50.920  -0.483  32.552  1.00  0.00     0.191 C 
BRANCH  27  28
ATOM     28  O   UNL     1      51.237  -1.852  32.530  1.00  0.00    -0.394 OA
ATOM     29  H   UNL     1      51.188  -2.171  33.471  1.00  0.00     0.210 HD
ENDBRANCH  27  28
ENDBRANCH  21  27
BRANCH  22  30
ATOM     30  O   UNL     1      52.437   0.143  34.731  1.00  0.00    -0.387 OA
ATOM     31  H   UNL     1      52.764  -0.761  34.966  1.00  0.00     0.211 HD
ENDBRANCH  22  30
ENDBRANCH   1  17
TORSDOF 10
ENDMDL
MODEL 6
REMARK VINA RESULT:    -5.031      2.813      7.787
REMARK INTER + INTRA:          -8.440
REMARK INTER:                  -7.047
REMARK INTRA:                  -1.393
REMARK UNBOUND:                -1.350
REMARK SMILES OC[C@@H]1O[C@H](O[C@H]2OC=C[C@H]3[C@H](O)[C@@H]4O[C@]4(CO)[C@@H]23)[C@H](O)[C@@H](O)[C@@H]1O
REMARK SMILES IDX 6 1 7 2 10 3 9 4 11 5 8 6 19 7 12 8 16 9 14 10 15 11 13 12
REMARK SMILES IDX 17 14 18 15 5 17 20 18 4 19 22 20 3 21 24 22 21 23 23 25
REMARK SMILES IDX 2 27 1 28 25 30
REMARK H PARENT 13 13 18 16 21 24 23 26 1 29 25 31
REMARK Flexibility Score: inf
ROOT
ATOM      1  O   UNL     1      42.654  -2.629  26.130  1.00  0.00    -0.310 OA
ENDROOT
BRANCH   1   2
ATOM      2  C   UNL     1      41.995  -2.943  27.347  1.00  0.00     0.315 C 
ATOM      3  C   UNL     1      40.416  -4.536  29.112  1.00  0.00     0.018 C 
ATOM      4  C   UNL     1      39.879  -4.024  28.003  1.00  0.00     0.186 C 
ATOM      5  C   UNL     1      41.905  -4.474  29.396  1.00  0.00     0.059 C 
ATOM      6  O   UNL     1      40.673  -3.383  27.050  1.00  0.00    -0.472 OA
ATOM      7  C   UNL     1      42.734  -4.020  28.178  1.00  0.00     0.105 C 
ATOM      8  C   UNL     1      42.436  -5.877  29.731  1.00  0.00     0.154 C 
ATOM      9  C   UNL     1      43.106  -5.327  27.460  1.00  0.00     0.130 C 
ATOM     10  C   UNL     1      42.947  -6.448  28.410  1.00  0.00     0.183 C 
ATOM     11  O   UNL     1      44.222  -5.975  28.029  1.00  0.00    -0.360 OA
BRANCH   8  12
ATOM     12  O   UNL     1      43.483  -5.782  30.662  1.00  0.00    -0.390 OA
ATOM     13  H   UNL     1      43.434  -6.598  31.226  1.00  0.00     0.211 HD
ENDBRANCH   8  12
BRANCH   9  14
ATOM     14  C   UNL     1      42.875  -5.658  25.977  1.00  0.00     0.195 C 
BRANCH  14  15
ATOM     15  O   UNL     1      43.976  -5.268  25.205  1.00  0.00    -0.393 OA
ATOM     16  H   UNL     1      43.608  -4.846  24.385  1.00  0.00     0.210 HD
ENDBRANCH  14  15
ENDBRANCH   9  14
ENDBRANCH   1   2
BRANCH   1  17
ATOM     17  C   UNL     1      43.965  -2.125  26.339  1.00  0.00     0.286 C 
ATOM     18  C   UNL     1      43.963  -0.583  26.157  1.00  0.00     0.202 C 
ATOM     19  O   UNL     1      44.835  -2.708  25.389  1.00  0.00    -0.341 OA
ATOM     20  C   UNL     1      45.292  -0.079  25.542  1.00  0.00     0.179 C 
ATOM     21  C   UNL     1      46.194  -2.460  25.723  1.00  0.00     0.178 C 
ATOM     22  C   UNL     1      46.468  -0.948  26.031  1.00  0.00     0.177 C 
BRANCH  18  23
ATOM     23  O   UNL     1      42.873  -0.147  25.382  1.00  0.00    -0.385 OA
ATOM     24  H   UNL     1      43.210   0.030  24.463  1.00  0.00     0.211 HD
ENDBRANCH  18  23
BRANCH  20  25
ATOM     25  O   UNL     1      45.492   1.264  25.906  1.00  0.00    -0.387 OA
ATOM     26  H   UNL     1      45.902   1.719  25.123  1.00  0.00     0.211 HD
ENDBRANCH  20  25
BRANCH  21  27
ATOM     27  C   UNL     1      47.069  -3.027  24.593  1.00  0.00     0.191 C 
BRANCH  27  28
ATOM     28  O   UNL     1      46.690  -2.498  23.348  1.00  0.00    -0.394 OA
ATOM     29  H   UNL     1      45.916  -3.038  23.033  1.00  0.00     0.210 HD
ENDBRANCH  27  28
ENDBRANCH  21  27
BRANCH  22  30
ATOM     30  O   UNL     1      47.672  -0.509  25.450  1.00  0.00    -0.387 OA
ATOM     31  H   UNL     1      47.605  -0.669  24.476  1.00  0.00     0.211 HD
ENDBRANCH  22  30
ENDBRANCH   1  17
TORSDOF 10
ENDMDL
MODEL 7
REMARK VINA RESULT:    -4.969      7.715     11.205
REMARK INTER + INTRA:          -8.353
REMARK INTER:                  -6.873
REMARK INTRA:                  -1.480
REMARK UNBOUND:                -1.350
REMARK SMILES OC[C@@H]1O[C@H](O[C@H]2OC=C[C@H]3[C@H](O)[C@@H]4O[C@]4(CO)[C@@H]23)[C@H](O)[C@@H](O)[C@@H]1O
REMARK SMILES IDX 6 1 7 2 10 3 9 4 11 5 8 6 19 7 12 8 16 9 14 10 15 11 13 12
REMARK SMILES IDX 17 14 18 15 5 17 20 18 4 19 22 20 3 21 24 22 21 23 23 25
REMARK SMILES IDX 2 27 1 28 25 30
REMARK H PARENT 13 13 18 16 21 24 23 26 1 29 25 31
REMARK Flexibility Score: inf
ROOT
ATOM      1  O   UNL     1      54.964  -1.263  24.277  1.00  0.00    -0.310 OA
ENDROOT
BRANCH   1   2
ATOM      2  C   UNL     1      54.692  -0.222  25.201  1.00  0.00     0.315 C 
ATOM      3  C   UNL     1      53.078   1.312  26.987  1.00  0.00     0.018 C 
ATOM      4  C   UNL     1      52.807   1.291  25.681  1.00  0.00     0.186 C 
ATOM      5  C   UNL     1      54.107   0.392  27.617  1.00  0.00     0.059 C 
ATOM      6  O   UNL     1      53.480   0.423  24.820  1.00  0.00    -0.472 OA
ATOM      7  C   UNL     1      54.585  -0.721  26.664  1.00  0.00     0.105 C 
ATOM      8  C   UNL     1      53.486  -0.353  28.810  1.00  0.00     0.154 C 
ATOM      9  C   UNL     1      53.630  -1.895  26.936  1.00  0.00     0.130 C 
ATOM     10  C   UNL     1      52.983  -1.680  28.247  1.00  0.00     0.183 C 
ATOM     11  O   UNL     1      53.992  -2.653  28.069  1.00  0.00    -0.360 OA
BRANCH   8  12
ATOM     12  O   UNL     1      54.464  -0.575  29.794  1.00  0.00    -0.390 OA
ATOM     13  H   UNL     1      54.585   0.289  30.270  1.00  0.00     0.211 HD
ENDBRANCH   8  12
BRANCH   9  14
ATOM     14  C   UNL     1      52.809  -2.671  25.895  1.00  0.00     0.195 C 
BRANCH  14  15
ATOM     15  O   UNL     1      53.536  -3.764  25.405  1.00  0.00    -0.393 OA
ATOM     16  H   UNL     1      53.103  -4.028  24.552  1.00  0.00     0.210 HD
ENDBRANCH  14  15
ENDBRANCH   9  14
ENDBRANCH   1   2
BRANCH   1  17
ATOM     17  C   UNL     1      56.263  -1.812  24.446  1.00  0.00     0.286 C 
ATOM     18  C   UNL     1      57.171  -1.370  23.267  1.00  0.00     0.202 C 
ATOM     19  O   UNL     1      56.164  -3.222  24.458  1.00  0.00    -0.341 OA
ATOM     20  C   UNL     1      58.194  -2.470  22.890  1.00  0.00     0.179 C 
ATOM     21  C   UNL     1      57.378  -3.814  24.901  1.00  0.00     0.178 C 
ATOM     22  C   UNL     1      58.630  -3.245  24.149  1.00  0.00     0.177 C 
BRANCH  18  23
ATOM     23  O   UNL     1      56.420  -0.996  22.137  1.00  0.00    -0.385 OA
ATOM     24  H   UNL     1      56.098  -0.067  22.285  1.00  0.00     0.211 HD
ENDBRANCH  18  23
BRANCH  20  25
ATOM     25  O   UNL     1      59.307  -1.876  22.271  1.00  0.00    -0.387 OA
ATOM     26  H   UNL     1      59.843  -2.611  21.870  1.00  0.00     0.211 HD
ENDBRANCH  20  25
BRANCH  21  27
ATOM     27  C   UNL     1      57.230  -5.340  24.783  1.00  0.00     0.191 C 
BRANCH  27  28
ATOM     28  O   UNL     1      58.000  -5.997  25.758  1.00  0.00    -0.394 OA
ATOM     29  H   UNL     1      58.343  -5.294  26.372  1.00  0.00     0.210 HD
ENDBRANCH  27  28
ENDBRANCH  21  27
BRANCH  22  30
ATOM     30  O   UNL     1      59.537  -4.264  23.804  1.00  0.00    -0.387 OA
ATOM     31  H   UNL     1      60.278  -3.841  23.301  1.00  0.00     0.211 HD
ENDBRANCH  22  30
ENDBRANCH   1  17
TORSDOF 10
ENDMDL
MODEL 8
REMARK VINA RESULT:    -4.967      7.606     10.196
REMARK INTER + INTRA:          -8.349
REMARK INTER:                  -6.931
REMARK INTRA:                  -1.418
REMARK UNBOUND:                -1.350
REMARK SMILES OC[C@@H]1O[C@H](O[C@H]2OC=C[C@H]3[C@H](O)[C@@H]4O[C@]4(CO)[C@@H]23)[C@H](O)[C@@H](O)[C@@H]1O
REMARK SMILES IDX 6 1 7 2 10 3 9 4 11 5 8 6 19 7 12 8 16 9 14 10 15 11 13 12
REMARK SMILES IDX 17 14 18 15 5 17 20 18 4 19 22 20 3 21 24 22 21 23 23 25
REMARK SMILES IDX 2 27 1 28 25 30
REMARK H PARENT 13 13 18 16 21 24 23 26 1 29 25 31
REMARK Flexibility Score: inf
ROOT
ATOM      1  O   UNL     1      54.863  -1.340  25.739  1.00  0.00    -0.310 OA
ENDROOT
BRANCH   1   2
ATOM      2  C   UNL     1      54.443  -2.689  25.604  1.00  0.00     0.315 C 
ATOM      3  C   UNL     1      53.811  -5.086  24.189  1.00  0.00     0.018 C 
ATOM      4  C   UNL     1      53.082  -3.983  24.008  1.00  0.00     0.186 C 
ATOM      5  C   UNL     1      55.104  -5.082  24.982  1.00  0.00     0.059 C 
ATOM      6  O   UNL     1      53.473  -2.763  24.564  1.00  0.00    -0.472 OA
ATOM      7  C   UNL     1      55.610  -3.662  25.307  1.00  0.00     0.105 C 
ATOM      8  C   UNL     1      56.232  -5.719  24.153  1.00  0.00     0.154 C 
ATOM      9  C   UNL     1      56.537  -3.308  24.133  1.00  0.00     0.130 C 
ATOM     10  C   UNL     1      56.930  -4.558  23.450  1.00  0.00     0.183 C 
ATOM     11  O   UNL     1      57.834  -3.844  24.268  1.00  0.00    -0.360 OA
BRANCH   8  12
ATOM     12  O   UNL     1      57.128  -6.389  25.002  1.00  0.00    -0.390 OA
ATOM     13  H   UNL     1      57.655  -7.004  24.427  1.00  0.00     0.211 HD
ENDBRANCH   8  12
BRANCH   9  14
ATOM     14  C   UNL     1      56.465  -2.049  23.254  1.00  0.00     0.195 C 
BRANCH  14  15
ATOM     15  O   UNL     1      57.037  -0.952  23.911  1.00  0.00    -0.393 OA
ATOM     16  H   UNL     1      56.498  -0.807  24.732  1.00  0.00     0.210 HD
ENDBRANCH  14  15
ENDBRANCH   9  14
ENDBRANCH   1   2
BRANCH   1  17
ATOM     17  C   UNL     1      53.825  -0.494  26.208  1.00  0.00     0.286 C 
ATOM     18  C   UNL     1      53.928   0.890  25.512  1.00  0.00     0.202 C 
ATOM     19  O   UNL     1      53.969  -0.327  27.605  1.00  0.00    -0.341 OA
ATOM     20  C   UNL     1      53.492   2.038  26.455  1.00  0.00     0.179 C 
ATOM     21  C   UNL     1      52.810   0.274  28.169  1.00  0.00     0.178 C 
ATOM     22  C   UNL     1      52.364   1.559  27.390  1.00  0.00     0.177 C 
BRANCH  18  23
ATOM     23  O   UNL     1      55.222   1.133  25.015  1.00  0.00    -0.385 OA
ATOM     24  H   UNL     1      55.376   2.115  25.046  1.00  0.00     0.211 HD
ENDBRANCH  18  23
BRANCH  20  25
ATOM     25  O   UNL     1      53.057   3.131  25.685  1.00  0.00    -0.387 OA
ATOM     26  H   UNL     1      53.233   3.951  26.219  1.00  0.00     0.211 HD
ENDBRANCH  20  25
BRANCH  21  27
ATOM     27  C   UNL     1      53.084   0.521  29.661  1.00  0.00     0.191 C 
BRANCH  27  28
ATOM     28  O   UNL     1      54.222   1.325  29.838  1.00  0.00    -0.394 OA
ATOM     29  H   UNL     1      53.898   2.215  30.143  1.00  0.00     0.210 HD
ENDBRANCH  27  28
ENDBRANCH  21  27
BRANCH  22  30
ATOM     30  O   UNL     1      51.988   2.594  28.267  1.00  0.00    -0.387 OA
ATOM     31  H   UNL     1      51.006   2.540  28.382  1.00  0.00     0.211 HD
ENDBRANCH  22  30
ENDBRANCH   1  17
TORSDOF 10
ENDMDL
MODEL 9
REMARK VINA RESULT:    -4.865     10.970     13.346
REMARK INTER + INTRA:          -8.207
REMARK INTER:                  -6.727
REMARK INTRA:                  -1.479
REMARK UNBOUND:                -1.350
REMARK SMILES OC[C@@H]1O[C@H](O[C@H]2OC=C[C@H]3[C@H](O)[C@@H]4O[C@]4(CO)[C@@H]23)[C@H](O)[C@@H](O)[C@@H]1O
REMARK SMILES IDX 6 1 7 2 10 3 9 4 11 5 8 6 19 7 12 8 16 9 14 10 15 11 13 12
REMARK SMILES IDX 17 14 18 15 5 17 20 18 4 19 22 20 3 21 24 22 21 23 23 25
REMARK SMILES IDX 2 27 1 28 25 30
REMARK H PARENT 13 13 18 16 21 24 23 26 1 29 25 31
REMARK Flexibility Score: inf
ROOT
ATOM      1  O   UNL     1      50.432  -8.571  18.798  1.00  0.00    -0.310 OA
ENDROOT
BRANCH   1   2
ATOM      2  C   UNL     1      49.589  -7.904  17.872  1.00  0.00     0.315 C 
ATOM      3  C   UNL     1      48.578  -7.244  15.286  1.00  0.00     0.018 C 
ATOM      4  C   UNL     1      49.830  -6.928  15.622  1.00  0.00     0.186 C 
ATOM      5  C   UNL     1      47.702  -8.125  16.157  1.00  0.00     0.059 C 
ATOM      6  O   UNL     1      50.392  -7.385  16.816  1.00  0.00    -0.472 OA
ATOM      7  C   UNL     1      48.481  -8.818  17.292  1.00  0.00     0.105 C 
ATOM      8  C   UNL     1      47.119  -9.277  15.322  1.00  0.00     0.154 C 
ATOM      9  C   UNL     1      48.925 -10.161  16.688  1.00  0.00     0.130 C 
ATOM     10  C   UNL     1      48.083 -10.447  15.508  1.00  0.00     0.183 C 
ATOM     11  O   UNL     1      47.917 -11.145  16.724  1.00  0.00    -0.360 OA
BRANCH   8  12
ATOM     12  O   UNL     1      45.841  -9.612  15.798  1.00  0.00    -0.390 OA
ATOM     13  H   UNL     1      45.817  -9.342  16.754  1.00  0.00     0.211 HD
ENDBRANCH   8  12
BRANCH   9  14
ATOM     14  C   UNL     1      50.354 -10.724  16.652  1.00  0.00     0.195 C 
BRANCH  14  15
ATOM     15  O   UNL     1      50.664 -11.366  17.858  1.00  0.00    -0.393 OA
ATOM     16  H   UNL     1      50.411 -12.319  17.741  1.00  0.00     0.210 HD
ENDBRANCH  14  15
ENDBRANCH   9  14
ENDBRANCH   1   2
BRANCH   1  17
ATOM     17  C   UNL     1      51.571  -7.799  19.147  1.00  0.00     0.286 C 
ATOM     18  C   UNL     1      52.784  -8.739  19.385  1.00  0.00     0.202 C 
ATOM     19  O   UNL     1      51.291  -7.086  20.336  1.00  0.00    -0.341 OA
ATOM     20  C   UNL     1      53.716  -8.198  20.497  1.00  0.00     0.179 C 
ATOM     21  C   UNL     1      52.278  -6.091  20.578  1.00  0.00     0.178 C 
ATOM     22  C   UNL     1      53.736  -6.657  20.473  1.00  0.00     0.177 C 
BRANCH  18  23
ATOM     23  O   UNL     1      52.379 -10.052  19.685  1.00  0.00    -0.385 OA
ATOM     24  H   UNL     1      52.999 -10.672  19.215  1.00  0.00     0.211 HD
ENDBRANCH  18  23
BRANCH  20  25
ATOM     25  O   UNL     1      55.012  -8.707  20.303  1.00  0.00    -0.387 OA
ATOM     26  H   UNL     1      55.004  -9.650  20.619  1.00  0.00     0.211 HD
ENDBRANCH  20  25
BRANCH  21  27
ATOM     27  C   UNL     1      51.967  -5.437  21.934  1.00  0.00     0.191 C 
BRANCH  27  28
ATOM     28  O   UNL     1      52.135  -6.354  22.985  1.00  0.00    -0.394 OA
ATOM     29  H   UNL     1      51.775  -5.917  23.804  1.00  0.00     0.210 HD
ENDBRANCH  27  28
ENDBRANCH  21  27
BRANCH  22  30
ATOM     30  O   UNL     1      54.560  -6.165  21.501  1.00  0.00    -0.387 OA
ATOM     31  H   UNL     1      54.116  -6.373  22.360  1.00  0.00     0.211 HD
ENDBRANCH  22  30
ENDBRANCH   1  17
TORSDOF 10
ENDMDL
