MODEL 1
REMARK VINA RESULT:     0.585      0.000      0.000
REMARK INTER + INTRA:           0.748
REMARK INTER:                   0.722
REMARK INTRA:                   0.026
REMARK UNBOUND:                 0.026
REMARK SMILES Oc1cc(O)c2cc(O)c(-c3cc(O)c(O)c(O)c3)[o+]c2c1
REMARK SMILES IDX 10 1 20 2 21 3 22 4 2 5 3 6 4 7 6 8 7 9 8 10 11 11 12 12
REMARK SMILES IDX 13 13 19 14 15 15 17 16 14 17 16 19 18 21 9 23 1 25 5 27
REMARK H PARENT 14 18 16 20 18 22 9 24 1 26 5 28
REMARK Flexibility Score: inf
ROOT
ATOM      1  C   UNL     1      13.710  39.125 -11.280  1.00  0.00     0.402 A 
ATOM      2  O   UNL     1      14.464  40.163 -11.630  1.00  0.00    -0.202 OA
ATOM      3  C   UNL     1      15.561  40.051 -12.373  1.00  0.00     0.368 A 
ATOM      4  C   UNL     1      16.290  41.200 -12.686  1.00  0.00     0.162 A 
ATOM      5  C   UNL     1      17.449  41.111 -13.463  1.00  0.00     0.128 A 
ATOM      6  C   UNL     1      17.881  39.866 -13.927  1.00  0.00     0.093 A 
ATOM      7  C   UNL     1      17.168  38.699 -13.627  1.00  0.00     0.136 A 
ATOM      8  C   UNL     1      15.990  38.785 -12.840  1.00  0.00     0.125 A 
ATOM      9  C   UNL     1      15.205  37.671 -12.500  1.00  0.00     0.078 A 
ATOM     10  C   UNL     1      14.053  37.835 -11.726  1.00  0.00     0.223 A 
ENDROOT
BRANCH   1  11
ATOM     11  C   UNL     1      12.517  39.377 -10.441  1.00  0.00     0.091 A 
ATOM     12  C   UNL     1      12.632  40.188  -9.305  1.00  0.00     0.068 A 
ATOM     13  C   UNL     1      11.523  40.427  -8.484  1.00  0.00     0.162 A 
ATOM     14  C   UNL     1      11.281  38.775 -10.727  1.00  0.00     0.068 A 
ATOM     15  C   UNL     1      10.283  39.844  -8.782  1.00  0.00     0.200 A 
ATOM     16  C   UNL     1      10.164  39.002  -9.914  1.00  0.00     0.162 A 
BRANCH  13  17
ATOM     17  O   UNL     1      11.643  41.249  -7.365  1.00  0.00    -0.504 OA
ATOM     18  H   UNL     1      11.942  40.885  -6.468  1.00  0.00     0.293 HD
ENDBRANCH  13  17
BRANCH  15  19
ATOM     19  O   UNL     1       9.207  40.121  -7.936  1.00  0.00    -0.502 OA
ATOM     20  H   UNL     1       8.404  39.518  -7.827  1.00  0.00     0.293 HD
ENDBRANCH  15  19
BRANCH  16  21
ATOM     21  O   UNL     1       8.969  38.369 -10.261  1.00  0.00    -0.504 OA
ATOM     22  H   UNL     1       8.626  37.526  -9.823  1.00  0.00     0.293 HD
ENDBRANCH  16  21
ENDBRANCH   1  11
BRANCH  10  23
ATOM     23  O   UNL     1      13.246  36.736 -11.430  1.00  0.00    -0.500 OA
ATOM     24  H   UNL     1      12.428  36.510 -11.985  1.00  0.00     0.294 HD
ENDBRANCH  10  23
BRANCH   5  25
ATOM     25  O   UNL     1      18.181  42.253 -13.780  1.00  0.00    -0.507 OA
ATOM     26  H   UNL     1      18.641  42.355 -14.678  1.00  0.00     0.293 HD
ENDBRANCH   5  25
BRANCH   7  27
ATOM     27  O   UNL     1      17.669  37.493 -14.125  1.00  0.00    -0.507 OA
ATOM     28  H   UNL     1      18.499  37.411 -14.693  1.00  0.00     0.293 HD
ENDBRANCH   7  27
TORSDOF 7
ENDMDL
MODEL 2
REMARK VINA RESULT:     0.663      0.091      1.801
REMARK INTER + INTRA:           0.844
REMARK INTER:                   0.833
REMARK INTRA:                   0.011
REMARK UNBOUND:                 0.026
REMARK SMILES Oc1cc(O)c2cc(O)c(-c3cc(O)c(O)c(O)c3)[o+]c2c1
REMARK SMILES IDX 10 1 20 2 21 3 22 4 2 5 3 6 4 7 6 8 7 9 8 10 11 11 12 12
REMARK SMILES IDX 13 13 19 14 15 15 17 16 14 17 16 19 18 21 9 23 1 25 5 27
REMARK H PARENT 14 18 16 20 18 22 9 24 1 26 5 28
REMARK Flexibility Score: inf
ROOT
ATOM      1  C   UNL     1      13.768  39.114 -11.232  1.00  0.00     0.402 A 
ATOM      2  O   UNL     1      14.522  40.143 -11.610  1.00  0.00    -0.202 OA
ATOM      3  C   UNL     1      15.605  40.014 -12.370  1.00  0.00     0.368 A 
ATOM      4  C   UNL     1      16.335  41.155 -12.711  1.00  0.00     0.162 A 
ATOM      5  C   UNL     1      17.480  41.049 -13.507  1.00  0.00     0.128 A 
ATOM      6  C   UNL     1      17.896  39.795 -13.961  1.00  0.00     0.093 A 
ATOM      7  C   UNL     1      17.182  38.636 -13.633  1.00  0.00     0.136 A 
ATOM      8  C   UNL     1      16.018  38.740 -12.827  1.00  0.00     0.125 A 
ATOM      9  C   UNL     1      15.233  37.635 -12.459  1.00  0.00     0.078 A 
ATOM     10  C   UNL     1      14.095  37.817 -11.667  1.00  0.00     0.223 A 
ENDROOT
BRANCH   1  11
ATOM     11  C   UNL     1      12.591  39.386 -10.377  1.00  0.00     0.091 A 
ATOM     12  C   UNL     1      11.348  38.836 -10.719  1.00  0.00     0.068 A 
ATOM     13  C   UNL     1      10.216  39.093  -9.937  1.00  0.00     0.162 A 
ATOM     14  C   UNL     1      12.678  40.230  -9.258  1.00  0.00     0.068 A 
ATOM     15  C   UNL     1      10.307  39.918  -8.807  1.00  0.00     0.200 A 
ATOM     16  C   UNL     1      11.553  40.499  -8.469  1.00  0.00     0.162 A 
BRANCH  13  17
ATOM     17  O   UNL     1       8.987  38.528 -10.276  1.00  0.00    -0.504 OA
ATOM     18  H   UNL     1       8.411  38.058  -9.589  1.00  0.00     0.293 HD
ENDBRANCH  13  17
BRANCH  15  19
ATOM     19  O   UNL     1       9.150  40.136  -8.057  1.00  0.00    -0.502 OA
ATOM     20  H   UNL     1       9.055  40.861  -7.361  1.00  0.00     0.293 HD
ENDBRANCH  15  19
BRANCH  16  21
ATOM     21  O   UNL     1      11.717  41.348  -7.372  1.00  0.00    -0.504 OA
ATOM     22  H   UNL     1      11.537  42.341  -7.393  1.00  0.00     0.293 HD
ENDBRANCH  16  21
ENDBRANCH   1  11
BRANCH  10  23
ATOM     23  O   UNL     1      13.287  36.726 -11.342  1.00  0.00    -0.500 OA
ATOM     24  H   UNL     1      13.664  35.898 -10.896  1.00  0.00     0.294 HD
ENDBRANCH  10  23
BRANCH   5  25
ATOM     25  O   UNL     1      18.213  42.181 -13.851  1.00  0.00    -0.507 OA
ATOM     26  H   UNL     1      18.675  42.260 -14.751  1.00  0.00     0.293 HD
ENDBRANCH   5  25
BRANCH   7  27
ATOM     27  O   UNL     1      17.667  37.420 -14.123  1.00  0.00    -0.507 OA
ATOM     28  H   UNL     1      18.364  36.856 -13.660  1.00  0.00     0.293 HD
ENDBRANCH   7  27
TORSDOF 7
ENDMDL
MODEL 3
REMARK VINA RESULT:     0.933      1.010      6.941
REMARK INTER + INTRA:           1.177
REMARK INTER:                   1.115
REMARK INTRA:                   0.062
REMARK UNBOUND:                 0.026
REMARK SMILES Oc1cc(O)c2cc(O)c(-c3cc(O)c(O)c(O)c3)[o+]c2c1
REMARK SMILES IDX 10 1 20 2 21 3 22 4 2 5 3 6 4 7 6 8 7 9 8 10 11 11 12 12
REMARK SMILES IDX 13 13 19 14 15 15 17 16 14 17 16 19 18 21 9 23 1 25 5 27
REMARK H PARENT 14 18 16 20 18 22 9 24 1 26 5 28
REMARK Flexibility Score: inf
ROOT
ATOM      1  C   UNL     1      14.128  39.340 -11.652  1.00  0.00     0.402 A 
ATOM      2  O   UNL     1      13.900  39.929 -10.481  1.00  0.00    -0.202 OA
ATOM      3  C   UNL     1      12.747  39.831  -9.826  1.00  0.00     0.368 A 
ATOM      4  C   UNL     1      12.603  40.490  -8.603  1.00  0.00     0.162 A 
ATOM      5  C   UNL     1      11.400  40.407  -7.895  1.00  0.00     0.128 A 
ATOM      6  C   UNL     1      10.338  39.662  -8.413  1.00  0.00     0.093 A 
ATOM      7  C   UNL     1      10.458  38.993  -9.637  1.00  0.00     0.136 A 
ATOM      8  C   UNL     1      11.677  39.073 -10.359  1.00  0.00     0.125 A 
ATOM      9  C   UNL     1      11.892  38.425 -11.587  1.00  0.00     0.078 A 
ATOM     10  C   UNL     1      13.124  38.546 -12.237  1.00  0.00     0.223 A 
ENDROOT
BRANCH   1  11
ATOM     11  C   UNL     1      15.451  39.532 -12.288  1.00  0.00     0.091 A 
ATOM     12  C   UNL     1      16.020  40.812 -12.323  1.00  0.00     0.068 A 
ATOM     13  C   UNL     1      17.261  41.023 -12.935  1.00  0.00     0.162 A 
ATOM     14  C   UNL     1      16.125  38.468 -12.909  1.00  0.00     0.068 A 
ATOM     15  C   UNL     1      17.945  39.957 -13.536  1.00  0.00     0.200 A 
ATOM     16  C   UNL     1      17.365  38.665 -13.528  1.00  0.00     0.162 A 
BRANCH  13  17
ATOM     17  O   UNL     1      17.826  42.297 -12.950  1.00  0.00    -0.504 OA
ATOM     18  H   UNL     1      17.983  42.798 -13.816  1.00  0.00     0.293 HD
ENDBRANCH  13  17
BRANCH  15  19
ATOM     19  O   UNL     1      19.183  40.220 -14.125  1.00  0.00    -0.502 OA
ATOM     20  H   UNL     1      19.996  40.538 -13.616  1.00  0.00     0.293 HD
ENDBRANCH  15  19
BRANCH  16  21
ATOM     21  O   UNL     1      17.976  37.560 -14.124  1.00  0.00    -0.504 OA
ATOM     22  H   UNL     1      17.796  36.602 -13.859  1.00  0.00     0.293 HD
ENDBRANCH  16  21
ENDBRANCH   1  11
BRANCH  10  23
ATOM     23  O   UNL     1      13.354  37.862 -13.431  1.00  0.00    -0.500 OA
ATOM     24  H   UNL     1      12.618  37.717 -14.112  1.00  0.00     0.294 HD
ENDBRANCH  10  23
BRANCH   5  25
ATOM     25  O   UNL     1      11.249  41.060  -6.674  1.00  0.00    -0.507 OA
ATOM     26  H   UNL     1      10.433  40.911  -6.091  1.00  0.00     0.293 HD
ENDBRANCH   5  25
BRANCH   7  27
ATOM     27  O   UNL     1       9.347  38.274 -10.089  1.00  0.00    -0.507 OA
ATOM     28  H   UNL     1       9.019  38.272 -11.043  1.00  0.00     0.293 HD
ENDBRANCH   7  27
TORSDOF 7
ENDMDL
MODEL 4
REMARK VINA RESULT:     3.074      1.095      3.180
REMARK INTER + INTRA:           3.819
REMARK INTER:                   3.775
REMARK INTRA:                   0.044
REMARK UNBOUND:                 0.026
REMARK SMILES Oc1cc(O)c2cc(O)c(-c3cc(O)c(O)c(O)c3)[o+]c2c1
REMARK SMILES IDX 10 1 20 2 21 3 22 4 2 5 3 6 4 7 6 8 7 9 8 10 11 11 12 12
REMARK SMILES IDX 13 13 19 14 15 15 17 16 14 17 16 19 18 21 9 23 1 25 5 27
REMARK H PARENT 14 18 16 20 18 22 9 24 1 26 5 28
REMARK Flexibility Score: inf
ROOT
ATOM      1  C   UNL     1      13.868  39.674 -11.029  1.00  0.00     0.402 A 
ATOM      2  O   UNL     1      14.234  38.493 -11.520  1.00  0.00    -0.202 OA
ATOM      3  C   UNL     1      15.276  38.331 -12.331  1.00  0.00     0.368 A 
ATOM      4  C   UNL     1      15.579  37.051 -12.799  1.00  0.00     0.162 A 
ATOM      5  C   UNL     1      16.667  36.851 -13.654  1.00  0.00     0.128 A 
ATOM      6  C   UNL     1      17.453  37.938 -14.044  1.00  0.00     0.093 A 
ATOM      7  C   UNL     1      17.169  39.231 -13.589  1.00  0.00     0.136 A 
ATOM      8  C   UNL     1      16.068  39.438 -12.718  1.00  0.00     0.125 A 
ATOM      9  C   UNL     1      15.717  40.696 -12.202  1.00  0.00     0.078 A 
ATOM     10  C   UNL     1      14.620  40.821 -11.345  1.00  0.00     0.223 A 
ENDROOT
BRANCH   1  11
ATOM     11  C   UNL     1      12.683  39.727 -10.143  1.00  0.00     0.091 A 
ATOM     12  C   UNL     1      11.514  39.051 -10.514  1.00  0.00     0.068 A 
ATOM     13  C   UNL     1      10.374  39.102  -9.704  1.00  0.00     0.162 A 
ATOM     14  C   UNL     1      12.685  40.490  -8.964  1.00  0.00     0.068 A 
ATOM     15  C   UNL     1      10.382  39.844  -8.515  1.00  0.00     0.200 A 
ATOM     16  C   UNL     1      11.551  40.553  -8.145  1.00  0.00     0.162 A 
BRANCH  13  17
ATOM     17  O   UNL     1       9.221  38.411 -10.074  1.00  0.00    -0.504 OA
ATOM     18  H   UNL     1       8.300  38.823  -9.973  1.00  0.00     0.293 HD
ENDBRANCH  13  17
BRANCH  15  19
ATOM     19  O   UNL     1       9.222  39.855  -7.739  1.00  0.00    -0.502 OA
ATOM     20  H   UNL     1       8.293  39.705  -8.107  1.00  0.00     0.293 HD
ENDBRANCH  15  19
BRANCH  16  21
ATOM     21  O   UNL     1      11.628  41.330  -6.988  1.00  0.00    -0.504 OA
ATOM     22  H   UNL     1      12.445  41.857  -6.713  1.00  0.00     0.293 HD
ENDBRANCH  16  21
ENDBRANCH   1  11
BRANCH  10  23
ATOM     23  O   UNL     1      14.301  42.062 -10.793  1.00  0.00    -0.500 OA
ATOM     24  H   UNL     1      14.435  42.925 -11.308  1.00  0.00     0.294 HD
ENDBRANCH  10  23
BRANCH   5  25
ATOM     25  O   UNL     1      16.976  35.577 -14.125  1.00  0.00    -0.507 OA
ATOM     26  H   UNL     1      17.188  35.410 -15.102  1.00  0.00     0.293 HD
ENDBRANCH   5  25
BRANCH   7  27
ATOM     27  O   UNL     1      18.001  40.265 -14.029  1.00  0.00    -0.507 OA
ATOM     28  H   UNL     1      17.949  41.218 -13.700  1.00  0.00     0.293 HD
ENDBRANCH   7  27
TORSDOF 7
ENDMDL
