MODEL 1
REMARK VINA RESULT:    -6.410      0.000      0.000
REMARK INTER + INTRA:         -10.564
REMARK INTER:                  -9.221
REMARK INTRA:                  -1.343
REMARK UNBOUND:                -1.343
REMARK SMILES O=c1c(O[C@H]2O[C@@H](CO)[C@H](O)[C@H](O)[C@H]2O)c(-c2ccc(O)cc2)oc2cc(O)cc(O)c12
REMARK SMILES IDX 4 1 3 2 16 3 24 4 2 5 25 6 1 7 32 8 26 9 30 10 27 11 29 12
REMARK SMILES IDX 17 13 18 14 19 15 20 16 23 17 22 18 21 19 31 21 28 23 5 25
REMARK SMILES IDX 14 26 6 27 12 28 7 29 10 30 15 31 13 33 8 35 9 36 11 38
REMARK H PARENT 21 20 31 22 28 24 15 32 13 34 9 37 11 39
REMARK Flexibility Score: inf
ROOT
ATOM      1  O   UNL     1      14.834  -3.570 -12.166  1.00  0.00    -0.454 OA
ENDROOT
BRANCH   1   2
ATOM      2  C   UNL     1      15.527  -2.741 -11.258  1.00  0.00     0.214 A 
ATOM      3  C   UNL     1      15.535  -1.350 -11.496  1.00  0.00     0.180 A 
ATOM      4  O   UNL     1      16.244  -0.544 -10.713  1.00  0.00    -0.452 OA
ATOM      5  C   UNL     1      16.244  -3.232 -10.140  1.00  0.00     0.239 A 
ATOM      6  C   UNL     1      16.945  -0.966  -9.669  1.00  0.00     0.146 A 
ATOM      7  O   UNL     1      16.233  -4.459  -9.861  1.00  0.00    -0.285 OA
ATOM      8  C   UNL     1      16.971  -2.337  -9.330  1.00  0.00     0.111 A 
ATOM      9  C   UNL     1      17.651  -0.034  -8.903  1.00  0.00     0.094 A 
ATOM     10  C   UNL     1      17.726  -2.753  -8.203  1.00  0.00     0.134 A 
ATOM     11  C   UNL     1      18.393  -0.451  -7.791  1.00  0.00     0.123 A 
ATOM     12  C   UNL     1      18.432  -1.802  -7.451  1.00  0.00     0.093 A 
BRANCH   3  13
ATOM     13  C   UNL     1      14.773  -0.738 -12.607  1.00  0.00     0.021 A 
ATOM     14  C   UNL     1      13.369  -0.640 -12.566  1.00  0.00     0.016 A 
ATOM     15  C   UNL     1      12.675  -0.015 -13.607  1.00  0.00     0.047 A 
ATOM     16  C   UNL     1      13.369   0.537 -14.687  1.00  0.00     0.115 A 
ATOM     17  C   UNL     1      15.468  -0.157 -13.683  1.00  0.00     0.016 A 
ATOM     18  C   UNL     1      14.769   0.469 -14.721  1.00  0.00     0.047 A 
BRANCH  16  19
ATOM     19  O   UNL     1      12.663   1.157 -15.715  1.00  0.00    -0.508 OA
ATOM     20  H   UNL     1      11.875   0.705 -16.164  1.00  0.00     0.293 HD
ENDBRANCH  16  19
ENDBRANCH   3  13
BRANCH  10  21
ATOM     21  O   UNL     1      17.778  -4.095  -7.829  1.00  0.00    -0.507 OA
ATOM     22  H   UNL     1      17.385  -4.827  -8.410  1.00  0.00     0.293 HD
ENDBRANCH  10  21
BRANCH  11  23
ATOM     23  O   UNL     1      19.091   0.474  -7.017  1.00  0.00    -0.508 OA
ATOM     24  H   UNL     1      19.510   1.301  -7.429  1.00  0.00     0.293 HD
ENDBRANCH  11  23
ENDBRANCH   1   2
BRANCH   1  25
ATOM     25  C   UNL     1      15.299  -4.002 -13.444  1.00  0.00     0.339 C 
ATOM     26  C   UNL     1      15.521  -5.527 -13.422  1.00  0.00     0.214 C 
ATOM     27  O   UNL     1      16.514  -3.333 -13.743  1.00  0.00    -0.332 OA
ATOM     28  C   UNL     1      16.060  -5.986 -14.795  1.00  0.00     0.180 C 
ATOM     29  C   UNL     1      16.932  -3.626 -15.063  1.00  0.00     0.179 C 
ATOM     30  C   UNL     1      17.296  -5.123 -15.170  1.00  0.00     0.177 C 
BRANCH  26  31
ATOM     31  O   UNL     1      16.427  -5.855 -12.400  1.00  0.00    -0.384 OA
ATOM     32  H   UNL     1      16.679  -6.805 -12.539  1.00  0.00     0.211 HD
ENDBRANCH  26  31
BRANCH  28  33
ATOM     33  O   UNL     1      15.020  -5.874 -15.739  1.00  0.00    -0.387 OA
ATOM     34  H   UNL     1      14.983  -4.937 -16.075  1.00  0.00     0.211 HD
ENDBRANCH  28  33
BRANCH  29  35
ATOM     35  C   UNL     1      18.136  -2.739 -15.402  1.00  0.00     0.191 C 
BRANCH  35  36
ATOM     36  O   UNL     1      18.294  -2.673 -16.794  1.00  0.00    -0.394 OA
ATOM     37  H   UNL     1      17.940  -1.785 -17.063  1.00  0.00     0.210 HD
ENDBRANCH  35  36
ENDBRANCH  29  35
BRANCH  30  38
ATOM     38  O   UNL     1      17.753  -5.426 -16.465  1.00  0.00    -0.387 OA
ATOM     39  H   UNL     1      18.232  -6.293 -16.404  1.00  0.00     0.211 HD
ENDBRANCH  30  38
ENDBRANCH   1  25
TORSDOF 11
ENDMDL
MODEL 2
REMARK VINA RESULT:    -6.399      2.744      7.532
REMARK INTER + INTRA:         -10.547
REMARK INTER:                  -9.190
REMARK INTRA:                  -1.357
REMARK UNBOUND:                -1.343
REMARK SMILES O=c1c(O[C@H]2O[C@@H](CO)[C@H](O)[C@H](O)[C@H]2O)c(-c2ccc(O)cc2)oc2cc(O)cc(O)c12
REMARK SMILES IDX 4 1 3 2 16 3 24 4 2 5 25 6 1 7 32 8 26 9 30 10 27 11 29 12
REMARK SMILES IDX 17 13 18 14 19 15 20 16 23 17 22 18 21 19 31 21 28 23 5 25
REMARK SMILES IDX 14 26 6 27 12 28 7 29 10 30 15 31 13 33 8 35 9 36 11 38
REMARK H PARENT 21 20 31 22 28 24 15 32 13 34 9 37 11 39
REMARK Flexibility Score: inf
ROOT
ATOM      1  O   UNL     1      16.427  -3.172 -14.596  1.00  0.00    -0.454 OA
ENDROOT
BRANCH   1   2
ATOM      2  C   UNL     1      17.224  -2.854 -15.716  1.00  0.00     0.214 A 
ATOM      3  C   UNL     1      17.568  -3.891 -16.609  1.00  0.00     0.180 A 
ATOM      4  O   UNL     1      18.385  -3.650 -17.629  1.00  0.00    -0.452 OA
ATOM      5  C   UNL     1      17.728  -1.556 -15.974  1.00  0.00     0.239 A 
ATOM      6  C   UNL     1      18.893  -2.453 -17.893  1.00  0.00     0.146 A 
ATOM      7  O   UNL     1      17.417  -0.589 -15.232  1.00  0.00    -0.285 OA
ATOM      8  C   UNL     1      18.581  -1.345 -17.076  1.00  0.00     0.111 A 
ATOM      9  C   UNL     1      19.738  -2.303 -18.997  1.00  0.00     0.094 A 
ATOM     10  C   UNL     1      19.138  -0.079 -17.391  1.00  0.00     0.134 A 
ATOM     11  C   UNL     1      20.283  -1.050 -19.304  1.00  0.00     0.123 A 
ATOM     12  C   UNL     1      19.987   0.050 -18.500  1.00  0.00     0.093 A 
BRANCH   3  13
ATOM     13  C   UNL     1      17.048  -5.267 -16.453  1.00  0.00     0.021 A 
ATOM     14  C   UNL     1      15.757  -5.618 -16.893  1.00  0.00     0.016 A 
ATOM     15  C   UNL     1      15.306  -6.936 -16.777  1.00  0.00     0.047 A 
ATOM     16  C   UNL     1      16.139  -7.923 -16.243  1.00  0.00     0.115 A 
ATOM     17  C   UNL     1      17.891  -6.270 -15.940  1.00  0.00     0.016 A 
ATOM     18  C   UNL     1      17.435  -7.589 -15.828  1.00  0.00     0.047 A 
BRANCH  16  19
ATOM     19  O   UNL     1      15.674  -9.232 -16.135  1.00  0.00    -0.508 OA
ATOM     20  H   UNL     1      16.076  -9.883 -15.471  1.00  0.00     0.293 HD
ENDBRANCH  16  19
ENDBRANCH   3  13
BRANCH  10  21
ATOM     21  O   UNL     1      18.855   1.045 -16.615  1.00  0.00    -0.507 OA
ATOM     22  H   UNL     1      18.806   1.973 -17.018  1.00  0.00     0.293 HD
ENDBRANCH  10  21
BRANCH  11  23
ATOM     23  O   UNL     1      21.116  -0.892 -20.409  1.00  0.00    -0.508 OA
ATOM     24  H   UNL     1      20.845  -0.318 -21.200  1.00  0.00     0.293 HD
ENDBRANCH  11  23
ENDBRANCH   1   2
BRANCH   1  25
ATOM     25  C   UNL     1      16.895  -3.595 -13.316  1.00  0.00     0.339 C 
ATOM     26  C   UNL     1      16.185  -4.902 -12.914  1.00  0.00     0.214 C 
ATOM     27  O   UNL     1      16.622  -2.576 -12.367  1.00  0.00    -0.332 OA
ATOM     28  C   UNL     1      16.664  -5.337 -11.512  1.00  0.00     0.180 C 
ATOM     29  C   UNL     1      17.198  -2.896 -11.114  1.00  0.00     0.179 C 
ATOM     30  C   UNL     1      16.505  -4.145 -10.528  1.00  0.00     0.177 C 
BRANCH  26  31
ATOM     31  O   UNL     1      14.794  -4.703 -12.922  1.00  0.00    -0.384 OA
ATOM     32  H   UNL     1      14.489  -4.876 -13.851  1.00  0.00     0.211 HD
ENDBRANCH  26  31
BRANCH  28  33
ATOM     33  O   UNL     1      18.000  -5.772 -11.616  1.00  0.00    -0.387 OA
ATOM     34  H   UNL     1      18.056  -6.495 -12.298  1.00  0.00     0.211 HD
ENDBRANCH  28  33
BRANCH  29  35
ATOM     35  C   UNL     1      17.040  -1.689 -10.181  1.00  0.00     0.191 C 
BRANCH  35  36
ATOM     36  O   UNL     1      15.755  -1.693  -9.619  1.00  0.00    -0.394 OA
ATOM     37  H   UNL     1      15.138  -1.449 -10.357  1.00  0.00     0.210 HD
ENDBRANCH  35  36
ENDBRANCH  29  35
BRANCH  30  38
ATOM     38  O   UNL     1      17.035  -4.455  -9.264  1.00  0.00    -0.387 OA
ATOM     39  H   UNL     1      16.942  -3.641  -8.706  1.00  0.00     0.211 HD
ENDBRANCH  30  38
ENDBRANCH   1  25
TORSDOF 11
ENDMDL
MODEL 3
REMARK VINA RESULT:    -6.290      2.726      7.479
REMARK INTER + INTRA:         -10.391
REMARK INTER:                  -8.792
REMARK INTRA:                  -1.599
REMARK UNBOUND:                -1.343
REMARK SMILES O=c1c(O[C@H]2O[C@@H](CO)[C@H](O)[C@H](O)[C@H]2O)c(-c2ccc(O)cc2)oc2cc(O)cc(O)c12
REMARK SMILES IDX 4 1 3 2 16 3 24 4 2 5 25 6 1 7 32 8 26 9 30 10 27 11 29 12
REMARK SMILES IDX 17 13 18 14 19 15 20 16 23 17 22 18 21 19 31 21 28 23 5 25
REMARK SMILES IDX 14 26 6 27 12 28 7 29 10 30 15 31 13 33 8 35 9 36 11 38
REMARK H PARENT 21 20 31 22 28 24 15 32 13 34 9 37 11 39
REMARK Flexibility Score: inf
ROOT
ATOM      1  O   UNL     1      16.612  -3.056 -14.033  1.00  0.00    -0.454 OA
ENDROOT
BRANCH   1   2
ATOM      2  C   UNL     1      17.297  -2.750 -15.228  1.00  0.00     0.214 A 
ATOM      3  C   UNL     1      17.572  -3.800 -16.129  1.00  0.00     0.180 A 
ATOM      4  O   UNL     1      18.287  -3.569 -17.225  1.00  0.00    -0.452 OA
ATOM      5  C   UNL     1      17.753  -1.451 -15.558  1.00  0.00     0.239 A 
ATOM      6  C   UNL     1      18.750  -2.372 -17.559  1.00  0.00     0.146 A 
ATOM      7  O   UNL     1      17.497  -0.473 -14.809  1.00  0.00    -0.285 OA
ATOM      8  C   UNL     1      18.497  -1.251 -16.738  1.00  0.00     0.111 A 
ATOM      9  C   UNL     1      19.486  -2.233 -18.739  1.00  0.00     0.094 A 
ATOM     10  C   UNL     1      19.002   0.016 -17.129  1.00  0.00     0.134 A 
ATOM     11  C   UNL     1      19.980  -0.979 -19.120  1.00  0.00     0.123 A 
ATOM     12  C   UNL     1      19.743   0.133 -18.314  1.00  0.00     0.093 A 
BRANCH   3  13
ATOM     13  C   UNL     1      17.091  -5.181 -15.898  1.00  0.00     0.021 A 
ATOM     14  C   UNL     1      15.816  -5.594 -16.329  1.00  0.00     0.016 A 
ATOM     15  C   UNL     1      15.403  -6.917 -16.140  1.00  0.00     0.047 A 
ATOM     16  C   UNL     1      16.258  -7.846 -15.542  1.00  0.00     0.115 A 
ATOM     17  C   UNL     1      17.958  -6.127 -15.320  1.00  0.00     0.016 A 
ATOM     18  C   UNL     1      17.539  -7.449 -15.135  1.00  0.00     0.047 A 
BRANCH  16  19
ATOM     19  O   UNL     1      15.831  -9.159 -15.363  1.00  0.00    -0.508 OA
ATOM     20  H   UNL     1      16.465  -9.942 -15.471  1.00  0.00     0.293 HD
ENDBRANCH  16  19
ENDBRANCH   3  13
BRANCH  10  21
ATOM     21  O   UNL     1      18.774   1.152 -16.351  1.00  0.00    -0.507 OA
ATOM     22  H   UNL     1      19.507   1.826 -16.165  1.00  0.00     0.293 HD
ENDBRANCH  10  21
BRANCH  11  23
ATOM     23  O   UNL     1      20.705  -0.833 -20.301  1.00  0.00    -0.508 OA
ATOM     24  H   UNL     1      20.303  -0.384 -21.117  1.00  0.00     0.293 HD
ENDBRANCH  11  23
ENDBRANCH   1   2
BRANCH   1  25
ATOM     25  C   UNL     1      17.203  -3.324 -12.762  1.00  0.00     0.339 C 
ATOM     26  C   UNL     1      16.432  -2.564 -11.665  1.00  0.00     0.214 C 
ATOM     27  O   UNL     1      18.559  -2.908 -12.788  1.00  0.00    -0.332 OA
ATOM     28  C   UNL     1      17.097  -2.826 -10.296  1.00  0.00     0.180 C 
ATOM     29  C   UNL     1      19.219  -3.287 -11.594  1.00  0.00     0.179 C 
ATOM     30  C   UNL     1      18.616  -2.516 -10.401  1.00  0.00     0.177 C 
BRANCH  26  31
ATOM     31  O   UNL     1      16.429  -1.190 -11.960  1.00  0.00    -0.384 OA
ATOM     32  H   UNL     1      16.623  -1.109 -12.930  1.00  0.00     0.211 HD
ENDBRANCH  26  31
BRANCH  28  33
ATOM     33  O   UNL     1      16.846  -4.163  -9.931  1.00  0.00    -0.387 OA
ATOM     34  H   UNL     1      15.897  -4.250  -9.640  1.00  0.00     0.211 HD
ENDBRANCH  28  33
BRANCH  29  35
ATOM     35  C   UNL     1      20.715  -2.987 -11.746  1.00  0.00     0.191 C 
BRANCH  35  36
ATOM     36  O   UNL     1      21.462  -3.950 -11.052  1.00  0.00    -0.394 OA
ATOM     37  H   UNL     1      22.297  -3.493 -10.772  1.00  0.00     0.210 HD
ENDBRANCH  35  36
ENDBRANCH  29  35
BRANCH  30  38
ATOM     38  O   UNL     1      19.285  -2.848  -9.210  1.00  0.00    -0.387 OA
ATOM     39  H   UNL     1      19.792  -3.681  -9.389  1.00  0.00     0.211 HD
ENDBRANCH  30  38
ENDBRANCH   1  25
TORSDOF 11
ENDMDL
MODEL 4
REMARK VINA RESULT:    -6.148      1.764      5.526
REMARK INTER + INTRA:         -10.187
REMARK INTER:                  -8.674
REMARK INTRA:                  -1.513
REMARK UNBOUND:                -1.343
REMARK SMILES O=c1c(O[C@H]2O[C@@H](CO)[C@H](O)[C@H](O)[C@H]2O)c(-c2ccc(O)cc2)oc2cc(O)cc(O)c12
REMARK SMILES IDX 4 1 3 2 16 3 24 4 2 5 25 6 1 7 32 8 26 9 30 10 27 11 29 12
REMARK SMILES IDX 17 13 18 14 19 15 20 16 23 17 22 18 21 19 31 21 28 23 5 25
REMARK SMILES IDX 14 26 6 27 12 28 7 29 10 30 15 31 13 33 8 35 9 36 11 38
REMARK H PARENT 21 20 31 22 28 24 15 32 13 34 9 37 11 39
REMARK Flexibility Score: inf
ROOT
ATOM      1  O   UNL     1      16.797  -0.589 -14.197  1.00  0.00    -0.454 OA
ENDROOT
BRANCH   1   2
ATOM      2  C   UNL     1      17.028  -1.202 -12.948  1.00  0.00     0.214 A 
ATOM      3  C   UNL     1      17.039  -2.611 -12.886  1.00  0.00     0.180 A 
ATOM      4  O   UNL     1      17.170  -3.227 -11.715  1.00  0.00    -0.452 OA
ATOM      5  C   UNL     1      17.214  -0.479 -11.744  1.00  0.00     0.239 A 
ATOM      6  C   UNL     1      17.327  -2.587 -10.564  1.00  0.00     0.146 A 
ATOM      7  O   UNL     1      17.255   0.778 -11.752  1.00  0.00    -0.285 OA
ATOM      8  C   UNL     1      17.362  -1.176 -10.528  1.00  0.00     0.111 A 
ATOM      9  C   UNL     1      17.464  -3.329  -9.388  1.00  0.00     0.094 A 
ATOM     10  C   UNL     1      17.537  -0.524  -9.280  1.00  0.00     0.134 A 
ATOM     11  C   UNL     1      17.638  -2.679  -8.159  1.00  0.00     0.123 A 
ATOM     12  C   UNL     1      17.668  -1.287  -8.110  1.00  0.00     0.093 A 
BRANCH   3  13
ATOM     13  C   UNL     1      16.905  -3.453 -14.096  1.00  0.00     0.021 A 
ATOM     14  C   UNL     1      17.872  -3.424 -15.119  1.00  0.00     0.016 A 
ATOM     15  C   UNL     1      17.747  -4.262 -16.232  1.00  0.00     0.047 A 
ATOM     16  C   UNL     1      16.674  -5.152 -16.328  1.00  0.00     0.115 A 
ATOM     17  C   UNL     1      15.841  -4.369 -14.187  1.00  0.00     0.016 A 
ATOM     18  C   UNL     1      15.722  -5.207 -15.301  1.00  0.00     0.047 A 
BRANCH  16  19
ATOM     19  O   UNL     1      16.565  -5.981 -17.443  1.00  0.00    -0.508 OA
ATOM     20  H   UNL     1      16.387  -6.974 -17.348  1.00  0.00     0.293 HD
ENDBRANCH  16  19
ENDBRANCH   3  13
BRANCH  10  21
ATOM     21  O   UNL     1      17.582   0.868  -9.196  1.00  0.00    -0.507 OA
ATOM     22  H   UNL     1      17.515   1.351  -8.308  1.00  0.00     0.293 HD
ENDBRANCH  10  21
BRANCH  11  23
ATOM     23  O   UNL     1      17.786  -3.414  -6.985  1.00  0.00    -0.508 OA
ATOM     24  H   UNL     1      18.225  -4.328  -6.983  1.00  0.00     0.293 HD
ENDBRANCH  11  23
ENDBRANCH   1   2
BRANCH   1  25
ATOM     25  C   UNL     1      15.545  -0.116 -14.691  1.00  0.00     0.339 C 
ATOM     26  C   UNL     1      15.653   1.386 -15.016  1.00  0.00     0.214 C 
ATOM     27  O   UNL     1      14.548  -0.335 -13.705  1.00  0.00    -0.332 OA
ATOM     28  C   UNL     1      14.286   1.903 -15.515  1.00  0.00     0.180 C 
ATOM     29  C   UNL     1      13.267  -0.011 -14.212  1.00  0.00     0.179 C 
ATOM     30  C   UNL     1      13.188   1.505 -14.491  1.00  0.00     0.177 C 
BRANCH  26  31
ATOM     31  O   UNL     1      16.059   2.086 -13.868  1.00  0.00    -0.384 OA
ATOM     32  H   UNL     1      16.907   2.546 -14.102  1.00  0.00     0.211 HD
ENDBRANCH  26  31
BRANCH  28  33
ATOM     33  O   UNL     1      14.048   1.363 -16.794  1.00  0.00    -0.387 OA
ATOM     34  H   UNL     1      13.935   2.106 -17.447  1.00  0.00     0.211 HD
ENDBRANCH  28  33
BRANCH  29  35
ATOM     35  C   UNL     1      12.212  -0.440 -13.184  1.00  0.00     0.191 C 
BRANCH  35  36
ATOM     36  O   UNL     1      10.999  -0.705 -13.836  1.00  0.00    -0.394 OA
ATOM     37  H   UNL     1      11.201  -0.661 -14.808  1.00  0.00     0.210 HD
ENDBRANCH  35  36
ENDBRANCH  29  35
BRANCH  30  38
ATOM     38  O   UNL     1      11.908   1.854 -14.957  1.00  0.00    -0.387 OA
ATOM     39  H   UNL     1      11.455   2.336 -14.218  1.00  0.00     0.211 HD
ENDBRANCH  30  38
ENDBRANCH   1  25
TORSDOF 11
ENDMDL
MODEL 5
REMARK VINA RESULT:    -6.111      3.217      7.856
REMARK INTER + INTRA:         -10.133
REMARK INTER:                  -8.752
REMARK INTRA:                  -1.381
REMARK UNBOUND:                -1.343
REMARK SMILES O=c1c(O[C@H]2O[C@@H](CO)[C@H](O)[C@H](O)[C@H]2O)c(-c2ccc(O)cc2)oc2cc(O)cc(O)c12
REMARK SMILES IDX 4 1 3 2 16 3 24 4 2 5 25 6 1 7 32 8 26 9 30 10 27 11 29 12
REMARK SMILES IDX 17 13 18 14 19 15 20 16 23 17 22 18 21 19 31 21 28 23 5 25
REMARK SMILES IDX 14 26 6 27 12 28 7 29 10 30 15 31 13 33 8 35 9 36 11 38
REMARK H PARENT 21 20 31 22 28 24 15 32 13 34 9 37 11 39
REMARK Flexibility Score: inf
ROOT
ATOM      1  O   UNL     1      17.755  -3.461 -14.400  1.00  0.00    -0.454 OA
ENDROOT
BRANCH   1   2
ATOM      2  C   UNL     1      18.089  -3.004 -15.692  1.00  0.00     0.214 A 
ATOM      3  C   UNL     1      18.131  -3.944 -16.744  1.00  0.00     0.180 A 
ATOM      4  O   UNL     1      18.521  -3.570 -17.958  1.00  0.00    -0.452 OA
ATOM      5  C   UNL     1      18.419  -1.659 -15.985  1.00  0.00     0.239 A 
ATOM      6  C   UNL     1      18.858  -2.325 -18.268  1.00  0.00     0.146 A 
ATOM      7  O   UNL     1      18.356  -0.775 -15.092  1.00  0.00    -0.285 OA
ATOM      8  C   UNL     1      18.815  -1.306 -17.291  1.00  0.00     0.111 A 
ATOM      9  C   UNL     1      19.248  -2.033 -19.578  1.00  0.00     0.094 A 
ATOM     10  C   UNL     1      19.176   0.016 -17.659  1.00  0.00     0.134 A 
ATOM     11  C   UNL     1      19.601  -0.726 -19.935  1.00  0.00     0.123 A 
ATOM     12  C   UNL     1      19.569   0.287 -18.978  1.00  0.00     0.093 A 
BRANCH   3  13
ATOM     13  C   UNL     1      17.752  -5.361 -16.548  1.00  0.00     0.021 A 
ATOM     14  C   UNL     1      18.687  -6.313 -16.098  1.00  0.00     0.016 A 
ATOM     15  C   UNL     1      18.294  -7.637 -15.876  1.00  0.00     0.047 A 
ATOM     16  C   UNL     1      16.966  -8.022 -16.077  1.00  0.00     0.115 A 
ATOM     17  C   UNL     1      16.411  -5.749 -16.724  1.00  0.00     0.016 A 
ATOM     18  C   UNL     1      16.023  -7.074 -16.498  1.00  0.00     0.047 A 
BRANCH  16  19
ATOM     19  O   UNL     1      16.591  -9.345 -15.850  1.00  0.00    -0.508 OA
ATOM     20  H   UNL     1      15.648  -9.587 -15.570  1.00  0.00     0.293 HD
ENDBRANCH  16  19
ENDBRANCH   3  13
BRANCH  10  21
ATOM     21  O   UNL     1      19.145   1.055 -16.729  1.00  0.00    -0.507 OA
ATOM     22  H   UNL     1      19.167   2.027 -17.014  1.00  0.00     0.293 HD
ENDBRANCH  10  21
BRANCH  11  23
ATOM     23  O   UNL     1      19.980  -0.427 -21.242  1.00  0.00    -0.508 OA
ATOM     24  H   UNL     1      19.293  -0.308 -21.980  1.00  0.00     0.293 HD
ENDBRANCH  11  23
ENDBRANCH   1   2
BRANCH   1  25
ATOM     25  C   UNL     1      16.445  -3.538 -13.840  1.00  0.00     0.339 C 
ATOM     26  C   UNL     1      16.283  -2.452 -12.759  1.00  0.00     0.214 C 
ATOM     27  O   UNL     1      16.260  -4.826 -13.274  1.00  0.00    -0.332 OA
ATOM     28  C   UNL     1      14.877  -2.562 -12.129  1.00  0.00     0.180 C 
ATOM     29  C   UNL     1      14.924  -4.990 -12.836  1.00  0.00     0.179 C 
ATOM     30  C   UNL     1      14.641  -4.025 -11.665  1.00  0.00     0.177 C 
BRANCH  26  31
ATOM     31  O   UNL     1      17.278  -2.611 -11.780  1.00  0.00    -0.384 OA
ATOM     32  H   UNL     1      16.903  -2.250 -10.935  1.00  0.00     0.211 HD
ENDBRANCH  26  31
BRANCH  28  33
ATOM     33  O   UNL     1      13.930  -2.142 -13.083  1.00  0.00    -0.387 OA
ATOM     34  H   UNL     1      14.314  -1.395 -13.619  1.00  0.00     0.211 HD
ENDBRANCH  28  33
BRANCH  29  35
ATOM     35  C   UNL     1      14.726  -6.450 -12.409  1.00  0.00     0.191 C 
BRANCH  35  36
ATOM     36  O   UNL     1      13.355  -6.741 -12.350  1.00  0.00    -0.394 OA
ATOM     37  H   UNL     1      13.294  -7.729 -12.265  1.00  0.00     0.210 HD
ENDBRANCH  35  36
ENDBRANCH  29  35
BRANCH  30  38
ATOM     38  O   UNL     1      13.330  -4.202 -11.188  1.00  0.00    -0.387 OA
ATOM     39  H   UNL     1      13.404  -4.472 -10.236  1.00  0.00     0.211 HD
ENDBRANCH  30  38
ENDBRANCH   1  25
TORSDOF 11
ENDMDL
MODEL 6
REMARK VINA RESULT:    -6.080      4.070      6.133
REMARK INTER + INTRA:         -10.090
REMARK INTER:                  -8.788
REMARK INTRA:                  -1.302
REMARK UNBOUND:                -1.343
REMARK SMILES O=c1c(O[C@H]2O[C@@H](CO)[C@H](O)[C@H](O)[C@H]2O)c(-c2ccc(O)cc2)oc2cc(O)cc(O)c12
REMARK SMILES IDX 4 1 3 2 16 3 24 4 2 5 25 6 1 7 32 8 26 9 30 10 27 11 29 12
REMARK SMILES IDX 17 13 18 14 19 15 20 16 23 17 22 18 21 19 31 21 28 23 5 25
REMARK SMILES IDX 14 26 6 27 12 28 7 29 10 30 15 31 13 33 8 35 9 36 11 38
REMARK H PARENT 21 20 31 22 28 24 15 32 13 34 9 37 11 39
REMARK Flexibility Score: inf
ROOT
ATOM      1  O   UNL     1      14.804  -7.162 -12.489  1.00  0.00    -0.454 OA
ENDROOT
BRANCH   1   2
ATOM      2  C   UNL     1      13.745  -6.963 -11.578  1.00  0.00     0.214 A 
ATOM      3  C   UNL     1      13.642  -5.711 -10.936  1.00  0.00     0.180 A 
ATOM      4  O   UNL     1      12.710  -5.510 -10.010  1.00  0.00    -0.452 OA
ATOM      5  C   UNL     1      12.800  -7.963 -11.245  1.00  0.00     0.239 A 
ATOM      6  C   UNL     1      11.820  -6.427  -9.656  1.00  0.00     0.146 A 
ATOM      7  O   UNL     1      12.823  -9.082 -11.821  1.00  0.00    -0.285 OA
ATOM      8  C   UNL     1      11.821  -7.701 -10.266  1.00  0.00     0.111 A 
ATOM      9  C   UNL     1      10.874  -6.114  -8.676  1.00  0.00     0.094 A 
ATOM     10  C   UNL     1      10.850  -8.655  -9.868  1.00  0.00     0.134 A 
ATOM     11  C   UNL     1       9.918  -7.060  -8.288  1.00  0.00     0.123 A 
ATOM     12  C   UNL     1       9.914  -8.323  -8.878  1.00  0.00     0.093 A 
BRANCH   3  13
ATOM     13  C   UNL     1      14.550  -4.586 -11.254  1.00  0.00     0.021 A 
ATOM     14  C   UNL     1      14.300  -3.728 -12.342  1.00  0.00     0.016 A 
ATOM     15  C   UNL     1      15.147  -2.644 -12.595  1.00  0.00     0.047 A 
ATOM     16  C   UNL     1      16.238  -2.391 -11.759  1.00  0.00     0.115 A 
ATOM     17  C   UNL     1      15.634  -4.310 -10.401  1.00  0.00     0.016 A 
ATOM     18  C   UNL     1      16.478  -3.223 -10.658  1.00  0.00     0.047 A 
BRANCH  16  19
ATOM     19  O   UNL     1      17.071  -1.306 -12.025  1.00  0.00    -0.508 OA
ATOM     20  H   UNL     1      16.698  -0.411 -12.318  1.00  0.00     0.293 HD
ENDBRANCH  16  19
ENDBRANCH   3  13
BRANCH  10  21
ATOM     21  O   UNL     1      10.811  -9.925 -10.446  1.00  0.00    -0.507 OA
ATOM     22  H   UNL     1      11.636 -10.353 -10.850  1.00  0.00     0.293 HD
ENDBRANCH  10  21
BRANCH  11  23
ATOM     23  O   UNL     1       8.966  -6.749  -7.319  1.00  0.00    -0.508 OA
ATOM     24  H   UNL     1       7.988  -6.992  -7.439  1.00  0.00     0.293 HD
ENDBRANCH  11  23
ENDBRANCH   1   2
BRANCH   1  25
ATOM     25  C   UNL     1      14.711  -7.151 -13.912  1.00  0.00     0.339 C 
ATOM     26  C   UNL     1      14.810  -8.594 -14.445  1.00  0.00     0.214 C 
ATOM     27  O   UNL     1      15.765  -6.360 -14.438  1.00  0.00    -0.332 OA
ATOM     28  C   UNL     1      14.746  -8.576 -15.988  1.00  0.00     0.180 C 
ATOM     29  C   UNL     1      15.622  -6.207 -15.838  1.00  0.00     0.179 C 
ATOM     30  C   UNL     1      15.805  -7.575 -16.529  1.00  0.00     0.177 C 
BRANCH  26  31
ATOM     31  O   UNL     1      16.011  -9.175 -14.006  1.00  0.00    -0.384 OA
ATOM     32  H   UNL     1      15.895 -10.158 -14.089  1.00  0.00     0.211 HD
ENDBRANCH  26  31
BRANCH  28  33
ATOM     33  O   UNL     1      13.436  -8.231 -16.374  1.00  0.00    -0.387 OA
ATOM     34  H   UNL     1      13.325  -7.243 -16.308  1.00  0.00     0.211 HD
ENDBRANCH  28  33
BRANCH  29  35
ATOM     35  C   UNL     1      16.668  -5.198 -16.328  1.00  0.00     0.191 C 
BRANCH  35  36
ATOM     36  O   UNL     1      17.763  -5.882 -16.873  1.00  0.00    -0.394 OA
ATOM     37  H   UNL     1      18.249  -6.273 -16.100  1.00  0.00     0.210 HD
ENDBRANCH  35  36
ENDBRANCH  29  35
BRANCH  30  38
ATOM     38  O   UNL     1      15.708  -7.438 -17.925  1.00  0.00    -0.387 OA
ATOM     39  H   UNL     1      15.044  -8.108 -18.234  1.00  0.00     0.211 HD
ENDBRANCH  30  38
ENDBRANCH   1  25
TORSDOF 11
ENDMDL
MODEL 7
REMARK VINA RESULT:    -6.047      3.317      5.158
REMARK INTER + INTRA:         -10.042
REMARK INTER:                  -8.360
REMARK INTRA:                  -1.682
REMARK UNBOUND:                -1.343
REMARK SMILES O=c1c(O[C@H]2O[C@@H](CO)[C@H](O)[C@H](O)[C@H]2O)c(-c2ccc(O)cc2)oc2cc(O)cc(O)c12
REMARK SMILES IDX 4 1 3 2 16 3 24 4 2 5 25 6 1 7 32 8 26 9 30 10 27 11 29 12
REMARK SMILES IDX 17 13 18 14 19 15 20 16 23 17 22 18 21 19 31 21 28 23 5 25
REMARK SMILES IDX 14 26 6 27 12 28 7 29 10 30 15 31 13 33 8 35 9 36 11 38
REMARK H PARENT 21 20 31 22 28 24 15 32 13 34 9 37 11 39
REMARK Flexibility Score: inf
ROOT
ATOM      1  O   UNL     1      17.994  -0.114 -10.699  1.00  0.00    -0.454 OA
ENDROOT
BRANCH   1   2
ATOM      2  C   UNL     1      18.885  -0.607  -9.723  1.00  0.00     0.214 A 
ATOM      3  C   UNL     1      20.263  -0.348  -9.884  1.00  0.00     0.180 A 
ATOM      4  O   UNL     1      21.143  -0.865  -9.033  1.00  0.00    -0.452 OA
ATOM      5  C   UNL     1      18.477  -1.378  -8.608  1.00  0.00     0.239 A 
ATOM      6  C   UNL     1      20.803  -1.608  -7.989  1.00  0.00     0.146 A 
ATOM      7  O   UNL     1      17.257  -1.601  -8.396  1.00  0.00    -0.285 OA
ATOM      8  C   UNL     1      19.446  -1.895  -7.724  1.00  0.00     0.111 A 
ATOM      9  C   UNL     1      21.806  -2.099  -7.148  1.00  0.00     0.094 A 
ATOM     10  C   UNL     1      19.118  -2.688  -6.595  1.00  0.00     0.134 A 
ATOM     11  C   UNL     1      21.476  -2.880  -6.034  1.00  0.00     0.123 A 
ATOM     12  C   UNL     1      20.140  -3.175  -5.767  1.00  0.00     0.093 A 
BRANCH   3  13
ATOM     13  C   UNL     1      20.782   0.491 -10.987  1.00  0.00     0.021 A 
ATOM     14  C   UNL     1      21.136  -0.069 -12.230  1.00  0.00     0.016 A 
ATOM     15  C   UNL     1      21.580   0.751 -13.272  1.00  0.00     0.047 A 
ATOM     16  C   UNL     1      21.656   2.135 -13.098  1.00  0.00     0.115 A 
ATOM     17  C   UNL     1      20.835   1.888 -10.827  1.00  0.00     0.016 A 
ATOM     18  C   UNL     1      21.278   2.704 -11.874  1.00  0.00     0.047 A 
BRANCH  16  19
ATOM     19  O   UNL     1      22.099   2.938 -14.147  1.00  0.00    -0.508 OA
ATOM     20  H   UNL     1      21.666   3.831 -14.350  1.00  0.00     0.293 HD
ENDBRANCH  16  19
ENDBRANCH   3  13
BRANCH  10  21
ATOM     21  O   UNL     1      17.790  -2.994  -6.293  1.00  0.00    -0.507 OA
ATOM     22  H   UNL     1      17.492  -3.194  -5.345  1.00  0.00     0.293 HD
ENDBRANCH  10  21
BRANCH  11  23
ATOM     23  O   UNL     1      22.471  -3.362  -5.187  1.00  0.00    -0.508 OA
ATOM     24  H   UNL     1      22.926  -2.761  -4.508  1.00  0.00     0.293 HD
ENDBRANCH  11  23
ENDBRANCH   1   2
BRANCH   1  25
ATOM     25  C   UNL     1      17.475  -0.836 -11.815  1.00  0.00     0.339 C 
ATOM     26  C   UNL     1      15.935  -0.820 -11.768  1.00  0.00     0.214 C 
ATOM     27  O   UNL     1      17.955  -2.170 -11.765  1.00  0.00    -0.332 OA
ATOM     28  C   UNL     1      15.377  -1.634 -12.956  1.00  0.00     0.180 C 
ATOM     29  C   UNL     1      17.579  -2.879 -12.931  1.00  0.00     0.179 C 
ATOM     30  C   UNL     1      16.044  -3.037 -12.970  1.00  0.00     0.177 C 
BRANCH  26  31
ATOM     31  O   UNL     1      15.498  -1.362 -10.548  1.00  0.00    -0.384 OA
ATOM     32  H   UNL     1      16.312  -1.529 -10.005  1.00  0.00     0.211 HD
ENDBRANCH  26  31
BRANCH  28  33
ATOM     33  O   UNL     1      15.621  -0.912 -14.141  1.00  0.00    -0.387 OA
ATOM     34  H   UNL     1      14.890  -1.095 -14.792  1.00  0.00     0.211 HD
ENDBRANCH  28  33
BRANCH  29  35
ATOM     35  C   UNL     1      18.275  -4.245 -12.918  1.00  0.00     0.191 C 
BRANCH  35  36
ATOM     36  O   UNL     1      18.478  -4.683 -14.235  1.00  0.00    -0.394 OA
ATOM     37  H   UNL     1      17.595  -5.015 -14.546  1.00  0.00     0.210 HD
ENDBRANCH  35  36
ENDBRANCH  29  35
BRANCH  30  38
ATOM     38  O   UNL     1      15.653  -3.774 -14.101  1.00  0.00    -0.387 OA
ATOM     39  H   UNL     1      14.721  -4.073 -13.941  1.00  0.00     0.211 HD
ENDBRANCH  30  38
ENDBRANCH   1  25
TORSDOF 11
ENDMDL
MODEL 8
REMARK VINA RESULT:    -6.000      2.889      7.748
REMARK INTER + INTRA:          -9.974
REMARK INTER:                  -8.927
REMARK INTRA:                  -1.046
REMARK UNBOUND:                -1.343
REMARK SMILES O=c1c(O[C@H]2O[C@@H](CO)[C@H](O)[C@H](O)[C@H]2O)c(-c2ccc(O)cc2)oc2cc(O)cc(O)c12
REMARK SMILES IDX 4 1 3 2 16 3 24 4 2 5 25 6 1 7 32 8 26 9 30 10 27 11 29 12
REMARK SMILES IDX 17 13 18 14 19 15 20 16 23 17 22 18 21 19 31 21 28 23 5 25
REMARK SMILES IDX 14 26 6 27 12 28 7 29 10 30 15 31 13 33 8 35 9 36 11 38
REMARK H PARENT 21 20 31 22 28 24 15 32 13 34 9 37 11 39
REMARK Flexibility Score: inf
ROOT
ATOM      1  O   UNL     1      17.463  -2.791 -13.106  1.00  0.00    -0.454 OA
ENDROOT
BRANCH   1   2
ATOM      2  C   UNL     1      17.789  -2.574 -14.461  1.00  0.00     0.214 A 
ATOM      3  C   UNL     1      17.818  -3.686 -15.328  1.00  0.00     0.180 A 
ATOM      4  O   UNL     1      18.202  -3.537 -16.592  1.00  0.00    -0.452 OA
ATOM      5  C   UNL     1      18.123  -1.304 -14.992  1.00  0.00     0.239 A 
ATOM      6  C   UNL     1      18.541  -2.369 -17.122  1.00  0.00     0.146 A 
ATOM      7  O   UNL     1      18.071  -0.275 -14.270  1.00  0.00    -0.285 OA
ATOM      8  C   UNL     1      18.511  -1.192 -16.342  1.00  0.00     0.111 A 
ATOM      9  C   UNL     1      18.922  -2.318 -18.466  1.00  0.00     0.094 A 
ATOM     10  C   UNL     1      18.875   0.041 -16.942  1.00  0.00     0.134 A 
ATOM     11  C   UNL     1      19.279  -1.097 -19.053  1.00  0.00     0.123 A 
ATOM     12  C   UNL     1      19.260   0.070 -18.291  1.00  0.00     0.093 A 
BRANCH   3  13
ATOM     13  C   UNL     1      17.435  -5.043 -14.880  1.00  0.00     0.021 A 
ATOM     14  C   UNL     1      18.405  -6.031 -14.624  1.00  0.00     0.016 A 
ATOM     15  C   UNL     1      18.021  -7.292 -14.156  1.00  0.00     0.047 A 
ATOM     16  C   UNL     1      16.674  -7.577 -13.919  1.00  0.00     0.115 A 
ATOM     17  C   UNL     1      16.083  -5.327 -14.615  1.00  0.00     0.016 A 
ATOM     18  C   UNL     1      15.704  -6.590 -14.145  1.00  0.00     0.047 A 
BRANCH  16  19
ATOM     19  O   UNL     1      16.308  -8.838 -13.453  1.00  0.00    -0.508 OA
ATOM     20  H   UNL     1      16.868  -9.658 -13.652  1.00  0.00     0.293 HD
ENDBRANCH  16  19
ENDBRANCH   3  13
BRANCH  10  21
ATOM     21  O   UNL     1      18.856   1.229 -16.212  1.00  0.00    -0.507 OA
ATOM     22  H   UNL     1      19.710   1.673 -15.894  1.00  0.00     0.293 HD
ENDBRANCH  10  21
BRANCH  11  23
ATOM     23  O   UNL     1      19.649  -1.038 -20.394  1.00  0.00    -0.508 OA
ATOM     24  H   UNL     1      19.127  -0.484 -21.065  1.00  0.00     0.293 HD
ENDBRANCH  11  23
ENDBRANCH   1   2
BRANCH   1  25
ATOM     25  C   UNL     1      18.176  -2.297 -11.972  1.00  0.00     0.339 C 
ATOM     26  C   UNL     1      19.640  -2.772 -12.038  1.00  0.00     0.214 C 
ATOM     27  O   UNL     1      17.555  -2.779 -10.791  1.00  0.00    -0.332 OA
ATOM     28  C   UNL     1      20.399  -2.268 -10.792  1.00  0.00     0.180 C 
ATOM     29  C   UNL     1      18.146  -2.196  -9.645  1.00  0.00     0.179 C 
ATOM     30  C   UNL     1      19.609  -2.671  -9.517  1.00  0.00     0.177 C 
BRANCH  26  31
ATOM     31  O   UNL     1      19.676  -4.175 -12.106  1.00  0.00    -0.384 OA
ATOM     32  H   UNL     1      20.463  -4.463 -11.574  1.00  0.00     0.211 HD
ENDBRANCH  26  31
BRANCH  28  33
ATOM     33  O   UNL     1      20.559  -0.873 -10.905  1.00  0.00    -0.387 OA
ATOM     34  H   UNL     1      19.663  -0.448 -10.996  1.00  0.00     0.211 HD
ENDBRANCH  28  33
BRANCH  29  35
ATOM     35  C   UNL     1      17.324  -2.599  -8.414  1.00  0.00     0.191 C 
BRANCH  35  36
ATOM     36  O   UNL     1      17.800  -3.818  -7.909  1.00  0.00    -0.394 OA
ATOM     37  H   UNL     1      18.172  -3.611  -7.012  1.00  0.00     0.210 HD
ENDBRANCH  35  36
ENDBRANCH  29  35
BRANCH  30  38
ATOM     38  O   UNL     1      20.201  -2.135  -8.360  1.00  0.00    -0.387 OA
ATOM     39  H   UNL     1      20.852  -1.450  -8.662  1.00  0.00     0.211 HD
ENDBRANCH  30  38
ENDBRANCH   1  25
TORSDOF 11
ENDMDL
MODEL 9
REMARK VINA RESULT:    -5.931      2.168      6.792
REMARK INTER + INTRA:          -9.875
REMARK INTER:                  -8.772
REMARK INTRA:                  -1.103
REMARK UNBOUND:                -1.343
REMARK SMILES O=c1c(O[C@H]2O[C@@H](CO)[C@H](O)[C@H](O)[C@H]2O)c(-c2ccc(O)cc2)oc2cc(O)cc(O)c12
REMARK SMILES IDX 4 1 3 2 16 3 24 4 2 5 25 6 1 7 32 8 26 9 30 10 27 11 29 12
REMARK SMILES IDX 17 13 18 14 19 15 20 16 23 17 22 18 21 19 31 21 28 23 5 25
REMARK SMILES IDX 14 26 6 27 12 28 7 29 10 30 15 31 13 33 8 35 9 36 11 38
REMARK H PARENT 21 20 31 22 28 24 15 32 13 34 9 37 11 39
REMARK Flexibility Score: inf
ROOT
ATOM      1  O   UNL     1      18.658  -2.804 -12.589  1.00  0.00    -0.454 OA
ENDROOT
BRANCH   1   2
ATOM      2  C   UNL     1      18.124  -3.618 -13.610  1.00  0.00     0.214 A 
ATOM      3  C   UNL     1      17.451  -2.993 -14.680  1.00  0.00     0.180 A 
ATOM      4  O   UNL     1      16.861  -3.727 -15.618  1.00  0.00    -0.452 OA
ATOM      5  C   UNL     1      18.195  -5.032 -13.601  1.00  0.00     0.239 A 
ATOM      6  C   UNL     1      16.888  -5.054 -15.634  1.00  0.00     0.146 A 
ATOM      7  O   UNL     1      18.820  -5.636 -12.691  1.00  0.00    -0.285 OA
ATOM      8  C   UNL     1      17.565  -5.769 -14.624  1.00  0.00     0.111 A 
ATOM      9  C   UNL     1      16.242  -5.733 -16.671  1.00  0.00     0.094 A 
ATOM     10  C   UNL     1      17.579  -7.187 -14.675  1.00  0.00     0.134 A 
ATOM     11  C   UNL     1      16.260  -7.132 -16.717  1.00  0.00     0.123 A 
ATOM     12  C   UNL     1      16.920  -7.850 -15.721  1.00  0.00     0.093 A 
BRANCH   3  13
ATOM     13  C   UNL     1      17.368  -1.521 -14.805  1.00  0.00     0.021 A 
ATOM     14  C   UNL     1      18.434  -0.769 -15.337  1.00  0.00     0.016 A 
ATOM     15  C   UNL     1      18.315   0.616 -15.488  1.00  0.00     0.047 A 
ATOM     16  C   UNL     1      17.130   1.265 -15.133  1.00  0.00     0.115 A 
ATOM     17  C   UNL     1      16.168  -0.865 -14.474  1.00  0.00     0.016 A 
ATOM     18  C   UNL     1      16.054   0.521 -14.629  1.00  0.00     0.047 A 
BRANCH  16  19
ATOM     19  O   UNL     1      17.027   2.645 -15.290  1.00  0.00    -0.508 OA
ATOM     20  H   UNL     1      16.173   3.142 -15.066  1.00  0.00     0.293 HD
ENDBRANCH  16  19
ENDBRANCH   3  13
BRANCH  10  21
ATOM     21  O   UNL     1      18.239  -7.936 -13.701  1.00  0.00    -0.507 OA
ATOM     22  H   UNL     1      17.880  -8.827 -13.380  1.00  0.00     0.293 HD
ENDBRANCH  10  21
BRANCH  11  23
ATOM     23  O   UNL     1      15.627  -7.815 -17.754  1.00  0.00    -0.508 OA
ATOM     24  H   UNL     1      15.357  -7.345 -18.611  1.00  0.00     0.293 HD
ENDBRANCH  11  23
ENDBRANCH   1   2
BRANCH   1  25
ATOM     25  C   UNL     1      18.486  -2.983 -11.184  1.00  0.00     0.339 C 
ATOM     26  C   UNL     1      16.995  -2.834 -10.825  1.00  0.00     0.214 C 
ATOM     27  O   UNL     1      19.257  -2.010 -10.497  1.00  0.00    -0.332 OA
ATOM     28  C   UNL     1      16.817  -2.991  -9.299  1.00  0.00     0.180 C 
ATOM     29  C   UNL     1      19.226  -2.244  -9.102  1.00  0.00     0.179 C 
ATOM     30  C   UNL     1      17.793  -2.026  -8.571  1.00  0.00     0.177 C 
BRANCH  26  31
ATOM     31  O   UNL     1      16.533  -1.577 -11.251  1.00  0.00    -0.384 OA
ATOM     32  H   UNL     1      15.594  -1.707 -11.545  1.00  0.00     0.211 HD
ENDBRANCH  26  31
BRANCH  28  33
ATOM     33  O   UNL     1      17.046  -4.340  -8.963  1.00  0.00    -0.387 OA
ATOM     34  H   UNL     1      17.523  -4.382  -8.089  1.00  0.00     0.211 HD
ENDBRANCH  28  33
BRANCH  29  35
ATOM     35  C   UNL     1      20.217  -1.290  -8.424  1.00  0.00     0.191 C 
BRANCH  35  36
ATOM     36  O   UNL     1      20.611  -1.821  -7.187  1.00  0.00    -0.394 OA
ATOM     37  H   UNL     1      21.512  -2.213  -7.338  1.00  0.00     0.210 HD
ENDBRANCH  35  36
ENDBRANCH  29  35
BRANCH  30  38
ATOM     38  O   UNL     1      17.749  -2.214  -7.179  1.00  0.00    -0.387 OA
ATOM     39  H   UNL     1      17.031  -1.625  -6.831  1.00  0.00     0.211 HD
ENDBRANCH  30  38
ENDBRANCH   1  25
TORSDOF 11
ENDMDL
