MODEL 1
REMARK VINA RESULT:    -4.090      0.000      0.000
REMARK INTER + INTRA:         -12.361
REMARK INTER:                  -8.872
REMARK INTRA:                  -3.489
REMARK UNBOUND:                -3.489
REMARK SMILES CCCCCCCCCCCCCCCCCCCCCC(=O)[O-]
REMARK SMILES IDX 12 1 11 2 10 3 9 4 8 5 7 6 6 7 5 8 4 9 3 10 2 11 1 12 13 13
REMARK SMILES IDX 14 14 15 15 16 16 17 17 18 18 19 19 20 20 21 21 22 22 23 23
REMARK SMILES IDX 24 24
REMARK H PARENT
REMARK Flexibility Score: inf
ROOT
ATOM      1  C   UNL     1     -14.471  -3.518 -32.977  1.00  0.00     0.000 C 
ENDROOT
BRANCH   1   2
ATOM      2  C   UNL     1     -14.599  -2.379 -34.003  1.00  0.00     0.000 C 
BRANCH   2   3
ATOM      3  C   UNL     1     -15.596  -1.292 -33.571  1.00  0.00     0.000 C 
BRANCH   3   4
ATOM      4  C   UNL     1     -14.929  -0.168 -32.761  1.00  0.00    -0.000 C 
BRANCH   4   5
ATOM      5  C   UNL     1     -15.392  -0.140 -31.294  1.00  0.00    -0.000 C 
BRANCH   5   6
ATOM      6  C   UNL     1     -14.307  -0.661 -30.327  1.00  0.00    -0.000 C 
BRANCH   6   7
ATOM      7  C   UNL     1     -12.872  -0.314 -30.755  1.00  0.00    -0.000 C 
BRANCH   7   8
ATOM      8  C   UNL     1     -11.899  -1.497 -30.617  1.00  0.00    -0.000 C 
BRANCH   8   9
ATOM      9  C   UNL     1     -12.569  -2.729 -29.971  1.00  0.00    -0.000 C 
BRANCH   9  10
ATOM     10  C   UNL     1     -11.815  -4.046 -30.232  1.00  0.00    -0.000 C 
BRANCH  10  11
ATOM     11  C   UNL     1     -10.483  -3.837 -30.964  1.00  0.00    -0.003 C 
ATOM     12  C   UNL     1      -9.648  -5.115 -30.964  1.00  0.00     0.004 C 
ENDBRANCH  10  11
ENDBRANCH   9  10
ENDBRANCH   8   9
ENDBRANCH   7   8
ENDBRANCH   6   7
ENDBRANCH   5   6
ENDBRANCH   4   5
ENDBRANCH   3   4
ENDBRANCH   2   3
ENDBRANCH   1   2
BRANCH   1  13
ATOM     13  C   UNL     1     -15.821  -3.982 -32.391  1.00  0.00     0.000 C 
BRANCH  13  14
ATOM     14  C   UNL     1     -15.843  -3.916 -30.855  1.00  0.00     0.000 C 
BRANCH  14  15
ATOM     15  C   UNL     1     -15.358  -5.219 -30.193  1.00  0.00     0.000 C 
BRANCH  15  16
ATOM     16  C   UNL     1     -15.691  -6.507 -30.970  1.00  0.00     0.000 C 
BRANCH  16  17
ATOM     17  C   UNL     1     -14.743  -7.671 -30.631  1.00  0.00     0.000 C 
BRANCH  17  18
ATOM     18  C   UNL     1     -13.544  -7.229 -29.778  1.00  0.00     0.000 C 
BRANCH  18  19
ATOM     19  C   UNL     1     -12.858  -8.406 -29.062  1.00  0.00     0.000 C 
BRANCH  19  20
ATOM     20  C   UNL     1     -12.255  -8.005 -27.703  1.00  0.00     0.006 C 
BRANCH  20  21
ATOM     21  C   UNL     1     -11.993  -6.499 -27.553  1.00  0.00     0.053 C 
BRANCH  21  22
ATOM     22  C   UNL     1     -10.529  -6.194 -27.478  1.00  0.00     0.041 C 
ATOM     23  O   UNL     1     -10.135  -5.020 -27.248  1.00  0.00    -0.550 OA
ATOM     24  O   UNL     1      -9.598  -7.202 -27.698  1.00  0.00    -0.550 OA
ENDBRANCH  21  22
ENDBRANCH  20  21
ENDBRANCH  19  20
ENDBRANCH  18  19
ENDBRANCH  17  18
ENDBRANCH  16  17
ENDBRANCH  15  16
ENDBRANCH  14  15
ENDBRANCH  13  14
ENDBRANCH   1  13
TORSDOF 20
ENDMDL
MODEL 2
REMARK VINA RESULT:    -3.951      1.428      3.057
REMARK INTER + INTRA:         -12.060
REMARK INTER:                  -9.113
REMARK INTRA:                  -2.947
REMARK UNBOUND:                -3.489
REMARK SMILES CCCCCCCCCCCCCCCCCCCCCC(=O)[O-]
REMARK SMILES IDX 12 1 11 2 10 3 9 4 8 5 7 6 6 7 5 8 4 9 3 10 2 11 1 12 13 13
REMARK SMILES IDX 14 14 15 15 16 16 17 17 18 18 19 19 20 20 21 21 22 22 23 23
REMARK SMILES IDX 24 24
REMARK H PARENT
REMARK Flexibility Score: inf
ROOT
ATOM      1  C   UNL     1     -14.678  -4.847 -31.115  1.00  0.00     0.000 C 
ENDROOT
BRANCH   1   2
ATOM      2  C   UNL     1     -13.662  -4.349 -32.157  1.00  0.00     0.000 C 
BRANCH   2   3
ATOM      3  C   UNL     1     -14.318  -3.927 -33.481  1.00  0.00     0.000 C 
BRANCH   3   4
ATOM      4  C   UNL     1     -15.574  -3.066 -33.269  1.00  0.00    -0.000 C 
BRANCH   4   5
ATOM      5  C   UNL     1     -15.391  -1.620 -33.762  1.00  0.00    -0.000 C 
BRANCH   5   6
ATOM      6  C   UNL     1     -15.042  -0.648 -32.615  1.00  0.00    -0.000 C 
BRANCH   6   7
ATOM      7  C   UNL     1     -15.555  -1.101 -31.238  1.00  0.00    -0.000 C 
BRANCH   7   8
ATOM      8  C   UNL     1     -14.502  -0.958 -30.126  1.00  0.00    -0.000 C 
BRANCH   8   9
ATOM      9  C   UNL     1     -13.064  -0.941 -30.685  1.00  0.00    -0.000 C 
BRANCH   9  10
ATOM     10  C   UNL     1     -12.116  -1.923 -29.973  1.00  0.00    -0.000 C 
BRANCH  10  11
ATOM     11  C   UNL     1     -10.805  -2.148 -30.738  1.00  0.00    -0.003 C 
ATOM     12  C   UNL     1      -9.943  -0.888 -30.736  1.00  0.00     0.004 C 
ENDBRANCH  10  11
ENDBRANCH   9  10
ENDBRANCH   8   9
ENDBRANCH   7   8
ENDBRANCH   6   7
ENDBRANCH   5   6
ENDBRANCH   4   5
ENDBRANCH   3   4
ENDBRANCH   2   3
ENDBRANCH   1   2
BRANCH   1  13
ATOM     13  C   UNL     1     -15.405  -6.144 -31.527  1.00  0.00     0.000 C 
BRANCH  13  14
ATOM     14  C   UNL     1     -15.004  -7.341 -30.648  1.00  0.00     0.000 C 
BRANCH  14  15
ATOM     15  C   UNL     1     -13.670  -7.122 -29.912  1.00  0.00     0.000 C 
BRANCH  15  16
ATOM     16  C   UNL     1     -13.029  -8.397 -29.330  1.00  0.00     0.000 C 
BRANCH  16  17
ATOM     17  C   UNL     1     -12.333  -8.153 -27.980  1.00  0.00     0.000 C 
BRANCH  17  18
ATOM     18  C   UNL     1     -12.065  -6.664 -27.712  1.00  0.00     0.000 C 
BRANCH  18  19
ATOM     19  C   UNL     1     -10.587  -6.281 -27.909  1.00  0.00     0.000 C 
BRANCH  19  20
ATOM     20  C   UNL     1     -10.374  -5.326 -29.097  1.00  0.00     0.006 C 
BRANCH  20  21
ATOM     21  C   UNL     1     -10.187  -6.035 -30.447  1.00  0.00     0.053 C 
BRANCH  21  22
ATOM     22  C   UNL     1      -8.823  -6.638 -30.576  1.00  0.00     0.041 C 
ATOM     23  O   UNL     1      -7.826  -5.911 -30.827  1.00  0.00    -0.550 OA
ATOM     24  O   UNL     1      -8.658  -8.013 -30.452  1.00  0.00    -0.550 OA
ENDBRANCH  21  22
ENDBRANCH  20  21
ENDBRANCH  19  20
ENDBRANCH  18  19
ENDBRANCH  17  18
ENDBRANCH  16  17
ENDBRANCH  15  16
ENDBRANCH  14  15
ENDBRANCH  13  14
ENDBRANCH   1  13
TORSDOF 20
ENDMDL
MODEL 3
REMARK VINA RESULT:    -3.911      1.997      5.355
REMARK INTER + INTRA:         -11.973
REMARK INTER:                  -8.898
REMARK INTRA:                  -3.075
REMARK UNBOUND:                -3.489
REMARK SMILES CCCCCCCCCCCCCCCCCCCCCC(=O)[O-]
REMARK SMILES IDX 12 1 11 2 10 3 9 4 8 5 7 6 6 7 5 8 4 9 3 10 2 11 1 12 13 13
REMARK SMILES IDX 14 14 15 15 16 16 17 17 18 18 19 19 20 20 21 21 22 22 23 23
REMARK SMILES IDX 24 24
REMARK H PARENT
REMARK Flexibility Score: inf
ROOT
ATOM      1  C   UNL     1     -14.367  -3.658 -33.541  1.00  0.00     0.000 C 
ENDROOT
BRANCH   1   2
ATOM      2  C   UNL     1     -15.400  -4.325 -32.617  1.00  0.00     0.000 C 
BRANCH   2   3
ATOM      3  C   UNL     1     -14.760  -5.245 -31.566  1.00  0.00     0.000 C 
BRANCH   3   4
ATOM      4  C   UNL     1     -15.737  -6.308 -31.037  1.00  0.00    -0.000 C 
BRANCH   4   5
ATOM      5  C   UNL     1     -15.024  -7.593 -30.581  1.00  0.00    -0.000 C 
BRANCH   5   6
ATOM      6  C   UNL     1     -13.580  -7.325 -30.107  1.00  0.00    -0.000 C 
BRANCH   6   7
ATOM      7  C   UNL     1     -13.060  -8.349 -29.084  1.00  0.00    -0.000 C 
BRANCH   7   8
ATOM      8  C   UNL     1     -12.256  -7.704 -27.943  1.00  0.00    -0.000 C 
BRANCH   8   9
ATOM      9  C   UNL     1     -12.006  -6.200 -28.183  1.00  0.00    -0.000 C 
BRANCH   9  10
ATOM     10  C   UNL     1     -10.540  -5.864 -28.510  1.00  0.00    -0.000 C 
BRANCH  10  11
ATOM     11  C   UNL     1     -10.108  -6.360 -29.896  1.00  0.00    -0.003 C 
ATOM     12  C   UNL     1      -8.742  -7.040 -29.837  1.00  0.00     0.004 C 
ENDBRANCH  10  11
ENDBRANCH   9  10
ENDBRANCH   8   9
ENDBRANCH   7   8
ENDBRANCH   6   7
ENDBRANCH   5   6
ENDBRANCH   4   5
ENDBRANCH   3   4
ENDBRANCH   2   3
ENDBRANCH   1   2
BRANCH   1  13
ATOM     13  C   UNL     1     -14.726  -2.209 -33.932  1.00  0.00     0.000 C 
BRANCH  13  14
ATOM     14  C   UNL     1     -15.466  -1.468 -32.805  1.00  0.00     0.000 C 
BRANCH  14  15
ATOM     15  C   UNL     1     -14.676  -0.262 -32.263  1.00  0.00     0.000 C 
BRANCH  15  16
ATOM     16  C   UNL     1     -13.682  -0.590 -31.132  1.00  0.00     0.000 C 
BRANCH  16  17
ATOM     17  C   UNL     1     -14.218  -1.648 -30.153  1.00  0.00     0.000 C 
BRANCH  17  18
ATOM     18  C   UNL     1     -13.148  -2.673 -29.745  1.00  0.00     0.000 C 
BRANCH  18  19
ATOM     19  C   UNL     1     -12.011  -2.789 -30.776  1.00  0.00     0.000 C 
BRANCH  19  20
ATOM     20  C   UNL     1     -10.617  -2.630 -30.142  1.00  0.00     0.006 C 
BRANCH  20  21
ATOM     21  C   UNL     1      -9.462  -2.637 -31.155  1.00  0.00     0.053 C 
BRANCH  21  22
ATOM     22  C   UNL     1      -8.368  -1.694 -30.760  1.00  0.00     0.041 C 
ATOM     23  O   UNL     1      -7.622  -1.960 -29.782  1.00  0.00    -0.550 OA
ATOM     24  O   UNL     1      -8.197  -0.502 -31.453  1.00  0.00    -0.550 OA
ENDBRANCH  21  22
ENDBRANCH  20  21
ENDBRANCH  19  20
ENDBRANCH  18  19
ENDBRANCH  17  18
ENDBRANCH  16  17
ENDBRANCH  15  16
ENDBRANCH  14  15
ENDBRANCH  13  14
ENDBRANCH   1  13
TORSDOF 20
ENDMDL
MODEL 4
REMARK VINA RESULT:    -3.909      2.183      6.710
REMARK INTER + INTRA:         -11.969
REMARK INTER:                  -9.441
REMARK INTRA:                  -2.527
REMARK UNBOUND:                -3.489
REMARK SMILES CCCCCCCCCCCCCCCCCCCCCC(=O)[O-]
REMARK SMILES IDX 12 1 11 2 10 3 9 4 8 5 7 6 6 7 5 8 4 9 3 10 2 11 1 12 13 13
REMARK SMILES IDX 14 14 15 15 16 16 17 17 18 18 19 19 20 20 21 21 22 22 23 23
REMARK SMILES IDX 24 24
REMARK H PARENT
REMARK Flexibility Score: inf
ROOT
ATOM      1  C   UNL     1     -10.397  -7.470 -28.404  1.00  0.00     0.000 C 
ENDROOT
BRANCH   1   2
ATOM      2  C   UNL     1     -11.920  -7.257 -28.411  1.00  0.00     0.000 C 
BRANCH   2   3
ATOM      3  C   UNL     1     -12.707  -8.558 -28.638  1.00  0.00     0.000 C 
BRANCH   3   4
ATOM      4  C   UNL     1     -13.690  -8.455 -29.816  1.00  0.00    -0.000 C 
BRANCH   4   5
ATOM      5  C   UNL     1     -13.985  -6.999 -30.215  1.00  0.00    -0.000 C 
BRANCH   5   6
ATOM      6  C   UNL     1     -15.392  -6.833 -30.830  1.00  0.00    -0.000 C 
BRANCH   6   7
ATOM      7  C   UNL     1     -15.543  -5.582 -31.711  1.00  0.00    -0.000 C 
BRANCH   7   8
ATOM      8  C   UNL     1     -14.197  -4.927 -32.063  1.00  0.00    -0.000 C 
BRANCH   8   9
ATOM      9  C   UNL     1     -14.343  -3.420 -32.363  1.00  0.00    -0.000 C 
BRANCH   9  10
ATOM     10  C   UNL     1     -15.560  -3.084 -33.244  1.00  0.00    -0.000 C 
BRANCH  10  11
ATOM     11  C   UNL     1     -15.380  -1.786 -34.042  1.00  0.00    -0.003 C 
ATOM     12  C   UNL     1     -15.207  -0.587 -33.112  1.00  0.00     0.004 C 
ENDBRANCH  10  11
ENDBRANCH   9  10
ENDBRANCH   8   9
ENDBRANCH   7   8
ENDBRANCH   6   7
ENDBRANCH   5   6
ENDBRANCH   4   5
ENDBRANCH   3   4
ENDBRANCH   2   3
ENDBRANCH   1   2
BRANCH   1  13
ATOM     13  C   UNL     1      -9.947  -8.763 -29.117  1.00  0.00     0.000 C 
BRANCH  13  14
ATOM     14  C   UNL     1      -8.699  -8.544 -29.988  1.00  0.00     0.000 C 
BRANCH  14  15
ATOM     15  C   UNL     1      -7.661  -7.620 -29.323  1.00  0.00     0.000 C 
BRANCH  15  16
ATOM     16  C   UNL     1      -7.343  -6.329 -30.101  1.00  0.00     0.000 C 
BRANCH  16  17
ATOM     17  C   UNL     1      -8.442  -5.955 -31.111  1.00  0.00     0.000 C 
BRANCH  17  18
ATOM     18  C   UNL     1      -9.083  -4.591 -30.809  1.00  0.00     0.000 C 
BRANCH  18  19
ATOM     19  C   UNL     1     -10.618  -4.617 -30.929  1.00  0.00     0.000 C 
BRANCH  19  20
ATOM     20  C   UNL     1     -11.302  -3.577 -30.023  1.00  0.00     0.006 C 
BRANCH  20  21
ATOM     21  C   UNL     1     -11.445  -2.186 -30.659  1.00  0.00     0.053 C 
BRANCH  21  22
ATOM     22  C   UNL     1     -10.329  -1.272 -30.258  1.00  0.00     0.041 C 
ATOM     23  O   UNL     1      -9.857  -0.444 -31.081  1.00  0.00    -0.550 OA
ATOM     24  O   UNL     1      -9.786  -1.360 -28.981  1.00  0.00    -0.550 OA
ENDBRANCH  21  22
ENDBRANCH  20  21
ENDBRANCH  19  20
ENDBRANCH  18  19
ENDBRANCH  17  18
ENDBRANCH  16  17
ENDBRANCH  15  16
ENDBRANCH  14  15
ENDBRANCH  13  14
ENDBRANCH   1  13
TORSDOF 20
ENDMDL
MODEL 5
REMARK VINA RESULT:    -3.881      1.470      5.695
REMARK INTER + INTRA:         -11.908
REMARK INTER:                  -8.835
REMARK INTRA:                  -3.074
REMARK UNBOUND:                -3.489
REMARK SMILES CCCCCCCCCCCCCCCCCCCCCC(=O)[O-]
REMARK SMILES IDX 12 1 11 2 10 3 9 4 8 5 7 6 6 7 5 8 4 9 3 10 2 11 1 12 13 13
REMARK SMILES IDX 14 14 15 15 16 16 17 17 18 18 19 19 20 20 21 21 22 22 23 23
REMARK SMILES IDX 24 24
REMARK H PARENT
REMARK Flexibility Score: inf
ROOT
ATOM      1  C   UNL     1     -13.897  -4.341 -32.053  1.00  0.00     0.000 C 
ENDROOT
BRANCH   1   2
ATOM      2  C   UNL     1     -14.863  -4.009 -30.903  1.00  0.00     0.000 C 
BRANCH   2   3
ATOM      3  C   UNL     1     -15.652  -5.233 -30.410  1.00  0.00     0.000 C 
BRANCH   3   4
ATOM      4  C   UNL     1     -15.493  -6.449 -31.337  1.00  0.00    -0.000 C 
BRANCH   4   5
ATOM      5  C   UNL     1     -15.015  -7.705 -30.588  1.00  0.00    -0.000 C 
BRANCH   5   6
ATOM      6  C   UNL     1     -13.626  -7.511 -29.944  1.00  0.00    -0.000 C 
BRANCH   6   7
ATOM      7  C   UNL     1     -13.148  -8.716 -29.117  1.00  0.00    -0.000 C 
BRANCH   7   8
ATOM      8  C   UNL     1     -11.797  -8.473 -28.424  1.00  0.00    -0.000 C 
BRANCH   8   9
ATOM      9  C   UNL     1     -11.785  -7.158 -27.616  1.00  0.00    -0.000 C 
BRANCH   9  10
ATOM     10  C   UNL     1     -10.760  -6.130 -28.129  1.00  0.00    -0.000 C 
BRANCH  10  11
ATOM     11  C   UNL     1     -10.059  -6.579 -29.418  1.00  0.00    -0.003 C 
ATOM     12  C   UNL     1     -10.414  -5.663 -30.587  1.00  0.00     0.004 C 
ENDBRANCH  10  11
ENDBRANCH   9  10
ENDBRANCH   8   9
ENDBRANCH   7   8
ENDBRANCH   6   7
ENDBRANCH   5   6
ENDBRANCH   4   5
ENDBRANCH   3   4
ENDBRANCH   2   3
ENDBRANCH   1   2
BRANCH   1  13
ATOM     13  C   UNL     1     -14.311  -3.731 -33.409  1.00  0.00     0.000 C 
BRANCH  13  14
ATOM     14  C   UNL     1     -15.432  -2.688 -33.261  1.00  0.00     0.000 C 
BRANCH  14  15
ATOM     15  C   UNL     1     -15.079  -1.335 -33.905  1.00  0.00     0.000 C 
BRANCH  15  16
ATOM     16  C   UNL     1     -15.135  -0.125 -32.952  1.00  0.00     0.000 C 
BRANCH  16  17
ATOM     17  C   UNL     1     -15.547  -0.510 -31.521  1.00  0.00     0.000 C 
BRANCH  17  18
ATOM     18  C   UNL     1     -14.392  -0.378 -30.516  1.00  0.00     0.000 C 
BRANCH  18  19
ATOM     19  C   UNL     1     -13.128   0.240 -31.141  1.00  0.00     0.000 C 
BRANCH  19  20
ATOM     20  C   UNL     1     -11.832  -0.272 -30.489  1.00  0.00     0.006 C 
BRANCH  20  21
ATOM     21  C   UNL     1     -11.612  -1.786 -30.630  1.00  0.00     0.053 C 
BRANCH  21  22
ATOM     22  C   UNL     1     -11.420  -2.448 -29.301  1.00  0.00     0.041 C 
ATOM     23  O   UNL     1     -12.396  -2.980 -28.708  1.00  0.00    -0.550 OA
ATOM     24  O   UNL     1     -10.168  -2.444 -28.699  1.00  0.00    -0.550 OA
ENDBRANCH  21  22
ENDBRANCH  20  21
ENDBRANCH  19  20
ENDBRANCH  18  19
ENDBRANCH  17  18
ENDBRANCH  16  17
ENDBRANCH  15  16
ENDBRANCH  14  15
ENDBRANCH  13  14
ENDBRANCH   1  13
TORSDOF 20
ENDMDL
MODEL 6
REMARK VINA RESULT:    -3.878      1.595      5.375
REMARK INTER + INTRA:         -11.901
REMARK INTER:                  -8.594
REMARK INTRA:                  -3.307
REMARK UNBOUND:                -3.489
REMARK SMILES CCCCCCCCCCCCCCCCCCCCCC(=O)[O-]
REMARK SMILES IDX 12 1 11 2 10 3 9 4 8 5 7 6 6 7 5 8 4 9 3 10 2 11 1 12 13 13
REMARK SMILES IDX 14 14 15 15 16 16 17 17 18 18 19 19 20 20 21 21 22 22 23 23
REMARK SMILES IDX 24 24
REMARK H PARENT
REMARK Flexibility Score: inf
ROOT
ATOM      1  C   UNL     1     -14.155  -4.783 -32.168  1.00  0.00     0.000 C 
ENDROOT
BRANCH   1   2
ATOM      2  C   UNL     1     -15.510  -5.373 -31.742  1.00  0.00     0.000 C 
BRANCH   2   3
ATOM      3  C   UNL     1     -15.421  -6.216 -30.460  1.00  0.00     0.000 C 
BRANCH   3   4
ATOM      4  C   UNL     1     -14.936  -7.650 -30.728  1.00  0.00    -0.000 C 
BRANCH   4   5
ATOM      5  C   UNL     1     -13.729  -8.039 -29.857  1.00  0.00    -0.000 C 
BRANCH   5   6
ATOM      6  C   UNL     1     -12.864  -6.820 -29.474  1.00  0.00    -0.000 C 
BRANCH   6   7
ATOM      7  C   UNL     1     -12.341  -6.856 -28.029  1.00  0.00    -0.000 C 
BRANCH   7   8
ATOM      8  C   UNL     1     -10.806  -6.838 -27.943  1.00  0.00    -0.000 C 
BRANCH   8   9
ATOM      9  C   UNL     1     -10.143  -7.080 -29.316  1.00  0.00    -0.000 C 
BRANCH   9  10
ATOM     10  C   UNL     1      -9.266  -5.908 -29.791  1.00  0.00    -0.000 C 
BRANCH  10  11
ATOM     11  C   UNL     1      -9.749  -5.297 -31.113  1.00  0.00    -0.003 C 
ATOM     12  C   UNL     1     -10.715  -4.141 -30.865  1.00  0.00     0.004 C 
ENDBRANCH  10  11
ENDBRANCH   9  10
ENDBRANCH   8   9
ENDBRANCH   7   8
ENDBRANCH   6   7
ENDBRANCH   5   6
ENDBRANCH   4   5
ENDBRANCH   3   4
ENDBRANCH   2   3
ENDBRANCH   1   2
BRANCH   1  13
ATOM     13  C   UNL     1     -14.263  -3.705 -33.266  1.00  0.00     0.000 C 
BRANCH  13  14
ATOM     14  C   UNL     1     -15.629  -2.998 -33.256  1.00  0.00     0.000 C 
BRANCH  14  15
ATOM     15  C   UNL     1     -15.623  -1.674 -34.043  1.00  0.00     0.000 C 
BRANCH  15  16
ATOM     16  C   UNL     1     -15.089  -0.456 -33.265  1.00  0.00     0.000 C 
BRANCH  16  17
ATOM     17  C   UNL     1     -15.150  -0.646 -31.740  1.00  0.00     0.000 C 
BRANCH  17  18
ATOM     18  C   UNL     1     -13.793  -0.411 -31.059  1.00  0.00     0.000 C 
BRANCH  18  19
ATOM     19  C   UNL     1     -13.379  -1.574 -30.139  1.00  0.00     0.000 C 
BRANCH  19  20
ATOM     20  C   UNL     1     -14.584  -2.264 -29.477  1.00  0.00     0.006 C 
BRANCH  20  21
ATOM     21  C   UNL     1     -14.218  -3.502 -28.643  1.00  0.00     0.053 C 
BRANCH  21  22
ATOM     22  C   UNL     1     -13.279  -3.165 -27.527  1.00  0.00     0.041 C 
ATOM     23  O   UNL     1     -12.043  -3.373 -27.652  1.00  0.00    -0.550 OA
ATOM     24  O   UNL     1     -13.774  -2.653 -26.334  1.00  0.00    -0.550 OA
ENDBRANCH  21  22
ENDBRANCH  20  21
ENDBRANCH  19  20
ENDBRANCH  18  19
ENDBRANCH  17  18
ENDBRANCH  16  17
ENDBRANCH  15  16
ENDBRANCH  14  15
ENDBRANCH  13  14
ENDBRANCH   1  13
TORSDOF 20
ENDMDL
MODEL 7
REMARK VINA RESULT:    -3.862      2.357      6.307
REMARK INTER + INTRA:         -11.865
REMARK INTER:                  -8.701
REMARK INTRA:                  -3.164
REMARK UNBOUND:                -3.489
REMARK SMILES CCCCCCCCCCCCCCCCCCCCCC(=O)[O-]
REMARK SMILES IDX 12 1 11 2 10 3 9 4 8 5 7 6 6 7 5 8 4 9 3 10 2 11 1 12 13 13
REMARK SMILES IDX 14 14 15 15 16 16 17 17 18 18 19 19 20 20 21 21 22 22 23 23
REMARK SMILES IDX 24 24
REMARK H PARENT
REMARK Flexibility Score: inf
ROOT
ATOM      1  C   UNL     1     -11.101  -7.024 -27.785  1.00  0.00     0.000 C 
ENDROOT
BRANCH   1   2
ATOM      2  C   UNL     1     -12.425  -6.425 -28.288  1.00  0.00     0.000 C 
BRANCH   2   3
ATOM      3  C   UNL     1     -12.768  -6.850 -29.725  1.00  0.00     0.000 C 
BRANCH   3   4
ATOM      4  C   UNL     1     -13.738  -8.042 -29.773  1.00  0.00    -0.000 C 
BRANCH   4   5
ATOM      5  C   UNL     1     -14.999  -7.746 -30.603  1.00  0.00    -0.000 C 
BRANCH   5   6
ATOM      6  C   UNL     1     -15.363  -6.246 -30.603  1.00  0.00    -0.000 C 
BRANCH   6   7
ATOM      7  C   UNL     1     -15.788  -5.708 -31.979  1.00  0.00    -0.000 C 
BRANCH   7   8
ATOM      8  C   UNL     1     -15.213  -4.315 -32.285  1.00  0.00    -0.000 C 
BRANCH   8   9
ATOM      9  C   UNL     1     -13.669  -4.307 -32.277  1.00  0.00    -0.000 C 
BRANCH   9  10
ATOM     10  C   UNL     1     -13.064  -3.071 -31.588  1.00  0.00    -0.000 C 
BRANCH  10  11
ATOM     11  C   UNL     1     -13.970  -2.494 -30.492  1.00  0.00    -0.003 C 
ATOM     12  C   UNL     1     -13.716  -3.178 -29.150  1.00  0.00     0.004 C 
ENDBRANCH  10  11
ENDBRANCH   9  10
ENDBRANCH   8   9
ENDBRANCH   7   8
ENDBRANCH   6   7
ENDBRANCH   5   6
ENDBRANCH   4   5
ENDBRANCH   3   4
ENDBRANCH   2   3
ENDBRANCH   1   2
BRANCH   1  13
ATOM     13  C   UNL     1     -11.034  -8.562 -27.892  1.00  0.00     0.000 C 
BRANCH  13  14
ATOM     14  C   UNL     1      -9.608  -9.065 -28.170  1.00  0.00     0.000 C 
BRANCH  14  15
ATOM     15  C   UNL     1      -9.204  -8.932 -29.650  1.00  0.00     0.000 C 
BRANCH  15  16
ATOM     16  C   UNL     1      -7.865  -8.212 -29.898  1.00  0.00     0.000 C 
BRANCH  16  17
ATOM     17  C   UNL     1      -7.931  -6.706 -29.594  1.00  0.00     0.000 C 
BRANCH  17  18
ATOM     18  C   UNL     1      -8.282  -5.866 -30.832  1.00  0.00     0.000 C 
BRANCH  18  19
ATOM     19  C   UNL     1      -9.707  -5.285 -30.772  1.00  0.00     0.000 C 
BRANCH  19  20
ATOM     20  C   UNL     1      -9.744  -3.863 -30.185  1.00  0.00     0.006 C 
BRANCH  20  21
ATOM     21  C   UNL     1      -9.334  -2.763 -31.176  1.00  0.00     0.053 C 
BRANCH  21  22
ATOM     22  C   UNL     1      -8.229  -1.909 -30.635  1.00  0.00     0.041 C 
ATOM     23  O   UNL     1      -8.190  -0.678 -30.897  1.00  0.00    -0.550 OA
ATOM     24  O   UNL     1      -7.222  -2.482 -29.868  1.00  0.00    -0.550 OA
ENDBRANCH  21  22
ENDBRANCH  20  21
ENDBRANCH  19  20
ENDBRANCH  18  19
ENDBRANCH  17  18
ENDBRANCH  16  17
ENDBRANCH  15  16
ENDBRANCH  14  15
ENDBRANCH  13  14
ENDBRANCH   1  13
TORSDOF 20
ENDMDL
MODEL 8
REMARK VINA RESULT:    -3.809      1.945      5.453
REMARK INTER + INTRA:         -11.750
REMARK INTER:                  -8.969
REMARK INTRA:                  -2.781
REMARK UNBOUND:                -3.489
REMARK SMILES CCCCCCCCCCCCCCCCCCCCCC(=O)[O-]
REMARK SMILES IDX 12 1 11 2 10 3 9 4 8 5 7 6 6 7 5 8 4 9 3 10 2 11 1 12 13 13
REMARK SMILES IDX 14 14 15 15 16 16 17 17 18 18 19 19 20 20 21 21 22 22 23 23
REMARK SMILES IDX 24 24
REMARK H PARENT
REMARK Flexibility Score: inf
ROOT
ATOM      1  C   UNL     1     -13.668  -7.139 -29.899  1.00  0.00     0.000 C 
ENDROOT
BRANCH   1   2
ATOM      2  C   UNL     1     -14.957  -7.443 -30.681  1.00  0.00     0.000 C 
BRANCH   2   3
ATOM      3  C   UNL     1     -15.514  -6.215 -31.420  1.00  0.00     0.000 C 
BRANCH   3   4
ATOM      4  C   UNL     1     -14.736  -4.929 -31.098  1.00  0.00    -0.000 C 
BRANCH   4   5
ATOM      5  C   UNL     1     -13.749  -4.540 -32.213  1.00  0.00    -0.000 C 
BRANCH   5   6
ATOM      6  C   UNL     1     -14.467  -4.002 -33.469  1.00  0.00    -0.000 C 
BRANCH   6   7
ATOM      7  C   UNL     1     -15.567  -2.971 -33.165  1.00  0.00    -0.000 C 
BRANCH   7   8
ATOM      8  C   UNL     1     -15.471  -1.711 -34.041  1.00  0.00    -0.000 C 
BRANCH   8   9
ATOM      9  C   UNL     1     -15.226  -0.438 -33.204  1.00  0.00    -0.000 C 
BRANCH   9  10
ATOM     10  C   UNL     1     -15.174  -0.698 -31.688  1.00  0.00    -0.000 C 
BRANCH  10  11
ATOM     11  C   UNL     1     -13.789  -0.430 -31.083  1.00  0.00    -0.003 C 
ATOM     12  C   UNL     1     -13.905   0.122 -29.665  1.00  0.00     0.004 C 
ENDBRANCH  10  11
ENDBRANCH   9  10
ENDBRANCH   8   9
ENDBRANCH   7   8
ENDBRANCH   6   7
ENDBRANCH   5   6
ENDBRANCH   4   5
ENDBRANCH   3   4
ENDBRANCH   2   3
ENDBRANCH   1   2
BRANCH   1  13
ATOM     13  C   UNL     1     -13.101  -8.355 -29.137  1.00  0.00     0.000 C 
BRANCH  13  14
ATOM     14  C   UNL     1     -12.070  -7.947 -28.072  1.00  0.00     0.000 C 
BRANCH  14  15
ATOM     15  C   UNL     1     -10.623  -8.274 -28.484  1.00  0.00     0.000 C 
BRANCH  15  16
ATOM     16  C   UNL     1      -9.733  -7.049 -28.768  1.00  0.00     0.000 C 
BRANCH  16  17
ATOM     17  C   UNL     1      -9.840  -6.556 -30.222  1.00  0.00     0.000 C 
BRANCH  17  18
ATOM     18  C   UNL     1     -10.010  -5.032 -30.319  1.00  0.00     0.000 C 
BRANCH  18  19
ATOM     19  C   UNL     1     -11.243  -4.520 -29.553  1.00  0.00     0.000 C 
BRANCH  19  20
ATOM     20  C   UNL     1     -11.387  -2.989 -29.614  1.00  0.00     0.006 C 
BRANCH  20  21
ATOM     21  C   UNL     1     -10.696  -2.340 -30.823  1.00  0.00     0.053 C 
BRANCH  21  22
ATOM     22  C   UNL     1      -9.991  -1.074 -30.448  1.00  0.00     0.041 C 
ATOM     23  O   UNL     1      -9.156  -1.066 -29.505  1.00  0.00    -0.550 OA
ATOM     24  O   UNL     1     -10.283   0.107 -31.120  1.00  0.00    -0.550 OA
ENDBRANCH  21  22
ENDBRANCH  20  21
ENDBRANCH  19  20
ENDBRANCH  18  19
ENDBRANCH  17  18
ENDBRANCH  16  17
ENDBRANCH  15  16
ENDBRANCH  14  15
ENDBRANCH  13  14
ENDBRANCH   1  13
TORSDOF 20
ENDMDL
MODEL 9
REMARK VINA RESULT:    -3.804      1.651      5.736
REMARK INTER + INTRA:         -11.741
REMARK INTER:                  -8.963
REMARK INTRA:                  -2.778
REMARK UNBOUND:                -3.489
REMARK SMILES CCCCCCCCCCCCCCCCCCCCCC(=O)[O-]
REMARK SMILES IDX 12 1 11 2 10 3 9 4 8 5 7 6 6 7 5 8 4 9 3 10 2 11 1 12 13 13
REMARK SMILES IDX 14 14 15 15 16 16 17 17 18 18 19 19 20 20 21 21 22 22 23 23
REMARK SMILES IDX 24 24
REMARK H PARENT
REMARK Flexibility Score: inf
ROOT
ATOM      1  C   UNL     1     -13.181  -9.054 -29.162  1.00  0.00     0.000 C 
ENDROOT
BRANCH   1   2
ATOM      2  C   UNL     1     -13.480  -7.664 -29.748  1.00  0.00     0.000 C 
BRANCH   2   3
ATOM      3  C   UNL     1     -14.752  -7.638 -30.611  1.00  0.00     0.000 C 
BRANCH   3   4
ATOM      4  C   UNL     1     -15.338  -6.224 -30.757  1.00  0.00    -0.000 C 
BRANCH   4   5
ATOM      5  C   UNL     1     -14.500  -5.158 -30.029  1.00  0.00    -0.000 C 
BRANCH   5   6
ATOM      6  C   UNL     1     -14.001  -4.053 -30.983  1.00  0.00    -0.000 C 
BRANCH   6   7
ATOM      7  C   UNL     1     -13.930  -4.487 -32.456  1.00  0.00    -0.000 C 
BRANCH   7   8
ATOM      8  C   UNL     1     -15.022  -3.842 -33.328  1.00  0.00    -0.000 C 
BRANCH   8   9
ATOM      9  C   UNL     1     -14.590  -2.467 -33.879  1.00  0.00    -0.000 C 
BRANCH   9  10
ATOM     10  C   UNL     1     -15.610  -1.347 -33.606  1.00  0.00    -0.000 C 
BRANCH  10  11
ATOM     11  C   UNL     1     -15.009  -0.168 -32.829  1.00  0.00    -0.003 C 
ATOM     12  C   UNL     1     -15.183  -0.353 -31.324  1.00  0.00     0.004 C 
ENDBRANCH  10  11
ENDBRANCH   9  10
ENDBRANCH   8   9
ENDBRANCH   7   8
ENDBRANCH   6   7
ENDBRANCH   5   6
ENDBRANCH   4   5
ENDBRANCH   3   4
ENDBRANCH   2   3
ENDBRANCH   1   2
BRANCH   1  13
ATOM     13  C   UNL     1     -12.040  -9.057 -28.122  1.00  0.00     0.000 C 
BRANCH  13  14
ATOM     14  C   UNL     1     -10.651  -9.028 -28.782  1.00  0.00     0.000 C 
BRANCH  14  15
ATOM     15  C   UNL     1      -9.646  -8.141 -28.022  1.00  0.00     0.000 C 
BRANCH  15  16
ATOM     16  C   UNL     1      -9.446  -6.732 -28.611  1.00  0.00     0.000 C 
BRANCH  16  17
ATOM     17  C   UNL     1      -9.659  -6.684 -30.134  1.00  0.00     0.000 C 
BRANCH  17  18
ATOM     18  C   UNL     1     -10.639  -5.579 -30.560  1.00  0.00     0.000 C 
BRANCH  18  19
ATOM     19  C   UNL     1      -9.924  -4.320 -31.084  1.00  0.00     0.000 C 
BRANCH  19  20
ATOM     20  C   UNL     1     -10.435  -3.028 -30.423  1.00  0.00     0.006 C 
BRANCH  20  21
ATOM     21  C   UNL     1     -10.402  -3.052 -28.887  1.00  0.00     0.053 C 
BRANCH  21  22
ATOM     22  C   UNL     1     -11.740  -2.739 -28.296  1.00  0.00     0.041 C 
ATOM     23  O   UNL     1     -12.232  -1.585 -28.409  1.00  0.00    -0.550 OA
ATOM     24  O   UNL     1     -12.431  -3.714 -27.587  1.00  0.00    -0.550 OA
ENDBRANCH  21  22
ENDBRANCH  20  21
ENDBRANCH  19  20
ENDBRANCH  18  19
ENDBRANCH  17  18
ENDBRANCH  16  17
ENDBRANCH  15  16
ENDBRANCH  14  15
ENDBRANCH  13  14
ENDBRANCH   1  13
TORSDOF 20
ENDMDL
