MODEL 1
REMARK VINA RESULT:    -4.297      0.000      0.000
REMARK INTER + INTRA:          -8.972
REMARK INTER:                  -7.562
REMARK INTRA:                  -1.410
REMARK UNBOUND:                -1.410
REMARK SMILES CCCCCCCCCCCCCCC(=O)[O-]
REMARK SMILES IDX 9 1 10 2 11 3 12 4 13 5 14 6 15 7 16 8 17 9 8 10 7 11 6 12
REMARK SMILES IDX 5 13 4 14 3 15 2 16 1 17
REMARK H PARENT
REMARK Flexibility Score: inf
ROOT
ATOM      1  C   UNL     1       2.720   9.394  83.000  1.00  0.00     0.000 C 
ENDROOT
BRANCH   1   2
ATOM      2  C   UNL     1       3.903  10.367  83.133  1.00  0.00     0.000 C 
BRANCH   2   3
ATOM      3  C   UNL     1       4.946  10.180  82.018  1.00  0.00     0.000 C 
BRANCH   3   4
ATOM      4  C   UNL     1       5.452   8.730  81.909  1.00  0.00     0.000 C 
BRANCH   4   5
ATOM      5  C   UNL     1       6.921   8.583  81.469  1.00  0.00     0.006 C 
BRANCH   5   6
ATOM      6  C   UNL     1       7.094   7.655  80.260  1.00  0.00     0.053 C 
BRANCH   6   7
ATOM      7  C   UNL     1       8.472   7.785  79.695  1.00  0.00     0.041 C 
ATOM      8  O   UNL     1       8.884   6.963  78.834  1.00  0.00    -0.550 OA
ATOM      9  O   UNL     1       9.286   8.842  80.081  1.00  0.00    -0.550 OA
ENDBRANCH   6   7
ENDBRANCH   5   6
ENDBRANCH   4   5
ENDBRANCH   3   4
ENDBRANCH   2   3
ENDBRANCH   1   2
BRANCH   1  10
ATOM     10  C   UNL     1       1.382  10.037  83.403  1.00  0.00     0.000 C 
BRANCH  10  11
ATOM     11  C   UNL     1       1.528  11.063  84.541  1.00  0.00    -0.000 C 
BRANCH  11  12
ATOM     12  C   UNL     1       1.229  10.525  85.952  1.00  0.00    -0.000 C 
BRANCH  12  13
ATOM     13  C   UNL     1       2.504  10.219  86.758  1.00  0.00    -0.000 C 
BRANCH  13  14
ATOM     14  C   UNL     1       2.788   8.711  86.860  1.00  0.00    -0.000 C 
BRANCH  14  15
ATOM     15  C   UNL     1       1.512   7.861  86.733  1.00  0.00    -0.000 C 
BRANCH  15  16
ATOM     16  C   UNL     1       1.572   6.883  85.549  1.00  0.00    -0.003 C 
ATOM     17  C   UNL     1       2.981   6.351  85.289  1.00  0.00     0.004 C 
ENDBRANCH  15  16
ENDBRANCH  14  15
ENDBRANCH  13  14
ENDBRANCH  12  13
ENDBRANCH  11  12
ENDBRANCH  10  11
ENDBRANCH   1  10
TORSDOF 13
ENDMDL
MODEL 2
REMARK VINA RESULT:    -4.251      1.286      2.030
REMARK INTER + INTRA:          -8.892
REMARK INTER:                  -7.943
REMARK INTRA:                  -0.949
REMARK UNBOUND:                -1.410
REMARK SMILES CCCCCCCCCCCCCCC(=O)[O-]
REMARK SMILES IDX 9 1 10 2 11 3 12 4 13 5 14 6 15 7 16 8 17 9 8 10 7 11 6 12
REMARK SMILES IDX 5 13 4 14 3 15 2 16 1 17
REMARK H PARENT
REMARK Flexibility Score: inf
ROOT
ATOM      1  C   UNL     1       4.732  10.875  83.365  1.00  0.00     0.000 C 
ENDROOT
BRANCH   1   2
ATOM      2  C   UNL     1       4.895  10.296  81.950  1.00  0.00     0.000 C 
BRANCH   2   3
ATOM      3  C   UNL     1       5.364   8.831  81.965  1.00  0.00     0.000 C 
BRANCH   3   4
ATOM      4  C   UNL     1       6.879   8.685  81.736  1.00  0.00     0.000 C 
BRANCH   4   5
ATOM      5  C   UNL     1       7.288   8.303  80.300  1.00  0.00     0.006 C 
BRANCH   5   6
ATOM      6  C   UNL     1       7.118   6.807  80.007  1.00  0.00     0.053 C 
BRANCH   6   7
ATOM      7  C   UNL     1       8.415   6.212  79.559  1.00  0.00     0.041 C 
ATOM      8  O   UNL     1       9.219   6.892  78.870  1.00  0.00    -0.550 OA
ATOM      9  O   UNL     1       8.758   4.922  79.945  1.00  0.00    -0.550 OA
ENDBRANCH   6   7
ENDBRANCH   5   6
ENDBRANCH   4   5
ENDBRANCH   3   4
ENDBRANCH   2   3
ENDBRANCH   1   2
BRANCH   1  10
ATOM     10  C   UNL     1       3.297  11.356  83.641  1.00  0.00     0.000 C 
BRANCH  10  11
ATOM     11  C   UNL     1       2.285  10.856  82.595  1.00  0.00    -0.000 C 
BRANCH  11  12
ATOM     12  C   UNL     1       1.181   9.931  83.140  1.00  0.00    -0.000 C 
BRANCH  12  13
ATOM     13  C   UNL     1       1.259   9.739  84.664  1.00  0.00    -0.000 C 
BRANCH  13  14
ATOM     14  C   UNL     1       1.251   8.256  85.072  1.00  0.00    -0.000 C 
BRANCH  14  15
ATOM     15  C   UNL     1       2.573   7.817  85.725  1.00  0.00    -0.000 C 
BRANCH  15  16
ATOM     16  C   UNL     1       3.076   6.469  85.185  1.00  0.00    -0.003 C 
ATOM     17  C   UNL     1       2.357   5.273  85.810  1.00  0.00     0.004 C 
ENDBRANCH  15  16
ENDBRANCH  14  15
ENDBRANCH  13  14
ENDBRANCH  12  13
ENDBRANCH  11  12
ENDBRANCH  10  11
ENDBRANCH   1  10
TORSDOF 13
ENDMDL
MODEL 3
REMARK VINA RESULT:    -4.247      1.196      2.282
REMARK INTER + INTRA:          -8.884
REMARK INTER:                  -7.903
REMARK INTRA:                  -0.981
REMARK UNBOUND:                -1.410
REMARK SMILES CCCCCCCCCCCCCCC(=O)[O-]
REMARK SMILES IDX 9 1 10 2 11 3 12 4 13 5 14 6 15 7 16 8 17 9 8 10 7 11 6 12
REMARK SMILES IDX 5 13 4 14 3 15 2 16 1 17
REMARK H PARENT
REMARK Flexibility Score: inf
ROOT
ATOM      1  C   UNL     1       3.438  10.587  82.360  1.00  0.00     0.000 C 
ENDROOT
BRANCH   1   2
ATOM      2  C   UNL     1       4.942  10.336  82.161  1.00  0.00     0.000 C 
BRANCH   2   3
ATOM      3  C   UNL     1       5.276   8.840  82.028  1.00  0.00     0.000 C 
BRANCH   3   4
ATOM      4  C   UNL     1       6.712   8.589  81.533  1.00  0.00     0.000 C 
BRANCH   4   5
ATOM      5  C   UNL     1       6.845   7.516  80.436  1.00  0.00     0.006 C 
BRANCH   5   6
ATOM      6  C   UNL     1       7.958   7.826  79.428  1.00  0.00     0.053 C 
BRANCH   6   7
ATOM      7  C   UNL     1       8.910   6.677  79.330  1.00  0.00     0.041 C 
ATOM      8  O   UNL     1      10.079   6.858  78.898  1.00  0.00    -0.550 OA
ATOM      9  O   UNL     1       8.524   5.415  79.764  1.00  0.00    -0.550 OA
ENDBRANCH   6   7
ENDBRANCH   5   6
ENDBRANCH   4   5
ENDBRANCH   3   4
ENDBRANCH   2   3
ENDBRANCH   1   2
BRANCH   1  10
ATOM     10  C   UNL     1       2.943  10.129  83.742  1.00  0.00     0.000 C 
BRANCH  10  11
ATOM     11  C   UNL     1       1.450   9.756  83.751  1.00  0.00    -0.000 C 
BRANCH  11  12
ATOM     12  C   UNL     1       1.067   8.604  84.698  1.00  0.00    -0.000 C 
BRANCH  12  13
ATOM     13  C   UNL     1       2.290   7.868  85.272  1.00  0.00    -0.000 C 
BRANCH  13  14
ATOM     14  C   UNL     1       2.027   7.293  86.674  1.00  0.00    -0.000 C 
BRANCH  14  15
ATOM     15  C   UNL     1       1.478   8.347  87.650  1.00  0.00    -0.000 C 
BRANCH  15  16
ATOM     16  C   UNL     1       2.523   9.414  88.013  1.00  0.00    -0.003 C 
ATOM     17  C   UNL     1       2.086  10.828  87.629  1.00  0.00     0.004 C 
ENDBRANCH  15  16
ENDBRANCH  14  15
ENDBRANCH  13  14
ENDBRANCH  12  13
ENDBRANCH  11  12
ENDBRANCH  10  11
ENDBRANCH   1  10
TORSDOF 13
ENDMDL
MODEL 4
REMARK VINA RESULT:    -4.235      4.254      7.414
REMARK INTER + INTRA:          -8.863
REMARK INTER:                  -8.284
REMARK INTRA:                  -0.580
REMARK UNBOUND:                -1.410
REMARK SMILES CCCCCCCCCCCCCCC(=O)[O-]
REMARK SMILES IDX 9 1 10 2 11 3 12 4 13 5 14 6 15 7 16 8 17 9 8 10 7 11 6 12
REMARK SMILES IDX 5 13 4 14 3 15 2 16 1 17
REMARK H PARENT
REMARK Flexibility Score: inf
ROOT
ATOM      1  C   UNL     1       1.928   9.396  83.580  1.00  0.00     0.000 C 
ENDROOT
BRANCH   1   2
ATOM      2  C   UNL     1       1.791   8.872  85.018  1.00  0.00     0.000 C 
BRANCH   2   3
ATOM      3  C   UNL     1       2.544   7.549  85.237  1.00  0.00     0.000 C 
BRANCH   3   4
ATOM      4  C   UNL     1       1.608   6.376  85.581  1.00  0.00     0.000 C 
BRANCH   4   5
ATOM      5  C   UNL     1       2.319   5.051  85.915  1.00  0.00     0.006 C 
BRANCH   5   6
ATOM      6  C   UNL     1       1.685   4.314  87.102  1.00  0.00     0.053 C 
BRANCH   6   7
ATOM      7  C   UNL     1       2.442   3.060  87.403  1.00  0.00     0.041 C 
ATOM      8  O   UNL     1       2.044   2.282  88.310  1.00  0.00    -0.550 OA
ATOM      9  O   UNL     1       3.560   2.725  86.649  1.00  0.00    -0.550 OA
ENDBRANCH   6   7
ENDBRANCH   5   6
ENDBRANCH   4   5
ENDBRANCH   3   4
ENDBRANCH   2   3
ENDBRANCH   1   2
BRANCH   1  10
ATOM     10  C   UNL     1       3.315   9.108  82.979  1.00  0.00     0.000 C 
BRANCH  10  11
ATOM     11  C   UNL     1       4.174  10.376  82.821  1.00  0.00    -0.000 C 
BRANCH  11  12
ATOM     12  C   UNL     1       5.360  10.247  81.848  1.00  0.00    -0.000 C 
BRANCH  12  13
ATOM     13  C   UNL     1       5.886   8.806  81.731  1.00  0.00    -0.000 C 
BRANCH  13  14
ATOM     14  C   UNL     1       7.315   8.745  81.167  1.00  0.00    -0.000 C 
BRANCH  14  15
ATOM     15  C   UNL     1       7.375   8.064  79.788  1.00  0.00    -0.000 C 
BRANCH  15  16
ATOM     16  C   UNL     1       6.724   6.672  79.790  1.00  0.00    -0.003 C 
ATOM     17  C   UNL     1       7.745   5.538  79.881  1.00  0.00     0.004 C 
ENDBRANCH  15  16
ENDBRANCH  14  15
ENDBRANCH  13  14
ENDBRANCH  12  13
ENDBRANCH  11  12
ENDBRANCH  10  11
ENDBRANCH   1  10
TORSDOF 13
ENDMDL
MODEL 5
REMARK VINA RESULT:    -4.092      3.661      7.050
REMARK INTER + INTRA:          -8.612
REMARK INTER:                  -7.502
REMARK INTRA:                  -1.111
REMARK UNBOUND:                -1.410
REMARK SMILES CCCCCCCCCCCCCCC(=O)[O-]
REMARK SMILES IDX 9 1 10 2 11 3 12 4 13 5 14 6 15 7 16 8 17 9 8 10 7 11 6 12
REMARK SMILES IDX 5 13 4 14 3 15 2 16 1 17
REMARK H PARENT
REMARK Flexibility Score: inf
ROOT
ATOM      1  C   UNL     1       3.184  11.108  84.425  1.00  0.00     0.000 C 
ENDROOT
BRANCH   1   2
ATOM      2  C   UNL     1       1.941  10.556  83.709  1.00  0.00     0.000 C 
BRANCH   2   3
ATOM      3  C   UNL     1       1.377   9.298  84.392  1.00  0.00     0.000 C 
BRANCH   3   4
ATOM      4  C   UNL     1       1.696   9.241  85.897  1.00  0.00     0.000 C 
BRANCH   4   5
ATOM      5  C   UNL     1       2.626   8.089  86.323  1.00  0.00     0.006 C 
BRANCH   5   6
ATOM      6  C   UNL     1       2.723   6.978  85.271  1.00  0.00     0.053 C 
BRANCH   6   7
ATOM      7  C   UNL     1       2.053   5.734  85.762  1.00  0.00     0.041 C 
ATOM      8  O   UNL     1       2.690   4.649  85.813  1.00  0.00    -0.550 OA
ATOM      9  O   UNL     1       0.739   5.782  86.210  1.00  0.00    -0.550 OA
ENDBRANCH   6   7
ENDBRANCH   5   6
ENDBRANCH   4   5
ENDBRANCH   3   4
ENDBRANCH   2   3
ENDBRANCH   1   2
BRANCH   1  10
ATOM     10  C   UNL     1       4.487  10.789  83.672  1.00  0.00     0.000 C 
BRANCH  10  11
ATOM     11  C   UNL     1       4.244  10.078  82.329  1.00  0.00    -0.000 C 
BRANCH  11  12
ATOM     12  C   UNL     1       4.927   8.706  82.180  1.00  0.00    -0.000 C 
BRANCH  12  13
ATOM     13  C   UNL     1       6.448   8.813  81.975  1.00  0.00    -0.000 C 
BRANCH  13  14
ATOM     14  C   UNL     1       6.853   8.691  80.497  1.00  0.00    -0.000 C 
BRANCH  14  15
ATOM     15  C   UNL     1       7.504   7.335  80.174  1.00  0.00    -0.000 C 
BRANCH  15  16
ATOM     16  C   UNL     1       8.657   7.461  79.165  1.00  0.00    -0.003 C 
ATOM     17  C   UNL     1       9.800   8.337  79.676  1.00  0.00     0.004 C 
ENDBRANCH  15  16
ENDBRANCH  14  15
ENDBRANCH  13  14
ENDBRANCH  12  13
ENDBRANCH  11  12
ENDBRANCH  10  11
ENDBRANCH   1  10
TORSDOF 13
ENDMDL
MODEL 6
REMARK VINA RESULT:    -4.061      1.941      3.718
REMARK INTER + INTRA:          -8.556
REMARK INTER:                  -7.029
REMARK INTRA:                  -1.527
REMARK UNBOUND:                -1.410
REMARK SMILES CCCCCCCCCCCCCCC(=O)[O-]
REMARK SMILES IDX 9 1 10 2 11 3 12 4 13 5 14 6 15 7 16 8 17 9 8 10 7 11 6 12
REMARK SMILES IDX 5 13 4 14 3 15 2 16 1 17
REMARK H PARENT
REMARK Flexibility Score: inf
ROOT
ATOM      1  C   UNL     1       4.917  10.731  82.871  1.00  0.00     0.000 C 
ENDROOT
BRANCH   1   2
ATOM      2  C   UNL     1       4.359   9.409  82.319  1.00  0.00     0.000 C 
BRANCH   2   3
ATOM      3  C   UNL     1       5.470   8.428  81.908  1.00  0.00     0.000 C 
BRANCH   3   4
ATOM      4  C   UNL     1       6.705   9.134  81.318  1.00  0.00     0.000 C 
BRANCH   4   5
ATOM      5  C   UNL     1       7.364   8.410  80.129  1.00  0.00     0.006 C 
BRANCH   5   6
ATOM      6  C   UNL     1       7.069   6.905  80.106  1.00  0.00     0.053 C 
BRANCH   6   7
ATOM      7  C   UNL     1       8.267   6.145  79.632  1.00  0.00     0.041 C 
ATOM      8  O   UNL     1       9.090   6.685  78.847  1.00  0.00    -0.550 OA
ATOM      9  O   UNL     1       8.501   4.857  80.097  1.00  0.00    -0.550 OA
ENDBRANCH   6   7
ENDBRANCH   5   6
ENDBRANCH   4   5
ENDBRANCH   3   4
ENDBRANCH   2   3
ENDBRANCH   1   2
BRANCH   1  10
ATOM     10  C   UNL     1       4.119  11.954  82.387  1.00  0.00     0.000 C 
BRANCH  10  11
ATOM     11  C   UNL     1       4.066  12.067  80.853  1.00  0.00    -0.000 C 
BRANCH  11  12
ATOM     12  C   UNL     1       2.652  12.057  80.242  1.00  0.00    -0.000 C 
BRANCH  12  13
ATOM     13  C   UNL     1       1.551  12.342  81.277  1.00  0.00    -0.000 C 
BRANCH  13  14
ATOM     14  C   UNL     1       0.588  11.156  81.455  1.00  0.00    -0.000 C 
BRANCH  14  15
ATOM     15  C   UNL     1       0.235  10.899  82.931  1.00  0.00    -0.000 C 
BRANCH  15  16
ATOM     16  C   UNL     1       1.025   9.725  83.528  1.00  0.00    -0.003 C 
ATOM     17  C   UNL     1       1.720  10.083  84.842  1.00  0.00     0.004 C 
ENDBRANCH  15  16
ENDBRANCH  14  15
ENDBRANCH  13  14
ENDBRANCH  12  13
ENDBRANCH  11  12
ENDBRANCH  10  11
ENDBRANCH   1  10
TORSDOF 13
ENDMDL
MODEL 7
REMARK VINA RESULT:    -4.020      1.475      2.149
REMARK INTER + INTRA:          -8.486
REMARK INTER:                  -7.667
REMARK INTRA:                  -0.818
REMARK UNBOUND:                -1.410
REMARK SMILES CCCCCCCCCCCCCCC(=O)[O-]
REMARK SMILES IDX 9 1 10 2 11 3 12 4 13 5 14 6 15 7 16 8 17 9 8 10 7 11 6 12
REMARK SMILES IDX 5 13 4 14 3 15 2 16 1 17
REMARK H PARENT
REMARK Flexibility Score: inf
ROOT
ATOM      1  C   UNL     1       3.714   8.826  82.743  1.00  0.00     0.000 C 
ENDROOT
BRANCH   1   2
ATOM      2  C   UNL     1       4.594  10.086  82.691  1.00  0.00     0.000 C 
BRANCH   2   3
ATOM      3  C   UNL     1       5.659  10.013  81.583  1.00  0.00     0.000 C 
BRANCH   3   4
ATOM      4  C   UNL     1       6.474   8.708  81.621  1.00  0.00     0.000 C 
BRANCH   4   5
ATOM      5  C   UNL     1       7.145   8.319  80.290  1.00  0.00     0.006 C 
BRANCH   5   6
ATOM      6  C   UNL     1       7.235   6.802  80.086  1.00  0.00     0.053 C 
BRANCH   6   7
ATOM      7  C   UNL     1       8.597   6.420  79.598  1.00  0.00     0.041 C 
ATOM      8  O   UNL     1       8.871   5.214  79.365  1.00  0.00    -0.550 OA
ATOM      9  O   UNL     1       9.548   7.402  79.354  1.00  0.00    -0.550 OA
ENDBRANCH   6   7
ENDBRANCH   5   6
ENDBRANCH   4   5
ENDBRANCH   3   4
ENDBRANCH   2   3
ENDBRANCH   1   2
BRANCH   1  10
ATOM     10  C   UNL     1       2.470   9.015  83.628  1.00  0.00     0.000 C 
BRANCH  10  11
ATOM     11  C   UNL     1       2.818   9.407  85.076  1.00  0.00    -0.000 C 
BRANCH  11  12
ATOM     12  C   UNL     1       2.596   8.304  86.126  1.00  0.00    -0.000 C 
BRANCH  12  13
ATOM     13  C   UNL     1       2.612   6.889  85.522  1.00  0.00    -0.000 C 
BRANCH  13  14
ATOM     14  C   UNL     1       1.341   6.091  85.858  1.00  0.00    -0.000 C 
BRANCH  14  15
ATOM     15  C   UNL     1       0.268   6.954  86.545  1.00  0.00    -0.000 C 
BRANCH  15  16
ATOM     16  C   UNL     1      -0.230   6.336  87.861  1.00  0.00    -0.003 C 
ATOM     17  C   UNL     1       0.433   4.995  88.176  1.00  0.00     0.004 C 
ENDBRANCH  15  16
ENDBRANCH  14  15
ENDBRANCH  13  14
ENDBRANCH  12  13
ENDBRANCH  11  12
ENDBRANCH  10  11
ENDBRANCH   1  10
TORSDOF 13
ENDMDL
MODEL 8
REMARK VINA RESULT:    -3.872      4.438      6.768
REMARK INTER + INTRA:          -8.224
REMARK INTER:                  -7.229
REMARK INTRA:                  -0.995
REMARK UNBOUND:                -1.410
REMARK SMILES CCCCCCCCCCCCCCC(=O)[O-]
REMARK SMILES IDX 9 1 10 2 11 3 12 4 13 5 14 6 15 7 16 8 17 9 8 10 7 11 6 12
REMARK SMILES IDX 5 13 4 14 3 15 2 16 1 17
REMARK H PARENT
REMARK Flexibility Score: inf
ROOT
ATOM      1  C   UNL     1       2.949   9.160  87.211  1.00  0.00     0.000 C 
ENDROOT
BRANCH   1   2
ATOM      2  C   UNL     1       2.021   8.067  86.654  1.00  0.00     0.000 C 
BRANCH   2   3
ATOM      3  C   UNL     1       2.440   7.601  85.249  1.00  0.00     0.000 C 
BRANCH   3   4
ATOM      4  C   UNL     1       3.002   6.168  85.236  1.00  0.00     0.000 C 
BRANCH   4   5
ATOM      5  C   UNL     1       2.202   5.146  86.066  1.00  0.00     0.006 C 
BRANCH   5   6
ATOM      6  C   UNL     1       2.985   3.858  86.347  1.00  0.00     0.053 C 
BRANCH   6   7
ATOM      7  C   UNL     1       2.337   3.081  87.448  1.00  0.00     0.041 C 
ATOM      8  O   UNL     1       2.850   2.005  87.853  1.00  0.00    -0.550 OA
ATOM      9  O   UNL     1       1.191   3.571  88.063  1.00  0.00    -0.550 OA
ENDBRANCH   6   7
ENDBRANCH   5   6
ENDBRANCH   4   5
ENDBRANCH   3   4
ENDBRANCH   2   3
ENDBRANCH   1   2
BRANCH   1  10
ATOM     10  C   UNL     1       2.239  10.517  87.355  1.00  0.00     0.000 C 
BRANCH  10  11
ATOM     11  C   UNL     1       1.617  11.011  86.036  1.00  0.00    -0.000 C 
BRANCH  11  12
ATOM     12  C   UNL     1       2.585  11.743  85.088  1.00  0.00    -0.000 C 
BRANCH  12  13
ATOM     13  C   UNL     1       2.660  11.097  83.694  1.00  0.00    -0.000 C 
BRANCH  13  14
ATOM     14  C   UNL     1       3.650  11.819  82.764  1.00  0.00    -0.000 C 
BRANCH  14  15
ATOM     15  C   UNL     1       4.412  10.848  81.846  1.00  0.00    -0.000 C 
BRANCH  15  16
ATOM     16  C   UNL     1       4.463   9.421  82.413  1.00  0.00    -0.003 C 
ATOM     17  C   UNL     1       5.654   8.617  81.892  1.00  0.00     0.004 C 
ENDBRANCH  15  16
ENDBRANCH  14  15
ENDBRANCH  13  14
ENDBRANCH  12  13
ENDBRANCH  11  12
ENDBRANCH  10  11
ENDBRANCH   1  10
TORSDOF 13
ENDMDL
MODEL 9
REMARK VINA RESULT:    -3.808     11.985     12.999
REMARK INTER + INTRA:          -8.112
REMARK INTER:                  -6.672
REMARK INTRA:                  -1.441
REMARK UNBOUND:                -1.410
REMARK SMILES CCCCCCCCCCCCCCC(=O)[O-]
REMARK SMILES IDX 9 1 10 2 11 3 12 4 13 5 14 6 15 7 16 8 17 9 8 10 7 11 6 12
REMARK SMILES IDX 5 13 4 14 3 15 2 16 1 17
REMARK H PARENT
REMARK Flexibility Score: inf
ROOT
ATOM      1  C   UNL     1      13.202  -1.327  84.123  1.00  0.00     0.000 C 
ENDROOT
BRANCH   1   2
ATOM      2  C   UNL     1      14.105  -0.765  83.013  1.00  0.00     0.000 C 
BRANCH   2   3
ATOM      3  C   UNL     1      14.463   0.714  83.239  1.00  0.00     0.000 C 
BRANCH   3   4
ATOM      4  C   UNL     1      14.194   1.591  82.003  1.00  0.00     0.000 C 
BRANCH   4   5
ATOM      5  C   UNL     1      13.849   0.817  80.717  1.00  0.00     0.006 C 
BRANCH   5   6
ATOM      6  C   UNL     1      14.263   1.562  79.441  1.00  0.00     0.053 C 
BRANCH   6   7
ATOM      7  C   UNL     1      13.600   2.901  79.380  1.00  0.00     0.041 C 
ATOM      8  O   UNL     1      12.348   2.985  79.275  1.00  0.00    -0.550 OA
ATOM      9  O   UNL     1      14.360   4.059  79.490  1.00  0.00    -0.550 OA
ENDBRANCH   6   7
ENDBRANCH   5   6
ENDBRANCH   4   5
ENDBRANCH   3   4
ENDBRANCH   2   3
ENDBRANCH   1   2
BRANCH   1  10
ATOM     10  C   UNL     1      11.706  -1.134  83.818  1.00  0.00     0.000 C 
BRANCH  10  11
ATOM     11  C   UNL     1      11.275  -1.790  82.494  1.00  0.00    -0.000 C 
BRANCH  11  12
ATOM     12  C   UNL     1       9.937  -2.550  82.543  1.00  0.00    -0.000 C 
BRANCH  12  13
ATOM     13  C   UNL     1      10.118  -4.073  82.671  1.00  0.00    -0.000 C 
BRANCH  13  14
ATOM     14  C   UNL     1       9.694  -4.602  84.051  1.00  0.00    -0.000 C 
BRANCH  14  15
ATOM     15  C   UNL     1       8.818  -3.600  84.823  1.00  0.00    -0.000 C 
BRANCH  15  16
ATOM     16  C   UNL     1       9.480  -3.121  86.125  1.00  0.00    -0.003 C 
ATOM     17  C   UNL     1      10.774  -3.870  86.443  1.00  0.00     0.004 C 
ENDBRANCH  15  16
ENDBRANCH  14  15
ENDBRANCH  13  14
ENDBRANCH  12  13
ENDBRANCH  11  12
ENDBRANCH  10  11
ENDBRANCH   1  10
TORSDOF 13
ENDMDL
