MODEL 1
REMARK VINA RESULT:    -3.998      0.000      0.000
REMARK INTER + INTRA:         -13.648
REMARK INTER:                  -9.141
REMARK INTRA:                  -4.507
REMARK UNBOUND:                -4.507
REMARK SMILES CCCCCCCCCCCCCCCCCCCCCCCC(=O)[O-]
REMARK SMILES IDX 13 1 14 2 15 3 16 4 17 5 18 6 19 7 20 8 21 9 22 10 23 11
REMARK SMILES IDX 24 12 25 13 26 14 12 15 11 16 10 17 9 18 8 19 7 20 6 21 5 22
REMARK SMILES IDX 4 23 3 24 2 25 1 26
REMARK H PARENT
REMARK Flexibility Score: inf
ROOT
ATOM      1  C   UNL     1      45.854   3.233  20.882  1.00  0.00     0.000 C 
ENDROOT
BRANCH   1   2
ATOM      2  C   UNL     1      47.010   2.559  20.123  1.00  0.00     0.000 C 
BRANCH   2   3
ATOM      3  C   UNL     1      47.000   1.023  20.245  1.00  0.00     0.000 C 
BRANCH   3   4
ATOM      4  C   UNL     1      47.092   0.477  21.682  1.00  0.00     0.000 C 
BRANCH   4   5
ATOM      5  C   UNL     1      48.048  -0.720  21.810  1.00  0.00     0.000 C 
BRANCH   5   6
ATOM      6  C   UNL     1      49.343  -0.370  22.566  1.00  0.00     0.000 C 
BRANCH   6   7
ATOM      7  C   UNL     1      49.339   1.003  23.274  1.00  0.00     0.000 C 
BRANCH   7   8
ATOM      8  C   UNL     1      50.451   1.977  22.841  1.00  0.00     0.000 C 
BRANCH   8   9
ATOM      9  C   UNL     1      49.936   3.399  22.562  1.00  0.00     0.000 C 
BRANCH   9  10
ATOM     10  C   UNL     1      50.094   3.814  21.088  1.00  0.00     0.006 C 
BRANCH  10  11
ATOM     11  C   UNL     1      50.670   2.711  20.182  1.00  0.00     0.053 C 
BRANCH  11  12
ATOM     12  C   UNL     1      51.906   3.149  19.455  1.00  0.00     0.041 C 
ATOM     13  O   UNL     1      51.813   3.879  18.434  1.00  0.00    -0.550 OA
ATOM     14  O   UNL     1      53.159   2.719  19.877  1.00  0.00    -0.550 OA
ENDBRANCH  11  12
ENDBRANCH  10  11
ENDBRANCH   9  10
ENDBRANCH   8   9
ENDBRANCH   7   8
ENDBRANCH   6   7
ENDBRANCH   5   6
ENDBRANCH   4   5
ENDBRANCH   3   4
ENDBRANCH   2   3
ENDBRANCH   1   2
BRANCH   1  15
ATOM     15  C   UNL     1      46.338   4.235  21.946  1.00  0.00     0.000 C 
BRANCH  15  16
ATOM     16  C   UNL     1      46.262   3.735  23.400  1.00  0.00     0.000 C 
BRANCH  16  17
ATOM     17  C   UNL     1      46.232   4.880  24.427  1.00  0.00     0.000 C 
BRANCH  17  18
ATOM     18  C   UNL     1      46.827   4.473  25.784  1.00  0.00    -0.000 C 
BRANCH  18  19
ATOM     19  C   UNL     1      47.898   3.376  25.651  1.00  0.00    -0.000 C 
BRANCH  19  20
ATOM     20  C   UNL     1      49.288   3.829  26.135  1.00  0.00    -0.000 C 
BRANCH  20  21
ATOM     21  C   UNL     1      49.443   5.341  26.378  1.00  0.00    -0.000 C 
BRANCH  21  22
ATOM     22  C   UNL     1      50.503   5.991  25.473  1.00  0.00    -0.000 C 
BRANCH  22  23
ATOM     23  C   UNL     1      49.953   7.179  24.661  1.00  0.00    -0.000 C 
BRANCH  23  24
ATOM     24  C   UNL     1      49.046   6.798  23.476  1.00  0.00    -0.000 C 
BRANCH  24  25
ATOM     25  C   UNL     1      49.581   7.298  22.126  1.00  0.00    -0.003 C 
ATOM     26  C   UNL     1      48.525   7.163  21.032  1.00  0.00     0.004 C 
ENDBRANCH  24  25
ENDBRANCH  23  24
ENDBRANCH  22  23
ENDBRANCH  21  22
ENDBRANCH  20  21
ENDBRANCH  19  20
ENDBRANCH  18  19
ENDBRANCH  17  18
ENDBRANCH  16  17
ENDBRANCH  15  16
ENDBRANCH   1  15
TORSDOF 22
ENDMDL
MODEL 2
REMARK VINA RESULT:    -3.943      1.445      2.354
REMARK INTER + INTRA:         -13.521
REMARK INTER:                  -9.349
REMARK INTRA:                  -4.172
REMARK UNBOUND:                -4.507
REMARK SMILES CCCCCCCCCCCCCCCCCCCCCCCC(=O)[O-]
REMARK SMILES IDX 13 1 14 2 15 3 16 4 17 5 18 6 19 7 20 8 21 9 22 10 23 11
REMARK SMILES IDX 24 12 25 13 26 14 12 15 11 16 10 17 9 18 8 19 7 20 6 21 5 22
REMARK SMILES IDX 4 23 3 24 2 25 1 26
REMARK H PARENT
REMARK Flexibility Score: inf
ROOT
ATOM      1  C   UNL     1      47.783   4.437  21.223  1.00  0.00     0.000 C 
ENDROOT
BRANCH   1   2
ATOM      2  C   UNL     1      46.291   4.119  21.421  1.00  0.00     0.000 C 
BRANCH   2   3
ATOM      3  C   UNL     1      45.884   2.746  20.849  1.00  0.00     0.000 C 
BRANCH   3   4
ATOM      4  C   UNL     1      46.946   2.060  19.970  1.00  0.00     0.000 C 
BRANCH   4   5
ATOM      5  C   UNL     1      47.513   0.778  20.603  1.00  0.00     0.000 C 
BRANCH   5   6
ATOM      6  C   UNL     1      47.297   0.720  22.126  1.00  0.00     0.000 C 
BRANCH   6   7
ATOM      7  C   UNL     1      48.586   0.590  22.967  1.00  0.00     0.000 C 
BRANCH   7   8
ATOM      8  C   UNL     1      49.890   0.427  22.164  1.00  0.00     0.000 C 
BRANCH   8   9
ATOM      9  C   UNL     1      51.096   1.124  22.816  1.00  0.00     0.000 C 
BRANCH   9  10
ATOM     10  C   UNL     1      51.567   2.362  22.032  1.00  0.00     0.006 C 
BRANCH  10  11
ATOM     11  C   UNL     1      51.074   2.410  20.575  1.00  0.00     0.053 C 
BRANCH  11  12
ATOM     12  C   UNL     1      52.148   2.832  19.617  1.00  0.00     0.041 C 
ATOM     13  O   UNL     1      53.288   2.299  19.671  1.00  0.00    -0.550 OA
ATOM     14  O   UNL     1      51.907   3.841  18.693  1.00  0.00    -0.550 OA
ENDBRANCH  11  12
ENDBRANCH  10  11
ENDBRANCH   9  10
ENDBRANCH   8   9
ENDBRANCH   7   8
ENDBRANCH   6   7
ENDBRANCH   5   6
ENDBRANCH   4   5
ENDBRANCH   3   4
ENDBRANCH   2   3
ENDBRANCH   1   2
BRANCH   1  15
ATOM     15  C   UNL     1      48.592   4.360  22.531  1.00  0.00     0.000 C 
BRANCH  15  16
ATOM     16  C   UNL     1      47.768   4.047  23.794  1.00  0.00     0.000 C 
BRANCH  16  17
ATOM     17  C   UNL     1      48.510   4.399  25.095  1.00  0.00     0.000 C 
BRANCH  17  18
ATOM     18  C   UNL     1      49.935   4.916  24.841  1.00  0.00    -0.000 C 
BRANCH  18  19
ATOM     19  C   UNL     1      50.351   6.008  25.841  1.00  0.00    -0.000 C 
BRANCH  19  20
ATOM     20  C   UNL     1      49.776   5.783  27.253  1.00  0.00    -0.000 C 
BRANCH  20  21
ATOM     21  C   UNL     1      49.026   6.982  27.860  1.00  0.00    -0.000 C 
BRANCH  21  22
ATOM     22  C   UNL     1      47.621   7.177  27.265  1.00  0.00    -0.000 C 
BRANCH  22  23
ATOM     23  C   UNL     1      47.549   8.344  26.264  1.00  0.00    -0.000 C 
BRANCH  23  24
ATOM     24  C   UNL     1      47.484   7.933  24.781  1.00  0.00    -0.000 C 
BRANCH  24  25
ATOM     25  C   UNL     1      48.303   8.856  23.866  1.00  0.00    -0.003 C 
ATOM     26  C   UNL     1      49.173   8.047  22.907  1.00  0.00     0.004 C 
ENDBRANCH  24  25
ENDBRANCH  23  24
ENDBRANCH  22  23
ENDBRANCH  21  22
ENDBRANCH  20  21
ENDBRANCH  19  20
ENDBRANCH  18  19
ENDBRANCH  17  18
ENDBRANCH  16  17
ENDBRANCH  15  16
ENDBRANCH   1  15
TORSDOF 22
ENDMDL
MODEL 3
REMARK VINA RESULT:    -3.942      1.938      6.210
REMARK INTER + INTRA:         -13.518
REMARK INTER:                  -9.109
REMARK INTRA:                  -4.409
REMARK UNBOUND:                -4.507
REMARK SMILES CCCCCCCCCCCCCCCCCCCCCCCC(=O)[O-]
REMARK SMILES IDX 13 1 14 2 15 3 16 4 17 5 18 6 19 7 20 8 21 9 22 10 23 11
REMARK SMILES IDX 24 12 25 13 26 14 12 15 11 16 10 17 9 18 8 19 7 20 6 21 5 22
REMARK SMILES IDX 4 23 3 24 2 25 1 26
REMARK H PARENT
REMARK Flexibility Score: inf
ROOT
ATOM      1  C   UNL     1      48.550   4.062  23.504  1.00  0.00     0.000 C 
ENDROOT
BRANCH   1   2
ATOM      2  C   UNL     1      48.813   4.664  24.896  1.00  0.00     0.000 C 
BRANCH   2   3
ATOM      3  C   UNL     1      49.982   5.670  24.909  1.00  0.00     0.000 C 
BRANCH   3   4
ATOM      4  C   UNL     1      49.728   6.960  25.711  1.00  0.00     0.000 C 
BRANCH   4   5
ATOM      5  C   UNL     1      48.258   7.130  26.127  1.00  0.00     0.000 C 
BRANCH   5   6
ATOM      6  C   UNL     1      47.506   8.152  25.255  1.00  0.00     0.000 C 
BRANCH   6   7
ATOM      7  C   UNL     1      46.615   7.543  24.150  1.00  0.00     0.000 C 
BRANCH   7   8
ATOM      8  C   UNL     1      47.249   7.474  22.749  1.00  0.00     0.000 C 
BRANCH   8   9
ATOM      9  C   UNL     1      48.423   8.449  22.565  1.00  0.00     0.000 C 
BRANCH   9  10
ATOM     10  C   UNL     1      49.616   7.817  21.825  1.00  0.00     0.006 C 
BRANCH  10  11
ATOM     11  C   UNL     1      49.376   7.593  20.321  1.00  0.00     0.053 C 
BRANCH  11  12
ATOM     12  C   UNL     1      50.551   8.002  19.483  1.00  0.00     0.041 C 
ATOM     13  O   UNL     1      50.654   9.188  19.075  1.00  0.00    -0.550 OA
ATOM     14  O   UNL     1      51.510   7.066  19.116  1.00  0.00    -0.550 OA
ENDBRANCH  11  12
ENDBRANCH  10  11
ENDBRANCH   9  10
ENDBRANCH   8   9
ENDBRANCH   7   8
ENDBRANCH   6   7
ENDBRANCH   5   6
ENDBRANCH   4   5
ENDBRANCH   3   4
ENDBRANCH   2   3
ENDBRANCH   1   2
BRANCH   1  15
ATOM     15  C   UNL     1      49.706   4.305  22.517  1.00  0.00     0.000 C 
BRANCH  15  16
ATOM     16  C   UNL     1      49.434   3.865  21.067  1.00  0.00     0.000 C 
BRANCH  16  17
ATOM     17  C   UNL     1      50.722   3.679  20.246  1.00  0.00     0.000 C 
BRANCH  17  18
ATOM     18  C   UNL     1      51.274   2.248  20.329  1.00  0.00    -0.000 C 
BRANCH  18  19
ATOM     19  C   UNL     1      52.173   2.034  21.560  1.00  0.00    -0.000 C 
BRANCH  19  20
ATOM     20  C   UNL     1      51.542   1.104  22.613  1.00  0.00    -0.000 C 
BRANCH  20  21
ATOM     21  C   UNL     1      50.264   0.372  22.167  1.00  0.00    -0.000 C 
BRANCH  21  22
ATOM     22  C   UNL     1      49.118   0.486  23.186  1.00  0.00    -0.000 C 
BRANCH  22  23
ATOM     23  C   UNL     1      47.731   0.583  22.524  1.00  0.00    -0.000 C 
BRANCH  23  24
ATOM     24  C   UNL     1      47.745   0.691  20.987  1.00  0.00    -0.000 C 
BRANCH  24  25
ATOM     25  C   UNL     1      46.452   1.293  20.417  1.00  0.00    -0.003 C 
ATOM     26  C   UNL     1      46.054   2.557  21.173  1.00  0.00     0.004 C 
ENDBRANCH  24  25
ENDBRANCH  23  24
ENDBRANCH  22  23
ENDBRANCH  21  22
ENDBRANCH  20  21
ENDBRANCH  19  20
ENDBRANCH  18  19
ENDBRANCH  17  18
ENDBRANCH  16  17
ENDBRANCH  15  16
ENDBRANCH   1  15
TORSDOF 22
ENDMDL
MODEL 4
REMARK VINA RESULT:    -3.917      2.191      3.906
REMARK INTER + INTRA:         -13.461
REMARK INTER:                  -9.001
REMARK INTRA:                  -4.460
REMARK UNBOUND:                -4.507
REMARK SMILES CCCCCCCCCCCCCCCCCCCCCCCC(=O)[O-]
REMARK SMILES IDX 13 1 14 2 15 3 16 4 17 5 18 6 19 7 20 8 21 9 22 10 23 11
REMARK SMILES IDX 24 12 25 13 26 14 12 15 11 16 10 17 9 18 8 19 7 20 6 21 5 22
REMARK SMILES IDX 4 23 3 24 2 25 1 26
REMARK H PARENT
REMARK Flexibility Score: inf
ROOT
ATOM      1  C   UNL     1      48.022   4.304  21.911  1.00  0.00     0.000 C 
ENDROOT
BRANCH   1   2
ATOM      2  C   UNL     1      49.549   4.219  21.741  1.00  0.00     0.000 C 
BRANCH   2   3
ATOM      3  C   UNL     1      49.980   3.260  20.613  1.00  0.00     0.000 C 
BRANCH   3   4
ATOM      4  C   UNL     1      51.096   2.267  20.987  1.00  0.00     0.000 C 
BRANCH   4   5
ATOM      5  C   UNL     1      51.486   2.332  22.473  1.00  0.00     0.000 C 
BRANCH   5   6
ATOM      6  C   UNL     1      51.029   1.093  23.264  1.00  0.00     0.000 C 
BRANCH   6   7
ATOM      7  C   UNL     1      50.727  -0.157  22.409  1.00  0.00     0.000 C 
BRANCH   7   8
ATOM      8  C   UNL     1      49.637  -1.093  22.962  1.00  0.00     0.000 C 
BRANCH   8   9
ATOM      9  C   UNL     1      48.384  -1.157  22.074  1.00  0.00     0.000 C 
BRANCH   9  10
ATOM     10  C   UNL     1      48.006   0.209  21.472  1.00  0.00     0.006 C 
BRANCH  10  11
ATOM     11  C   UNL     1      46.577   0.670  21.808  1.00  0.00     0.053 C 
BRANCH  11  12
ATOM     12  C   UNL     1      46.024   1.622  20.790  1.00  0.00     0.041 C 
ATOM     13  O   UNL     1      46.691   1.903  19.760  1.00  0.00    -0.550 OA
ATOM     14  O   UNL     1      44.792   2.233  20.996  1.00  0.00    -0.550 OA
ENDBRANCH  11  12
ENDBRANCH  10  11
ENDBRANCH   9  10
ENDBRANCH   8   9
ENDBRANCH   7   8
ENDBRANCH   6   7
ENDBRANCH   5   6
ENDBRANCH   4   5
ENDBRANCH   3   4
ENDBRANCH   2   3
ENDBRANCH   1   2
BRANCH   1  15
ATOM     15  C   UNL     1      47.581   4.316  23.386  1.00  0.00     0.000 C 
BRANCH  15  16
ATOM     16  C   UNL     1      48.050   3.110  24.220  1.00  0.00     0.000 C 
BRANCH  16  17
ATOM     17  C   UNL     1      49.045   3.498  25.328  1.00  0.00     0.000 C 
BRANCH  17  18
ATOM     18  C   UNL     1      49.079   5.013  25.586  1.00  0.00    -0.000 C 
BRANCH  18  19
ATOM     19  C   UNL     1      50.394   5.659  25.116  1.00  0.00    -0.000 C 
BRANCH  19  20
ATOM     20  C   UNL     1      50.178   6.986  24.363  1.00  0.00    -0.000 C 
BRANCH  20  21
ATOM     21  C   UNL     1      49.085   7.903  24.941  1.00  0.00    -0.000 C 
BRANCH  21  22
ATOM     22  C   UNL     1      47.863   8.039  24.016  1.00  0.00    -0.000 C 
BRANCH  22  23
ATOM     23  C   UNL     1      48.209   8.658  22.650  1.00  0.00    -0.000 C 
BRANCH  23  24
ATOM     24  C   UNL     1      47.535   7.989  21.437  1.00  0.00    -0.000 C 
BRANCH  24  25
ATOM     25  C   UNL     1      48.457   7.898  20.213  1.00  0.00    -0.003 C 
ATOM     26  C   UNL     1      49.915   7.732  20.634  1.00  0.00     0.004 C 
ENDBRANCH  24  25
ENDBRANCH  23  24
ENDBRANCH  22  23
ENDBRANCH  21  22
ENDBRANCH  20  21
ENDBRANCH  19  20
ENDBRANCH  18  19
ENDBRANCH  17  18
ENDBRANCH  16  17
ENDBRANCH  15  16
ENDBRANCH   1  15
TORSDOF 22
ENDMDL
MODEL 5
REMARK VINA RESULT:    -3.897      1.832      3.542
REMARK INTER + INTRA:         -13.415
REMARK INTER:                  -9.083
REMARK INTRA:                  -4.332
REMARK UNBOUND:                -4.507
REMARK SMILES CCCCCCCCCCCCCCCCCCCCCCCC(=O)[O-]
REMARK SMILES IDX 13 1 14 2 15 3 16 4 17 5 18 6 19 7 20 8 21 9 22 10 23 11
REMARK SMILES IDX 24 12 25 13 26 14 12 15 11 16 10 17 9 18 8 19 7 20 6 21 5 22
REMARK SMILES IDX 4 23 3 24 2 25 1 26
REMARK H PARENT
REMARK Flexibility Score: inf
ROOT
ATOM      1  C   UNL     1      45.659   3.353  20.259  1.00  0.00     0.000 C 
ENDROOT
BRANCH   1   2
ATOM      2  C   UNL     1      46.947   3.573  21.073  1.00  0.00     0.000 C 
BRANCH   2   3
ATOM      3  C   UNL     1      47.694   2.261  21.389  1.00  0.00     0.000 C 
BRANCH   3   4
ATOM      4  C   UNL     1      47.043   0.983  20.828  1.00  0.00     0.000 C 
BRANCH   4   5
ATOM      5  C   UNL     1      47.841  -0.290  21.154  1.00  0.00     0.000 C 
BRANCH   5   6
ATOM      6  C   UNL     1      48.464  -0.259  22.562  1.00  0.00     0.000 C 
BRANCH   6   7
ATOM      7  C   UNL     1      49.997  -0.440  22.605  1.00  0.00     0.000 C 
BRANCH   7   8
ATOM      8  C   UNL     1      50.758   0.559  23.497  1.00  0.00     0.000 C 
BRANCH   8   9
ATOM      9  C   UNL     1      51.144   1.854  22.766  1.00  0.00     0.000 C 
BRANCH   9  10
ATOM     10  C   UNL     1      51.486   1.625  21.282  1.00  0.00     0.006 C 
BRANCH  10  11
ATOM     11  C   UNL     1      50.955   2.718  20.338  1.00  0.00     0.053 C 
BRANCH  11  12
ATOM     12  C   UNL     1      51.932   3.071  19.257  1.00  0.00     0.041 C 
ATOM     13  O   UNL     1      52.920   2.325  19.030  1.00  0.00    -0.550 OA
ATOM     14  O   UNL     1      51.778   4.244  18.527  1.00  0.00    -0.550 OA
ENDBRANCH  11  12
ENDBRANCH  10  11
ENDBRANCH   9  10
ENDBRANCH   8   9
ENDBRANCH   7   8
ENDBRANCH   6   7
ENDBRANCH   5   6
ENDBRANCH   4   5
ENDBRANCH   3   4
ENDBRANCH   2   3
ENDBRANCH   1   2
BRANCH   1  15
ATOM     15  C   UNL     1      44.382   3.665  21.061  1.00  0.00     0.000 C 
BRANCH  15  16
ATOM     16  C   UNL     1      43.158   2.802  20.708  1.00  0.00     0.000 C 
BRANCH  16  17
ATOM     17  C   UNL     1      43.319   1.332  21.133  1.00  0.00     0.000 C 
BRANCH  17  18
ATOM     18  C   UNL     1      43.317   1.156  22.660  1.00  0.00    -0.000 C 
BRANCH  18  19
ATOM     19  C   UNL     1      44.263   0.034  23.124  1.00  0.00    -0.000 C 
BRANCH  19  20
ATOM     20  C   UNL     1      45.336   0.523  24.116  1.00  0.00    -0.000 C 
BRANCH  20  21
ATOM     21  C   UNL     1      45.445   2.050  24.272  1.00  0.00    -0.000 C 
BRANCH  21  22
ATOM     22  C   UNL     1      46.447   2.474  25.359  1.00  0.00    -0.000 C 
BRANCH  22  23
ATOM     23  C   UNL     1      47.903   2.495  24.859  1.00  0.00    -0.000 C 
BRANCH  23  24
ATOM     24  C   UNL     1      48.528   3.896  24.715  1.00  0.00    -0.000 C 
BRANCH  24  25
ATOM     25  C   UNL     1      47.520   5.029  24.956  1.00  0.00    -0.003 C 
ATOM     26  C   UNL     1      47.893   5.842  26.194  1.00  0.00     0.004 C 
ENDBRANCH  24  25
ENDBRANCH  23  24
ENDBRANCH  22  23
ENDBRANCH  21  22
ENDBRANCH  20  21
ENDBRANCH  19  20
ENDBRANCH  18  19
ENDBRANCH  17  18
ENDBRANCH  16  17
ENDBRANCH  15  16
ENDBRANCH   1  15
TORSDOF 22
ENDMDL
MODEL 6
REMARK VINA RESULT:    -3.873      3.945      7.205
REMARK INTER + INTRA:         -13.360
REMARK INTER:                  -8.889
REMARK INTRA:                  -4.471
REMARK UNBOUND:                -4.507
REMARK SMILES CCCCCCCCCCCCCCCCCCCCCCCC(=O)[O-]
REMARK SMILES IDX 13 1 14 2 15 3 16 4 17 5 18 6 19 7 20 8 21 9 22 10 23 11
REMARK SMILES IDX 24 12 25 13 26 14 12 15 11 16 10 17 9 18 8 19 7 20 6 21 5 22
REMARK SMILES IDX 4 23 3 24 2 25 1 26
REMARK H PARENT
REMARK Flexibility Score: inf
ROOT
ATOM      1  C   UNL     1      50.373   5.993  26.391  1.00  0.00     0.000 C 
ENDROOT
BRANCH   1   2
ATOM      2  C   UNL     1      50.154   6.369  24.915  1.00  0.00     0.000 C 
BRANCH   2   3
ATOM      3  C   UNL     1      49.942   7.881  24.701  1.00  0.00     0.000 C 
BRANCH   3   4
ATOM      4  C   UNL     1      49.420   8.280  23.308  1.00  0.00     0.000 C 
BRANCH   4   5
ATOM      5  C   UNL     1      49.615   7.177  22.255  1.00  0.00     0.000 C 
BRANCH   5   6
ATOM      6  C   UNL     1      48.974   7.527  20.900  1.00  0.00     0.000 C 
BRANCH   6   7
ATOM      7  C   UNL     1      47.431   7.451  20.864  1.00  0.00     0.000 C 
BRANCH   7   8
ATOM      8  C   UNL     1      46.720   8.674  20.256  1.00  0.00     0.000 C 
BRANCH   8   9
ATOM      9  C   UNL     1      47.375  10.011  20.642  1.00  0.00     0.000 C 
BRANCH   9  10
ATOM     10  C   UNL     1      46.347  11.100  20.998  1.00  0.00     0.006 C 
BRANCH  10  11
ATOM     11  C   UNL     1      45.565  10.828  22.295  1.00  0.00     0.053 C 
BRANCH  11  12
ATOM     12  C   UNL     1      46.121  11.576  23.470  1.00  0.00     0.041 C 
ATOM     13  O   UNL     1      46.997  12.463  23.298  1.00  0.00    -0.550 OA
ATOM     14  O   UNL     1      45.704  11.266  24.759  1.00  0.00    -0.550 OA
ENDBRANCH  11  12
ENDBRANCH  10  11
ENDBRANCH   9  10
ENDBRANCH   8   9
ENDBRANCH   7   8
ENDBRANCH   6   7
ENDBRANCH   5   6
ENDBRANCH   4   5
ENDBRANCH   3   4
ENDBRANCH   2   3
ENDBRANCH   1   2
BRANCH   1  15
ATOM     15  C   UNL     1      49.312   5.013  26.925  1.00  0.00     0.000 C 
BRANCH  15  16
ATOM     16  C   UNL     1      48.190   5.653  27.762  1.00  0.00     0.000 C 
BRANCH  16  17
ATOM     17  C   UNL     1      48.473   7.122  28.119  1.00  0.00     0.000 C 
BRANCH  17  18
ATOM     18  C   UNL     1      47.408   8.081  27.564  1.00  0.00    -0.000 C 
BRANCH  18  19
ATOM     19  C   UNL     1      46.364   7.359  26.694  1.00  0.00    -0.000 C 
BRANCH  19  20
ATOM     20  C   UNL     1      46.371   7.833  25.228  1.00  0.00    -0.000 C 
BRANCH  20  21
ATOM     21  C   UNL     1      46.013   6.759  24.185  1.00  0.00    -0.000 C 
BRANCH  21  22
ATOM     22  C   UNL     1      46.608   5.379  24.513  1.00  0.00    -0.000 C 
BRANCH  22  23
ATOM     23  C   UNL     1      47.219   4.680  23.285  1.00  0.00    -0.000 C 
BRANCH  23  24
ATOM     24  C   UNL     1      48.139   3.486  23.600  1.00  0.00    -0.000 C 
BRANCH  24  25
ATOM     25  C   UNL     1      48.654   2.776  22.339  1.00  0.00    -0.003 C 
ATOM     26  C   UNL     1      49.294   3.769  21.372  1.00  0.00     0.004 C 
ENDBRANCH  24  25
ENDBRANCH  23  24
ENDBRANCH  22  23
ENDBRANCH  21  22
ENDBRANCH  20  21
ENDBRANCH  19  20
ENDBRANCH  18  19
ENDBRANCH  17  18
ENDBRANCH  16  17
ENDBRANCH  15  16
ENDBRANCH   1  15
TORSDOF 22
ENDMDL
MODEL 7
REMARK VINA RESULT:    -3.855      2.314      5.619
REMARK INTER + INTRA:         -13.319
REMARK INTER:                  -9.177
REMARK INTRA:                  -4.142
REMARK UNBOUND:                -4.507
REMARK SMILES CCCCCCCCCCCCCCCCCCCCCCCC(=O)[O-]
REMARK SMILES IDX 13 1 14 2 15 3 16 4 17 5 18 6 19 7 20 8 21 9 22 10 23 11
REMARK SMILES IDX 24 12 25 13 26 14 12 15 11 16 10 17 9 18 8 19 7 20 6 21 5 22
REMARK SMILES IDX 4 23 3 24 2 25 1 26
REMARK H PARENT
REMARK Flexibility Score: inf
ROOT
ATOM      1  C   UNL     1      46.468   0.718  23.963  1.00  0.00     0.000 C 
ENDROOT
BRANCH   1   2
ATOM      2  C   UNL     1      45.850   2.036  24.463  1.00  0.00     0.000 C 
BRANCH   2   3
ATOM      3  C   UNL     1      46.752   3.261  24.212  1.00  0.00     0.000 C 
BRANCH   3   4
ATOM      4  C   UNL     1      47.287   3.953  25.480  1.00  0.00     0.000 C 
BRANCH   4   5
ATOM      5  C   UNL     1      48.785   3.696  25.718  1.00  0.00     0.000 C 
BRANCH   5   6
ATOM      6  C   UNL     1      49.399   4.665  26.744  1.00  0.00     0.000 C 
BRANCH   6   7
ATOM      7  C   UNL     1      50.272   5.790  26.144  1.00  0.00     0.000 C 
BRANCH   7   8
ATOM      8  C   UNL     1      49.501   6.964  25.513  1.00  0.00     0.000 C 
BRANCH   8   9
ATOM      9  C   UNL     1      49.932   7.266  24.068  1.00  0.00     0.000 C 
BRANCH   9  10
ATOM     10  C   UNL     1      49.552   6.145  23.083  1.00  0.00     0.006 C 
BRANCH  10  11
ATOM     11  C   UNL     1      48.491   6.553  22.046  1.00  0.00     0.053 C 
BRANCH  11  12
ATOM     12  C   UNL     1      48.977   7.622  21.113  1.00  0.00     0.041 C 
ATOM     13  O   UNL     1      48.235   8.599  20.830  1.00  0.00    -0.550 OA
ATOM     14  O   UNL     1      50.231   7.522  20.523  1.00  0.00    -0.550 OA
ENDBRANCH  11  12
ENDBRANCH  10  11
ENDBRANCH   9  10
ENDBRANCH   8   9
ENDBRANCH   7   8
ENDBRANCH   6   7
ENDBRANCH   5   6
ENDBRANCH   4   5
ENDBRANCH   3   4
ENDBRANCH   2   3
ENDBRANCH   1   2
BRANCH   1  15
ATOM     15  C   UNL     1      45.520  -0.080  23.049  1.00  0.00     0.000 C 
BRANCH  15  16
ATOM     16  C   UNL     1      44.029  -0.007  23.426  1.00  0.00     0.000 C 
BRANCH  16  17
ATOM     17  C   UNL     1      43.110   0.157  22.204  1.00  0.00     0.000 C 
BRANCH  17  18
ATOM     18  C   UNL     1      43.577   1.276  21.260  1.00  0.00    -0.000 C 
BRANCH  18  19
ATOM     19  C   UNL     1      43.249   2.678  21.801  1.00  0.00    -0.000 C 
BRANCH  19  20
ATOM     20  C   UNL     1      44.317   3.729  21.439  1.00  0.00    -0.000 C 
BRANCH  20  21
ATOM     21  C   UNL     1      45.209   3.376  20.236  1.00  0.00    -0.000 C 
BRANCH  21  22
ATOM     22  C   UNL     1      46.707   3.349  20.584  1.00  0.00    -0.000 C 
BRANCH  22  23
ATOM     23  C   UNL     1      47.364   1.986  20.305  1.00  0.00    -0.000 C 
BRANCH  23  24
ATOM     24  C   UNL     1      48.547   1.627  21.223  1.00  0.00    -0.000 C 
BRANCH  24  25
ATOM     25  C   UNL     1      49.369   2.853  21.649  1.00  0.00    -0.003 C 
ATOM     26  C   UNL     1      50.552   2.444  22.523  1.00  0.00     0.004 C 
ENDBRANCH  24  25
ENDBRANCH  23  24
ENDBRANCH  22  23
ENDBRANCH  21  22
ENDBRANCH  20  21
ENDBRANCH  19  20
ENDBRANCH  18  19
ENDBRANCH  17  18
ENDBRANCH  16  17
ENDBRANCH  15  16
ENDBRANCH   1  15
TORSDOF 22
ENDMDL
MODEL 8
REMARK VINA RESULT:    -3.835      2.828      6.221
REMARK INTER + INTRA:         -13.274
REMARK INTER:                  -9.410
REMARK INTRA:                  -3.864
REMARK UNBOUND:                -4.507
REMARK SMILES CCCCCCCCCCCCCCCCCCCCCCCC(=O)[O-]
REMARK SMILES IDX 13 1 14 2 15 3 16 4 17 5 18 6 19 7 20 8 21 9 22 10 23 11
REMARK SMILES IDX 24 12 25 13 26 14 12 15 11 16 10 17 9 18 8 19 7 20 6 21 5 22
REMARK SMILES IDX 4 23 3 24 2 25 1 26
REMARK H PARENT
REMARK Flexibility Score: inf
ROOT
ATOM      1  C   UNL     1      45.377   6.957  25.930  1.00  0.00     0.000 C 
ENDROOT
BRANCH   1   2
ATOM      2  C   UNL     1      45.526   7.641  27.301  1.00  0.00     0.000 C 
BRANCH   2   3
ATOM      3  C   UNL     1      46.724   7.112  28.113  1.00  0.00     0.000 C 
BRANCH   3   4
ATOM      4  C   UNL     1      48.022   7.930  27.977  1.00  0.00     0.000 C 
BRANCH   4   5
ATOM      5  C   UNL     1      49.275   7.049  27.838  1.00  0.00     0.000 C 
BRANCH   5   6
ATOM      6  C   UNL     1      49.445   6.475  26.420  1.00  0.00     0.000 C 
BRANCH   6   7
ATOM      7  C   UNL     1      49.607   7.526  25.301  1.00  0.00     0.000 C 
BRANCH   7   8
ATOM      8  C   UNL     1      49.672   6.966  23.868  1.00  0.00     0.000 C 
BRANCH   8   9
ATOM      9  C   UNL     1      48.674   5.824  23.617  1.00  0.00     0.000 C 
BRANCH   9  10
ATOM     10  C   UNL     1      49.360   4.508  23.208  1.00  0.00     0.006 C 
BRANCH  10  11
ATOM     11  C   UNL     1      49.459   4.296  21.687  1.00  0.00     0.053 C 
BRANCH  11  12
ATOM     12  C   UNL     1      50.318   3.122  21.324  1.00  0.00     0.041 C 
ATOM     13  O   UNL     1      50.191   2.570  20.199  1.00  0.00    -0.550 OA
ATOM     14  O   UNL     1      51.229   2.609  22.239  1.00  0.00    -0.550 OA
ENDBRANCH  11  12
ENDBRANCH  10  11
ENDBRANCH   9  10
ENDBRANCH   8   9
ENDBRANCH   7   8
ENDBRANCH   6   7
ENDBRANCH   5   6
ENDBRANCH   4   5
ENDBRANCH   3   4
ENDBRANCH   2   3
ENDBRANCH   1   2
BRANCH   1  15
ATOM     15  C   UNL     1      45.949   7.798  24.774  1.00  0.00     0.000 C 
BRANCH  15  16
ATOM     16  C   UNL     1      45.751   9.319  24.909  1.00  0.00     0.000 C 
BRANCH  16  17
ATOM     17  C   UNL     1      47.070  10.105  24.810  1.00  0.00     0.000 C 
BRANCH  17  18
ATOM     18  C   UNL     1      47.375  10.567  23.377  1.00  0.00    -0.000 C 
BRANCH  18  19
ATOM     19  C   UNL     1      46.100  10.889  22.578  1.00  0.00    -0.000 C 
BRANCH  19  20
ATOM     20  C   UNL     1      46.058  10.194  21.204  1.00  0.00    -0.000 C 
BRANCH  20  21
ATOM     21  C   UNL     1      45.730   8.691  21.233  1.00  0.00    -0.000 C 
BRANCH  21  22
ATOM     22  C   UNL     1      46.945   7.802  20.917  1.00  0.00    -0.000 C 
BRANCH  22  23
ATOM     23  C   UNL     1      47.898   8.432  19.885  1.00  0.00    -0.000 C 
BRANCH  23  24
ATOM     24  C   UNL     1      49.328   8.701  20.390  1.00  0.00    -0.000 C 
BRANCH  24  25
ATOM     25  C   UNL     1      50.261   7.493  20.224  1.00  0.00    -0.003 C 
ATOM     26  C   UNL     1      51.123   7.632  18.971  1.00  0.00     0.004 C 
ENDBRANCH  24  25
ENDBRANCH  23  24
ENDBRANCH  22  23
ENDBRANCH  21  22
ENDBRANCH  20  21
ENDBRANCH  19  20
ENDBRANCH  18  19
ENDBRANCH  17  18
ENDBRANCH  16  17
ENDBRANCH  15  16
ENDBRANCH   1  15
TORSDOF 22
ENDMDL
MODEL 9
REMARK VINA RESULT:    -3.826      1.754      5.472
REMARK INTER + INTRA:         -13.253
REMARK INTER:                  -8.781
REMARK INTRA:                  -4.471
REMARK UNBOUND:                -4.507
REMARK SMILES CCCCCCCCCCCCCCCCCCCCCCCC(=O)[O-]
REMARK SMILES IDX 13 1 14 2 15 3 16 4 17 5 18 6 19 7 20 8 21 9 22 10 23 11
REMARK SMILES IDX 24 12 25 13 26 14 12 15 11 16 10 17 9 18 8 19 7 20 6 21 5 22
REMARK SMILES IDX 4 23 3 24 2 25 1 26
REMARK H PARENT
REMARK Flexibility Score: inf
ROOT
ATOM      1  C   UNL     1      46.526   1.373  26.077  1.00  0.00     0.000 C 
ENDROOT
BRANCH   1   2
ATOM      2  C   UNL     1      47.559   2.325  25.450  1.00  0.00     0.000 C 
BRANCH   2   3
ATOM      3  C   UNL     1      48.009   3.446  26.409  1.00  0.00     0.000 C 
BRANCH   3   4
ATOM      4  C   UNL     1      47.202   4.755  26.313  1.00  0.00     0.000 C 
BRANCH   4   5
ATOM      5  C   UNL     1      47.757   5.727  25.258  1.00  0.00     0.000 C 
BRANCH   5   6
ATOM      6  C   UNL     1      47.119   5.529  23.872  1.00  0.00     0.000 C 
BRANCH   6   7
ATOM      7  C   UNL     1      48.109   5.195  22.735  1.00  0.00     0.000 C 
BRANCH   7   8
ATOM      8  C   UNL     1      49.500   4.712  23.186  1.00  0.00     0.000 C 
BRANCH   8   9
ATOM      9  C   UNL     1      49.996   3.481  22.409  1.00  0.00     0.000 C 
BRANCH   9  10
ATOM     10  C   UNL     1      50.004   3.698  20.885  1.00  0.00     0.006 C 
BRANCH  10  11
ATOM     11  C   UNL     1      50.765   2.616  20.099  1.00  0.00     0.053 C 
BRANCH  11  12
ATOM     12  C   UNL     1      51.898   3.178  19.294  1.00  0.00     0.041 C 
ATOM     13  O   UNL     1      53.031   2.628  19.328  1.00  0.00    -0.550 OA
ATOM     14  O   UNL     1      51.720   4.331  18.540  1.00  0.00    -0.550 OA
ENDBRANCH  11  12
ENDBRANCH  10  11
ENDBRANCH   9  10
ENDBRANCH   8   9
ENDBRANCH   7   8
ENDBRANCH   6   7
ENDBRANCH   5   6
ENDBRANCH   4   5
ENDBRANCH   3   4
ENDBRANCH   2   3
ENDBRANCH   1   2
BRANCH   1  15
ATOM     15  C   UNL     1      45.211   1.305  25.279  1.00  0.00     0.000 C 
BRANCH  15  16
ATOM     16  C   UNL     1      44.830   2.597  24.532  1.00  0.00     0.000 C 
BRANCH  16  17
ATOM     17  C   UNL     1      43.496   2.479  23.775  1.00  0.00     0.000 C 
BRANCH  17  18
ATOM     18  C   UNL     1      43.385   1.172  22.975  1.00  0.00    -0.000 C 
BRANCH  18  19
ATOM     19  C   UNL     1      43.373   1.411  21.455  1.00  0.00    -0.000 C 
BRANCH  19  20
ATOM     20  C   UNL     1      43.338   2.905  21.081  1.00  0.00    -0.000 C 
BRANCH  20  21
ATOM     21  C   UNL     1      44.560   3.421  20.301  1.00  0.00    -0.000 C 
BRANCH  21  22
ATOM     22  C   UNL     1      45.898   3.001  20.933  1.00  0.00    -0.000 C 
BRANCH  22  23
ATOM     23  C   UNL     1      46.794   2.203  19.968  1.00  0.00    -0.000 C 
BRANCH  23  24
ATOM     24  C   UNL     1      47.487   0.972  20.582  1.00  0.00    -0.000 C 
BRANCH  24  25
ATOM     25  C   UNL     1      47.294   0.871  22.102  1.00  0.00    -0.003 C 
ATOM     26  C   UNL     1      46.753  -0.501  22.498  1.00  0.00     0.004 C 
ENDBRANCH  24  25
ENDBRANCH  23  24
ENDBRANCH  22  23
ENDBRANCH  21  22
ENDBRANCH  20  21
ENDBRANCH  19  20
ENDBRANCH  18  19
ENDBRANCH  17  18
ENDBRANCH  16  17
ENDBRANCH  15  16
ENDBRANCH   1  15
TORSDOF 22
ENDMDL
