MODEL 1
REMARK VINA RESULT:    -6.008      0.000      0.000
REMARK INTER + INTRA:          -7.568
REMARK INTER:                  -7.238
REMARK INTRA:                  -0.331
REMARK UNBOUND:                -0.331
REMARK SMILES O=c1c(O)c(-c2ccc(O)c(O)c2)oc2cc(O)cc(O)c12
REMARK SMILES IDX 5 1 3 2 2 3 1 4 22 5 20 6 19 7 17 8 16 9 15 10 14 11 6 12
REMARK SMILES IDX 7 13 8 14 9 15 13 16 11 17 10 18 12 20 4 22 21 24 18 26
REMARK H PARENT 10 19 12 21 4 23 21 25 18 27
REMARK Flexibility Score: inf
ROOT
ATOM      1  C   UNL     1      -8.059  -0.755  -5.442  1.00  0.00     0.180 A 
ATOM      2  C   UNL     1      -8.852  -1.796  -4.924  1.00  0.00     0.208 A 
ATOM      3  C   UNL     1      -8.749  -3.075  -5.494  1.00  0.00     0.238 A 
ATOM      4  O   UNL     1      -9.463  -4.013  -5.045  1.00  0.00    -0.285 OA
ATOM      5  C   UNL     1      -7.845  -3.296  -6.553  1.00  0.00     0.111 A 
ATOM      6  C   UNL     1      -7.678  -4.554  -7.179  1.00  0.00     0.134 A 
ATOM      7  C   UNL     1      -6.750  -4.696  -8.221  1.00  0.00     0.093 A 
ATOM      8  C   UNL     1      -5.987  -3.607  -8.648  1.00  0.00     0.123 A 
ATOM      9  C   UNL     1      -6.148  -2.361  -8.034  1.00  0.00     0.094 A 
ATOM     10  C   UNL     1      -7.069  -2.199  -6.994  1.00  0.00     0.146 A 
ATOM     11  O   UNL     1      -7.205  -1.004  -6.432  1.00  0.00    -0.452 OA
ENDROOT
BRANCH   1  12
ATOM     12  C   UNL     1      -8.124   0.624  -4.908  1.00  0.00     0.025 A 
ATOM     13  C   UNL     1      -7.199   1.032  -3.933  1.00  0.00     0.016 A 
ATOM     14  C   UNL     1      -7.229   2.335  -3.430  1.00  0.00     0.051 A 
ATOM     15  C   UNL     1      -8.173   3.255  -3.905  1.00  0.00     0.157 A 
ATOM     16  C   UNL     1      -9.057   1.556  -5.397  1.00  0.00     0.062 A 
ATOM     17  C   UNL     1      -9.088   2.863  -4.897  1.00  0.00     0.158 A 
BRANCH  15  18
ATOM     18  O   UNL     1      -8.202   4.554  -3.399  1.00  0.00    -0.504 OA
ATOM     19  H   UNL     1      -7.350   5.063  -3.196  1.00  0.00     0.293 HD
ENDBRANCH  15  18
BRANCH  17  20
ATOM     20  O   UNL     1     -10.031   3.759  -5.401  1.00  0.00    -0.504 OA
ATOM     21  H   UNL     1     -10.473   3.622  -6.302  1.00  0.00     0.293 HD
ENDBRANCH  17  20
ENDBRANCH   1  12
BRANCH   2  22
ATOM     22  O   UNL     1      -9.704  -1.564  -3.842  1.00  0.00    -0.502 OA
ATOM     23  H   UNL     1      -9.770  -0.661  -3.387  1.00  0.00     0.293 HD
ENDBRANCH   2  22
BRANCH   6  24
ATOM     24  O   UNL     1      -8.425  -5.662  -6.775  1.00  0.00    -0.507 OA
ATOM     25  H   UNL     1      -9.410  -5.751  -6.996  1.00  0.00     0.293 HD
ENDBRANCH   6  24
BRANCH   8  26
ATOM     26  O   UNL     1      -5.072  -3.774  -9.685  1.00  0.00    -0.508 OA
ATOM     27  H   UNL     1      -4.420  -4.551  -9.698  1.00  0.00     0.293 HD
ENDBRANCH   8  26
TORSDOF 6
ENDMDL
MODEL 2
REMARK VINA RESULT:    -5.890      1.166      1.759
REMARK INTER + INTRA:          -7.426
REMARK INTER:                  -7.101
REMARK INTRA:                  -0.325
REMARK UNBOUND:                -0.331
REMARK SMILES O=c1c(O)c(-c2ccc(O)c(O)c2)oc2cc(O)cc(O)c12
REMARK SMILES IDX 5 1 3 2 2 3 1 4 22 5 20 6 19 7 17 8 16 9 15 10 14 11 6 12
REMARK SMILES IDX 7 13 8 14 9 15 13 16 11 17 10 18 12 20 4 22 21 24 18 26
REMARK H PARENT 10 19 12 21 4 23 21 25 18 27
REMARK Flexibility Score: inf
ROOT
ATOM      1  C   UNL     1      -7.849  -1.384  -5.861  1.00  0.00     0.180 A 
ATOM      2  C   UNL     1      -8.751  -2.452  -5.685  1.00  0.00     0.208 A 
ATOM      3  C   UNL     1      -8.535  -3.644  -6.393  1.00  0.00     0.238 A 
ATOM      4  O   UNL     1      -9.343  -4.603  -6.252  1.00  0.00    -0.285 OA
ATOM      5  C   UNL     1      -7.418  -3.758  -7.245  1.00  0.00     0.111 A 
ATOM      6  C   UNL     1      -7.128  -4.925  -7.991  1.00  0.00     0.134 A 
ATOM      7  C   UNL     1      -5.990  -4.963  -8.810  1.00  0.00     0.093 A 
ATOM      8  C   UNL     1      -5.138  -3.860  -8.898  1.00  0.00     0.123 A 
ATOM      9  C   UNL     1      -5.420  -2.703  -8.164  1.00  0.00     0.094 A 
ATOM     10  C   UNL     1      -6.550  -2.645  -7.343  1.00  0.00     0.146 A 
ATOM     11  O   UNL     1      -6.797  -1.532  -6.662  1.00  0.00    -0.452 OA
ENDROOT
BRANCH   1  12
ATOM     12  C   UNL     1      -8.018  -0.089  -5.165  1.00  0.00     0.025 A 
ATOM     13  C   UNL     1      -8.791   0.921  -5.761  1.00  0.00     0.016 A 
ATOM     14  C   UNL     1      -8.981   2.143  -5.112  1.00  0.00     0.051 A 
ATOM     15  C   UNL     1      -8.415   2.370  -3.850  1.00  0.00     0.157 A 
ATOM     16  C   UNL     1      -7.469   0.135  -3.889  1.00  0.00     0.062 A 
ATOM     17  C   UNL     1      -7.660   1.358  -3.236  1.00  0.00     0.158 A 
BRANCH  15  18
ATOM     18  O   UNL     1      -8.605   3.592  -3.207  1.00  0.00    -0.504 OA
ATOM     19  H   UNL     1      -8.950   4.405  -3.703  1.00  0.00     0.293 HD
ENDBRANCH  15  18
BRANCH  17  20
ATOM     20  O   UNL     1      -7.096   1.546  -1.974  1.00  0.00    -0.504 OA
ATOM     21  H   UNL     1      -7.419   1.038  -1.159  1.00  0.00     0.293 HD
ENDBRANCH  17  20
ENDBRANCH   1  12
BRANCH   2  22
ATOM     22  O   UNL     1      -9.822  -2.332  -4.797  1.00  0.00    -0.502 OA
ATOM     23  H   UNL     1      -9.722  -2.485  -3.801  1.00  0.00     0.293 HD
ENDBRANCH   2  22
BRANCH   6  24
ATOM     24  O   UNL     1      -7.958  -6.045  -7.924  1.00  0.00    -0.507 OA
ATOM     25  H   UNL     1      -7.604  -6.982  -8.079  1.00  0.00     0.293 HD
ENDBRANCH   6  24
BRANCH   8  26
ATOM     26  O   UNL     1      -4.014  -3.924  -9.719  1.00  0.00    -0.508 OA
ATOM     27  H   UNL     1      -3.932  -3.350 -10.551  1.00  0.00     0.293 HD
ENDBRANCH   8  26
TORSDOF 6
ENDMDL
MODEL 3
REMARK VINA RESULT:    -5.888      2.129      7.222
REMARK INTER + INTRA:          -7.424
REMARK INTER:                  -7.107
REMARK INTRA:                  -0.317
REMARK UNBOUND:                -0.331
REMARK SMILES O=c1c(O)c(-c2ccc(O)c(O)c2)oc2cc(O)cc(O)c12
REMARK SMILES IDX 5 1 3 2 2 3 1 4 22 5 20 6 19 7 17 8 16 9 15 10 14 11 6 12
REMARK SMILES IDX 7 13 8 14 9 15 13 16 11 17 10 18 12 20 4 22 21 24 18 26
REMARK H PARENT 10 19 12 21 4 23 21 25 18 27
REMARK Flexibility Score: inf
ROOT
ATOM      1  C   UNL     1      -6.969  -2.157  -7.382  1.00  0.00     0.180 A 
ATOM      2  C   UNL     1      -7.584  -1.377  -8.381  1.00  0.00     0.208 A 
ATOM      3  C   UNL     1      -8.367  -0.277  -7.995  1.00  0.00     0.238 A 
ATOM      4  O   UNL     1      -8.932   0.422  -8.879  1.00  0.00    -0.285 OA
ATOM      5  C   UNL     1      -8.506   0.035  -6.627  1.00  0.00     0.111 A 
ATOM      6  C   UNL     1      -9.273   1.126  -6.155  1.00  0.00     0.134 A 
ATOM      7  C   UNL     1      -9.355   1.377  -4.778  1.00  0.00     0.093 A 
ATOM      8  C   UNL     1      -8.685   0.560  -3.865  1.00  0.00     0.123 A 
ATOM      9  C   UNL     1      -7.925  -0.521  -4.324  1.00  0.00     0.094 A 
ATOM     10  C   UNL     1      -7.833  -0.788  -5.694  1.00  0.00     0.146 A 
ATOM     11  O   UNL     1      -7.110  -1.824  -6.102  1.00  0.00    -0.452 OA
ENDROOT
BRANCH   1  12
ATOM     12  C   UNL     1      -6.145  -3.342  -7.708  1.00  0.00     0.025 A 
ATOM     13  C   UNL     1      -6.771  -4.579  -7.934  1.00  0.00     0.016 A 
ATOM     14  C   UNL     1      -6.013  -5.706  -8.263  1.00  0.00     0.051 A 
ATOM     15  C   UNL     1      -4.621  -5.611  -8.387  1.00  0.00     0.157 A 
ATOM     16  C   UNL     1      -4.749  -3.246  -7.853  1.00  0.00     0.062 A 
ATOM     17  C   UNL     1      -3.988  -4.374  -8.185  1.00  0.00     0.158 A 
BRANCH  15  18
ATOM     18  O   UNL     1      -3.868  -6.738  -8.713  1.00  0.00    -0.504 OA
ATOM     19  H   UNL     1      -2.884  -6.670  -8.944  1.00  0.00     0.293 HD
ENDBRANCH  15  18
BRANCH  17  20
ATOM     20  O   UNL     1      -2.605  -4.242  -8.315  1.00  0.00    -0.504 OA
ATOM     21  H   UNL     1      -2.141  -3.345  -8.236  1.00  0.00     0.293 HD
ENDBRANCH  17  20
ENDBRANCH   1  12
BRANCH   2  22
ATOM     22  O   UNL     1      -7.391  -1.677  -9.731  1.00  0.00    -0.502 OA
ATOM     23  H   UNL     1      -7.246  -0.960 -10.432  1.00  0.00     0.293 HD
ENDBRANCH   2  22
BRANCH   6  24
ATOM     24  O   UNL     1      -9.953   1.962  -7.043  1.00  0.00    -0.507 OA
ATOM     25  H   UNL     1     -10.345   1.613  -7.910  1.00  0.00     0.293 HD
ENDBRANCH   6  24
BRANCH   8  26
ATOM     26  O   UNL     1      -8.781   0.831  -2.501  1.00  0.00    -0.508 OA
ATOM     27  H   UNL     1      -7.959   1.007  -1.936  1.00  0.00     0.293 HD
ENDBRANCH   8  26
TORSDOF 6
ENDMDL
MODEL 4
REMARK VINA RESULT:    -5.808     13.575     16.841
REMARK INTER + INTRA:          -7.327
REMARK INTER:                  -7.491
REMARK INTRA:                   0.164
REMARK UNBOUND:                -0.331
REMARK SMILES O=c1c(O)c(-c2ccc(O)c(O)c2)oc2cc(O)cc(O)c12
REMARK SMILES IDX 5 1 3 2 2 3 1 4 22 5 20 6 19 7 17 8 16 9 15 10 14 11 6 12
REMARK SMILES IDX 7 13 8 14 9 15 13 16 11 17 10 18 12 20 4 22 21 24 18 26
REMARK H PARENT 10 19 12 21 4 23 21 25 18 27
REMARK Flexibility Score: inf
ROOT
ATOM      1  C   UNL     1      -0.992   6.258   6.695  1.00  0.00     0.180 A 
ATOM      2  C   UNL     1      -0.530   7.444   6.092  1.00  0.00     0.208 A 
ATOM      3  C   UNL     1      -1.395   8.152   5.241  1.00  0.00     0.238 A 
ATOM      4  O   UNL     1      -0.988   9.209   4.686  1.00  0.00    -0.285 OA
ATOM      5  C   UNL     1      -2.704   7.677   5.025  1.00  0.00     0.111 A 
ATOM      6  C   UNL     1      -3.637   8.333   4.187  1.00  0.00     0.134 A 
ATOM      7  C   UNL     1      -4.926   7.802   4.030  1.00  0.00     0.093 A 
ATOM      8  C   UNL     1      -5.300   6.632   4.694  1.00  0.00     0.123 A 
ATOM      9  C   UNL     1      -4.382   5.978   5.523  1.00  0.00     0.094 A 
ATOM     10  C   UNL     1      -3.092   6.491   5.691  1.00  0.00     0.146 A 
ATOM     11  O   UNL     1      -2.239   5.848   6.480  1.00  0.00    -0.452 OA
ENDROOT
BRANCH   1  12
ATOM     12  C   UNL     1      -0.135   5.446   7.588  1.00  0.00     0.025 A 
ATOM     13  C   UNL     1      -0.717   4.758   8.666  1.00  0.00     0.016 A 
ATOM     14  C   UNL     1       0.069   3.969   9.509  1.00  0.00     0.051 A 
ATOM     15  C   UNL     1       1.446   3.842   9.280  1.00  0.00     0.157 A 
ATOM     16  C   UNL     1       1.243   5.300   7.349  1.00  0.00     0.062 A 
ATOM     17  C   UNL     1       2.033   4.508   8.191  1.00  0.00     0.158 A 
BRANCH  15  18
ATOM     18  O   UNL     1       2.227   3.056  10.125  1.00  0.00    -0.504 OA
ATOM     19  H   UNL     1       3.061   3.422  10.570  1.00  0.00     0.293 HD
ENDBRANCH  15  18
BRANCH  17  20
ATOM     20  O   UNL     1       3.397   4.391   7.926  1.00  0.00    -0.504 OA
ATOM     21  H   UNL     1       4.076   4.230   8.662  1.00  0.00     0.293 HD
ENDBRANCH  17  20
ENDBRANCH   1  12
BRANCH   2  22
ATOM     22  O   UNL     1       0.755   7.920   6.361  1.00  0.00    -0.502 OA
ATOM     23  H   UNL     1       0.933   8.879   6.633  1.00  0.00     0.293 HD
ENDBRANCH   2  22
BRANCH   6  24
ATOM     24  O   UNL     1      -3.295   9.505   3.510  1.00  0.00    -0.507 OA
ATOM     25  H   UNL     1      -2.853  10.285   3.984  1.00  0.00     0.293 HD
ENDBRANCH   6  24
BRANCH   8  26
ATOM     26  O   UNL     1      -6.586   6.125   4.522  1.00  0.00    -0.508 OA
ATOM     27  H   UNL     1      -7.333   6.693   4.138  1.00  0.00     0.293 HD
ENDBRANCH   8  26
TORSDOF 6
ENDMDL
MODEL 5
REMARK VINA RESULT:    -5.768      2.140      7.230
REMARK INTER + INTRA:          -7.278
REMARK INTER:                  -7.048
REMARK INTRA:                  -0.230
REMARK UNBOUND:                -0.331
REMARK SMILES O=c1c(O)c(-c2ccc(O)c(O)c2)oc2cc(O)cc(O)c12
REMARK SMILES IDX 5 1 3 2 2 3 1 4 22 5 20 6 19 7 17 8 16 9 15 10 14 11 6 12
REMARK SMILES IDX 7 13 8 14 9 15 13 16 11 17 10 18 12 20 4 22 21 24 18 26
REMARK H PARENT 10 19 12 21 4 23 21 25 18 27
REMARK Flexibility Score: inf
ROOT
ATOM      1  C   UNL     1      -8.769  -2.858  -5.895  1.00  0.00     0.180 A 
ATOM      2  C   UNL     1      -9.204  -1.972  -6.901  1.00  0.00     0.208 A 
ATOM      3  C   UNL     1      -9.159  -0.591  -6.654  1.00  0.00     0.238 A 
ATOM      4  O   UNL     1      -9.556   0.210  -7.543  1.00  0.00    -0.285 OA
ATOM      5  C   UNL     1      -8.664  -0.118  -5.421  1.00  0.00     0.111 A 
ATOM      6  C   UNL     1      -8.582   1.256  -5.095  1.00  0.00     0.134 A 
ATOM      7  C   UNL     1      -8.069   1.647  -3.850  1.00  0.00     0.093 A 
ATOM      8  C   UNL     1      -7.636   0.693  -2.927  1.00  0.00     0.123 A 
ATOM      9  C   UNL     1      -7.715  -0.667  -3.242  1.00  0.00     0.094 A 
ATOM     10  C   UNL     1      -8.225  -1.077  -4.478  1.00  0.00     0.146 A 
ATOM     11  O   UNL     1      -8.294  -2.375  -4.750  1.00  0.00    -0.452 OA
ENDROOT
BRANCH   1  12
ATOM     12  C   UNL     1      -8.803  -4.327  -6.072  1.00  0.00     0.025 A 
ATOM     13  C   UNL     1      -9.773  -5.082  -5.394  1.00  0.00     0.016 A 
ATOM     14  C   UNL     1      -9.836  -6.467  -5.562  1.00  0.00     0.051 A 
ATOM     15  C   UNL     1      -8.943  -7.117  -6.424  1.00  0.00     0.157 A 
ATOM     16  C   UNL     1      -7.921  -4.979  -6.952  1.00  0.00     0.062 A 
ATOM     17  C   UNL     1      -7.984  -6.367  -7.125  1.00  0.00     0.158 A 
BRANCH  15  18
ATOM     18  O   UNL     1      -9.007  -8.500  -6.588  1.00  0.00    -0.504 OA
ATOM     19  H   UNL     1      -8.809  -8.939  -7.480  1.00  0.00     0.293 HD
ENDBRANCH  15  18
BRANCH  17  20
ATOM     20  O   UNL     1      -7.089  -6.981  -8.001  1.00  0.00    -0.504 OA
ATOM     21  H   UNL     1      -6.353  -6.464  -8.467  1.00  0.00     0.293 HD
ENDBRANCH  17  20
ENDBRANCH   1  12
BRANCH   2  22
ATOM     22  O   UNL     1      -9.643  -2.464  -8.132  1.00  0.00    -0.502 OA
ATOM     23  H   UNL     1      -9.700  -1.882  -8.960  1.00  0.00     0.293 HD
ENDBRANCH   2  22
BRANCH   6  24
ATOM     24  O   UNL     1      -9.005   2.234  -5.997  1.00  0.00    -0.507 OA
ATOM     25  H   UNL     1      -9.936   2.222  -6.399  1.00  0.00     0.293 HD
ENDBRANCH   6  24
BRANCH   8  26
ATOM     26  O   UNL     1      -7.129   1.107  -1.697  1.00  0.00    -0.508 OA
ATOM     27  H   UNL     1      -7.716   1.567  -1.010  1.00  0.00     0.293 HD
ENDBRANCH   8  26
TORSDOF 6
ENDMDL
MODEL 6
REMARK VINA RESULT:    -5.750      1.794      7.069
REMARK INTER + INTRA:          -7.257
REMARK INTER:                  -6.960
REMARK INTRA:                  -0.298
REMARK UNBOUND:                -0.331
REMARK SMILES O=c1c(O)c(-c2ccc(O)c(O)c2)oc2cc(O)cc(O)c12
REMARK SMILES IDX 5 1 3 2 2 3 1 4 22 5 20 6 19 7 17 8 16 9 15 10 14 11 6 12
REMARK SMILES IDX 7 13 8 14 9 15 13 16 11 17 10 18 12 20 4 22 21 24 18 26
REMARK H PARENT 10 19 12 21 4 23 21 25 18 27
REMARK Flexibility Score: inf
ROOT
ATOM      1  C   UNL     1      -7.546  -1.419  -6.876  1.00  0.00     0.180 A 
ATOM      2  C   UNL     1      -8.469  -0.642  -7.603  1.00  0.00     0.208 A 
ATOM      3  C   UNL     1      -8.980   0.527  -7.016  1.00  0.00     0.238 A 
ATOM      4  O   UNL     1      -9.817   1.224  -7.653  1.00  0.00    -0.285 OA
ATOM      5  C   UNL     1      -8.548   0.910  -5.730  1.00  0.00     0.111 A 
ATOM      6  C   UNL     1      -9.011   2.073  -5.071  1.00  0.00     0.134 A 
ATOM      7  C   UNL     1      -8.524   2.391  -3.795  1.00  0.00     0.093 A 
ATOM      8  C   UNL     1      -7.586   1.570  -3.166  1.00  0.00     0.123 A 
ATOM      9  C   UNL     1      -7.125   0.418  -3.811  1.00  0.00     0.094 A 
ATOM     10  C   UNL     1      -7.599   0.083  -5.083  1.00  0.00     0.146 A 
ATOM     11  O   UNL     1      -7.149  -1.019  -5.671  1.00  0.00    -0.452 OA
ENDROOT
BRANCH   1  12
ATOM     12  C   UNL     1      -6.977  -2.673  -7.418  1.00  0.00     0.025 A 
ATOM     13  C   UNL     1      -7.735  -3.854  -7.368  1.00  0.00     0.016 A 
ATOM     14  C   UNL     1      -7.226  -5.045  -7.891  1.00  0.00     0.051 A 
ATOM     15  C   UNL     1      -5.958  -5.071  -8.488  1.00  0.00     0.157 A 
ATOM     16  C   UNL     1      -5.713  -2.698  -8.035  1.00  0.00     0.062 A 
ATOM     17  C   UNL     1      -5.202  -3.890  -8.563  1.00  0.00     0.158 A 
BRANCH  15  18
ATOM     18  O   UNL     1      -5.452  -6.262  -9.007  1.00  0.00    -0.504 OA
ATOM     19  H   UNL     1      -4.455  -6.430  -9.075  1.00  0.00     0.293 HD
ENDBRANCH  15  18
BRANCH  17  20
ATOM     20  O   UNL     1      -3.942  -3.878  -9.162  1.00  0.00    -0.504 OA
ATOM     21  H   UNL     1      -3.429  -3.019  -9.319  1.00  0.00     0.293 HD
ENDBRANCH  17  20
ENDBRANCH   1  12
BRANCH   2  22
ATOM     22  O   UNL     1      -8.845  -1.016  -8.895  1.00  0.00    -0.502 OA
ATOM     23  H   UNL     1      -9.244  -1.923  -9.103  1.00  0.00     0.293 HD
ENDBRANCH   2  22
BRANCH   6  24
ATOM     24  O   UNL     1      -9.947   2.915  -5.674  1.00  0.00    -0.507 OA
ATOM     25  H   UNL     1     -10.294   2.743  -6.611  1.00  0.00     0.293 HD
ENDBRANCH   6  24
BRANCH   8  26
ATOM     26  O   UNL     1      -7.119   1.907  -1.897  1.00  0.00    -0.508 OA
ATOM     27  H   UNL     1      -7.338   2.801  -1.471  1.00  0.00     0.293 HD
ENDBRANCH   8  26
TORSDOF 6
ENDMDL
MODEL 7
REMARK VINA RESULT:    -5.600     14.222     16.480
REMARK INTER + INTRA:          -7.077
REMARK INTER:                  -6.759
REMARK INTRA:                  -0.318
REMARK UNBOUND:                -0.331
REMARK SMILES O=c1c(O)c(-c2ccc(O)c(O)c2)oc2cc(O)cc(O)c12
REMARK SMILES IDX 5 1 3 2 2 3 1 4 22 5 20 6 19 7 17 8 16 9 15 10 14 11 6 12
REMARK SMILES IDX 7 13 8 14 9 15 13 16 11 17 10 18 12 20 4 22 21 24 18 26
REMARK H PARENT 10 19 12 21 4 23 21 25 18 27
REMARK Flexibility Score: inf
ROOT
ATOM      1  C   UNL     1      -1.996   6.136   7.045  1.00  0.00     0.180 A 
ATOM      2  C   UNL     1      -3.292   5.645   7.298  1.00  0.00     0.208 A 
ATOM      3  C   UNL     1      -4.362   6.133   6.531  1.00  0.00     0.238 A 
ATOM      4  O   UNL     1      -5.529   5.710   6.757  1.00  0.00    -0.285 OA
ATOM      5  C   UNL     1      -4.119   7.081   5.516  1.00  0.00     0.111 A 
ATOM      6  C   UNL     1      -5.141   7.618   4.698  1.00  0.00     0.134 A 
ATOM      7  C   UNL     1      -4.817   8.552   3.702  1.00  0.00     0.093 A 
ATOM      8  C   UNL     1      -3.494   8.956   3.509  1.00  0.00     0.123 A 
ATOM      9  C   UNL     1      -2.480   8.430   4.315  1.00  0.00     0.094 A 
ATOM     10  C   UNL     1      -2.783   7.499   5.314  1.00  0.00     0.146 A 
ATOM     11  O   UNL     1      -1.802   7.019   6.069  1.00  0.00    -0.452 OA
ENDROOT
BRANCH   1  12
ATOM     12  C   UNL     1      -0.819   5.686   7.822  1.00  0.00     0.025 A 
ATOM     13  C   UNL     1      -0.426   6.409   8.960  1.00  0.00     0.016 A 
ATOM     14  C   UNL     1       0.669   5.990   9.721  1.00  0.00     0.051 A 
ATOM     15  C   UNL     1       1.377   4.835   9.365  1.00  0.00     0.157 A 
ATOM     16  C   UNL     1      -0.119   4.515   7.480  1.00  0.00     0.062 A 
ATOM     17  C   UNL     1       0.977   4.092   8.242  1.00  0.00     0.158 A 
BRANCH  15  18
ATOM     18  O   UNL     1       2.470   4.421  10.125  1.00  0.00    -0.504 OA
ATOM     19  H   UNL     1       3.052   5.085  10.623  1.00  0.00     0.293 HD
ENDBRANCH  15  18
BRANCH  17  20
ATOM     20  O   UNL     1       1.651   2.930   7.869  1.00  0.00    -0.504 OA
ATOM     21  H   UNL     1       1.162   2.108   7.534  1.00  0.00     0.293 HD
ENDBRANCH  17  20
ENDBRANCH   1  12
BRANCH   2  22
ATOM     22  O   UNL     1      -3.499   4.670   8.276  1.00  0.00    -0.502 OA
ATOM     23  H   UNL     1      -3.556   4.893   9.262  1.00  0.00     0.293 HD
ENDBRANCH   2  22
BRANCH   6  24
ATOM     24  O   UNL     1      -6.472   7.233   4.865  1.00  0.00    -0.507 OA
ATOM     25  H   UNL     1      -6.722   6.353   5.302  1.00  0.00     0.293 HD
ENDBRANCH   6  24
BRANCH   8  26
ATOM     26  O   UNL     1      -3.199   9.885   2.513  1.00  0.00    -0.508 OA
ATOM     27  H   UNL     1      -3.868  10.115   1.787  1.00  0.00     0.293 HD
ENDBRANCH   8  26
TORSDOF 6
ENDMDL
MODEL 8
REMARK VINA RESULT:    -5.522     14.118     17.010
REMARK INTER + INTRA:          -6.982
REMARK INTER:                  -6.937
REMARK INTRA:                  -0.045
REMARK UNBOUND:                -0.331
REMARK SMILES O=c1c(O)c(-c2ccc(O)c(O)c2)oc2cc(O)cc(O)c12
REMARK SMILES IDX 5 1 3 2 2 3 1 4 22 5 20 6 19 7 17 8 16 9 15 10 14 11 6 12
REMARK SMILES IDX 7 13 8 14 9 15 13 16 11 17 10 18 12 20 4 22 21 24 18 26
REMARK H PARENT 10 19 12 21 4 23 21 25 18 27
REMARK Flexibility Score: inf
ROOT
ATOM      1  C   UNL     1      -1.727   5.736   7.084  1.00  0.00     0.180 A 
ATOM      2  C   UNL     1      -1.836   5.606   5.686  1.00  0.00     0.208 A 
ATOM      3  C   UNL     1      -2.879   6.271   5.022  1.00  0.00     0.238 A 
ATOM      4  O   UNL     1      -2.993   6.152   3.772  1.00  0.00    -0.285 OA
ATOM      5  C   UNL     1      -3.779   7.068   5.759  1.00  0.00     0.111 A 
ATOM      6  C   UNL     1      -4.853   7.773   5.167  1.00  0.00     0.134 A 
ATOM      7  C   UNL     1      -5.700   8.553   5.967  1.00  0.00     0.093 A 
ATOM      8  C   UNL     1      -5.494   8.642   7.345  1.00  0.00     0.123 A 
ATOM      9  C   UNL     1      -4.435   7.947   7.938  1.00  0.00     0.094 A 
ATOM     10  C   UNL     1      -3.580   7.163   7.156  1.00  0.00     0.146 A 
ATOM     11  O   UNL     1      -2.586   6.509   7.745  1.00  0.00    -0.452 OA
ENDROOT
BRANCH   1  12
ATOM     12  C   UNL     1      -0.668   5.051   7.858  1.00  0.00     0.025 A 
ATOM     13  C   UNL     1      -1.026   4.182   8.901  1.00  0.00     0.016 A 
ATOM     14  C   UNL     1      -0.043   3.509   9.631  1.00  0.00     0.051 A 
ATOM     15  C   UNL     1       1.312   3.682   9.319  1.00  0.00     0.157 A 
ATOM     16  C   UNL     1       0.692   5.206   7.534  1.00  0.00     0.062 A 
ATOM     17  C   UNL     1       1.679   4.531   8.262  1.00  0.00     0.158 A 
BRANCH  15  18
ATOM     18  O   UNL     1       2.291   3.010  10.050  1.00  0.00    -0.504 OA
ATOM     19  H   UNL     1       3.036   2.497   9.594  1.00  0.00     0.293 HD
ENDBRANCH  15  18
BRANCH  17  20
ATOM     20  O   UNL     1       3.019   4.713   7.916  1.00  0.00    -0.504 OA
ATOM     21  H   UNL     1       3.353   5.574   7.498  1.00  0.00     0.293 HD
ENDBRANCH  17  20
ENDBRANCH   1  12
BRANCH   2  22
ATOM     22  O   UNL     1      -0.903   4.850   4.972  1.00  0.00    -0.502 OA
ATOM     23  H   UNL     1      -0.038   4.524   5.386  1.00  0.00     0.293 HD
ENDBRANCH   2  22
BRANCH   6  24
ATOM     24  O   UNL     1      -5.085   7.706   3.792  1.00  0.00    -0.507 OA
ATOM     25  H   UNL     1      -4.417   8.068   3.120  1.00  0.00     0.293 HD
ENDBRANCH   6  24
BRANCH   8  26
ATOM     26  O   UNL     1      -6.350   9.424   8.119  1.00  0.00    -0.508 OA
ATOM     27  H   UNL     1      -6.012   9.948   8.918  1.00  0.00     0.293 HD
ENDBRANCH   8  26
TORSDOF 6
ENDMDL
