MODEL 1
REMARK VINA RESULT:    -3.883      0.000      0.000
REMARK INTER + INTRA:          -9.524
REMARK INTER:                  -7.062
REMARK INTRA:                  -2.462
REMARK UNBOUND:                -2.462
REMARK SMILES CCCCCCCCCCCCCCCC(=O)[O-]
REMARK SMILES IDX 9 1 10 2 11 3 12 4 13 5 14 6 15 7 16 8 17 9 18 10 8 11 7 12
REMARK SMILES IDX 6 13 5 14 4 15 3 16 2 17 1 18
REMARK H PARENT
REMARK Flexibility Score: inf
ROOT
ATOM      1  C   UNL     1      17.372 -35.103  -2.115  1.00  0.00     0.000 C 
ENDROOT
BRANCH   1   2
ATOM      2  C   UNL     1      17.476 -34.246  -0.844  1.00  0.00     0.000 C 
BRANCH   2   3
ATOM      3  C   UNL     1      17.703 -35.094   0.420  1.00  0.00     0.000 C 
BRANCH   3   4
ATOM      4  C   UNL     1      16.446 -35.206   1.300  1.00  0.00     0.000 C 
BRANCH   4   5
ATOM      5  C   UNL     1      16.507 -36.299   2.383  1.00  0.00     0.000 C 
BRANCH   5   6
ATOM      6  C   UNL     1      16.544 -37.720   1.798  1.00  0.00     0.006 C 
BRANCH   6   7
ATOM      7  C   UNL     1      17.749 -38.500   2.330  1.00  0.00     0.053 C 
BRANCH   7   8
ATOM      8  C   UNL     1      18.699 -38.818   1.219  1.00  0.00     0.041 C 
ATOM      9  O   UNL     1      19.550 -37.966   0.850  1.00  0.00    -0.550 OA
ATOM     10  O   UNL     1      18.612 -40.036   0.556  1.00  0.00    -0.550 OA
ENDBRANCH   7   8
ENDBRANCH   6   7
ENDBRANCH   5   6
ENDBRANCH   4   5
ENDBRANCH   3   4
ENDBRANCH   2   3
ENDBRANCH   1   2
BRANCH   1  11
ATOM     11  C   UNL     1      17.677 -36.588  -1.850  1.00  0.00     0.000 C 
BRANCH  11  12
ATOM     12  C   UNL     1      16.532 -37.508  -2.325  1.00  0.00    -0.000 C 
BRANCH  12  13
ATOM     13  C   UNL     1      15.251 -37.382  -1.482  1.00  0.00    -0.000 C 
BRANCH  13  14
ATOM     14  C   UNL     1      14.094 -36.724  -2.248  1.00  0.00    -0.000 C 
BRANCH  14  15
ATOM     15  C   UNL     1      13.694 -35.392  -1.601  1.00  0.00    -0.000 C 
BRANCH  15  16
ATOM     16  C   UNL     1      13.757 -34.247  -2.619  1.00  0.00    -0.000 C 
BRANCH  16  17
ATOM     17  C   UNL     1      14.166 -32.933  -1.942  1.00  0.00    -0.003 C 
ATOM     18  C   UNL     1      13.969 -33.007  -0.432  1.00  0.00     0.004 C 
ENDBRANCH  16  17
ENDBRANCH  15  16
ENDBRANCH  14  15
ENDBRANCH  13  14
ENDBRANCH  12  13
ENDBRANCH  11  12
ENDBRANCH   1  11
TORSDOF 14
ENDMDL
MODEL 2
REMARK VINA RESULT:    -3.806      1.312      2.893
REMARK INTER + INTRA:          -9.382
REMARK INTER:                  -6.765
REMARK INTRA:                  -2.618
REMARK UNBOUND:                -2.462
REMARK SMILES CCCCCCCCCCCCCCCC(=O)[O-]
REMARK SMILES IDX 9 1 10 2 11 3 12 4 13 5 14 6 15 7 16 8 17 9 18 10 8 11 7 12
REMARK SMILES IDX 6 13 5 14 4 15 3 16 2 17 1 18
REMARK H PARENT
REMARK Flexibility Score: inf
ROOT
ATOM      1  C   UNL     1      17.458 -35.653  -0.889  1.00  0.00     0.000 C 
ENDROOT
BRANCH   1   2
ATOM      2  C   UNL     1      17.549 -36.300  -2.279  1.00  0.00     0.000 C 
BRANCH   2   3
ATOM      3  C   UNL     1      16.707 -37.584  -2.386  1.00  0.00     0.000 C 
BRANCH   3   4
ATOM      4  C   UNL     1      15.336 -37.460  -1.697  1.00  0.00     0.000 C 
BRANCH   4   5
ATOM      5  C   UNL     1      15.097 -38.452  -0.544  1.00  0.00     0.000 C 
BRANCH   5   6
ATOM      6  C   UNL     1      16.372 -39.200  -0.124  1.00  0.00     0.006 C 
BRANCH   6   7
ATOM      7  C   UNL     1      16.930 -38.639   1.186  1.00  0.00     0.053 C 
BRANCH   7   8
ATOM      8  C   UNL     1      18.392 -38.933   1.302  1.00  0.00     0.041 C 
ATOM      9  O   UNL     1      19.224 -38.291   0.607  1.00  0.00    -0.550 OA
ATOM     10  O   UNL     1      18.834 -39.951   2.138  1.00  0.00    -0.550 OA
ENDBRANCH   7   8
ENDBRANCH   6   7
ENDBRANCH   5   6
ENDBRANCH   4   5
ENDBRANCH   3   4
ENDBRANCH   2   3
ENDBRANCH   1   2
BRANCH   1  11
ATOM     11  C   UNL     1      17.593 -34.120  -0.943  1.00  0.00     0.000 C 
BRANCH  11  12
ATOM     12  C   UNL     1      16.872 -33.518  -2.168  1.00  0.00    -0.000 C 
BRANCH  12  13
ATOM     13  C   UNL     1      15.465 -32.981  -1.851  1.00  0.00    -0.000 C 
BRANCH  13  14
ATOM     14  C   UNL     1      14.346 -33.904  -2.353  1.00  0.00    -0.000 C 
BRANCH  14  15
ATOM     15  C   UNL     1      13.355 -34.229  -1.228  1.00  0.00    -0.000 C 
BRANCH  15  16
ATOM     16  C   UNL     1      13.956 -33.905   0.145  1.00  0.00    -0.000 C 
BRANCH  16  17
ATOM     17  C   UNL     1      13.774 -35.078   1.115  1.00  0.00    -0.003 C 
ATOM     18  C   UNL     1      15.090 -35.434   1.800  1.00  0.00     0.004 C 
ENDBRANCH  16  17
ENDBRANCH  15  16
ENDBRANCH  14  15
ENDBRANCH  13  14
ENDBRANCH  12  13
ENDBRANCH  11  12
ENDBRANCH   1  11
TORSDOF 14
ENDMDL
MODEL 3
REMARK VINA RESULT:    -3.672      1.439      3.325
REMARK INTER + INTRA:          -9.139
REMARK INTER:                  -6.890
REMARK INTRA:                  -2.249
REMARK UNBOUND:                -2.462
REMARK SMILES CCCCCCCCCCCCCCCC(=O)[O-]
REMARK SMILES IDX 9 1 10 2 11 3 12 4 13 5 14 6 15 7 16 8 17 9 18 10 8 11 7 12
REMARK SMILES IDX 6 13 5 14 4 15 3 16 2 17 1 18
REMARK H PARENT
REMARK Flexibility Score: inf
ROOT
ATOM      1  C   UNL     1      14.895 -33.923  -1.213  1.00  0.00     0.000 C 
ENDROOT
BRANCH   1   2
ATOM      2  C   UNL     1      15.844 -33.008  -2.003  1.00  0.00     0.000 C 
BRANCH   2   3
ATOM      3  C   UNL     1      17.273 -33.575  -2.087  1.00  0.00     0.000 C 
BRANCH   3   4
ATOM      4  C   UNL     1      17.424 -34.925  -1.364  1.00  0.00     0.000 C 
BRANCH   4   5
ATOM      5  C   UNL     1      17.597 -36.142  -2.293  1.00  0.00     0.000 C 
BRANCH   5   6
ATOM      6  C   UNL     1      17.754 -37.463  -1.525  1.00  0.00     0.006 C 
BRANCH   6   7
ATOM      7  C   UNL     1      17.985 -37.206  -0.033  1.00  0.00     0.053 C 
BRANCH   7   8
ATOM      8  C   UNL     1      18.933 -38.216   0.532  1.00  0.00     0.041 C 
ATOM      9  O   UNL     1      19.933 -37.842   1.200  1.00  0.00    -0.550 OA
ATOM     10  O   UNL     1      18.741 -39.569   0.279  1.00  0.00    -0.550 OA
ENDBRANCH   7   8
ENDBRANCH   6   7
ENDBRANCH   5   6
ENDBRANCH   4   5
ENDBRANCH   3   4
ENDBRANCH   2   3
ENDBRANCH   1   2
BRANCH   1  11
ATOM     11  C   UNL     1      13.724 -34.436  -2.070  1.00  0.00     0.000 C 
BRANCH  11  12
ATOM     12  C   UNL     1      13.811 -35.956  -2.319  1.00  0.00    -0.000 C 
BRANCH  12  13
ATOM     13  C   UNL     1      14.117 -36.771  -1.050  1.00  0.00    -0.000 C 
BRANCH  13  14
ATOM     14  C   UNL     1      12.945 -36.794  -0.059  1.00  0.00    -0.000 C 
BRANCH  14  15
ATOM     15  C   UNL     1      13.377 -36.267   1.316  1.00  0.00    -0.000 C 
BRANCH  15  16
ATOM     16  C   UNL     1      14.863 -36.548   1.570  1.00  0.00    -0.000 C 
BRANCH  16  17
ATOM     17  C   UNL     1      15.560 -35.321   2.169  1.00  0.00    -0.003 C 
ATOM     18  C   UNL     1      16.321 -35.687   3.440  1.00  0.00     0.004 C 
ENDBRANCH  16  17
ENDBRANCH  15  16
ENDBRANCH  14  15
ENDBRANCH  13  14
ENDBRANCH  12  13
ENDBRANCH  11  12
ENDBRANCH   1  11
TORSDOF 14
ENDMDL
MODEL 4
REMARK VINA RESULT:    -3.648      2.722      4.075
REMARK INTER + INTRA:          -9.095
REMARK INTER:                  -7.747
REMARK INTRA:                  -1.348
REMARK UNBOUND:                -2.462
REMARK SMILES CCCCCCCCCCCCCCCC(=O)[O-]
REMARK SMILES IDX 9 1 10 2 11 3 12 4 13 5 14 6 15 7 16 8 17 9 18 10 8 11 7 12
REMARK SMILES IDX 6 13 5 14 4 15 3 16 2 17 1 18
REMARK H PARENT
REMARK Flexibility Score: inf
ROOT
ATOM      1  C   UNL     1      17.635 -36.472  -2.369  1.00  0.00     0.000 C 
ENDROOT
BRANCH   1   2
ATOM      2  C   UNL     1      17.613 -34.975  -2.025  1.00  0.00     0.000 C 
BRANCH   2   3
ATOM      3  C   UNL     1      16.880 -34.687  -0.702  1.00  0.00     0.000 C 
BRANCH   3   4
ATOM      4  C   UNL     1      17.807 -34.758   0.524  1.00  0.00     0.000 C 
BRANCH   4   5
ATOM      5  C   UNL     1      17.196 -35.445   1.760  1.00  0.00     0.000 C 
BRANCH   5   6
ATOM      6  C   UNL     1      16.680 -36.861   1.464  1.00  0.00     0.006 C 
BRANCH   6   7
ATOM      7  C   UNL     1      17.625 -37.920   2.039  1.00  0.00     0.053 C 
BRANCH   7   8
ATOM      8  C   UNL     1      18.343 -38.634   0.937  1.00  0.00     0.041 C 
ATOM      9  O   UNL     1      19.445 -38.197   0.513  1.00  0.00    -0.550 OA
ATOM     10  O   UNL     1      17.771 -39.753   0.345  1.00  0.00    -0.550 OA
ENDBRANCH   7   8
ENDBRANCH   6   7
ENDBRANCH   5   6
ENDBRANCH   4   5
ENDBRANCH   3   4
ENDBRANCH   2   3
ENDBRANCH   1   2
BRANCH   1  11
ATOM     11  C   UNL     1      16.293 -37.164  -2.072  1.00  0.00     0.000 C 
BRANCH  11  12
ATOM     12  C   UNL     1      16.276 -38.628  -2.561  1.00  0.00    -0.000 C 
BRANCH  12  13
ATOM     13  C   UNL     1      14.865 -39.239  -2.623  1.00  0.00    -0.000 C 
BRANCH  13  14
ATOM     14  C   UNL     1      14.505 -39.771  -4.018  1.00  0.00    -0.000 C 
BRANCH  14  15
ATOM     15  C   UNL     1      15.736 -40.367  -4.713  1.00  0.00    -0.000 C 
BRANCH  15  16
ATOM     16  C   UNL     1      15.440 -40.676  -6.186  1.00  0.00    -0.000 C 
BRANCH  16  17
ATOM     17  C   UNL     1      14.112 -40.047  -6.623  1.00  0.00    -0.003 C 
ATOM     18  C   UNL     1      14.256 -39.333  -7.963  1.00  0.00     0.004 C 
ENDBRANCH  16  17
ENDBRANCH  15  16
ENDBRANCH  14  15
ENDBRANCH  13  14
ENDBRANCH  12  13
ENDBRANCH  11  12
ENDBRANCH   1  11
TORSDOF 14
ENDMDL
MODEL 5
REMARK VINA RESULT:    -3.617      0.919      2.503
REMARK INTER + INTRA:          -9.039
REMARK INTER:                  -6.666
REMARK INTRA:                  -2.373
REMARK UNBOUND:                -2.462
REMARK SMILES CCCCCCCCCCCCCCCC(=O)[O-]
REMARK SMILES IDX 9 1 10 2 11 3 12 4 13 5 14 6 15 7 16 8 17 9 18 10 8 11 7 12
REMARK SMILES IDX 6 13 5 14 4 15 3 16 2 17 1 18
REMARK H PARENT
REMARK Flexibility Score: inf
ROOT
ATOM      1  C   UNL     1      17.392 -35.257  -2.117  1.00  0.00     0.000 C 
ENDROOT
BRANCH   1   2
ATOM      2  C   UNL     1      17.612 -36.131  -0.873  1.00  0.00     0.000 C 
BRANCH   2   3
ATOM      3  C   UNL     1      17.632 -35.308   0.427  1.00  0.00     0.000 C 
BRANCH   3   4
ATOM      4  C   UNL     1      16.373 -35.518   1.287  1.00  0.00     0.000 C 
BRANCH   4   5
ATOM      5  C   UNL     1      16.592 -36.346   2.567  1.00  0.00     0.000 C 
BRANCH   5   6
ATOM      6  C   UNL     1      16.292 -37.840   2.372  1.00  0.00     0.006 C 
BRANCH   6   7
ATOM      7  C   UNL     1      17.531 -38.691   2.665  1.00  0.00     0.053 C 
BRANCH   7   8
ATOM      8  C   UNL     1      18.259 -39.009   1.398  1.00  0.00     0.041 C 
ATOM      9  O   UNL     1      19.318 -38.393   1.104  1.00  0.00    -0.550 OA
ATOM     10  O   UNL     1      17.742 -39.949   0.515  1.00  0.00    -0.550 OA
ENDBRANCH   7   8
ENDBRANCH   6   7
ENDBRANCH   5   6
ENDBRANCH   4   5
ENDBRANCH   3   4
ENDBRANCH   2   3
ENDBRANCH   1   2
BRANCH   1  11
ATOM     11  C   UNL     1      17.419 -33.753  -1.792  1.00  0.00     0.000 C 
BRANCH  11  12
ATOM     12  C   UNL     1      16.115 -33.045  -2.215  1.00  0.00    -0.000 C 
BRANCH  12  13
ATOM     13  C   UNL     1      14.856 -33.623  -1.543  1.00  0.00    -0.000 C 
BRANCH  13  14
ATOM     14  C   UNL     1      13.672 -33.758  -2.510  1.00  0.00    -0.000 C 
BRANCH  14  15
ATOM     15  C   UNL     1      13.183 -35.210  -2.582  1.00  0.00    -0.000 C 
BRANCH  15  16
ATOM     16  C   UNL     1      13.850 -36.068  -1.500  1.00  0.00    -0.000 C 
BRANCH  16  17
ATOM     17  C   UNL     1      14.363 -37.390  -2.085  1.00  0.00    -0.003 C 
ATOM     18  C   UNL     1      14.720 -38.378  -0.980  1.00  0.00     0.004 C 
ENDBRANCH  16  17
ENDBRANCH  15  16
ENDBRANCH  14  15
ENDBRANCH  13  14
ENDBRANCH  12  13
ENDBRANCH  11  12
ENDBRANCH   1  11
TORSDOF 14
ENDMDL
MODEL 6
REMARK VINA RESULT:    -3.594      1.838      4.241
REMARK INTER + INTRA:          -8.997
REMARK INTER:                  -7.183
REMARK INTRA:                  -1.814
REMARK UNBOUND:                -2.462
REMARK SMILES CCCCCCCCCCCCCCCC(=O)[O-]
REMARK SMILES IDX 9 1 10 2 11 3 12 4 13 5 14 6 15 7 16 8 17 9 18 10 8 11 7 12
REMARK SMILES IDX 6 13 5 14 4 15 3 16 2 17 1 18
REMARK H PARENT
REMARK Flexibility Score: inf
ROOT
ATOM      1  C   UNL     1      14.441 -33.976  -2.138  1.00  0.00     0.000 C 
ENDROOT
BRANCH   1   2
ATOM      2  C   UNL     1      15.497 -32.926  -1.760  1.00  0.00     0.000 C 
BRANCH   2   3
ATOM      3  C   UNL     1      16.918 -33.346  -2.176  1.00  0.00     0.000 C 
BRANCH   3   4
ATOM      4  C   UNL     1      17.406 -34.610  -1.447  1.00  0.00     0.000 C 
BRANCH   4   5
ATOM      5  C   UNL     1      17.611 -35.841  -2.350  1.00  0.00     0.000 C 
BRANCH   5   6
ATOM      6  C   UNL     1      17.885 -37.127  -1.557  1.00  0.00     0.006 C 
BRANCH   6   7
ATOM      7  C   UNL     1      17.596 -36.924  -0.067  1.00  0.00     0.053 C 
BRANCH   7   8
ATOM      8  C   UNL     1      18.343 -37.928   0.753  1.00  0.00     0.041 C 
ATOM      9  O   UNL     1      17.716 -38.757   1.465  1.00  0.00    -0.550 OA
ATOM     10  O   UNL     1      19.733 -37.916   0.772  1.00  0.00    -0.550 OA
ENDBRANCH   7   8
ENDBRANCH   6   7
ENDBRANCH   5   6
ENDBRANCH   4   5
ENDBRANCH   3   4
ENDBRANCH   2   3
ENDBRANCH   1   2
BRANCH   1  11
ATOM     11  C   UNL     1      13.845 -34.681  -0.905  1.00  0.00     0.000 C 
BRANCH  11  12
ATOM     12  C   UNL     1      13.602 -36.184  -1.159  1.00  0.00    -0.000 C 
BRANCH  12  13
ATOM     13  C   UNL     1      13.973 -36.635  -2.583  1.00  0.00    -0.000 C 
BRANCH  13  14
ATOM     14  C   UNL     1      13.690 -38.124  -2.830  1.00  0.00    -0.000 C 
BRANCH  14  15
ATOM     15  C   UNL     1      14.760 -39.003  -2.171  1.00  0.00    -0.000 C 
BRANCH  15  16
ATOM     16  C   UNL     1      15.797 -39.470  -3.200  1.00  0.00    -0.000 C 
BRANCH  16  17
ATOM     17  C   UNL     1      15.126 -40.221  -4.355  1.00  0.00    -0.003 C 
ATOM     18  C   UNL     1      16.156 -40.701  -5.372  1.00  0.00     0.004 C 
ENDBRANCH  16  17
ENDBRANCH  15  16
ENDBRANCH  14  15
ENDBRANCH  13  14
ENDBRANCH  12  13
ENDBRANCH  11  12
ENDBRANCH   1  11
TORSDOF 14
ENDMDL
MODEL 7
REMARK VINA RESULT:    -3.588      1.598      3.734
REMARK INTER + INTRA:          -8.986
REMARK INTER:                  -7.063
REMARK INTRA:                  -1.923
REMARK UNBOUND:                -2.462
REMARK SMILES CCCCCCCCCCCCCCCC(=O)[O-]
REMARK SMILES IDX 9 1 10 2 11 3 12 4 13 5 14 6 15 7 16 8 17 9 18 10 8 11 7 12
REMARK SMILES IDX 6 13 5 14 4 15 3 16 2 17 1 18
REMARK H PARENT
REMARK Flexibility Score: inf
ROOT
ATOM      1  C   UNL     1      16.113 -33.045  -2.159  1.00  0.00     0.000 C 
ENDROOT
BRANCH   1   2
ATOM      2  C   UNL     1      17.359 -33.877  -1.820  1.00  0.00     0.000 C 
BRANCH   2   3
ATOM      3  C   UNL     1      17.024 -35.357  -1.557  1.00  0.00     0.000 C 
BRANCH   3   4
ATOM      4  C   UNL     1      17.839 -36.320  -2.438  1.00  0.00     0.000 C 
BRANCH   4   5
ATOM      5  C   UNL     1      18.093 -37.707  -1.819  1.00  0.00     0.000 C 
BRANCH   5   6
ATOM      6  C   UNL     1      18.311 -37.654  -0.299  1.00  0.00     0.006 C 
BRANCH   6   7
ATOM      7  C   UNL     1      17.704 -38.881   0.386  1.00  0.00     0.053 C 
BRANCH   7   8
ATOM      8  C   UNL     1      17.951 -38.835   1.860  1.00  0.00     0.041 C 
ATOM      9  O   UNL     1      17.119 -38.279   2.625  1.00  0.00    -0.550 OA
ATOM     10  O   UNL     1      19.126 -39.360   2.386  1.00  0.00    -0.550 OA
ENDBRANCH   7   8
ENDBRANCH   6   7
ENDBRANCH   5   6
ENDBRANCH   4   5
ENDBRANCH   3   4
ENDBRANCH   2   3
ENDBRANCH   1   2
BRANCH   1  11
ATOM     11  C   UNL     1      14.814 -33.695  -1.649  1.00  0.00     0.000 C 
BRANCH  11  12
ATOM     12  C   UNL     1      13.665 -33.572  -2.672  1.00  0.00    -0.000 C 
BRANCH  12  13
ATOM     13  C   UNL     1      12.961 -34.908  -2.970  1.00  0.00    -0.000 C 
BRANCH  13  14
ATOM     14  C   UNL     1      13.242 -35.981  -1.908  1.00  0.00    -0.000 C 
BRANCH  14  15
ATOM     15  C   UNL     1      14.003 -37.167  -2.512  1.00  0.00    -0.000 C 
BRANCH  15  16
ATOM     16  C   UNL     1      14.470 -38.135  -1.418  1.00  0.00    -0.000 C 
BRANCH  16  17
ATOM     17  C   UNL     1      14.546 -39.571  -1.951  1.00  0.00    -0.003 C 
ATOM     18  C   UNL     1      15.386 -39.643  -3.222  1.00  0.00     0.004 C 
ENDBRANCH  16  17
ENDBRANCH  15  16
ENDBRANCH  14  15
ENDBRANCH  13  14
ENDBRANCH  12  13
ENDBRANCH  11  12
ENDBRANCH   1  11
TORSDOF 14
ENDMDL
MODEL 8
REMARK VINA RESULT:    -3.575      1.297      3.553
REMARK INTER + INTRA:          -8.963
REMARK INTER:                  -6.950
REMARK INTRA:                  -2.013
REMARK UNBOUND:                -2.462
REMARK SMILES CCCCCCCCCCCCCCCC(=O)[O-]
REMARK SMILES IDX 9 1 10 2 11 3 12 4 13 5 14 6 15 7 16 8 17 9 18 10 8 11 7 12
REMARK SMILES IDX 6 13 5 14 4 15 3 16 2 17 1 18
REMARK H PARENT
REMARK Flexibility Score: inf
ROOT
ATOM      1  C   UNL     1      13.922 -33.563  -0.241  1.00  0.00     0.000 C 
ENDROOT
BRANCH   1   2
ATOM      2  C   UNL     1      13.522 -34.531   0.883  1.00  0.00     0.000 C 
BRANCH   2   3
ATOM      3  C   UNL     1      14.345 -35.832   0.859  1.00  0.00     0.000 C 
BRANCH   3   4
ATOM      4  C   UNL     1      14.879 -36.227   2.247  1.00  0.00     0.000 C 
BRANCH   4   5
ATOM      5  C   UNL     1      16.321 -35.775   2.541  1.00  0.00     0.000 C 
BRANCH   5   6
ATOM      6  C   UNL     1      17.343 -36.348   1.546  1.00  0.00     0.006 C 
BRANCH   6   7
ATOM      7  C   UNL     1      17.297 -37.878   1.535  1.00  0.00     0.053 C 
BRANCH   7   8
ATOM      8  C   UNL     1      18.679 -38.443   1.436  1.00  0.00     0.041 C 
ATOM      9  O   UNL     1      19.422 -38.133   0.467  1.00  0.00    -0.550 OA
ATOM     10  O   UNL     1      19.129 -39.352   2.386  1.00  0.00    -0.550 OA
ENDBRANCH   7   8
ENDBRANCH   6   7
ENDBRANCH   5   6
ENDBRANCH   4   5
ENDBRANCH   3   4
ENDBRANCH   2   3
ENDBRANCH   1   2
BRANCH   1  11
ATOM     11  C   UNL     1      14.845 -34.220  -1.283  1.00  0.00     0.000 C 
BRANCH  11  12
ATOM     12  C   UNL     1      15.957 -33.262  -1.758  1.00  0.00    -0.000 C 
BRANCH  12  13
ATOM     13  C   UNL     1      17.301 -33.964  -2.024  1.00  0.00    -0.000 C 
BRANCH  13  14
ATOM     14  C   UNL     1      17.358 -35.384  -1.443  1.00  0.00    -0.000 C 
BRANCH  14  15
ATOM     15  C   UNL     1      18.040 -36.350  -2.420  1.00  0.00    -0.000 C 
BRANCH  15  16
ATOM     16  C   UNL     1      17.322 -37.705  -2.443  1.00  0.00    -0.000 C 
BRANCH  16  17
ATOM     17  C   UNL     1      15.821 -37.537  -2.178  1.00  0.00    -0.003 C 
ATOM     18  C   UNL     1      15.282 -38.676  -1.320  1.00  0.00     0.004 C 
ENDBRANCH  16  17
ENDBRANCH  15  16
ENDBRANCH  14  15
ENDBRANCH  13  14
ENDBRANCH  12  13
ENDBRANCH  11  12
ENDBRANCH   1  11
TORSDOF 14
ENDMDL
MODEL 9
REMARK VINA RESULT:    -3.572      1.295      2.859
REMARK INTER + INTRA:          -8.958
REMARK INTER:                  -6.909
REMARK INTRA:                  -2.049
REMARK UNBOUND:                -2.462
REMARK SMILES CCCCCCCCCCCCCCCC(=O)[O-]
REMARK SMILES IDX 9 1 10 2 11 3 12 4 13 5 14 6 15 7 16 8 17 9 18 10 8 11 7 12
REMARK SMILES IDX 6 13 5 14 4 15 3 16 2 17 1 18
REMARK H PARENT
REMARK Flexibility Score: inf
ROOT
ATOM      1  C   UNL     1      16.968 -37.845  -2.486  1.00  0.00     0.000 C 
ENDROOT
BRANCH   1   2
ATOM      2  C   UNL     1      15.441 -37.845  -2.318  1.00  0.00     0.000 C 
BRANCH   2   3
ATOM      3  C   UNL     1      14.973 -38.791  -1.198  1.00  0.00     0.000 C 
BRANCH   3   4
ATOM      4  C   UNL     1      14.352 -38.044  -0.004  1.00  0.00     0.000 C 
BRANCH   4   5
ATOM      5  C   UNL     1      15.153 -38.139   1.308  1.00  0.00     0.000 C 
BRANCH   5   6
ATOM      6  C   UNL     1      16.506 -38.845   1.133  1.00  0.00     0.006 C 
BRANCH   6   7
ATOM      7  C   UNL     1      17.215 -39.011   2.480  1.00  0.00     0.053 C 
BRANCH   7   8
ATOM      8  C   UNL     1      18.695 -39.108   2.285  1.00  0.00     0.041 C 
ATOM      9  O   UNL     1      19.409 -39.698   3.138  1.00  0.00    -0.550 OA
ATOM     10  O   UNL     1      19.293 -38.502   1.187  1.00  0.00    -0.550 OA
ENDBRANCH   7   8
ENDBRANCH   6   7
ENDBRANCH   5   6
ENDBRANCH   4   5
ENDBRANCH   3   4
ENDBRANCH   2   3
ENDBRANCH   1   2
BRANCH   1  11
ATOM     11  C   UNL     1      17.585 -36.453  -2.257  1.00  0.00     0.000 C 
BRANCH  11  12
ATOM     12  C   UNL     1      17.430 -35.985  -0.794  1.00  0.00    -0.000 C 
BRANCH  12  13
ATOM     13  C   UNL     1      17.087 -34.491  -0.660  1.00  0.00    -0.000 C 
BRANCH  13  14
ATOM     14  C   UNL     1      17.104 -33.751  -2.005  1.00  0.00    -0.000 C 
BRANCH  14  15
ATOM     15  C   UNL     1      15.906 -32.801  -2.125  1.00  0.00    -0.000 C 
BRANCH  15  16
ATOM     16  C   UNL     1      14.653 -33.412  -1.486  1.00  0.00    -0.000 C 
BRANCH  16  17
ATOM     17  C   UNL     1      13.988 -34.418  -2.433  1.00  0.00    -0.003 C 
ATOM     18  C   UNL     1      12.875 -35.186  -1.726  1.00  0.00     0.004 C 
ENDBRANCH  16  17
ENDBRANCH  15  16
ENDBRANCH  14  15
ENDBRANCH  13  14
ENDBRANCH  12  13
ENDBRANCH  11  12
ENDBRANCH   1  11
TORSDOF 14
ENDMDL
