MODEL 1
REMARK VINA RESULT:    -3.977      0.000      0.000
REMARK INTER + INTRA:          -9.536
REMARK INTER:                  -7.464
REMARK INTRA:                  -2.072
REMARK UNBOUND:                -2.072
REMARK SMILES O=C([O-])CCCCCCCCCCCCCCC(=O)[O-]
REMARK SMILES IDX 10 1 9 2 8 3 7 4 6 5 5 6 4 7 2 8 1 9 3 10 11 11 12 12 13 13
REMARK SMILES IDX 14 14 15 15 16 16 17 17 18 18 19 19 20 20
REMARK H PARENT
REMARK Flexibility Score: inf
ROOT
ATOM      1  C   UNL     1     -14.867  -7.284 -30.652  1.00  0.00     0.000 C 
ENDROOT
BRANCH   1   2
ATOM      2  C   UNL     1     -13.547  -7.164 -29.871  1.00  0.00     0.000 C 
BRANCH   2   3
ATOM      3  C   UNL     1     -13.207  -5.718 -29.449  1.00  0.00     0.000 C 
BRANCH   3   4
ATOM      4  C   UNL     1     -11.767  -5.328 -29.827  1.00  0.00     0.000 C 
BRANCH   4   5
ATOM      5  C   UNL     1     -11.698  -4.474 -31.102  1.00  0.00     0.000 C 
BRANCH   5   6
ATOM      6  C   UNL     1     -11.243  -3.033 -30.825  1.00  0.00     0.006 C 
BRANCH   6   7
ATOM      7  C   UNL     1     -12.440  -2.078 -30.793  1.00  0.00     0.053 C 
BRANCH   7   8
ATOM      8  C   UNL     1     -12.037  -0.749 -30.239  1.00  0.00     0.041 C 
ATOM      9  O   UNL     1     -12.626  -0.277 -29.231  1.00  0.00    -0.550 OA
ATOM     10  O   UNL     1     -10.975  -0.053 -30.804  1.00  0.00    -0.550 OA
ENDBRANCH   7   8
ENDBRANCH   6   7
ENDBRANCH   5   6
ENDBRANCH   4   5
ENDBRANCH   3   4
ENDBRANCH   2   3
ENDBRANCH   1   2
BRANCH   1  11
ATOM     11  C   UNL     1     -15.737  -6.020 -30.551  1.00  0.00     0.000 C 
BRANCH  11  12
ATOM     12  C   UNL     1     -16.054  -5.410 -31.926  1.00  0.00     0.000 C 
BRANCH  12  13
ATOM     13  C   UNL     1     -15.509  -3.980 -32.075  1.00  0.00     0.000 C 
BRANCH  13  14
ATOM     14  C   UNL     1     -14.568  -3.823 -33.284  1.00  0.00     0.000 C 
BRANCH  14  15
ATOM     15  C   UNL     1     -14.645  -2.460 -34.001  1.00  0.00     0.000 C 
BRANCH  15  16
ATOM     16  C   UNL     1     -15.633  -1.449 -33.385  1.00  0.00     0.006 C 
BRANCH  16  17
ATOM     17  C   UNL     1     -14.982  -0.153 -32.876  1.00  0.00     0.053 C 
BRANCH  17  18
ATOM     18  C   UNL     1     -15.376   0.154 -31.464  1.00  0.00     0.041 C 
ATOM     19  O   UNL     1     -15.362   1.341 -31.047  1.00  0.00    -0.550 OA
ATOM     20  O   UNL     1     -15.790  -0.868 -30.619  1.00  0.00    -0.550 OA
ENDBRANCH  17  18
ENDBRANCH  16  17
ENDBRANCH  15  16
ENDBRANCH  14  15
ENDBRANCH  13  14
ENDBRANCH  12  13
ENDBRANCH  11  12
ENDBRANCH   1  11
TORSDOF 15
ENDMDL
MODEL 2
REMARK VINA RESULT:    -3.890     20.452     23.154
REMARK INTER + INTRA:          -9.374
REMARK INTER:                  -7.322
REMARK INTRA:                  -2.052
REMARK UNBOUND:                -2.072
REMARK SMILES O=C([O-])CCCCCCCCCCCCCCC(=O)[O-]
REMARK SMILES IDX 10 1 9 2 8 3 7 4 6 5 5 6 4 7 2 8 1 9 3 10 11 11 12 12 13 13
REMARK SMILES IDX 14 14 15 15 16 16 17 17 18 18 19 19 20 20
REMARK H PARENT
REMARK Flexibility Score: inf
ROOT
ATOM      1  C   UNL     1       3.880   9.999 -18.479  1.00  0.00     0.000 C 
ENDROOT
BRANCH   1   2
ATOM      2  C   UNL     1       3.741   8.849 -19.492  1.00  0.00     0.000 C 
BRANCH   2   3
ATOM      3  C   UNL     1       2.391   8.846 -20.242  1.00  0.00     0.000 C 
BRANCH   3   4
ATOM      4  C   UNL     1       2.308   7.713 -21.280  1.00  0.00     0.000 C 
BRANCH   4   5
ATOM      5  C   UNL     1       3.487   6.732 -21.183  1.00  0.00     0.000 C 
BRANCH   5   6
ATOM      6  C   UNL     1       3.056   5.268 -21.362  1.00  0.00     0.006 C 
BRANCH   6   7
ATOM      7  C   UNL     1       3.720   4.370 -20.314  1.00  0.00     0.053 C 
BRANCH   7   8
ATOM      8  C   UNL     1       3.122   3.000 -20.343  1.00  0.00     0.041 C 
ATOM      9  O   UNL     1       2.294   2.650 -19.461  1.00  0.00    -0.550 OA
ATOM     10  O   UNL     1       3.440   2.124 -21.374  1.00  0.00    -0.550 OA
ENDBRANCH   7   8
ENDBRANCH   6   7
ENDBRANCH   5   6
ENDBRANCH   4   5
ENDBRANCH   3   4
ENDBRANCH   2   3
ENDBRANCH   1   2
BRANCH   1  11
ATOM     11  C   UNL     1       2.550  10.357 -17.796  1.00  0.00     0.000 C 
BRANCH  11  12
ATOM     12  C   UNL     1       2.632  10.269 -16.263  1.00  0.00     0.000 C 
BRANCH  12  13
ATOM     13  C   UNL     1       1.297   9.847 -15.626  1.00  0.00     0.000 C 
BRANCH  13  14
ATOM     14  C   UNL     1       1.318   8.399 -15.103  1.00  0.00     0.000 C 
BRANCH  14  15
ATOM     15  C   UNL     1       1.792   7.341 -16.120  1.00  0.00     0.000 C 
BRANCH  15  16
ATOM     16  C   UNL     1       0.855   7.122 -17.325  1.00  0.00     0.006 C 
BRANCH  16  17
ATOM     17  C   UNL     1       1.149   5.851 -18.136  1.00  0.00     0.053 C 
BRANCH  17  18
ATOM     18  C   UNL     1      -0.082   5.310 -18.795  1.00  0.00     0.041 C 
ATOM     19  O   UNL     1      -0.100   5.113 -20.037  1.00  0.00    -0.550 OA
ATOM     20  O   UNL     1      -1.198   4.991 -18.031  1.00  0.00    -0.550 OA
ENDBRANCH  17  18
ENDBRANCH  16  17
ENDBRANCH  15  16
ENDBRANCH  14  15
ENDBRANCH  13  14
ENDBRANCH  12  13
ENDBRANCH  11  12
ENDBRANCH   1  11
TORSDOF 15
ENDMDL
MODEL 3
REMARK VINA RESULT:    -3.862     20.049     23.079
REMARK INTER + INTRA:          -9.321
REMARK INTER:                  -7.207
REMARK INTRA:                  -2.114
REMARK UNBOUND:                -2.072
REMARK SMILES O=C([O-])CCCCCCCCCCCCCCC(=O)[O-]
REMARK SMILES IDX 10 1 9 2 8 3 7 4 6 5 5 6 4 7 2 8 1 9 3 10 11 11 12 12 13 13
REMARK SMILES IDX 14 14 15 15 16 16 17 17 18 18 19 19 20 20
REMARK H PARENT
REMARK Flexibility Score: inf
ROOT
ATOM      1  C   UNL     1       1.702  10.602 -16.005  1.00  0.00     0.000 C 
ENDROOT
BRANCH   1   2
ATOM      2  C   UNL     1       1.867   9.241 -15.307  1.00  0.00     0.000 C 
BRANCH   2   3
ATOM      3  C   UNL     1       0.564   8.415 -15.246  1.00  0.00     0.000 C 
BRANCH   3   4
ATOM      4  C   UNL     1       0.364   7.555 -16.507  1.00  0.00     0.000 C 
BRANCH   4   5
ATOM      5  C   UNL     1       1.677   6.943 -17.021  1.00  0.00     0.000 C 
BRANCH   5   6
ATOM      6  C   UNL     1       1.463   6.012 -18.225  1.00  0.00     0.006 C 
BRANCH   6   7
ATOM      7  C   UNL     1      -0.029   5.833 -18.519  1.00  0.00     0.053 C 
BRANCH   7   8
ATOM      8  C   UNL     1      -0.383   4.380 -18.567  1.00  0.00     0.041 C 
ATOM      9  O   UNL     1      -1.554   4.003 -18.299  1.00  0.00    -0.550 OA
ATOM     10  O   UNL     1       0.568   3.445 -18.958  1.00  0.00    -0.550 OA
ENDBRANCH   7   8
ENDBRANCH   6   7
ENDBRANCH   5   6
ENDBRANCH   4   5
ENDBRANCH   3   4
ENDBRANCH   2   3
ENDBRANCH   1   2
BRANCH   1  11
ATOM     11  C   UNL     1       2.034  10.548 -17.505  1.00  0.00     0.000 C 
BRANCH  11  12
ATOM     12  C   UNL     1       3.464  10.051 -17.774  1.00  0.00     0.000 C 
BRANCH  12  13
ATOM     13  C   UNL     1       3.600   9.365 -19.144  1.00  0.00     0.000 C 
BRANCH  13  14
ATOM     14  C   UNL     1       2.257   9.253 -19.891  1.00  0.00     0.000 C 
BRANCH  14  15
ATOM     15  C   UNL     1       2.316   8.500 -21.235  1.00  0.00     0.000 C 
BRANCH  15  16
ATOM     16  C   UNL     1       3.658   7.805 -21.539  1.00  0.00     0.006 C 
BRANCH  16  17
ATOM     17  C   UNL     1       3.697   6.313 -21.172  1.00  0.00     0.053 C 
BRANCH  17  18
ATOM     18  C   UNL     1       2.909   5.479 -22.135  1.00  0.00     0.041 C 
ATOM     19  O   UNL     1       2.090   4.624 -21.708  1.00  0.00    -0.550 OA
ATOM     20  O   UNL     1       3.055   5.670 -23.503  1.00  0.00    -0.550 OA
ENDBRANCH  17  18
ENDBRANCH  16  17
ENDBRANCH  15  16
ENDBRANCH  14  15
ENDBRANCH  13  14
ENDBRANCH  12  13
ENDBRANCH  11  12
ENDBRANCH   1  11
TORSDOF 15
ENDMDL
MODEL 4
REMARK VINA RESULT:    -3.858      2.325      4.940
REMARK INTER + INTRA:          -9.313
REMARK INTER:                  -6.992
REMARK INTRA:                  -2.321
REMARK UNBOUND:                -2.072
REMARK SMILES O=C([O-])CCCCCCCCCCCCCCC(=O)[O-]
REMARK SMILES IDX 10 1 9 2 8 3 7 4 6 5 5 6 4 7 2 8 1 9 3 10 11 11 12 12 13 13
REMARK SMILES IDX 14 14 15 15 16 16 17 17 18 18 19 19 20 20
REMARK H PARENT
REMARK Flexibility Score: inf
ROOT
ATOM      1  C   UNL     1     -14.631  -3.356 -33.663  1.00  0.00     0.000 C 
ENDROOT
BRANCH   1   2
ATOM      2  C   UNL     1     -14.749  -4.625 -32.801  1.00  0.00     0.000 C 
BRANCH   2   3
ATOM      3  C   UNL     1     -15.966  -4.616 -31.851  1.00  0.00     0.000 C 
BRANCH   3   4
ATOM      4  C   UNL     1     -15.744  -5.510 -30.617  1.00  0.00     0.000 C 
BRANCH   4   5
ATOM      5  C   UNL     1     -15.190  -6.896 -30.982  1.00  0.00     0.000 C 
BRANCH   5   6
ATOM      6  C   UNL     1     -14.021  -7.321 -30.080  1.00  0.00     0.006 C 
BRANCH   6   7
ATOM      7  C   UNL     1     -13.010  -6.182 -29.922  1.00  0.00     0.053 C 
BRANCH   7   8
ATOM      8  C   UNL     1     -12.274  -6.310 -28.626  1.00  0.00     0.041 C 
ATOM      9  O   UNL     1     -11.551  -7.316 -28.404  1.00  0.00    -0.550 OA
ATOM     10  O   UNL     1     -12.345  -5.293 -27.682  1.00  0.00    -0.550 OA
ENDBRANCH   7   8
ENDBRANCH   6   7
ENDBRANCH   5   6
ENDBRANCH   4   5
ENDBRANCH   3   4
ENDBRANCH   2   3
ENDBRANCH   1   2
BRANCH   1  11
ATOM     11  C   UNL     1     -15.764  -2.350 -33.402  1.00  0.00     0.000 C 
BRANCH  11  12
ATOM     12  C   UNL     1     -15.326  -0.895 -33.639  1.00  0.00     0.000 C 
BRANCH  12  13
ATOM     13  C   UNL     1     -14.845  -0.209 -32.350  1.00  0.00     0.000 C 
BRANCH  13  14
ATOM     14  C   UNL     1     -15.274  -0.962 -31.077  1.00  0.00     0.000 C 
BRANCH  14  15
ATOM     15  C   UNL     1     -14.171  -1.131 -30.012  1.00  0.00     0.000 C 
BRANCH  15  16
ATOM     16  C   UNL     1     -13.473  -2.506 -30.003  1.00  0.00     0.006 C 
BRANCH  16  17
ATOM     17  C   UNL     1     -12.321  -2.640 -31.011  1.00  0.00     0.053 C 
BRANCH  17  18
ATOM     18  C   UNL     1     -10.991  -2.365 -30.381  1.00  0.00     0.041 C 
ATOM     19  O   UNL     1     -10.472  -3.208 -29.605  1.00  0.00    -0.550 OA
ATOM     20  O   UNL     1     -10.309  -1.191 -30.677  1.00  0.00    -0.550 OA
ENDBRANCH  17  18
ENDBRANCH  16  17
ENDBRANCH  15  16
ENDBRANCH  14  15
ENDBRANCH  13  14
ENDBRANCH  12  13
ENDBRANCH  11  12
ENDBRANCH   1  11
TORSDOF 15
ENDMDL
MODEL 5
REMARK VINA RESULT:    -3.856      2.181      5.504
REMARK INTER + INTRA:          -9.309
REMARK INTER:                  -8.162
REMARK INTRA:                  -1.148
REMARK UNBOUND:                -2.072
REMARK SMILES O=C([O-])CCCCCCCCCCCCCCC(=O)[O-]
REMARK SMILES IDX 10 1 9 2 8 3 7 4 6 5 5 6 4 7 2 8 1 9 3 10 11 11 12 12 13 13
REMARK SMILES IDX 14 14 15 15 16 16 17 17 18 18 19 19 20 20
REMARK H PARENT
REMARK Flexibility Score: inf
ROOT
ATOM      1  C   UNL     1     -13.069  -7.385 -29.534  1.00  0.00     0.000 C 
ENDROOT
BRANCH   1   2
ATOM      2  C   UNL     1     -14.258  -8.051 -30.249  1.00  0.00     0.000 C 
BRANCH   2   3
ATOM      3  C   UNL     1     -15.354  -7.055 -30.685  1.00  0.00     0.000 C 
BRANCH   3   4
ATOM      4  C   UNL     1     -14.765  -5.807 -31.367  1.00  0.00     0.000 C 
BRANCH   4   5
ATOM      5  C   UNL     1     -15.846  -4.889 -31.958  1.00  0.00     0.000 C 
BRANCH   5   6
ATOM      6  C   UNL     1     -15.362  -4.129 -33.203  1.00  0.00     0.006 C 
BRANCH   6   7
ATOM      7  C   UNL     1     -14.591  -2.866 -32.806  1.00  0.00     0.053 C 
BRANCH   7   8
ATOM      8  C   UNL     1     -15.179  -1.662 -33.471  1.00  0.00     0.041 C 
ATOM      9  O   UNL     1     -15.518  -0.662 -32.787  1.00  0.00    -0.550 OA
ATOM     10  O   UNL     1     -15.307  -1.625 -34.854  1.00  0.00    -0.550 OA
ENDBRANCH   7   8
ENDBRANCH   6   7
ENDBRANCH   5   6
ENDBRANCH   4   5
ENDBRANCH   3   4
ENDBRANCH   2   3
ENDBRANCH   1   2
BRANCH   1  11
ATOM     11  C   UNL     1     -12.305  -8.354 -28.617  1.00  0.00     0.000 C 
BRANCH  11  12
ATOM     12  C   UNL     1     -10.799  -8.393 -28.925  1.00  0.00     0.000 C 
BRANCH  12  13
ATOM     13  C   UNL     1      -9.990  -7.447 -28.023  1.00  0.00     0.000 C 
BRANCH  13  14
ATOM     14  C   UNL     1      -8.987  -6.584 -28.812  1.00  0.00     0.000 C 
BRANCH  14  15
ATOM     15  C   UNL     1      -9.186  -6.581 -30.341  1.00  0.00     0.000 C 
BRANCH  15  16
ATOM     16  C   UNL     1      -9.340  -5.186 -30.980  1.00  0.00     0.006 C 
BRANCH  16  17
ATOM     17  C   UNL     1     -10.690  -4.506 -30.702  1.00  0.00     0.053 C 
BRANCH  17  18
ATOM     18  C   UNL     1     -10.622  -3.024 -30.908  1.00  0.00     0.041 C 
ATOM     19  O   UNL     1     -11.680  -2.349 -31.000  1.00  0.00    -0.550 OA
ATOM     20  O   UNL     1      -9.390  -2.384 -30.963  1.00  0.00    -0.550 OA
ENDBRANCH  17  18
ENDBRANCH  16  17
ENDBRANCH  15  16
ENDBRANCH  14  15
ENDBRANCH  13  14
ENDBRANCH  12  13
ENDBRANCH  11  12
ENDBRANCH   1  11
TORSDOF 15
ENDMDL
MODEL 6
REMARK VINA RESULT:    -3.839     21.480     23.479
REMARK INTER + INTRA:          -9.277
REMARK INTER:                  -7.078
REMARK INTRA:                  -2.200
REMARK UNBOUND:                -2.072
REMARK SMILES O=C([O-])CCCCCCCCCCCCCCC(=O)[O-]
REMARK SMILES IDX 10 1 9 2 8 3 7 4 6 5 5 6 4 7 2 8 1 9 3 10 11 11 12 12 13 13
REMARK SMILES IDX 14 14 15 15 16 16 17 17 18 18 19 19 20 20
REMARK H PARENT
REMARK Flexibility Score: inf
ROOT
ATOM      1  C   UNL     1       2.278  10.395 -17.910  1.00  0.00     0.000 C 
ENDROOT
BRANCH   1   2
ATOM      2  C   UNL     1       3.730   9.994 -18.221  1.00  0.00     0.000 C 
BRANCH   2   3
ATOM      3  C   UNL     1       3.889   9.233 -19.555  1.00  0.00     0.000 C 
BRANCH   3   4
ATOM      4  C   UNL     1       2.533   8.950 -20.226  1.00  0.00     0.000 C 
BRANCH   4   5
ATOM      5  C   UNL     1       2.593   7.771 -21.210  1.00  0.00     0.000 C 
BRANCH   5   6
ATOM      6  C   UNL     1       3.628   6.712 -20.803  1.00  0.00     0.006 C 
BRANCH   6   7
ATOM      7  C   UNL     1       2.983   5.618 -19.947  1.00  0.00     0.053 C 
BRANCH   7   8
ATOM      8  C   UNL     1       3.274   4.266 -20.518  1.00  0.00     0.041 C 
ATOM      9  O   UNL     1       3.812   4.158 -21.651  1.00  0.00    -0.550 OA
ATOM     10  O   UNL     1       2.998   3.124 -19.776  1.00  0.00    -0.550 OA
ENDBRANCH   7   8
ENDBRANCH   6   7
ENDBRANCH   5   6
ENDBRANCH   4   5
ENDBRANCH   3   4
ENDBRANCH   2   3
ENDBRANCH   1   2
BRANCH   1  11
ATOM     11  C   UNL     1       2.077  10.823 -16.447  1.00  0.00     0.000 C 
BRANCH  11  12
ATOM     12  C   UNL     1       1.135   9.879 -15.681  1.00  0.00     0.000 C 
BRANCH  12  13
ATOM     13  C   UNL     1       1.897   8.814 -14.875  1.00  0.00     0.000 C 
BRANCH  13  14
ATOM     14  C   UNL     1       1.600   7.380 -15.351  1.00  0.00     0.000 C 
BRANCH  14  15
ATOM     15  C   UNL     1       1.678   7.167 -16.877  1.00  0.00     0.000 C 
BRANCH  15  16
ATOM     16  C   UNL     1       0.379   6.663 -17.536  1.00  0.00     0.006 C 
BRANCH  16  17
ATOM     17  C   UNL     1      -0.453   7.760 -18.220  1.00  0.00     0.053 C 
BRANCH  17  18
ATOM     18  C   UNL     1      -1.670   8.118 -17.423  1.00  0.00     0.041 C 
ATOM     19  O   UNL     1      -1.973   7.454 -16.399  1.00  0.00    -0.550 OA
ATOM     20  O   UNL     1      -2.450   9.206 -17.795  1.00  0.00    -0.550 OA
ENDBRANCH  17  18
ENDBRANCH  16  17
ENDBRANCH  15  16
ENDBRANCH  14  15
ENDBRANCH  13  14
ENDBRANCH  12  13
ENDBRANCH  11  12
ENDBRANCH   1  11
TORSDOF 15
ENDMDL
MODEL 7
REMARK VINA RESULT:    -3.834      2.465      5.443
REMARK INTER + INTRA:          -9.268
REMARK INTER:                  -6.975
REMARK INTRA:                  -2.293
REMARK UNBOUND:                -2.072
REMARK SMILES O=C([O-])CCCCCCCCCCCCCCC(=O)[O-]
REMARK SMILES IDX 10 1 9 2 8 3 7 4 6 5 5 6 4 7 2 8 1 9 3 10 11 11 12 12 13 13
REMARK SMILES IDX 14 14 15 15 16 16 17 17 18 18 19 19 20 20
REMARK H PARENT
REMARK Flexibility Score: inf
ROOT
ATOM      1  C   UNL     1     -14.830  -4.671 -32.765  1.00  0.00     0.000 C 
ENDROOT
BRANCH   1   2
ATOM      2  C   UNL     1     -14.684  -3.206 -33.211  1.00  0.00     0.000 C 
BRANCH   2   3
ATOM      3  C   UNL     1     -15.065  -2.185 -32.117  1.00  0.00     0.000 C 
BRANCH   3   4
ATOM      4  C   UNL     1     -13.839  -1.703 -31.322  1.00  0.00     0.000 C 
BRANCH   4   5
ATOM      5  C   UNL     1     -13.703  -2.403 -29.960  1.00  0.00     0.000 C 
BRANCH   5   6
ATOM      6  C   UNL     1     -12.566  -3.436 -29.937  1.00  0.00     0.006 C 
BRANCH   6   7
ATOM      7  C   UNL     1     -11.622  -3.236 -31.127  1.00  0.00     0.053 C 
BRANCH   7   8
ATOM      8  C   UNL     1     -10.310  -2.682 -30.668  1.00  0.00     0.041 C 
ATOM      9  O   UNL     1     -10.248  -1.983 -29.623  1.00  0.00    -0.550 OA
ATOM     10  O   UNL     1      -9.147  -2.981 -31.366  1.00  0.00    -0.550 OA
ENDBRANCH   7   8
ENDBRANCH   6   7
ENDBRANCH   5   6
ENDBRANCH   4   5
ENDBRANCH   3   4
ENDBRANCH   2   3
ENDBRANCH   1   2
BRANCH   1  11
ATOM     11  C   UNL     1     -16.124  -4.928 -31.976  1.00  0.00     0.000 C 
BRANCH  11  12
ATOM     12  C   UNL     1     -15.926  -5.935 -30.831  1.00  0.00     0.000 C 
BRANCH  12  13
ATOM     13  C   UNL     1     -14.478  -6.445 -30.740  1.00  0.00     0.000 C 
BRANCH  13  14
ATOM     14  C   UNL     1     -14.393  -7.927 -30.330  1.00  0.00     0.000 C 
BRANCH  14  15
ATOM     15  C   UNL     1     -13.242  -8.275 -29.364  1.00  0.00     0.000 C 
BRANCH  15  16
ATOM     16  C   UNL     1     -12.415  -7.071 -28.870  1.00  0.00     0.006 C 
BRANCH  16  17
ATOM     17  C   UNL     1     -10.911  -7.352 -28.719  1.00  0.00     0.053 C 
BRANCH  17  18
ATOM     18  C   UNL     1     -10.076  -6.279 -29.346  1.00  0.00     0.041 C 
ATOM     19  O   UNL     1      -9.495  -5.427 -28.625  1.00  0.00    -0.550 OA
ATOM     20  O   UNL     1      -9.913  -6.240 -30.726  1.00  0.00    -0.550 OA
ENDBRANCH  17  18
ENDBRANCH  16  17
ENDBRANCH  15  16
ENDBRANCH  14  15
ENDBRANCH  13  14
ENDBRANCH  12  13
ENDBRANCH  11  12
ENDBRANCH   1  11
TORSDOF 15
ENDMDL
MODEL 8
REMARK VINA RESULT:    -3.816      2.756      6.100
REMARK INTER + INTRA:          -9.236
REMARK INTER:                  -7.239
REMARK INTRA:                  -1.996
REMARK UNBOUND:                -2.072
REMARK SMILES O=C([O-])CCCCCCCCCCCCCCC(=O)[O-]
REMARK SMILES IDX 10 1 9 2 8 3 7 4 6 5 5 6 4 7 2 8 1 9 3 10 11 11 12 12 13 13
REMARK SMILES IDX 14 14 15 15 16 16 17 17 18 18 19 19 20 20
REMARK H PARENT
REMARK Flexibility Score: inf
ROOT
ATOM      1  C   UNL     1     -15.005  -0.201 -32.856  1.00  0.00     0.000 C 
ENDROOT
BRANCH   1   2
ATOM      2  C   UNL     1     -15.649  -1.542 -33.250  1.00  0.00     0.000 C 
BRANCH   2   3
ATOM      3  C   UNL     1     -14.684  -2.499 -33.984  1.00  0.00     0.000 C 
BRANCH   3   4
ATOM      4  C   UNL     1     -14.603  -3.875 -33.302  1.00  0.00     0.000 C 
BRANCH   4   5
ATOM      5  C   UNL     1     -15.918  -4.274 -32.613  1.00  0.00     0.000 C 
BRANCH   5   6
ATOM      6  C   UNL     1     -15.805  -5.599 -31.844  1.00  0.00     0.006 C 
BRANCH   6   7
ATOM      7  C   UNL     1     -14.848  -5.461 -30.656  1.00  0.00     0.053 C 
BRANCH   7   8
ATOM      8  C   UNL     1     -14.176  -6.767 -30.370  1.00  0.00     0.041 C 
ATOM      9  O   UNL     1     -13.056  -6.792 -29.796  1.00  0.00    -0.550 OA
ATOM     10  O   UNL     1     -14.811  -7.961 -30.690  1.00  0.00    -0.550 OA
ENDBRANCH   7   8
ENDBRANCH   6   7
ENDBRANCH   5   6
ENDBRANCH   4   5
ENDBRANCH   3   4
ENDBRANCH   2   3
ENDBRANCH   1   2
BRANCH   1  11
ATOM     11  C   UNL     1     -14.906  -0.012 -31.333  1.00  0.00     0.000 C 
BRANCH  11  12
ATOM     12  C   UNL     1     -14.968  -1.344 -30.568  1.00  0.00     0.000 C 
BRANCH  12  13
ATOM     13  C   UNL     1     -14.039  -1.362 -29.343  1.00  0.00     0.000 C 
BRANCH  13  14
ATOM     14  C   UNL     1     -12.590  -1.743 -29.698  1.00  0.00     0.000 C 
BRANCH  14  15
ATOM     15  C   UNL     1     -12.418  -2.488 -31.038  1.00  0.00     0.000 C 
BRANCH  15  16
ATOM     16  C   UNL     1     -11.577  -3.778 -30.968  1.00  0.00     0.006 C 
BRANCH  16  17
ATOM     17  C   UNL     1     -10.448  -3.744 -29.926  1.00  0.00     0.053 C 
BRANCH  17  18
ATOM     18  C   UNL     1      -9.113  -3.491 -30.556  1.00  0.00     0.041 C 
ATOM     19  O   UNL     1      -8.948  -2.501 -31.314  1.00  0.00    -0.550 OA
ATOM     20  O   UNL     1      -8.042  -4.332 -30.279  1.00  0.00    -0.550 OA
ENDBRANCH  17  18
ENDBRANCH  16  17
ENDBRANCH  15  16
ENDBRANCH  14  15
ENDBRANCH  13  14
ENDBRANCH  12  13
ENDBRANCH  11  12
ENDBRANCH   1  11
TORSDOF 15
ENDMDL
