MODEL 1
REMARK VINA RESULT:    -3.656      0.000      0.000
REMARK INTER + INTRA:          -4.587
REMARK INTER:                  -4.510
REMARK INTRA:                  -0.077
REMARK UNBOUND:                -0.077
REMARK SMILES CCCCCC(=O)[O-]
REMARK SMILES IDX 4 1 5 2 6 3 7 4 8 5 3 6 2 7 1 8
REMARK H PARENT
REMARK Flexibility Score: inf
ROOT
ATOM      1  C   UNL     1     -12.780   4.097  12.607  1.00  0.00     0.006 C 
ENDROOT
BRANCH   1   2
ATOM      2  C   UNL     1     -13.894   4.815  13.380  1.00  0.00     0.053 C 
BRANCH   2   3
ATOM      3  C   UNL     1     -13.442   5.133  14.770  1.00  0.00     0.041 C 
ATOM      4  O   UNL     1     -12.214   5.161  15.047  1.00  0.00    -0.550 OA
ATOM      5  O   UNL     1     -14.375   5.449  15.749  1.00  0.00    -0.550 OA
ENDBRANCH   2   3
ENDBRANCH   1   2
BRANCH   1   6
ATOM      6  C   UNL     1     -13.001   2.578  12.526  1.00  0.00     0.000 C 
BRANCH   6   7
ATOM      7  C   UNL     1     -12.660   2.004  11.143  1.00  0.00    -0.003 C 
ATOM      8  C   UNL     1     -11.317   1.279  11.164  1.00  0.00     0.004 C 
ENDBRANCH   6   7
ENDBRANCH   1   6
TORSDOF 4
ENDMDL
MODEL 2
REMARK VINA RESULT:    -3.616      1.332      1.680
REMARK INTER + INTRA:          -4.539
REMARK INTER:                  -4.282
REMARK INTRA:                  -0.257
REMARK UNBOUND:                -0.077
REMARK SMILES CCCCCC(=O)[O-]
REMARK SMILES IDX 4 1 5 2 6 3 7 4 8 5 3 6 2 7 1 8
REMARK H PARENT
REMARK Flexibility Score: inf
ROOT
ATOM      1  C   UNL     1     -14.204   2.963  12.401  1.00  0.00     0.006 C 
ENDROOT
BRANCH   1   2
ATOM      2  C   UNL     1     -14.225   4.215  13.287  1.00  0.00     0.053 C 
BRANCH   2   3
ATOM      3  C   UNL     1     -12.838   4.738  13.486  1.00  0.00     0.041 C 
ATOM      4  O   UNL     1     -12.042   4.810  12.513  1.00  0.00    -0.550 OA
ATOM      5  O   UNL     1     -12.438   5.193  14.736  1.00  0.00    -0.550 OA
ENDBRANCH   2   3
ENDBRANCH   1   2
BRANCH   1   6
ATOM      6  C   UNL     1     -13.657   1.729  13.134  1.00  0.00     0.000 C 
BRANCH   6   7
ATOM      7  C   UNL     1     -12.424   1.129  12.444  1.00  0.00    -0.003 C 
ATOM      8  C   UNL     1     -12.300   1.631  11.007  1.00  0.00     0.004 C 
ENDBRANCH   6   7
ENDBRANCH   1   6
TORSDOF 4
ENDMDL
MODEL 3
REMARK VINA RESULT:    -3.613      0.960      1.406
REMARK INTER + INTRA:          -4.534
REMARK INTER:                  -4.370
REMARK INTRA:                  -0.164
REMARK UNBOUND:                -0.077
REMARK SMILES CCCCCC(=O)[O-]
REMARK SMILES IDX 4 1 5 2 6 3 7 4 8 5 3 6 2 7 1 8
REMARK H PARENT
REMARK Flexibility Score: inf
ROOT
ATOM      1  C   UNL     1     -12.782   4.227  12.600  1.00  0.00     0.006 C 
ENDROOT
BRANCH   1   2
ATOM      2  C   UNL     1     -13.964   4.611  13.499  1.00  0.00     0.053 C 
BRANCH   2   3
ATOM      3  C   UNL     1     -13.474   5.113  14.820  1.00  0.00     0.041 C 
ATOM      4  O   UNL     1     -12.241   5.261  15.025  1.00  0.00    -0.550 OA
ATOM      5  O   UNL     1     -14.382   5.465  15.811  1.00  0.00    -0.550 OA
ENDBRANCH   2   3
ENDBRANCH   1   2
BRANCH   1   6
ATOM      6  C   UNL     1     -12.821   2.753  12.170  1.00  0.00     0.000 C 
BRANCH   6   7
ATOM      7  C   UNL     1     -13.654   1.881  13.121  1.00  0.00    -0.003 C 
ATOM      8  C   UNL     1     -12.757   1.104  14.082  1.00  0.00     0.004 C 
ENDBRANCH   6   7
ENDBRANCH   1   6
TORSDOF 4
ENDMDL
MODEL 4
REMARK VINA RESULT:    -3.491      2.012      2.296
REMARK INTER + INTRA:          -4.385
REMARK INTER:                  -4.223
REMARK INTRA:                  -0.162
REMARK UNBOUND:                -0.077
REMARK SMILES CCCCCC(=O)[O-]
REMARK SMILES IDX 4 1 5 2 6 3 7 4 8 5 3 6 2 7 1 8
REMARK H PARENT
REMARK Flexibility Score: inf
ROOT
ATOM      1  C   UNL     1     -14.572   3.705  13.528  1.00  0.00     0.006 C 
ENDROOT
BRANCH   1   2
ATOM      2  C   UNL     1     -13.558   3.194  14.560  1.00  0.00     0.053 C 
BRANCH   2   3
ATOM      3  C   UNL     1     -12.965   4.338  15.320  1.00  0.00     0.041 C 
ATOM      4  O   UNL     1     -12.380   5.270  14.709  1.00  0.00    -0.550 OA
ATOM      5  O   UNL     1     -13.102   4.401  16.701  1.00  0.00    -0.550 OA
ENDBRANCH   2   3
ENDBRANCH   1   2
BRANCH   1   6
ATOM      6  C   UNL     1     -14.577   2.868  12.239  1.00  0.00     0.000 C 
BRANCH   6   7
ATOM      7  C   UNL     1     -14.208   3.693  10.998  1.00  0.00    -0.003 C 
ATOM      8  C   UNL     1     -13.806   5.115  11.383  1.00  0.00     0.004 C 
ENDBRANCH   6   7
ENDBRANCH   1   6
TORSDOF 4
ENDMDL
MODEL 5
REMARK VINA RESULT:    -3.455      2.217      3.110
REMARK INTER + INTRA:          -4.340
REMARK INTER:                  -4.167
REMARK INTRA:                  -0.173
REMARK UNBOUND:                -0.077
REMARK SMILES CCCCCC(=O)[O-]
REMARK SMILES IDX 4 1 5 2 6 3 7 4 8 5 3 6 2 7 1 8
REMARK H PARENT
REMARK Flexibility Score: inf
ROOT
ATOM      1  C   UNL     1     -13.836   2.447  13.618  1.00  0.00     0.006 C 
ENDROOT
BRANCH   1   2
ATOM      2  C   UNL     1     -14.077   3.880  14.108  1.00  0.00     0.053 C 
BRANCH   2   3
ATOM      3  C   UNL     1     -12.852   4.714  13.905  1.00  0.00     0.041 C 
ATOM      4  O   UNL     1     -12.353   5.354  14.868  1.00  0.00    -0.550 OA
ATOM      5  O   UNL     1     -12.230   4.746  12.663  1.00  0.00    -0.550 OA
ENDBRANCH   2   3
ENDBRANCH   1   2
BRANCH   1   6
ATOM      6  C   UNL     1     -14.921   1.965  12.642  1.00  0.00     0.000 C 
BRANCH   6   7
ATOM      7  C   UNL     1     -15.786   3.114  12.105  1.00  0.00    -0.003 C 
ATOM      8  C   UNL     1     -17.272   2.816  12.287  1.00  0.00     0.004 C 
ENDBRANCH   6   7
ENDBRANCH   1   6
TORSDOF 4
ENDMDL
MODEL 6
REMARK VINA RESULT:    -3.446      2.370      4.309
REMARK INTER + INTRA:          -4.329
REMARK INTER:                  -4.165
REMARK INTRA:                  -0.163
REMARK UNBOUND:                -0.077
REMARK SMILES CCCCCC(=O)[O-]
REMARK SMILES IDX 4 1 5 2 6 3 7 4 8 5 3 6 2 7 1 8
REMARK H PARENT
REMARK Flexibility Score: inf
ROOT
ATOM      1  C   UNL     1     -14.228   3.103  14.952  1.00  0.00     0.006 C 
ENDROOT
BRANCH   1   2
ATOM      2  C   UNL     1     -14.090   3.855  13.622  1.00  0.00     0.053 C 
BRANCH   2   3
ATOM      3  C   UNL     1     -12.840   4.677  13.615  1.00  0.00     0.041 C 
ATOM      4  O   UNL     1     -12.449   5.246  14.668  1.00  0.00    -0.550 OA
ATOM      5  O   UNL     1     -12.078   4.775  12.457  1.00  0.00    -0.550 OA
ENDBRANCH   2   3
ENDBRANCH   1   2
BRANCH   1   6
ATOM      6  C   UNL     1     -15.671   3.094  15.479  1.00  0.00     0.000 C 
BRANCH   6   7
ATOM      7  C   UNL     1     -15.771   3.567  16.937  1.00  0.00    -0.003 C 
ATOM      8  C   UNL     1     -14.575   4.437  17.315  1.00  0.00     0.004 C 
ENDBRANCH   6   7
ENDBRANCH   1   6
TORSDOF 4
ENDMDL
MODEL 7
REMARK VINA RESULT:    -3.423      1.941      2.841
REMARK INTER + INTRA:          -4.300
REMARK INTER:                  -4.166
REMARK INTRA:                  -0.134
REMARK UNBOUND:                -0.077
REMARK SMILES CCCCCC(=O)[O-]
REMARK SMILES IDX 4 1 5 2 6 3 7 4 8 5 3 6 2 7 1 8
REMARK H PARENT
REMARK Flexibility Score: inf
ROOT
ATOM      1  C   UNL     1     -13.881   4.751  12.427  1.00  0.00     0.006 C 
ENDROOT
BRANCH   1   2
ATOM      2  C   UNL     1     -13.036   4.037  13.490  1.00  0.00     0.053 C 
BRANCH   2   3
ATOM      3  C   UNL     1     -13.029   4.822  14.764  1.00  0.00     0.041 C 
ATOM      4  O   UNL     1     -13.981   5.599  15.035  1.00  0.00    -0.550 OA
ATOM      5  O   UNL     1     -11.994   4.657  15.676  1.00  0.00    -0.550 OA
ENDBRANCH   2   3
ENDBRANCH   1   2
BRANCH   1   6
ATOM      6  C   UNL     1     -14.742   3.779  11.606  1.00  0.00     0.000 C 
BRANCH   6   7
ATOM      7  C   UNL     1     -15.494   2.769  12.485  1.00  0.00    -0.003 C 
ATOM      8  C   UNL     1     -17.000   2.849  12.249  1.00  0.00     0.004 C 
ENDBRANCH   6   7
ENDBRANCH   1   6
TORSDOF 4
ENDMDL
MODEL 8
REMARK VINA RESULT:    -3.358      2.071      2.721
REMARK INTER + INTRA:          -4.220
REMARK INTER:                  -4.054
REMARK INTRA:                  -0.166
REMARK UNBOUND:                -0.077
REMARK SMILES CCCCCC(=O)[O-]
REMARK SMILES IDX 4 1 5 2 6 3 7 4 8 5 3 6 2 7 1 8
REMARK H PARENT
REMARK Flexibility Score: inf
ROOT
ATOM      1  C   UNL     1     -14.708   3.399  14.471  1.00  0.00     0.006 C 
ENDROOT
BRANCH   1   2
ATOM      2  C   UNL     1     -14.308   4.401  13.380  1.00  0.00     0.053 C 
BRANCH   2   3
ATOM      3  C   UNL     1     -12.883   4.821  13.554  1.00  0.00     0.041 C 
ATOM      4  O   UNL     1     -12.468   5.207  14.678  1.00  0.00    -0.550 OA
ATOM      5  O   UNL     1     -11.999   4.738  12.486  1.00  0.00    -0.550 OA
ENDBRANCH   2   3
ENDBRANCH   1   2
BRANCH   1   6
ATOM      6  C   UNL     1     -15.091   2.025  13.900  1.00  0.00     0.000 C 
BRANCH   6   7
ATOM      7  C   UNL     1     -14.236   0.887  14.475  1.00  0.00    -0.003 C 
ATOM      8  C   UNL     1     -12.761   1.079  14.130  1.00  0.00     0.004 C 
ENDBRANCH   6   7
ENDBRANCH   1   6
TORSDOF 4
ENDMDL
MODEL 9
REMARK VINA RESULT:    -3.285      8.971     10.804
REMARK INTER + INTRA:          -4.130
REMARK INTER:                  -3.971
REMARK INTRA:                  -0.159
REMARK UNBOUND:                -0.077
REMARK SMILES CCCCCC(=O)[O-]
REMARK SMILES IDX 4 1 5 2 6 3 7 4 8 5 3 6 2 7 1 8
REMARK H PARENT
REMARK Flexibility Score: inf
ROOT
ATOM      1  C   UNL     1     -19.604  11.550  15.644  1.00  0.00     0.006 C 
ENDROOT
BRANCH   1   2
ATOM      2  C   UNL     1     -18.767  10.438  14.999  1.00  0.00     0.053 C 
BRANCH   2   3
ATOM      3  C   UNL     1     -18.156  10.919  13.721  1.00  0.00     0.041 C 
ATOM      4  O   UNL     1     -16.940  10.704  13.479  1.00  0.00    -0.550 OA
ATOM      5  O   UNL     1     -18.943  11.561  12.773  1.00  0.00    -0.550 OA
ENDBRANCH   2   3
ENDBRANCH   1   2
BRANCH   1   6
ATOM      6  C   UNL     1     -18.742  12.711  16.167  1.00  0.00     0.000 C 
BRANCH   6   7
ATOM      7  C   UNL     1     -19.071  13.083  17.620  1.00  0.00    -0.003 C 
ATOM      8  C   UNL     1     -19.438  11.845  18.434  1.00  0.00     0.004 C 
ENDBRANCH   6   7
ENDBRANCH   1   6
TORSDOF 4
ENDMDL
