MODEL 1
REMARK VINA RESULT:    37.964      0.000      0.000
REMARK INTER + INTRA:          44.339
REMARK INTER:                  44.622
REMARK INTRA:                  -0.283
REMARK UNBOUND:                -0.283
REMARK SMILES O=c1cc(-c2ccc(O)c(O)c2)oc2cc(O)cc(O)c12
REMARK SMILES IDX 4 1 3 2 2 3 1 4 21 5 19 6 18 7 16 8 15 9 14 10 13 11 5 12
REMARK SMILES IDX 6 13 7 14 8 15 12 16 10 17 9 18 11 20 20 22 17 24
REMARK H PARENT 9 19 11 21 20 23 17 25
REMARK Flexibility Score: inf
ROOT
ATOM      1  C   UNL     1      12.002  12.941   4.587  1.00  0.00     0.138 A 
ATOM      2  C   UNL     1      11.803  11.673   4.021  1.00  0.00     0.100 A 
ATOM      3  C   UNL     1      11.296  11.568   2.726  1.00  0.00     0.197 A 
ATOM      4  O   UNL     1      11.188  10.420   2.223  1.00  0.00    -0.289 OA
ATOM      5  C   UNL     1      10.958  12.738   2.005  1.00  0.00     0.107 A 
ATOM      6  C   UNL     1      10.396  12.750   0.693  1.00  0.00     0.134 A 
ATOM      7  C   UNL     1      10.210  13.971   0.034  1.00  0.00     0.093 A 
ATOM      8  C   UNL     1      10.510  15.183   0.662  1.00  0.00     0.123 A 
ATOM      9  C   UNL     1      11.008  15.184   1.963  1.00  0.00     0.094 A 
ATOM     10  C   UNL     1      11.238  13.981   2.634  1.00  0.00     0.146 A 
ATOM     11  O   UNL     1      11.728  14.025   3.868  1.00  0.00    -0.456 OA
ENDROOT
BRANCH   1  12
ATOM     12  C   UNL     1      12.538  13.112   5.961  1.00  0.00     0.021 A 
ATOM     13  C   UNL     1      12.156  14.197   6.774  1.00  0.00     0.016 A 
ATOM     14  C   UNL     1      12.683  14.340   8.061  1.00  0.00     0.051 A 
ATOM     15  C   UNL     1      13.605  13.407   8.553  1.00  0.00     0.157 A 
ATOM     16  C   UNL     1      13.474  12.189   6.461  1.00  0.00     0.062 A 
ATOM     17  C   UNL     1      14.003  12.332   7.752  1.00  0.00     0.158 A 
BRANCH  15  18
ATOM     18  O   UNL     1      14.132  13.547   9.836  1.00  0.00    -0.504 OA
ATOM     19  H   UNL     1      14.234  14.456  10.271  1.00  0.00     0.293 HD
ENDBRANCH  15  18
BRANCH  17  20
ATOM     20  O   UNL     1      14.924  11.408   8.243  1.00  0.00    -0.504 OA
ATOM     21  H   UNL     1      15.646  11.014   7.652  1.00  0.00     0.293 HD
ENDBRANCH  17  20
ENDBRANCH   1  12
BRANCH   6  22
ATOM     22  O   UNL     1       9.983  11.603   0.010  1.00  0.00    -0.507 OA
ATOM     23  H   UNL     1      10.529  11.119  -0.688  1.00  0.00     0.293 HD
ENDBRANCH   6  22
BRANCH   8  24
ATOM     24  O   UNL     1      10.308  16.394   0.003  1.00  0.00    -0.508 OA
ATOM     25  H   UNL     1      10.614  17.273   0.403  1.00  0.00     0.293 HD
ENDBRANCH   8  24
TORSDOF 5
ENDMDL
MODEL 2
REMARK VINA RESULT:    38.913      1.181      2.600
REMARK INTER + INTRA:          45.455
REMARK INTER:                  45.768
REMARK INTRA:                  -0.313
REMARK UNBOUND:                -0.283
REMARK SMILES O=c1cc(-c2ccc(O)c(O)c2)oc2cc(O)cc(O)c12
REMARK SMILES IDX 4 1 3 2 2 3 1 4 21 5 19 6 18 7 16 8 15 9 14 10 13 11 5 12
REMARK SMILES IDX 6 13 7 14 8 15 12 16 10 17 9 18 11 20 20 22 17 24
REMARK H PARENT 9 19 11 21 20 23 17 25
REMARK Flexibility Score: inf
ROOT
ATOM      1  C   UNL     1      11.823  13.541   4.758  1.00  0.00     0.138 A 
ATOM      2  C   UNL     1      11.131  14.678   4.318  1.00  0.00     0.100 A 
ATOM      3  C   UNL     1      10.582  14.699   3.036  1.00  0.00     0.197 A 
ATOM      4  O   UNL     1       9.914  15.707   2.692  1.00  0.00    -0.289 OA
ATOM      5  C   UNL     1      10.754  13.585   2.178  1.00  0.00     0.107 A 
ATOM      6  C   UNL     1      10.274  13.511   0.837  1.00  0.00     0.134 A 
ATOM      7  C   UNL     1      10.403  12.313   0.124  1.00  0.00     0.093 A 
ATOM      8  C   UNL     1      11.049  11.206   0.683  1.00  0.00     0.123 A 
ATOM      9  C   UNL     1      11.569  11.288   1.972  1.00  0.00     0.094 A 
ATOM     10  C   UNL     1      11.425  12.457   2.722  1.00  0.00     0.146 A 
ATOM     11  O   UNL     1      11.923  12.488   3.954  1.00  0.00    -0.456 OA
ENDROOT
BRANCH   1  12
ATOM     12  C   UNL     1      12.427  13.466   6.112  1.00  0.00     0.021 A 
ATOM     13  C   UNL     1      12.063  14.363   7.136  1.00  0.00     0.016 A 
ATOM     14  C   UNL     1      12.655  14.276   8.399  1.00  0.00     0.051 A 
ATOM     15  C   UNL     1      13.624  13.299   8.659  1.00  0.00     0.157 A 
ATOM     16  C   UNL     1      13.410  12.497   6.380  1.00  0.00     0.062 A 
ATOM     17  C   UNL     1      14.004  12.409   7.648  1.00  0.00     0.158 A 
BRANCH  15  18
ATOM     18  O   UNL     1      14.215  13.209   9.918  1.00  0.00    -0.504 OA
ATOM     19  H   UNL     1      15.181  12.925  10.031  1.00  0.00     0.293 HD
ENDBRANCH  15  18
BRANCH  17  20
ATOM     20  O   UNL     1      14.971  11.440   7.909  1.00  0.00    -0.504 OA
ATOM     21  H   UNL     1      14.935  10.866   8.742  1.00  0.00     0.293 HD
ENDBRANCH  17  20
ENDBRANCH   1  12
BRANCH   6  22
ATOM     22  O   UNL     1       9.690  14.582   0.155  1.00  0.00    -0.507 OA
ATOM     23  H   UNL     1       9.862  14.813  -0.812  1.00  0.00     0.293 HD
ENDBRANCH   6  22
BRANCH   8  24
ATOM     24  O   UNL     1      11.185  10.023  -0.040  1.00  0.00    -0.508 OA
ATOM     25  H   UNL     1      11.923   9.901  -0.724  1.00  0.00     0.293 HD
ENDBRANCH   8  24
TORSDOF 5
ENDMDL
MODEL 3
REMARK VINA RESULT:    39.144      2.937      4.224
REMARK INTER + INTRA:          45.726
REMARK INTER:                  45.989
REMARK INTRA:                  -0.263
REMARK UNBOUND:                -0.283
REMARK SMILES O=c1cc(-c2ccc(O)c(O)c2)oc2cc(O)cc(O)c12
REMARK SMILES IDX 4 1 3 2 2 3 1 4 21 5 19 6 18 7 16 8 15 9 14 10 13 11 5 12
REMARK SMILES IDX 6 13 7 14 8 15 12 16 10 17 9 18 11 20 20 22 17 24
REMARK H PARENT 9 19 11 21 20 23 17 25
REMARK Flexibility Score: inf
ROOT
ATOM      1  C   UNL     1      10.256  13.381   4.649  1.00  0.00     0.138 A 
ATOM      2  C   UNL     1      10.041  14.425   3.740  1.00  0.00     0.100 A 
ATOM      3  C   UNL     1      10.491  14.299   2.425  1.00  0.00     0.197 A 
ATOM      4  O   UNL     1      10.229  15.226   1.617  1.00  0.00    -0.289 OA
ATOM      5  C   UNL     1      11.188  13.133   2.028  1.00  0.00     0.107 A 
ATOM      6  C   UNL     1      11.728  12.912   0.726  1.00  0.00     0.134 A 
ATOM      7  C   UNL     1      12.295  11.670   0.417  1.00  0.00     0.093 A 
ATOM      8  C   UNL     1      12.397  10.662   1.380  1.00  0.00     0.123 A 
ATOM      9  C   UNL     1      11.921  10.888   2.669  1.00  0.00     0.094 A 
ATOM     10  C   UNL     1      11.318  12.103   3.000  1.00  0.00     0.146 A 
ATOM     11  O   UNL     1      10.864  12.273   4.237  1.00  0.00    -0.456 OA
ENDROOT
BRANCH   1  12
ATOM     12  C   UNL     1       9.799  13.462   6.060  1.00  0.00     0.021 A 
ATOM     13  C   UNL     1      10.623  13.987   7.075  1.00  0.00     0.016 A 
ATOM     14  C   UNL     1      10.172  14.042   8.397  1.00  0.00     0.051 A 
ATOM     15  C   UNL     1       8.896  13.567   8.728  1.00  0.00     0.157 A 
ATOM     16  C   UNL     1       8.525  12.976   6.405  1.00  0.00     0.062 A 
ATOM     17  C   UNL     1       8.072  13.032   7.732  1.00  0.00     0.158 A 
BRANCH  15  18
ATOM     18  O   UNL     1       8.443  13.622  10.045  1.00  0.00    -0.504 OA
ATOM     19  H   UNL     1       8.978  14.084  10.771  1.00  0.00     0.293 HD
ENDBRANCH  15  18
BRANCH  17  20
ATOM     20  O   UNL     1       6.805  12.557   8.065  1.00  0.00    -0.504 OA
ATOM     21  H   UNL     1       5.968  13.087   7.855  1.00  0.00     0.293 HD
ENDBRANCH  17  20
ENDBRANCH   1  12
BRANCH   6  22
ATOM     22  O   UNL     1      11.755  13.879  -0.282  1.00  0.00    -0.507 OA
ATOM     23  H   UNL     1      12.335  14.704  -0.275  1.00  0.00     0.293 HD
ENDBRANCH   6  22
BRANCH   8  24
ATOM     24  O   UNL     1      12.976   9.435   1.066  1.00  0.00    -0.508 OA
ATOM     25  H   UNL     1      13.288   8.796   1.787  1.00  0.00     0.293 HD
ENDBRANCH   8  24
TORSDOF 5
ENDMDL
MODEL 4
REMARK VINA RESULT:    39.277      1.388      7.415
REMARK INTER + INTRA:          45.883
REMARK INTER:                  46.159
REMARK INTRA:                  -0.277
REMARK UNBOUND:                -0.283
REMARK SMILES O=c1cc(-c2ccc(O)c(O)c2)oc2cc(O)cc(O)c12
REMARK SMILES IDX 4 1 3 2 2 3 1 4 21 5 19 6 18 7 16 8 15 9 14 10 13 11 5 12
REMARK SMILES IDX 6 13 7 14 8 15 12 16 10 17 9 18 11 20 20 22 17 24
REMARK H PARENT 9 19 11 21 20 23 17 25
REMARK Flexibility Score: inf
ROOT
ATOM      1  C   UNL     1      11.881  13.274   4.878  1.00  0.00     0.138 A 
ATOM      2  C   UNL     1      11.293  14.142   5.808  1.00  0.00     0.100 A 
ATOM      3  C   UNL     1      11.818  14.230   7.098  1.00  0.00     0.197 A 
ATOM      4  O   UNL     1      11.307  15.062   7.891  1.00  0.00    -0.289 OA
ATOM      5  C   UNL     1      12.919  13.421   7.466  1.00  0.00     0.107 A 
ATOM      6  C   UNL     1      13.512  13.397   8.764  1.00  0.00     0.134 A 
ATOM      7  C   UNL     1      14.672  12.642   8.979  1.00  0.00     0.093 A 
ATOM      8  C   UNL     1      15.225  11.863   7.958  1.00  0.00     0.123 A 
ATOM      9  C   UNL     1      14.622  11.838   6.703  1.00  0.00     0.094 A 
ATOM     10  C   UNL     1      13.485  12.607   6.447  1.00  0.00     0.146 A 
ATOM     11  O   UNL     1      12.949  12.567   5.232  1.00  0.00    -0.456 OA
ENDROOT
BRANCH   1  12
ATOM     12  C   UNL     1      11.364  13.141   3.492  1.00  0.00     0.021 A 
ATOM     13  C   UNL     1      11.270  11.888   2.856  1.00  0.00     0.016 A 
ATOM     14  C   UNL     1      10.788  11.791   1.547  1.00  0.00     0.051 A 
ATOM     15  C   UNL     1      10.401  12.943   0.851  1.00  0.00     0.157 A 
ATOM     16  C   UNL     1      10.984  14.292   2.780  1.00  0.00     0.062 A 
ATOM     17  C   UNL     1      10.501  14.196   1.467  1.00  0.00     0.158 A 
BRANCH  15  18
ATOM     18  O   UNL     1       9.919  12.850  -0.454  1.00  0.00    -0.504 OA
ATOM     19  H   UNL     1       8.928  12.899  -0.658  1.00  0.00     0.293 HD
ENDBRANCH  15  18
BRANCH  17  20
ATOM     20  O   UNL     1      10.118  15.340   0.770  1.00  0.00    -0.504 OA
ATOM     21  H   UNL     1       9.292  15.866   1.028  1.00  0.00     0.293 HD
ENDBRANCH  17  20
ENDBRANCH   1  12
BRANCH   6  22
ATOM     22  O   UNL     1      12.992  14.070   9.873  1.00  0.00    -0.507 OA
ATOM     23  H   UNL     1      12.965  13.700  10.812  1.00  0.00     0.293 HD
ENDBRANCH   6  22
BRANCH   8  24
ATOM     24  O   UNL     1      16.370  11.104   8.186  1.00  0.00    -0.508 OA
ATOM     25  H   UNL     1      17.158  11.128   7.549  1.00  0.00     0.293 HD
ENDBRANCH   8  24
TORSDOF 5
ENDMDL
MODEL 5
REMARK VINA RESULT:    40.161      2.621      3.064
REMARK INTER + INTRA:          46.922
REMARK INTER:                  47.184
REMARK INTRA:                  -0.262
REMARK UNBOUND:                -0.283
REMARK SMILES O=c1cc(-c2ccc(O)c(O)c2)oc2cc(O)cc(O)c12
REMARK SMILES IDX 4 1 3 2 2 3 1 4 21 5 19 6 18 7 16 8 15 9 14 10 13 11 5 12
REMARK SMILES IDX 6 13 7 14 8 15 12 16 10 17 9 18 11 20 20 22 17 24
REMARK H PARENT 9 19 11 21 20 23 17 25
REMARK Flexibility Score: inf
ROOT
ATOM      1  C   UNL     1      10.240  13.211   4.549  1.00  0.00     0.138 A 
ATOM      2  C   UNL     1      10.700  11.999   4.014  1.00  0.00     0.100 A 
ATOM      3  C   UNL     1      11.028  11.923   2.660  1.00  0.00     0.197 A 
ATOM      4  O   UNL     1      11.496  10.840   2.223  1.00  0.00    -0.289 OA
ATOM      5  C   UNL     1      10.865  13.058   1.831  1.00  0.00     0.107 A 
ATOM      6  C   UNL     1      11.128  13.086   0.429  1.00  0.00     0.134 A 
ATOM      7  C   UNL     1      11.042  14.299  -0.265  1.00  0.00     0.093 A 
ATOM      8  C   UNL     1      10.642  15.472   0.380  1.00  0.00     0.123 A 
ATOM      9  C   UNL     1      10.330  15.444   1.737  1.00  0.00     0.094 A 
ATOM     10  C   UNL     1      10.441  14.258   2.465  1.00  0.00     0.146 A 
ATOM     11  O   UNL     1      10.149  14.277   3.761  1.00  0.00    -0.456 OA
ENDROOT
BRANCH   1  12
ATOM     12  C   UNL     1       9.877  13.348   5.982  1.00  0.00     0.021 A 
ATOM     13  C   UNL     1      10.761  13.922   6.917  1.00  0.00     0.016 A 
ATOM     14  C   UNL     1      10.397  14.031   8.262  1.00  0.00     0.051 A 
ATOM     15  C   UNL     1       9.151  13.560   8.698  1.00  0.00     0.157 A 
ATOM     16  C   UNL     1       8.634  12.868   6.432  1.00  0.00     0.062 A 
ATOM     17  C   UNL     1       8.269  12.976   7.782  1.00  0.00     0.158 A 
BRANCH  15  18
ATOM     18  O   UNL     1       8.786  13.668  10.038  1.00  0.00    -0.504 OA
ATOM     19  H   UNL     1       9.216  13.092  10.753  1.00  0.00     0.293 HD
ENDBRANCH  15  18
BRANCH  17  20
ATOM     20  O   UNL     1       7.032  12.506   8.219  1.00  0.00    -0.504 OA
ATOM     21  H   UNL     1       6.933  11.591   8.641  1.00  0.00     0.293 HD
ENDBRANCH  17  20
ENDBRANCH   1  12
BRANCH   6  22
ATOM     22  O   UNL     1      11.451  11.956  -0.327  1.00  0.00    -0.507 OA
ATOM     23  H   UNL     1      12.389  11.624  -0.497  1.00  0.00     0.293 HD
ENDBRANCH   6  22
BRANCH   8  24
ATOM     24  O   UNL     1      10.545  16.671  -0.323  1.00  0.00    -0.508 OA
ATOM     25  H   UNL     1       9.986  17.443   0.019  1.00  0.00     0.293 HD
ENDBRANCH   8  24
TORSDOF 5
ENDMDL
