MODEL 1
REMARK VINA RESULT:    -4.977      0.000      0.000
REMARK INTER + INTRA:          -7.655
REMARK INTER:                  -7.014
REMARK INTRA:                  -0.640
REMARK UNBOUND:                -0.640
REMARK SMILES CC(=O)OCC[C@@H](C)CCC=C(C)C
REMARK SMILES IDX 8 1 7 2 9 3 10 4 11 5 12 6 13 7 14 8 6 9 5 10 4 11 2 12 3 13
REMARK SMILES IDX 1 14
REMARK H PARENT
REMARK Flexibility Score: inf
ROOT
ATOM      1  C   UNL     1      92.522 -58.994 102.594  1.00  0.00     0.008 C 
ATOM      2  C   UNL     1      93.950 -59.556 102.704  1.00  0.00    -0.011 C 
ENDROOT
BRANCH   2   3
ATOM      3  C   UNL     1      94.558 -59.133 104.067  1.00  0.00     0.007 C 
BRANCH   3   4
ATOM      4  C   UNL     1      95.311 -60.245 104.822  1.00  0.00     0.027 C 
BRANCH   4   5
ATOM      5  C   UNL     1      96.730 -59.859 105.169  1.00  0.00    -0.028 C 
ATOM      6  C   UNL     1      97.729 -60.737 105.413  1.00  0.00    -0.080 C 
ATOM      7  C   UNL     1      99.085 -60.194 105.778  1.00  0.00     0.039 C 
ATOM      8  C   UNL     1      97.529 -62.230 105.308  1.00  0.00     0.039 C 
ENDBRANCH   4   5
ENDBRANCH   3   4
ENDBRANCH   2   3
BRANCH   2   9
ATOM      9  C   UNL     1      93.964 -61.095 102.526  1.00  0.00     0.045 C 
BRANCH   9  10
ATOM     10  C   UNL     1      92.557 -61.704 102.448  1.00  0.00     0.233 C 
BRANCH  10  11
ATOM     11  O   UNL     1      92.392 -62.712 103.445  1.00  0.00    -0.466 OA
BRANCH  11  12
ATOM     12  C   UNL     1      93.007 -63.968 103.380  1.00  0.00     0.302 C 
ATOM     13  O   UNL     1      92.662 -64.812 102.509  1.00  0.00    -0.253 OA
ATOM     14  C   UNL     1      94.043 -64.330 104.389  1.00  0.00     0.139 C 
ENDBRANCH  11  12
ENDBRANCH  10  11
ENDBRANCH   9  10
ENDBRANCH   2   9
TORSDOF 7
ENDMDL
MODEL 2
REMARK VINA RESULT:    -4.973      2.302      3.835
REMARK INTER + INTRA:          -7.649
REMARK INTER:                  -6.911
REMARK INTRA:                  -0.738
REMARK UNBOUND:                -0.640
REMARK SMILES CC(=O)OCC[C@@H](C)CCC=C(C)C
REMARK SMILES IDX 8 1 7 2 9 3 10 4 11 5 12 6 13 7 14 8 6 9 5 10 4 11 2 12 3 13
REMARK SMILES IDX 1 14
REMARK H PARENT
REMARK Flexibility Score: inf
ROOT
ATOM      1  C   UNL     1      93.988 -59.416 103.597  1.00  0.00     0.008 C 
ATOM      2  C   UNL     1      94.184 -60.611 102.648  1.00  0.00    -0.011 C 
ENDROOT
BRANCH   2   3
ATOM      3  C   UNL     1      95.076 -61.672 103.345  1.00  0.00     0.007 C 
BRANCH   3   4
ATOM      4  C   UNL     1      95.389 -61.393 104.828  1.00  0.00     0.027 C 
BRANCH   4   5
ATOM      5  C   UNL     1      96.866 -61.463 105.138  1.00  0.00    -0.028 C 
ATOM      6  C   UNL     1      97.654 -60.391 105.374  1.00  0.00    -0.080 C 
ATOM      7  C   UNL     1      99.119 -60.624 105.636  1.00  0.00     0.039 C 
ATOM      8  C   UNL     1      97.107 -58.984 105.405  1.00  0.00     0.039 C 
ENDBRANCH   4   5
ENDBRANCH   3   4
ENDBRANCH   2   3
BRANCH   2   9
ATOM      9  C   UNL     1      92.824 -61.209 102.209  1.00  0.00     0.045 C 
BRANCH   9  10
ATOM     10  C   UNL     1      92.455 -60.864 100.758  1.00  0.00     0.233 C 
BRANCH  10  11
ATOM     11  O   UNL     1      91.553 -59.758 100.721  1.00  0.00    -0.466 OA
BRANCH  11  12
ATOM     12  C   UNL     1      91.972 -58.423 100.697  1.00  0.00     0.302 C 
ATOM     13  O   UNL     1      93.163 -58.124 100.411  1.00  0.00    -0.253 OA
ATOM     14  C   UNL     1      91.011 -57.346 101.070  1.00  0.00     0.139 C 
ENDBRANCH  11  12
ENDBRANCH  10  11
ENDBRANCH   9  10
ENDBRANCH   2   9
TORSDOF 7
ENDMDL
MODEL 3
REMARK VINA RESULT:    -4.943      2.466      3.925
REMARK INTER + INTRA:          -7.606
REMARK INTER:                  -7.296
REMARK INTRA:                  -0.310
REMARK UNBOUND:                -0.640
REMARK SMILES CC(=O)OCC[C@@H](C)CCC=C(C)C
REMARK SMILES IDX 8 1 7 2 9 3 10 4 11 5 12 6 13 7 14 8 6 9 5 10 4 11 2 12 3 13
REMARK SMILES IDX 1 14
REMARK H PARENT
REMARK Flexibility Score: inf
ROOT
ATOM      1  C   UNL     1      95.552 -61.572 104.704  1.00  0.00     0.008 C 
ATOM      2  C   UNL     1      95.710 -60.126 105.205  1.00  0.00    -0.011 C 
ENDROOT
BRANCH   2   3
ATOM      3  C   UNL     1      97.220 -59.793 105.328  1.00  0.00     0.007 C 
BRANCH   3   4
ATOM      4  C   UNL     1      98.154 -61.015 105.435  1.00  0.00     0.027 C 
BRANCH   4   5
ATOM      5  C   UNL     1      99.462 -60.694 106.118  1.00  0.00    -0.028 C 
ATOM      6  C   UNL     1     100.669 -61.159 105.727  1.00  0.00    -0.080 C 
ATOM      7  C   UNL     1     101.881 -60.774 106.535  1.00  0.00     0.039 C 
ATOM      8  C   UNL     1     100.837 -62.027 104.502  1.00  0.00     0.039 C 
ENDBRANCH   4   5
ENDBRANCH   3   4
ENDBRANCH   2   3
BRANCH   2   9
ATOM      9  C   UNL     1      94.980 -59.125 104.275  1.00  0.00     0.045 C 
BRANCH   9  10
ATOM     10  C   UNL     1      94.158 -59.815 103.176  1.00  0.00     0.233 C 
BRANCH  10  11
ATOM     11  O   UNL     1      93.191 -58.915 102.635  1.00  0.00    -0.466 OA
BRANCH  11  12
ATOM     12  C   UNL     1      92.364 -59.233 101.552  1.00  0.00     0.302 C 
ATOM     13  O   UNL     1      91.565 -58.381 101.077  1.00  0.00    -0.253 OA
ATOM     14  C   UNL     1      92.388 -60.615 100.992  1.00  0.00     0.139 C 
ENDBRANCH  11  12
ENDBRANCH  10  11
ENDBRANCH   9  10
ENDBRANCH   2   9
TORSDOF 7
ENDMDL
MODEL 4
REMARK VINA RESULT:    -4.917      2.536      5.338
REMARK INTER + INTRA:          -7.569
REMARK INTER:                  -7.045
REMARK INTRA:                  -0.525
REMARK UNBOUND:                -0.640
REMARK SMILES CC(=O)OCC[C@@H](C)CCC=C(C)C
REMARK SMILES IDX 8 1 7 2 9 3 10 4 11 5 12 6 13 7 14 8 6 9 5 10 4 11 2 12 3 13
REMARK SMILES IDX 1 14
REMARK H PARENT
REMARK Flexibility Score: inf
ROOT
ATOM      1  C   UNL     1      97.110 -59.663 105.290  1.00  0.00     0.008 C 
ATOM      2  C   UNL     1      95.703 -60.249 105.084  1.00  0.00    -0.011 C 
ENDROOT
BRANCH   2   3
ATOM      3  C   UNL     1      94.843 -59.233 104.286  1.00  0.00     0.007 C 
BRANCH   3   4
ATOM      4  C   UNL     1      93.918 -59.853 103.220  1.00  0.00     0.027 C 
BRANCH   4   5
ATOM      5  C   UNL     1      92.903 -58.870 102.684  1.00  0.00    -0.028 C 
ATOM      6  C   UNL     1      92.248 -59.005 101.510  1.00  0.00    -0.080 C 
ATOM      7  C   UNL     1      91.288 -57.920 101.098  1.00  0.00     0.039 C 
ATOM      8  C   UNL     1      92.431 -60.212 100.621  1.00  0.00     0.039 C 
ENDBRANCH   4   5
ENDBRANCH   3   4
ENDBRANCH   2   3
BRANCH   2   9
ATOM      9  C   UNL     1      95.765 -61.624 104.375  1.00  0.00     0.045 C 
BRANCH   9  10
ATOM     10  C   UNL     1      95.397 -62.795 105.298  1.00  0.00     0.233 C 
BRANCH  10  11
ATOM     11  O   UNL     1      96.497 -63.695 105.427  1.00  0.00    -0.466 OA
BRANCH  11  12
ATOM     12  C   UNL     1      97.306 -63.764 106.567  1.00  0.00     0.302 C 
ATOM     13  O   UNL     1      97.006 -64.525 107.528  1.00  0.00    -0.253 OA
ATOM     14  C   UNL     1      98.505 -62.885 106.670  1.00  0.00     0.139 C 
ENDBRANCH  11  12
ENDBRANCH  10  11
ENDBRANCH   9  10
ENDBRANCH   2   9
TORSDOF 7
ENDMDL
MODEL 5
REMARK VINA RESULT:    -4.865      1.971      2.914
REMARK INTER + INTRA:          -7.496
REMARK INTER:                  -6.684
REMARK INTRA:                  -0.812
REMARK UNBOUND:                -0.640
REMARK SMILES CC(=O)OCC[C@@H](C)CCC=C(C)C
REMARK SMILES IDX 8 1 7 2 9 3 10 4 11 5 12 6 13 7 14 8 6 9 5 10 4 11 2 12 3 13
REMARK SMILES IDX 1 14
REMARK H PARENT
REMARK Flexibility Score: inf
ROOT
ATOM      1  C   UNL     1      91.727 -60.181 100.048  1.00  0.00     0.008 C 
ATOM      2  C   UNL     1      92.822 -60.613 101.038  1.00  0.00    -0.011 C 
ENDROOT
BRANCH   2   3
ATOM      3  C   UNL     1      93.302 -59.372 101.836  1.00  0.00     0.007 C 
BRANCH   3   4
ATOM      4  C   UNL     1      93.263 -59.522 103.369  1.00  0.00     0.027 C 
BRANCH   4   5
ATOM      5  C   UNL     1      94.520 -59.020 104.039  1.00  0.00    -0.028 C 
ATOM      6  C   UNL     1      95.471 -59.811 104.583  1.00  0.00    -0.080 C 
ATOM      7  C   UNL     1      96.655 -59.155 105.246  1.00  0.00     0.039 C 
ATOM      8  C   UNL     1      95.392 -61.318 104.525  1.00  0.00     0.039 C 
ENDBRANCH   4   5
ENDBRANCH   3   4
ENDBRANCH   2   3
BRANCH   2   9
ATOM      9  C   UNL     1      92.318 -61.735 101.979  1.00  0.00     0.045 C 
BRANCH   9  10
ATOM     10  C   UNL     1      93.241 -62.963 101.998  1.00  0.00     0.233 C 
BRANCH  10  11
ATOM     11  O   UNL     1      92.946 -63.827 100.901  1.00  0.00    -0.466 OA
BRANCH  11  12
ATOM     12  C   UNL     1      91.644 -64.137 100.493  1.00  0.00     0.302 C 
ATOM     13  O   UNL     1      90.857 -64.758 101.259  1.00  0.00    -0.253 OA
ATOM     14  C   UNL     1      91.202 -63.779  99.115  1.00  0.00     0.139 C 
ENDBRANCH  11  12
ENDBRANCH  10  11
ENDBRANCH   9  10
ENDBRANCH   2   9
TORSDOF 7
ENDMDL
MODEL 6
REMARK VINA RESULT:    -4.863      2.359      4.956
REMARK INTER + INTRA:          -7.493
REMARK INTER:                  -6.819
REMARK INTRA:                  -0.674
REMARK UNBOUND:                -0.640
REMARK SMILES CC(=O)OCC[C@@H](C)CCC=C(C)C
REMARK SMILES IDX 8 1 7 2 9 3 10 4 11 5 12 6 13 7 14 8 6 9 5 10 4 11 2 12 3 13
REMARK SMILES IDX 1 14
REMARK H PARENT
REMARK Flexibility Score: inf
ROOT
ATOM      1  C   UNL     1      96.982 -59.366 105.379  1.00  0.00     0.008 C 
ATOM      2  C   UNL     1      95.917 -60.098 104.544  1.00  0.00    -0.011 C 
ENDROOT
BRANCH   2   3
ATOM      3  C   UNL     1      95.491 -61.392 105.287  1.00  0.00     0.007 C 
BRANCH   3   4
ATOM      4  C   UNL     1      95.486 -62.670 104.427  1.00  0.00     0.027 C 
BRANCH   4   5
ATOM      5  C   UNL     1      94.117 -63.300 104.323  1.00  0.00    -0.028 C 
ATOM      6  C   UNL     1      93.448 -63.500 103.166  1.00  0.00    -0.080 C 
ATOM      7  C   UNL     1      92.073 -64.112 103.231  1.00  0.00     0.039 C 
ATOM      8  C   UNL     1      94.044 -63.153 101.822  1.00  0.00     0.039 C 
ENDBRANCH   4   5
ENDBRANCH   3   4
ENDBRANCH   2   3
BRANCH   2   9
ATOM      9  C   UNL     1      94.703 -59.182 104.253  1.00  0.00     0.045 C 
BRANCH   9  10
ATOM     10  C   UNL     1      93.802 -59.715 103.129  1.00  0.00     0.233 C 
BRANCH  10  11
ATOM     11  O   UNL     1      92.911 -58.696 102.676  1.00  0.00    -0.466 OA
BRANCH  11  12
ATOM     12  C   UNL     1      92.167 -58.793 101.495  1.00  0.00     0.302 C 
ATOM     13  O   UNL     1      91.296 -57.928 101.207  1.00  0.00    -0.253 OA
ATOM     14  C   UNL     1      92.370 -59.964 100.594  1.00  0.00     0.139 C 
ENDBRANCH  11  12
ENDBRANCH  10  11
ENDBRANCH   9  10
ENDBRANCH   2   9
TORSDOF 7
ENDMDL
MODEL 7
REMARK VINA RESULT:    -4.850      1.853      3.685
REMARK INTER + INTRA:          -7.475
REMARK INTER:                  -6.667
REMARK INTRA:                  -0.808
REMARK UNBOUND:                -0.640
REMARK SMILES CC(=O)OCC[C@@H](C)CCC=C(C)C
REMARK SMILES IDX 8 1 7 2 9 3 10 4 11 5 12 6 13 7 14 8 6 9 5 10 4 11 2 12 3 13
REMARK SMILES IDX 1 14
REMARK H PARENT
REMARK Flexibility Score: inf
ROOT
ATOM      1  C   UNL     1      94.716 -64.684 104.176  1.00  0.00     0.008 C 
ATOM      2  C   UNL     1      94.620 -63.155 104.036  1.00  0.00    -0.011 C 
ENDROOT
BRANCH   2   3
ATOM      3  C   UNL     1      95.652 -62.493 104.987  1.00  0.00     0.007 C 
BRANCH   3   4
ATOM      4  C   UNL     1      96.984 -62.085 104.327  1.00  0.00     0.027 C 
BRANCH   4   5
ATOM      5  C   UNL     1      98.113 -61.952 105.322  1.00  0.00    -0.028 C 
ATOM      6  C   UNL     1      98.540 -60.784 105.851  1.00  0.00    -0.080 C 
ATOM      7  C   UNL     1      99.702 -60.814 106.808  1.00  0.00     0.039 C 
ATOM      8  C   UNL     1      97.874 -59.467 105.530  1.00  0.00     0.039 C 
ENDBRANCH   4   5
ENDBRANCH   3   4
ENDBRANCH   2   3
BRANCH   2   9
ATOM      9  C   UNL     1      94.832 -62.711 102.567  1.00  0.00     0.045 C 
BRANCH   9  10
ATOM     10  C   UNL     1      93.791 -61.687 102.092  1.00  0.00     0.233 C 
BRANCH  10  11
ATOM     11  O   UNL     1      94.267 -60.357 102.297  1.00  0.00    -0.466 OA
BRANCH  11  12
ATOM     12  C   UNL     1      93.709 -59.474 103.228  1.00  0.00     0.302 C 
ATOM     13  O   UNL     1      92.498 -59.134 103.151  1.00  0.00    -0.253 OA
ATOM     14  C   UNL     1      94.574 -58.886 104.291  1.00  0.00     0.139 C 
ENDBRANCH  11  12
ENDBRANCH  10  11
ENDBRANCH   9  10
ENDBRANCH   2   9
TORSDOF 7
ENDMDL
MODEL 8
REMARK VINA RESULT:    -4.848      1.378      1.903
REMARK INTER + INTRA:          -7.473
REMARK INTER:                  -6.906
REMARK INTRA:                  -0.567
REMARK UNBOUND:                -0.640
REMARK SMILES CC(=O)OCC[C@@H](C)CCC=C(C)C
REMARK SMILES IDX 8 1 7 2 9 3 10 4 11 5 12 6 13 7 14 8 6 9 5 10 4 11 2 12 3 13
REMARK SMILES IDX 1 14
REMARK H PARENT
REMARK Flexibility Score: inf
ROOT
ATOM      1  C   UNL     1      91.916 -58.600 101.650  1.00  0.00     0.008 C 
ATOM      2  C   UNL     1      92.819 -59.722 101.110  1.00  0.00    -0.011 C 
ENDROOT
BRANCH   2   3
ATOM      3  C   UNL     1      93.934 -60.020 102.148  1.00  0.00     0.007 C 
BRANCH   3   4
ATOM      4  C   UNL     1      93.699 -59.425 103.551  1.00  0.00     0.027 C 
BRANCH   4   5
ATOM      5  C   UNL     1      94.978 -58.981 104.220  1.00  0.00    -0.028 C 
ATOM      6  C   UNL     1      95.848 -59.806 104.843  1.00  0.00    -0.080 C 
ATOM      7  C   UNL     1      97.066 -59.204 105.492  1.00  0.00     0.039 C 
ATOM      8  C   UNL     1      95.646 -61.303 104.884  1.00  0.00     0.039 C 
ENDBRANCH   4   5
ENDBRANCH   3   4
ENDBRANCH   2   3
BRANCH   2   9
ATOM      9  C   UNL     1      91.999 -60.992 100.774  1.00  0.00     0.045 C 
BRANCH   9  10
ATOM     10  C   UNL     1      92.640 -62.281 101.310  1.00  0.00     0.233 C 
BRANCH  10  11
ATOM     11  O   UNL     1      91.901 -62.782 102.423  1.00  0.00    -0.466 OA
BRANCH  11  12
ATOM     12  C   UNL     1      92.435 -63.667 103.367  1.00  0.00     0.302 C 
ATOM     13  O   UNL     1      91.749 -64.054 104.351  1.00  0.00    -0.253 OA
ATOM     14  C   UNL     1      93.852 -64.112 103.235  1.00  0.00     0.139 C 
ENDBRANCH  11  12
ENDBRANCH  10  11
ENDBRANCH   9  10
ENDBRANCH   2   9
TORSDOF 7
ENDMDL
MODEL 9
REMARK VINA RESULT:    -4.817      1.963      3.653
REMARK INTER + INTRA:          -7.429
REMARK INTER:                  -6.737
REMARK INTRA:                  -0.692
REMARK UNBOUND:                -0.640
REMARK SMILES CC(=O)OCC[C@@H](C)CCC=C(C)C
REMARK SMILES IDX 8 1 7 2 9 3 10 4 11 5 12 6 13 7 14 8 6 9 5 10 4 11 2 12 3 13
REMARK SMILES IDX 1 14
REMARK H PARENT
REMARK Flexibility Score: inf
ROOT
ATOM      1  C   UNL     1      95.948 -63.250 102.277  1.00  0.00     0.008 C 
ATOM      2  C   UNL     1      94.494 -63.450 102.738  1.00  0.00    -0.011 C 
ENDROOT
BRANCH   2   3
ATOM      3  C   UNL     1      94.335 -62.886 104.174  1.00  0.00     0.007 C 
BRANCH   3   4
ATOM      4  C   UNL     1      95.631 -62.357 104.818  1.00  0.00     0.027 C 
BRANCH   4   5
ATOM      5  C   UNL     1      95.690 -60.848 104.861  1.00  0.00    -0.028 C 
ATOM      6  C   UNL     1      96.787 -60.129 105.187  1.00  0.00    -0.080 C 
ATOM      7  C   UNL     1      96.677 -58.627 105.216  1.00  0.00     0.039 C 
ATOM      8  C   UNL     1      98.113 -60.784 105.496  1.00  0.00     0.039 C 
ENDBRANCH   4   5
ENDBRANCH   3   4
ENDBRANCH   2   3
BRANCH   2   9
ATOM      9  C   UNL     1      93.496 -62.792 101.753  1.00  0.00     0.045 C 
BRANCH   9  10
ATOM     10  C   UNL     1      92.562 -61.779 102.431  1.00  0.00     0.233 C 
BRANCH  10  11
ATOM     11  O   UNL     1      92.417 -60.612 101.621  1.00  0.00    -0.466 OA
BRANCH  11  12
ATOM     12  C   UNL     1      92.379 -59.313 102.140  1.00  0.00     0.302 C 
ATOM     13  O   UNL     1      91.698 -58.412 101.579  1.00  0.00    -0.253 OA
ATOM     14  C   UNL     1      93.199 -58.979 103.340  1.00  0.00     0.139 C 
ENDBRANCH  11  12
ENDBRANCH  10  11
ENDBRANCH   9  10
ENDBRANCH   2   9
TORSDOF 7
ENDMDL
