MODEL 1
REMARK VINA RESULT:    -4.551      0.000      0.000
REMARK INTER + INTRA:         -10.455
REMARK INTER:                  -8.543
REMARK INTRA:                  -1.913
REMARK UNBOUND:                -1.913
REMARK SMILES O=C([O-])CCCCCCCCCCCCCCC(=O)[O-]
REMARK SMILES IDX 10 1 9 2 8 3 7 4 6 5 5 6 4 7 2 8 1 9 3 10 11 11 12 12 13 13
REMARK SMILES IDX 14 14 15 15 16 16 17 17 18 18 19 19 20 20
REMARK H PARENT
REMARK Flexibility Score: inf
ROOT
ATOM      1  C   UNL     1      17.075 -35.547  19.515  1.00  0.00     0.000 C 
ENDROOT
BRANCH   1   2
ATOM      2  C   UNL     1      17.943 -34.378  19.013  1.00  0.00     0.000 C 
BRANCH   2   3
ATOM      3  C   UNL     1      19.363 -34.312  19.610  1.00  0.00     0.000 C 
BRANCH   3   4
ATOM      4  C   UNL     1      19.632 -33.101  20.521  1.00  0.00     0.000 C 
BRANCH   4   5
ATOM      5  C   UNL     1      18.375 -32.257  20.780  1.00  0.00     0.000 C 
BRANCH   5   6
ATOM      6  C   UNL     1      18.410 -31.637  22.182  1.00  0.00     0.006 C 
BRANCH   6   7
ATOM      7  C   UNL     1      18.614 -32.713  23.253  1.00  0.00     0.053 C 
BRANCH   7   8
ATOM      8  C   UNL     1      18.071 -32.251  24.568  1.00  0.00     0.041 C 
ATOM      9  O   UNL     1      18.122 -33.004  25.575  1.00  0.00    -0.550 OA
ATOM     10  O   UNL     1      17.548 -30.970  24.692  1.00  0.00    -0.550 OA
ENDBRANCH   7   8
ENDBRANCH   6   7
ENDBRANCH   5   6
ENDBRANCH   4   5
ENDBRANCH   3   4
ENDBRANCH   2   3
ENDBRANCH   1   2
BRANCH   1  11
ATOM     11  C   UNL     1      15.745 -35.136  20.173  1.00  0.00     0.000 C 
BRANCH  11  12
ATOM     12  C   UNL     1      15.820 -35.014  21.711  1.00  0.00     0.000 C 
BRANCH  12  13
ATOM     13  C   UNL     1      15.131 -33.743  22.238  1.00  0.00     0.000 C 
BRANCH  13  14
ATOM     14  C   UNL     1      14.887 -33.779  23.758  1.00  0.00     0.000 C 
BRANCH  14  15
ATOM     15  C   UNL     1      14.098 -32.582  24.319  1.00  0.00     0.000 C 
BRANCH  15  16
ATOM     16  C   UNL     1      14.355 -31.279  23.549  1.00  0.00     0.006 C 
BRANCH  16  17
ATOM     17  C   UNL     1      13.236 -30.264  23.798  1.00  0.00     0.053 C 
BRANCH  17  18
ATOM     18  C   UNL     1      12.192 -30.362  22.731  1.00  0.00     0.041 C 
ATOM     19  O   UNL     1      12.301 -31.220  21.816  1.00  0.00    -0.550 OA
ATOM     20  O   UNL     1      11.123 -29.476  22.719  1.00  0.00    -0.550 OA
ENDBRANCH  17  18
ENDBRANCH  16  17
ENDBRANCH  15  16
ENDBRANCH  14  15
ENDBRANCH  13  14
ENDBRANCH  12  13
ENDBRANCH  11  12
ENDBRANCH   1  11
TORSDOF 15
ENDMDL
MODEL 2
REMARK VINA RESULT:    -4.550      2.917      6.476
REMARK INTER + INTRA:         -10.452
REMARK INTER:                  -8.295
REMARK INTRA:                  -2.157
REMARK UNBOUND:                -1.913
REMARK SMILES O=C([O-])CCCCCCCCCCCCCCC(=O)[O-]
REMARK SMILES IDX 10 1 9 2 8 3 7 4 6 5 5 6 4 7 2 8 1 9 3 10 11 11 12 12 13 13
REMARK SMILES IDX 14 14 15 15 16 16 17 17 18 18 19 19 20 20
REMARK H PARENT
REMARK Flexibility Score: inf
ROOT
ATOM      1  C   UNL     1      14.093 -30.202  23.941  1.00  0.00     0.000 C 
ENDROOT
BRANCH   1   2
ATOM      2  C   UNL     1      13.424 -31.500  23.453  1.00  0.00     0.000 C 
BRANCH   2   3
ATOM      3  C   UNL     1      12.790 -31.423  22.049  1.00  0.00     0.000 C 
BRANCH   3   4
ATOM      4  C   UNL     1      13.582 -32.129  20.935  1.00  0.00     0.000 C 
BRANCH   4   5
ATOM      5  C   UNL     1      14.444 -33.289  21.457  1.00  0.00     0.000 C 
BRANCH   5   6
ATOM      6  C   UNL     1      14.924 -34.178  20.305  1.00  0.00     0.006 C 
BRANCH   6   7
ATOM      7  C   UNL     1      15.790 -35.330  20.823  1.00  0.00     0.053 C 
BRANCH   7   8
ATOM      8  C   UNL     1      16.657 -35.866  19.728  1.00  0.00     0.041 C 
ATOM      9  O   UNL     1      17.269 -35.079  18.960  1.00  0.00    -0.550 OA
ATOM     10  O   UNL     1      16.825 -37.238  19.584  1.00  0.00    -0.550 OA
ENDBRANCH   7   8
ENDBRANCH   6   7
ENDBRANCH   5   6
ENDBRANCH   4   5
ENDBRANCH   3   4
ENDBRANCH   2   3
ENDBRANCH   1   2
BRANCH   1  11
ATOM     11  C   UNL     1      15.428 -29.859  23.255  1.00  0.00     0.000 C 
BRANCH  11  12
ATOM     12  C   UNL     1      16.633 -30.659  23.797  1.00  0.00     0.000 C 
BRANCH  12  13
ATOM     13  C   UNL     1      17.783 -30.760  22.779  1.00  0.00     0.000 C 
BRANCH  13  14
ATOM     14  C   UNL     1      17.289 -30.917  21.330  1.00  0.00     0.000 C 
BRANCH  14  15
ATOM     15  C   UNL     1      17.994 -32.018  20.517  1.00  0.00     0.000 C 
BRANCH  15  16
ATOM     16  C   UNL     1      19.365 -32.404  21.092  1.00  0.00     0.006 C 
BRANCH  16  17
ATOM     17  C   UNL     1      19.410 -33.891  21.455  1.00  0.00     0.053 C 
BRANCH  17  18
ATOM     18  C   UNL     1      19.215 -34.077  22.926  1.00  0.00     0.041 C 
ATOM     19  O   UNL     1      20.190 -33.959  23.714  1.00  0.00    -0.550 OA
ATOM     20  O   UNL     1      17.967 -34.428  23.424  1.00  0.00    -0.550 OA
ENDBRANCH  17  18
ENDBRANCH  16  17
ENDBRANCH  15  16
ENDBRANCH  14  15
ENDBRANCH  13  14
ENDBRANCH  12  13
ENDBRANCH  11  12
ENDBRANCH   1  11
TORSDOF 15
ENDMDL
MODEL 3
REMARK VINA RESULT:    -4.486      3.702      6.825
REMARK INTER + INTRA:         -10.333
REMARK INTER:                  -8.664
REMARK INTRA:                  -1.669
REMARK UNBOUND:                -1.913
REMARK SMILES O=C([O-])CCCCCCCCCCCCCCC(=O)[O-]
REMARK SMILES IDX 10 1 9 2 8 3 7 4 6 5 5 6 4 7 2 8 1 9 3 10 11 11 12 12 13 13
REMARK SMILES IDX 14 14 15 15 16 16 17 17 18 18 19 19 20 20
REMARK H PARENT
REMARK Flexibility Score: inf
ROOT
ATOM      1  C   UNL     1      16.624 -30.898  23.472  1.00  0.00     0.000 C 
ENDROOT
BRANCH   1   2
ATOM      2  C   UNL     1      15.121 -30.904  23.811  1.00  0.00     0.000 C 
BRANCH   2   3
ATOM      3  C   UNL     1      14.191 -30.433  22.674  1.00  0.00     0.000 C 
BRANCH   3   4
ATOM      4  C   UNL     1      13.223 -31.503  22.138  1.00  0.00     0.000 C 
BRANCH   4   5
ATOM      5  C   UNL     1      13.767 -32.234  20.901  1.00  0.00     0.000 C 
BRANCH   5   6
ATOM      6  C   UNL     1      14.528 -33.503  21.305  1.00  0.00     0.006 C 
BRANCH   6   7
ATOM      7  C   UNL     1      14.983 -34.287  20.070  1.00  0.00     0.053 C 
BRANCH   7   8
ATOM      8  C   UNL     1      16.060 -35.260  20.436  1.00  0.00     0.041 C 
ATOM      9  O   UNL     1      16.674 -35.893  19.539  1.00  0.00    -0.550 OA
ATOM     10  O   UNL     1      16.414 -35.434  21.768  1.00  0.00    -0.550 OA
ENDBRANCH   7   8
ENDBRANCH   6   7
ENDBRANCH   5   6
ENDBRANCH   4   5
ENDBRANCH   3   4
ENDBRANCH   2   3
ENDBRANCH   1   2
BRANCH   1  11
ATOM     11  C   UNL     1      16.975 -30.338  22.081  1.00  0.00     0.000 C 
BRANCH  11  12
ATOM     12  C   UNL     1      17.440 -31.414  21.074  1.00  0.00     0.000 C 
BRANCH  12  13
ATOM     13  C   UNL     1      18.644 -32.224  21.588  1.00  0.00     0.000 C 
BRANCH  13  14
ATOM     14  C   UNL     1      19.990 -31.697  21.060  1.00  0.00     0.000 C 
BRANCH  14  15
ATOM     15  C   UNL     1      20.557 -30.483  21.819  1.00  0.00     0.000 C 
BRANCH  15  16
ATOM     16  C   UNL     1      21.034 -29.360  20.885  1.00  0.00     0.006 C 
BRANCH  16  17
ATOM     17  C   UNL     1      20.184 -28.099  21.064  1.00  0.00     0.053 C 
BRANCH  17  18
ATOM     18  C   UNL     1      20.953 -26.886  20.645  1.00  0.00     0.041 C 
ATOM     19  O   UNL     1      22.206 -26.861  20.754  1.00  0.00    -0.550 OA
ATOM     20  O   UNL     1      20.280 -25.765  20.176  1.00  0.00    -0.550 OA
ENDBRANCH  17  18
ENDBRANCH  16  17
ENDBRANCH  15  16
ENDBRANCH  14  15
ENDBRANCH  13  14
ENDBRANCH  12  13
ENDBRANCH  11  12
ENDBRANCH   1  11
TORSDOF 15
ENDMDL
MODEL 4
REMARK VINA RESULT:    -4.478      1.658      5.166
REMARK INTER + INTRA:         -10.317
REMARK INTER:                  -8.207
REMARK INTRA:                  -2.110
REMARK UNBOUND:                -1.913
REMARK SMILES O=C([O-])CCCCCCCCCCCCCCC(=O)[O-]
REMARK SMILES IDX 10 1 9 2 8 3 7 4 6 5 5 6 4 7 2 8 1 9 3 10 11 11 12 12 13 13
REMARK SMILES IDX 14 14 15 15 16 16 17 17 18 18 19 19 20 20
REMARK H PARENT
REMARK Flexibility Score: inf
ROOT
ATOM      1  C   UNL     1      19.475 -33.388  20.603  1.00  0.00     0.000 C 
ENDROOT
BRANCH   1   2
ATOM      2  C   UNL     1      18.358 -32.359  20.866  1.00  0.00     0.000 C 
BRANCH   2   3
ATOM      3  C   UNL     1      18.333 -31.769  22.290  1.00  0.00     0.000 C 
BRANCH   3   4
ATOM      4  C   UNL     1      17.445 -30.524  22.465  1.00  0.00     0.000 C 
BRANCH   4   5
ATOM      5  C   UNL     1      16.014 -30.868  22.906  1.00  0.00     0.000 C 
BRANCH   5   6
ATOM      6  C   UNL     1      14.998 -30.468  21.829  1.00  0.00     0.006 C 
BRANCH   6   7
ATOM      7  C   UNL     1      13.855 -31.485  21.748  1.00  0.00     0.053 C 
BRANCH   7   8
ATOM      8  C   UNL     1      12.618 -30.933  22.385  1.00  0.00     0.041 C 
ATOM      9  O   UNL     1      11.490 -31.151  21.873  1.00  0.00    -0.550 OA
ATOM     10  O   UNL     1      12.710 -30.216  23.571  1.00  0.00    -0.550 OA
ENDBRANCH   7   8
ENDBRANCH   6   7
ENDBRANCH   5   6
ENDBRANCH   4   5
ENDBRANCH   3   4
ENDBRANCH   2   3
ENDBRANCH   1   2
BRANCH   1  11
ATOM     11  C   UNL     1      19.128 -34.476  19.571  1.00  0.00     0.000 C 
BRANCH  11  12
ATOM     12  C   UNL     1      17.675 -34.405  19.053  1.00  0.00     0.000 C 
BRANCH  12  13
ATOM     13  C   UNL     1      16.864 -35.669  19.391  1.00  0.00     0.000 C 
BRANCH  13  14
ATOM     14  C   UNL     1      16.606 -35.831  20.900  1.00  0.00     0.000 C 
BRANCH  14  15
ATOM     15  C   UNL     1      15.608 -34.825  21.501  1.00  0.00     0.000 C 
BRANCH  15  16
ATOM     16  C   UNL     1      15.845 -34.563  22.996  1.00  0.00     0.006 C 
BRANCH  16  17
ATOM     17  C   UNL     1      17.113 -35.272  23.482  1.00  0.00     0.053 C 
BRANCH  17  18
ATOM     18  C   UNL     1      17.036 -35.531  24.953  1.00  0.00     0.041 C 
ATOM     19  O   UNL     1      17.214 -36.694  25.401  1.00  0.00    -0.550 OA
ATOM     20  O   UNL     1      16.721 -34.498  25.826  1.00  0.00    -0.550 OA
ENDBRANCH  17  18
ENDBRANCH  16  17
ENDBRANCH  15  16
ENDBRANCH  14  15
ENDBRANCH  13  14
ENDBRANCH  12  13
ENDBRANCH  11  12
ENDBRANCH   1  11
TORSDOF 15
ENDMDL
MODEL 5
REMARK VINA RESULT:    -4.447      4.619      5.945
REMARK INTER + INTRA:         -10.259
REMARK INTER:                  -8.850
REMARK INTRA:                  -1.410
REMARK UNBOUND:                -1.913
REMARK SMILES O=C([O-])CCCCCCCCCCCCCCC(=O)[O-]
REMARK SMILES IDX 10 1 9 2 8 3 7 4 6 5 5 6 4 7 2 8 1 9 3 10 11 11 12 12 13 13
REMARK SMILES IDX 14 14 15 15 16 16 17 17 18 18 19 19 20 20
REMARK H PARENT
REMARK Flexibility Score: inf
ROOT
ATOM      1  C   UNL     1      18.531 -30.751  21.242  1.00  0.00     0.000 C 
ENDROOT
BRANCH   1   2
ATOM      2  C   UNL     1      18.245 -29.238  21.266  1.00  0.00     0.000 C 
BRANCH   2   3
ATOM      3  C   UNL     1      19.446 -28.338  20.909  1.00  0.00     0.000 C 
BRANCH   3   4
ATOM      4  C   UNL     1      20.814 -29.042  20.918  1.00  0.00     0.000 C 
BRANCH   4   5
ATOM      5  C   UNL     1      21.787 -28.443  21.945  1.00  0.00     0.000 C 
BRANCH   5   6
ATOM      6  C   UNL     1      22.939 -27.710  21.247  1.00  0.00     0.006 C 
BRANCH   6   7
ATOM      7  C   UNL     1      22.852 -26.199  21.484  1.00  0.00     0.053 C 
BRANCH   7   8
ATOM      8  C   UNL     1      22.416 -25.498  20.236  1.00  0.00     0.041 C 
ATOM      9  O   UNL     1      21.235 -25.622  19.819  1.00  0.00    -0.550 OA
ATOM     10  O   UNL     1      23.303 -24.672  19.557  1.00  0.00    -0.550 OA
ENDBRANCH   7   8
ENDBRANCH   6   7
ENDBRANCH   5   6
ENDBRANCH   4   5
ENDBRANCH   3   4
ENDBRANCH   2   3
ENDBRANCH   1   2
BRANCH   1  11
ATOM     11  C   UNL     1      18.209 -31.496  22.551  1.00  0.00     0.000 C 
BRANCH  11  12
ATOM     12  C   UNL     1      17.427 -30.646  23.577  1.00  0.00     0.000 C 
BRANCH  12  13
ATOM     13  C   UNL     1      16.029 -31.216  23.874  1.00  0.00     0.000 C 
BRANCH  13  14
ATOM     14  C   UNL     1      14.897 -30.220  23.564  1.00  0.00     0.000 C 
BRANCH  14  15
ATOM     15  C   UNL     1      13.896 -30.684  22.490  1.00  0.00     0.000 C 
BRANCH  15  16
ATOM     16  C   UNL     1      14.580 -31.277  21.249  1.00  0.00     0.006 C 
BRANCH  16  17
ATOM     17  C   UNL     1      13.835 -32.519  20.752  1.00  0.00     0.053 C 
BRANCH  17  18
ATOM     18  C   UNL     1      14.634 -33.754  21.028  1.00  0.00     0.041 C 
ATOM     19  O   UNL     1      15.021 -34.009  22.198  1.00  0.00    -0.550 OA
ATOM     20  O   UNL     1      14.991 -34.598  19.984  1.00  0.00    -0.550 OA
ENDBRANCH  17  18
ENDBRANCH  16  17
ENDBRANCH  15  16
ENDBRANCH  14  15
ENDBRANCH  13  14
ENDBRANCH  12  13
ENDBRANCH  11  12
ENDBRANCH   1  11
TORSDOF 15
ENDMDL
MODEL 6
REMARK VINA RESULT:    -4.442      1.534      5.100
REMARK INTER + INTRA:         -10.250
REMARK INTER:                  -7.939
REMARK INTRA:                  -2.311
REMARK UNBOUND:                -1.913
REMARK SMILES O=C([O-])CCCCCCCCCCCCCCC(=O)[O-]
REMARK SMILES IDX 10 1 9 2 8 3 7 4 6 5 5 6 4 7 2 8 1 9 3 10 11 11 12 12 13 13
REMARK SMILES IDX 14 14 15 15 16 16 17 17 18 18 19 19 20 20
REMARK H PARENT
REMARK Flexibility Score: inf
ROOT
ATOM      1  C   UNL     1      18.078 -34.763  19.343  1.00  0.00     0.000 C 
ENDROOT
BRANCH   1   2
ATOM      2  C   UNL     1      16.547 -34.907  19.425  1.00  0.00     0.000 C 
BRANCH   2   3
ATOM      3  C   UNL     1      15.988 -35.169  20.838  1.00  0.00     0.000 C 
BRANCH   3   4
ATOM      4  C   UNL     1      15.066 -34.068  21.390  1.00  0.00     0.000 C 
BRANCH   4   5
ATOM      5  C   UNL     1      14.201 -33.411  20.303  1.00  0.00     0.000 C 
BRANCH   5   6
ATOM      6  C   UNL     1      13.633 -32.073  20.788  1.00  0.00     0.006 C 
BRANCH   6   7
ATOM      7  C   UNL     1      13.811 -31.916  22.302  1.00  0.00     0.053 C 
BRANCH   7   8
ATOM      8  C   UNL     1      12.829 -30.925  22.843  1.00  0.00     0.041 C 
ATOM      9  O   UNL     1      11.756 -30.694  22.229  1.00  0.00    -0.550 OA
ATOM     10  O   UNL     1      13.082 -30.288  24.052  1.00  0.00    -0.550 OA
ENDBRANCH   7   8
ENDBRANCH   6   7
ENDBRANCH   5   6
ENDBRANCH   4   5
ENDBRANCH   3   4
ENDBRANCH   2   3
ENDBRANCH   1   2
BRANCH   1  11
ATOM     11  C   UNL     1      18.766 -34.362  20.662  1.00  0.00     0.000 C 
BRANCH  11  12
ATOM     12  C   UNL     1      19.907 -33.337  20.483  1.00  0.00     0.000 C 
BRANCH  12  13
ATOM     13  C   UNL     1      19.504 -31.919  20.929  1.00  0.00     0.000 C 
BRANCH  13  14
ATOM     14  C   UNL     1      17.980 -31.705  20.940  1.00  0.00     0.000 C 
BRANCH  14  15
ATOM     15  C   UNL     1      17.418 -31.087  22.233  1.00  0.00     0.000 C 
BRANCH  15  16
ATOM     16  C   UNL     1      17.997 -31.726  23.504  1.00  0.00     0.006 C 
BRANCH  16  17
ATOM     17  C   UNL     1      16.993 -32.693  24.138  1.00  0.00     0.053 C 
BRANCH  17  18
ATOM     18  C   UNL     1      17.577 -34.067  24.232  1.00  0.00     0.041 C 
ATOM     19  O   UNL     1      16.837 -35.054  24.484  1.00  0.00    -0.550 OA
ATOM     20  O   UNL     1      18.946 -34.252  24.089  1.00  0.00    -0.550 OA
ENDBRANCH  17  18
ENDBRANCH  16  17
ENDBRANCH  15  16
ENDBRANCH  14  15
ENDBRANCH  13  14
ENDBRANCH  12  13
ENDBRANCH  11  12
ENDBRANCH   1  11
TORSDOF 15
ENDMDL
MODEL 7
REMARK VINA RESULT:    -4.429      2.537      6.375
REMARK INTER + INTRA:         -10.225
REMARK INTER:                  -7.755
REMARK INTRA:                  -2.470
REMARK UNBOUND:                -1.913
REMARK SMILES O=C([O-])CCCCCCCCCCCCCCC(=O)[O-]
REMARK SMILES IDX 10 1 9 2 8 3 7 4 6 5 5 6 4 7 2 8 1 9 3 10 11 11 12 12 13 13
REMARK SMILES IDX 14 14 15 15 16 16 17 17 18 18 19 19 20 20
REMARK H PARENT
REMARK Flexibility Score: inf
ROOT
ATOM      1  C   UNL     1      18.138 -33.373  23.921  1.00  0.00     0.000 C 
ENDROOT
BRANCH   1   2
ATOM      2  C   UNL     1      17.002 -33.628  24.929  1.00  0.00     0.000 C 
BRANCH   2   3
ATOM      3  C   UNL     1      15.702 -34.195  24.322  1.00  0.00     0.000 C 
BRANCH   3   4
ATOM      4  C   UNL     1      14.578 -33.166  24.109  1.00  0.00     0.000 C 
BRANCH   4   5
ATOM      5  C   UNL     1      14.443 -32.724  22.643  1.00  0.00     0.000 C 
BRANCH   5   6
ATOM      6  C   UNL     1      14.494 -31.196  22.524  1.00  0.00     0.006 C 
BRANCH   6   7
ATOM      7  C   UNL     1      14.193 -30.530  23.870  1.00  0.00     0.053 C 
BRANCH   7   8
ATOM      8  C   UNL     1      12.873 -29.826  23.823  1.00  0.00     0.041 C 
ATOM      9  O   UNL     1      12.581 -28.966  24.693  1.00  0.00    -0.550 OA
ATOM     10  O   UNL     1      11.983 -30.090  22.789  1.00  0.00    -0.550 OA
ENDBRANCH   7   8
ENDBRANCH   6   7
ENDBRANCH   5   6
ENDBRANCH   4   5
ENDBRANCH   3   4
ENDBRANCH   2   3
ENDBRANCH   1   2
BRANCH   1  11
ATOM     11  C   UNL     1      18.216 -31.933  23.378  1.00  0.00     0.000 C 
BRANCH  11  12
ATOM     12  C   UNL     1      18.741 -31.840  21.928  1.00  0.00     0.000 C 
BRANCH  12  13
ATOM     13  C   UNL     1      17.654 -32.156  20.885  1.00  0.00     0.000 C 
BRANCH  13  14
ATOM     14  C   UNL     1      17.896 -33.486  20.150  1.00  0.00     0.000 C 
BRANCH  14  15
ATOM     15  C   UNL     1      16.654 -34.383  20.000  1.00  0.00     0.000 C 
BRANCH  15  16
ATOM     16  C   UNL     1      16.623 -35.539  21.012  1.00  0.00     0.006 C 
BRANCH  16  17
ATOM     17  C   UNL     1      18.041 -35.964  21.403  1.00  0.00     0.053 C 
BRANCH  17  18
ATOM     18  C   UNL     1      18.209 -37.441  21.236  1.00  0.00     0.041 C 
ATOM     19  O   UNL     1      17.573 -38.054  20.338  1.00  0.00    -0.550 OA
ATOM     20  O   UNL     1      19.033 -38.150  22.101  1.00  0.00    -0.550 OA
ENDBRANCH  17  18
ENDBRANCH  16  17
ENDBRANCH  15  16
ENDBRANCH  14  15
ENDBRANCH  13  14
ENDBRANCH  12  13
ENDBRANCH  11  12
ENDBRANCH   1  11
TORSDOF 15
ENDMDL
MODEL 8
REMARK VINA RESULT:    -4.408      1.878      3.761
REMARK INTER + INTRA:         -10.187
REMARK INTER:                  -7.974
REMARK INTRA:                  -2.213
REMARK UNBOUND:                -1.913
REMARK SMILES O=C([O-])CCCCCCCCCCCCCCC(=O)[O-]
REMARK SMILES IDX 10 1 9 2 8 3 7 4 6 5 5 6 4 7 2 8 1 9 3 10 11 11 12 12 13 13
REMARK SMILES IDX 14 14 15 15 16 16 17 17 18 18 19 19 20 20
REMARK H PARENT
REMARK Flexibility Score: inf
ROOT
ATOM      1  C   UNL     1      18.735 -33.807  22.642  1.00  0.00     0.000 C 
ENDROOT
BRANCH   1   2
ATOM      2  C   UNL     1      18.470 -35.319  22.760  1.00  0.00     0.000 C 
BRANCH   2   3
ATOM      3  C   UNL     1      18.815 -36.145  21.504  1.00  0.00     0.000 C 
BRANCH   3   4
ATOM      4  C   UNL     1      17.629 -36.436  20.568  1.00  0.00     0.000 C 
BRANCH   4   5
ATOM      5  C   UNL     1      17.525 -35.437  19.406  1.00  0.00     0.000 C 
BRANCH   5   6
ATOM      6  C   UNL     1      16.215 -34.643  19.481  1.00  0.00     0.006 C 
BRANCH   6   7
ATOM      7  C   UNL     1      15.364 -35.098  20.670  1.00  0.00     0.053 C 
BRANCH   7   8
ATOM      8  C   UNL     1      14.954 -33.922  21.500  1.00  0.00     0.041 C 
ATOM      9  O   UNL     1      15.199 -33.900  22.734  1.00  0.00    -0.550 OA
ATOM     10  O   UNL     1      14.339 -32.831  20.901  1.00  0.00    -0.550 OA
ENDBRANCH   7   8
ENDBRANCH   6   7
ENDBRANCH   5   6
ENDBRANCH   4   5
ENDBRANCH   3   4
ENDBRANCH   2   3
ENDBRANCH   1   2
BRANCH   1  11
ATOM     11  C   UNL     1      19.738 -33.405  21.545  1.00  0.00     0.000 C 
BRANCH  11  12
ATOM     12  C   UNL     1      19.421 -32.050  20.875  1.00  0.00     0.000 C 
BRANCH  12  13
ATOM     13  C   UNL     1      17.920 -31.712  20.906  1.00  0.00     0.000 C 
BRANCH  13  14
ATOM     14  C   UNL     1      17.615 -30.407  21.665  1.00  0.00     0.000 C 
BRANCH  14  15
ATOM     15  C   UNL     1      16.780 -30.579  22.947  1.00  0.00     0.000 C 
BRANCH  15  16
ATOM     16  C   UNL     1      15.374 -29.972  22.834  1.00  0.00     0.006 C 
BRANCH  16  17
ATOM     17  C   UNL     1      14.394 -30.678  23.774  1.00  0.00     0.053 C 
BRANCH  17  18
ATOM     18  C   UNL     1      13.008 -30.149  23.582  1.00  0.00     0.041 C 
ATOM     19  O   UNL     1      12.282 -30.596  22.656  1.00  0.00    -0.550 OA
ATOM     20  O   UNL     1      12.534 -29.127  24.395  1.00  0.00    -0.550 OA
ENDBRANCH  17  18
ENDBRANCH  16  17
ENDBRANCH  15  16
ENDBRANCH  14  15
ENDBRANCH  13  14
ENDBRANCH  12  13
ENDBRANCH  11  12
ENDBRANCH   1  11
TORSDOF 15
ENDMDL
MODEL 9
REMARK VINA RESULT:    -4.396      2.379      3.644
REMARK INTER + INTRA:         -10.164
REMARK INTER:                  -7.884
REMARK INTRA:                  -2.280
REMARK UNBOUND:                -1.913
REMARK SMILES O=C([O-])CCCCCCCCCCCCCCC(=O)[O-]
REMARK SMILES IDX 10 1 9 2 8 3 7 4 6 5 5 6 4 7 2 8 1 9 3 10 11 11 12 12 13 13
REMARK SMILES IDX 14 14 15 15 16 16 17 17 18 18 19 19 20 20
REMARK H PARENT
REMARK Flexibility Score: inf
ROOT
ATOM      1  C   UNL     1      18.294 -33.972  19.789  1.00  0.00     0.000 C 
ENDROOT
BRANCH   1   2
ATOM      2  C   UNL     1      17.048 -34.640  19.178  1.00  0.00     0.000 C 
BRANCH   2   3
ATOM      3  C   UNL     1      16.584 -35.931  19.884  1.00  0.00     0.000 C 
BRANCH   3   4
ATOM      4  C   UNL     1      17.227 -37.228  19.359  1.00  0.00     0.000 C 
BRANCH   4   5
ATOM      5  C   UNL     1      17.978 -38.006  20.450  1.00  0.00     0.000 C 
BRANCH   5   6
ATOM      6  C   UNL     1      18.201 -37.134  21.691  1.00  0.00     0.006 C 
BRANCH   6   7
ATOM      7  C   UNL     1      19.550 -37.447  22.347  1.00  0.00     0.053 C 
BRANCH   7   8
ATOM      8  C   UNL     1      20.193 -36.191  22.845  1.00  0.00     0.041 C 
ATOM      9  O   UNL     1      20.221 -35.938  24.077  1.00  0.00    -0.550 OA
ATOM     10  O   UNL     1      20.801 -35.321  21.949  1.00  0.00    -0.550 OA
ENDBRANCH   7   8
ENDBRANCH   6   7
ENDBRANCH   5   6
ENDBRANCH   4   5
ENDBRANCH   3   4
ENDBRANCH   2   3
ENDBRANCH   1   2
BRANCH   1  11
ATOM     11  C   UNL     1      18.035 -32.623  20.486  1.00  0.00     0.000 C 
BRANCH  11  12
ATOM     12  C   UNL     1      18.362 -32.627  21.995  1.00  0.00     0.000 C 
BRANCH  12  13
ATOM     13  C   UNL     1      17.515 -33.644  22.781  1.00  0.00     0.000 C 
BRANCH  13  14
ATOM     14  C   UNL     1      16.108 -33.117  23.121  1.00  0.00     0.000 C 
BRANCH  14  15
ATOM     15  C   UNL     1      14.959 -33.785  22.345  1.00  0.00     0.000 C 
BRANCH  15  16
ATOM     16  C   UNL     1      14.387 -32.893  21.233  1.00  0.00     0.006 C 
BRANCH  16  17
ATOM     17  C   UNL     1      14.408 -31.419  21.647  1.00  0.00     0.053 C 
BRANCH  17  18
ATOM     18  C   UNL     1      13.207 -31.090  22.476  1.00  0.00     0.041 C 
ATOM     19  O   UNL     1      12.053 -31.181  21.982  1.00  0.00    -0.550 OA
ATOM     20  O   UNL     1      13.365 -30.637  23.780  1.00  0.00    -0.550 OA
ENDBRANCH  17  18
ENDBRANCH  16  17
ENDBRANCH  15  16
ENDBRANCH  14  15
ENDBRANCH  13  14
ENDBRANCH  12  13
ENDBRANCH  11  12
ENDBRANCH   1  11
TORSDOF 15
ENDMDL
