MODEL 1
REMARK VINA RESULT:    -5.353      0.000      0.000
REMARK INTER + INTRA:          -5.509
REMARK INTER:                  -5.509
REMARK INTRA:                   0.000
REMARK UNBOUND:                 0.000
REMARK SMILES Nc1ncnc2nc[nH]c12
REMARK SMILES IDX 8 1 7 2 6 3 5 4 4 5 3 6 2 7 10 8 9 9 1 11
REMARK H PARENT 9 10 1 12 1 13
REMARK Flexibility Score: inf
ROOT
ATOM      1  C   UNL     1      20.374  45.644  -3.577  1.00  0.00     0.199 A 
ATOM      2  N   UNL     1      20.806  46.697  -4.324  1.00  0.00    -0.217 NA
ATOM      3  C   UNL     1      20.852  46.172  -5.559  1.00  0.00     0.182 A 
ATOM      4  N   UNL     1      21.224  46.809  -6.695  1.00  0.00    -0.215 NA
ATOM      5  C   UNL     1      21.206  46.104  -7.867  1.00  0.00     0.226 A 
ATOM      6  N   UNL     1      20.818  44.787  -7.881  1.00  0.00    -0.217 NA
ATOM      7  C   UNL     1      20.442  44.143  -6.736  1.00  0.00     0.152 A 
ATOM      8  C   UNL     1      20.466  44.875  -5.551  1.00  0.00     0.127 A 
ATOM      9  N   UNL     1      20.158  44.516  -4.300  1.00  0.00    -0.340 N 
ATOM     10  H   UNL     1      19.827  43.590  -3.949  1.00  0.00     0.168 HD
ENDROOT
BRANCH   7  11
ATOM     11  N   UNL     1      20.043  42.773  -6.775  1.00  0.00    -0.382 N 
ATOM     12  H   UNL     1      19.725  42.347  -7.674  1.00  0.00     0.158 HD
ATOM     13  H   UNL     1      20.058  42.177  -5.919  1.00  0.00     0.158 HD
ENDBRANCH   7  11
TORSDOF 1
ENDMDL
MODEL 2
REMARK VINA RESULT:    -5.096      0.897      3.007
REMARK INTER + INTRA:          -5.245
REMARK INTER:                  -5.245
REMARK INTRA:                   0.000
REMARK UNBOUND:                 0.000
REMARK SMILES Nc1ncnc2nc[nH]c12
REMARK SMILES IDX 8 1 7 2 6 3 5 4 4 5 3 6 2 7 10 8 9 9 1 11
REMARK H PARENT 9 10 1 12 1 13
REMARK Flexibility Score: inf
ROOT
ATOM      1  C   UNL     1      20.497  43.896  -7.307  1.00  0.00     0.199 A 
ATOM      2  N   UNL     1      20.913  45.157  -7.607  1.00  0.00    -0.217 NA
ATOM      3  C   UNL     1      20.826  45.777  -6.420  1.00  0.00     0.182 A 
ATOM      4  N   UNL     1      21.131  47.071  -6.158  1.00  0.00    -0.215 NA
ATOM      5  C   UNL     1      20.977  47.525  -4.877  1.00  0.00     0.226 A 
ATOM      6  N   UNL     1      20.528  46.684  -3.890  1.00  0.00    -0.217 NA
ATOM      7  C   UNL     1      20.221  45.379  -4.151  1.00  0.00     0.152 A 
ATOM      8  C   UNL     1      20.383  44.932  -5.460  1.00  0.00     0.127 A 
ATOM      9  N   UNL     1      20.164  43.728  -6.002  1.00  0.00    -0.340 N 
ATOM     10  H   UNL     1      19.821  42.857  -5.541  1.00  0.00     0.168 HD
ENDROOT
BRANCH   7  11
ATOM     11  N   UNL     1      19.755  44.522  -3.108  1.00  0.00    -0.382 N 
ATOM     12  H   UNL     1      18.866  44.745  -2.607  1.00  0.00     0.158 HD
ATOM     13  H   UNL     1      20.285  43.669  -2.827  1.00  0.00     0.158 HD
ENDBRANCH   7  11
TORSDOF 1
ENDMDL
MODEL 3
REMARK VINA RESULT:    -5.057      1.496      3.625
REMARK INTER + INTRA:          -5.205
REMARK INTER:                  -5.205
REMARK INTRA:                   0.000
REMARK UNBOUND:                 0.000
REMARK SMILES Nc1ncnc2nc[nH]c12
REMARK SMILES IDX 8 1 7 2 6 3 5 4 4 5 3 6 2 7 10 8 9 9 1 11
REMARK H PARENT 9 10 1 12 1 13
REMARK Flexibility Score: inf
ROOT
ATOM      1  C   UNL     1      20.349  45.176  -6.217  1.00  0.00     0.199 A 
ATOM      2  N   UNL     1      20.666  46.484  -6.012  1.00  0.00    -0.217 NA
ATOM      3  C   UNL     1      20.649  46.577  -4.674  1.00  0.00     0.182 A 
ATOM      4  N   UNL     1      20.902  47.685  -3.936  1.00  0.00    -0.215 NA
ATOM      5  C   UNL     1      20.836  47.583  -2.574  1.00  0.00     0.226 A 
ATOM      6  N   UNL     1      20.523  46.386  -1.979  1.00  0.00    -0.217 NA
ATOM      7  C   UNL     1      20.268  45.267  -2.721  1.00  0.00     0.152 A 
ATOM      8  C   UNL     1      20.339  45.388  -4.107  1.00  0.00     0.127 A 
ATOM      9  N   UNL     1      20.142  44.480  -5.070  1.00  0.00    -0.340 N 
ATOM     10  H   UNL     1      19.890  43.472  -4.976  1.00  0.00     0.168 HD
ENDROOT
BRANCH   7  11
ATOM     11  N   UNL     1      19.944  44.033  -2.081  1.00  0.00    -0.382 N 
ATOM     12  H   UNL     1      19.028  43.570  -2.273  1.00  0.00     0.158 HD
ATOM     13  H   UNL     1      20.605  43.574  -1.417  1.00  0.00     0.158 HD
ENDBRANCH   7  11
TORSDOF 1
ENDMDL
MODEL 4
REMARK VINA RESULT:    -4.946      1.130      2.987
REMARK INTER + INTRA:          -5.091
REMARK INTER:                  -5.091
REMARK INTRA:                   0.000
REMARK UNBOUND:                 0.000
REMARK SMILES Nc1ncnc2nc[nH]c12
REMARK SMILES IDX 8 1 7 2 6 3 5 4 4 5 3 6 2 7 10 8 9 9 1 11
REMARK H PARENT 9 10 1 12 1 13
REMARK Flexibility Score: inf
ROOT
ATOM      1  C   UNL     1      20.430  43.596  -6.844  1.00  0.00     0.199 A 
ATOM      2  N   UNL     1      20.834  44.487  -7.790  1.00  0.00    -0.217 NA
ATOM      3  C   UNL     1      20.904  45.632  -7.094  1.00  0.00     0.182 A 
ATOM      4  N   UNL     1      21.265  46.848  -7.570  1.00  0.00    -0.215 NA
ATOM      5  C   UNL     1      21.276  47.905  -6.702  1.00  0.00     0.226 A 
ATOM      6  N   UNL     1      20.932  47.728  -5.385  1.00  0.00    -0.217 NA
ATOM      7  C   UNL     1      20.568  46.503  -4.903  1.00  0.00     0.152 A 
ATOM      8  C   UNL     1      20.561  45.437  -5.799  1.00  0.00     0.127 A 
ATOM      9  N   UNL     1      20.254  44.148  -5.616  1.00  0.00    -0.340 N 
ATOM     10  H   UNL     1      19.950  43.666  -4.742  1.00  0.00     0.168 HD
ENDROOT
BRANCH   7  11
ATOM     11  N   UNL     1      20.213  46.342  -3.529  1.00  0.00    -0.382 N 
ATOM     12  H   UNL     1      19.741  47.121  -3.017  1.00  0.00     0.158 HD
ATOM     13  H   UNL     1      20.415  45.457  -3.014  1.00  0.00     0.158 HD
ENDBRANCH   7  11
TORSDOF 1
ENDMDL
MODEL 5
REMARK VINA RESULT:    -4.849      1.329      2.476
REMARK INTER + INTRA:          -4.991
REMARK INTER:                  -4.991
REMARK INTRA:                   0.000
REMARK UNBOUND:                 0.000
REMARK SMILES Nc1ncnc2nc[nH]c12
REMARK SMILES IDX 8 1 7 2 6 3 5 4 4 5 3 6 2 7 10 8 9 9 1 11
REMARK H PARENT 9 10 1 12 1 13
REMARK Flexibility Score: inf
ROOT
ATOM      1  C   UNL     1      20.740  48.694  -5.344  1.00  0.00     0.199 A 
ATOM      2  N   UNL     1      21.131  48.255  -6.572  1.00  0.00    -0.217 NA
ATOM      3  C   UNL     1      20.935  46.931  -6.480  1.00  0.00     0.182 A 
ATOM      4  N   UNL     1      21.170  46.009  -7.444  1.00  0.00    -0.215 NA
ATOM      5  C   UNL     1      20.906  44.697  -7.161  1.00  0.00     0.226 A 
ATOM      6  N   UNL     1      20.415  44.334  -5.932  1.00  0.00    -0.217 NA
ATOM      7  C   UNL     1      20.177  45.263  -4.958  1.00  0.00     0.152 A 
ATOM      8  C   UNL     1      20.451  46.594  -5.261  1.00  0.00     0.127 A 
ATOM      9  N   UNL     1      20.319  47.700  -4.520  1.00  0.00    -0.340 N 
ATOM     10  H   UNL     1      19.975  47.792  -3.539  1.00  0.00     0.168 HD
ENDROOT
BRANCH   7  11
ATOM     11  N   UNL     1      19.667  44.863  -3.686  1.00  0.00    -0.382 N 
ATOM     12  H   UNL     1      20.309  44.787  -2.866  1.00  0.00     0.158 HD
ATOM     13  H   UNL     1      18.656  44.640  -3.550  1.00  0.00     0.158 HD
ENDBRANCH   7  11
TORSDOF 1
ENDMDL
MODEL 6
REMARK VINA RESULT:    -4.844      1.697      2.422
REMARK INTER + INTRA:          -4.985
REMARK INTER:                  -4.985
REMARK INTRA:                   0.000
REMARK UNBOUND:                 0.000
REMARK SMILES Nc1ncnc2nc[nH]c12
REMARK SMILES IDX 8 1 7 2 6 3 5 4 4 5 3 6 2 7 10 8 9 9 1 11
REMARK H PARENT 9 10 1 12 1 13
REMARK Flexibility Score: inf
ROOT
ATOM      1  C   UNL     1      20.317  44.978  -1.697  1.00  0.00     0.199 A 
ATOM      2  N   UNL     1      20.839  46.234  -1.764  1.00  0.00    -0.217 NA
ATOM      3  C   UNL     1      20.804  46.489  -3.081  1.00  0.00     0.182 A 
ATOM      4  N   UNL     1      21.214  47.624  -3.696  1.00  0.00    -0.215 NA
ATOM      5  C   UNL     1      21.099  47.699  -5.057  1.00  0.00     0.226 A 
ATOM      6  N   UNL     1      20.579  46.648  -5.771  1.00  0.00    -0.217 NA
ATOM      7  C   UNL     1      20.164  45.502  -5.152  1.00  0.00     0.152 A 
ATOM      8  C   UNL     1      20.288  45.442  -3.766  1.00  0.00     0.127 A 
ATOM      9  N   UNL     1      19.972  44.467  -2.906  1.00  0.00    -0.340 N 
ATOM     10  H   UNL     1      19.556  43.531  -3.104  1.00  0.00     0.168 HD
ENDROOT
BRANCH   7  11
ATOM     11  N   UNL     1      19.627  44.422  -5.915  1.00  0.00    -0.382 N 
ATOM     12  H   UNL     1      20.151  43.521  -5.986  1.00  0.00     0.158 HD
ATOM     13  H   UNL     1      18.713  44.507  -6.410  1.00  0.00     0.158 HD
ENDBRANCH   7  11
TORSDOF 1
ENDMDL
MODEL 7
REMARK VINA RESULT:    -4.735      2.976      4.768
REMARK INTER + INTRA:          -4.873
REMARK INTER:                  -4.873
REMARK INTRA:                   0.000
REMARK UNBOUND:                 0.000
REMARK SMILES Nc1ncnc2nc[nH]c12
REMARK SMILES IDX 8 1 7 2 6 3 5 4 4 5 3 6 2 7 10 8 9 9 1 11
REMARK H PARENT 9 10 1 12 1 13
REMARK Flexibility Score: inf
ROOT
ATOM      1  C   UNL     1      20.571  46.376  -0.108  1.00  0.00     0.199 A 
ATOM      2  N   UNL     1      20.907  45.481  -1.076  1.00  0.00    -0.217 NA
ATOM      3  C   UNL     1      20.867  46.232  -2.187  1.00  0.00     0.182 A 
ATOM      4  N   UNL     1      21.125  45.821  -3.452  1.00  0.00    -0.215 NA
ATOM      5  C   UNL     1      21.033  46.738  -4.462  1.00  0.00     0.226 A 
ATOM      6  N   UNL     1      20.689  48.039  -4.192  1.00  0.00    -0.217 NA
ATOM      7  C   UNL     1      20.428  48.456  -2.917  1.00  0.00     0.152 A 
ATOM      8  C   UNL     1      20.526  47.510  -1.900  1.00  0.00     0.127 A 
ATOM      9  N   UNL     1      20.332  47.626  -0.581  1.00  0.00    -0.340 N 
ATOM     10  H   UNL     1      20.061  48.472  -0.033  1.00  0.00     0.168 HD
ENDROOT
BRANCH   7  11
ATOM     11  N   UNL     1      20.071  49.815  -2.659  1.00  0.00    -0.382 N 
ATOM     12  H   UNL     1      20.702  50.420  -2.087  1.00  0.00     0.158 HD
ATOM     13  H   UNL     1      19.187  50.226  -3.030  1.00  0.00     0.158 HD
ENDBRANCH   7  11
TORSDOF 1
ENDMDL
MODEL 8
REMARK VINA RESULT:    -4.731      0.868      2.893
REMARK INTER + INTRA:          -4.869
REMARK INTER:                  -4.869
REMARK INTRA:                   0.000
REMARK UNBOUND:                 0.000
REMARK SMILES Nc1ncnc2nc[nH]c12
REMARK SMILES IDX 8 1 7 2 6 3 5 4 4 5 3 6 2 7 10 8 9 9 1 11
REMARK H PARENT 9 10 1 12 1 13
REMARK Flexibility Score: inf
ROOT
ATOM      1  C   UNL     1      21.637  46.830  -8.370  1.00  0.00     0.199 A 
ATOM      2  N   UNL     1      21.522  47.597  -7.251  1.00  0.00    -0.217 NA
ATOM      3  C   UNL     1      21.012  46.731  -6.362  1.00  0.00     0.182 A 
ATOM      4  N   UNL     1      20.701  46.987  -5.069  1.00  0.00    -0.215 NA
ATOM      5  C   UNL     1      20.187  45.970  -4.313  1.00  0.00     0.226 A 
ATOM      6  N   UNL     1      19.996  44.725  -4.859  1.00  0.00    -0.217 NA
ATOM      7  C   UNL     1      20.308  44.464  -6.163  1.00  0.00     0.152 A 
ATOM      8  C   UNL     1      20.831  45.510  -6.919  1.00  0.00     0.127 A 
ATOM      9  N   UNL     1      21.221  45.550  -8.198  1.00  0.00    -0.340 N 
ATOM     10  H   UNL     1      21.214  44.784  -8.907  1.00  0.00     0.168 HD
ENDROOT
BRANCH   7  11
ATOM     11  N   UNL     1      20.100  43.161  -6.710  1.00  0.00    -0.382 N 
ATOM     12  H   UNL     1      19.194  42.928  -7.172  1.00  0.00     0.158 HD
ATOM     13  H   UNL     1      20.839  42.426  -6.660  1.00  0.00     0.158 HD
ENDBRANCH   7  11
TORSDOF 1
ENDMDL
MODEL 9
REMARK VINA RESULT:    -4.708      2.170      3.729
REMARK INTER + INTRA:          -4.846
REMARK INTER:                  -4.846
REMARK INTRA:                   0.000
REMARK UNBOUND:                 0.000
REMARK SMILES Nc1ncnc2nc[nH]c12
REMARK SMILES IDX 8 1 7 2 6 3 5 4 4 5 3 6 2 7 10 8 9 9 1 11
REMARK H PARENT 9 10 1 12 1 13
REMARK Flexibility Score: inf
ROOT
ATOM      1  C   UNL     1      20.687  45.123  -3.012  1.00  0.00     0.199 A 
ATOM      2  N   UNL     1      21.102  45.074  -4.307  1.00  0.00    -0.217 NA
ATOM      3  C   UNL     1      20.998  46.356  -4.689  1.00  0.00     0.182 A 
ATOM      4  N   UNL     1      21.294  46.863  -5.910  1.00  0.00    -0.215 NA
ATOM      5  C   UNL     1      21.123  48.205  -6.112  1.00  0.00     0.226 A 
ATOM      6  N   UNL     1      20.665  49.009  -5.098  1.00  0.00    -0.217 NA
ATOM      7  C   UNL     1      20.366  48.500  -3.865  1.00  0.00     0.152 A 
ATOM      8  C   UNL     1      20.546  47.132  -3.676  1.00  0.00     0.127 A 
ATOM      9  N   UNL     1      20.340  46.368  -2.598  1.00  0.00    -0.340 N 
ATOM     10  H   UNL     1      19.994  46.650  -1.654  1.00  0.00     0.168 HD
ENDROOT
BRANCH   7  11
ATOM     11  N   UNL     1      19.891  49.355  -2.825  1.00  0.00    -0.382 N 
ATOM     12  H   UNL     1      18.884  49.627  -2.793  1.00  0.00     0.158 HD
ATOM     13  H   UNL     1      20.531  49.720  -2.086  1.00  0.00     0.158 HD
ENDBRANCH   7  11
TORSDOF 1
ENDMDL
