MODEL 1
REMARK VINA RESULT:    -5.093      0.000      0.000
REMARK INTER + INTRA:          -6.152
REMARK INTER:                  -5.837
REMARK INTRA:                  -0.315
REMARK UNBOUND:                -0.315
REMARK SMILES COc1ccc(C(C)=O)c(O)c1
REMARK SMILES IDX 6 1 10 2 12 3 3 4 4 5 5 6 7 7 8 8 9 9 11 10 2 12 1 13
REMARK H PARENT 11 11
REMARK Flexibility Score: inf
ROOT
ATOM      1  C   UNL     1       3.605  27.888  56.894  1.00  0.00     0.059 A 
ATOM      2  C   UNL     1       3.471  27.918  55.487  1.00  0.00     0.130 A 
ATOM      3  C   UNL     1       2.250  28.293  54.908  1.00  0.00     0.093 A 
ATOM      4  C   UNL     1       1.158  28.656  55.702  1.00  0.00     0.122 A 
ATOM      5  C   UNL     1       1.296  28.645  57.100  1.00  0.00     0.047 A 
ATOM      6  C   UNL     1       2.506  28.268  57.686  1.00  0.00     0.019 A 
ENDROOT
BRANCH   1   7
ATOM      7  C   UNL     1       4.867  27.483  57.570  1.00  0.00     0.163 C 
ATOM      8  C   UNL     1       4.881  26.749  58.876  1.00  0.00     0.093 C 
ATOM      9  O   UNL     1       5.973  27.762  57.032  1.00  0.00    -0.294 OA
ENDBRANCH   1   7
BRANCH   2  10
ATOM     10  O   UNL     1       4.548  27.601  54.659  1.00  0.00    -0.507 OA
ATOM     11  H   UNL     1       4.415  27.148  53.762  1.00  0.00     0.293 HD
ENDBRANCH   2  10
BRANCH   4  12
ATOM     12  O   UNL     1      -0.037  29.023  55.066  1.00  0.00    -0.497 OA
ATOM     13  C   UNL     1      -0.277  30.298  54.480  1.00  0.00     0.278 C 
ENDBRANCH   4  12
TORSDOF 3
ENDMDL
MODEL 2
REMARK VINA RESULT:    -5.007      1.203      4.591
REMARK INTER + INTRA:          -6.054
REMARK INTER:                  -5.755
REMARK INTRA:                  -0.299
REMARK UNBOUND:                -0.315
REMARK SMILES COc1ccc(C(C)=O)c(O)c1
REMARK SMILES IDX 6 1 10 2 12 3 3 4 4 5 5 6 7 7 8 8 9 9 11 10 2 12 1 13
REMARK H PARENT 11 11
REMARK Flexibility Score: inf
ROOT
ATOM      1  C   UNL     1       1.669  28.622  56.294  1.00  0.00     0.059 A 
ATOM      2  C   UNL     1       2.719  28.589  55.347  1.00  0.00     0.130 A 
ATOM      3  C   UNL     1       3.985  28.115  55.722  1.00  0.00     0.093 A 
ATOM      4  C   UNL     1       4.226  27.655  57.021  1.00  0.00     0.122 A 
ATOM      5  C   UNL     1       3.178  27.670  57.957  1.00  0.00     0.047 A 
ATOM      6  C   UNL     1       1.916  28.145  57.595  1.00  0.00     0.019 A 
ENDROOT
BRANCH   1   7
ATOM      7  C   UNL     1       0.310  29.129  55.965  1.00  0.00     0.163 C 
ATOM      8  C   UNL     1      -0.620  29.675  57.006  1.00  0.00     0.093 C 
ATOM      9  O   UNL     1      -0.086  29.105  54.768  1.00  0.00    -0.294 OA
ENDBRANCH   1   7
BRANCH   2  10
ATOM     10  O   UNL     1       2.509  29.002  54.032  1.00  0.00    -0.507 OA
ATOM     11  H   UNL     1       1.597  28.948  53.595  1.00  0.00     0.293 HD
ENDBRANCH   2  10
BRANCH   4  12
ATOM     12  O   UNL     1       5.511  27.192  57.336  1.00  0.00    -0.497 OA
ATOM     13  C   UNL     1       5.942  26.844  58.648  1.00  0.00     0.278 C 
ENDBRANCH   4  12
TORSDOF 3
ENDMDL
MODEL 3
REMARK VINA RESULT:    -4.676      1.256      4.987
REMARK INTER + INTRA:          -5.675
REMARK INTER:                  -5.524
REMARK INTRA:                  -0.151
REMARK UNBOUND:                -0.315
REMARK SMILES COc1ccc(C(C)=O)c(O)c1
REMARK SMILES IDX 6 1 10 2 12 3 3 4 4 5 5 6 7 7 8 8 9 9 11 10 2 12 1 13
REMARK H PARENT 11 11
REMARK Flexibility Score: inf
ROOT
ATOM      1  C   UNL     1       1.729  29.019  55.458  1.00  0.00     0.059 A 
ATOM      2  C   UNL     1       1.839  28.903  56.863  1.00  0.00     0.130 A 
ATOM      3  C   UNL     1       2.963  28.282  57.428  1.00  0.00     0.093 A 
ATOM      4  C   UNL     1       3.993  27.787  56.622  1.00  0.00     0.122 A 
ATOM      5  C   UNL     1       3.893  27.920  55.227  1.00  0.00     0.047 A 
ATOM      6  C   UNL     1       2.776  28.531  54.655  1.00  0.00     0.019 A 
ENDROOT
BRANCH   1   7
ATOM      7  C   UNL     1       0.555  29.650  54.797  1.00  0.00     0.163 C 
ATOM      8  C   UNL     1      -0.767  28.957  54.672  1.00  0.00     0.093 C 
ATOM      9  O   UNL     1       0.665  30.813  54.321  1.00  0.00    -0.294 OA
ENDBRANCH   1   7
BRANCH   2  10
ATOM     10  O   UNL     1       0.853  29.418  57.704  1.00  0.00    -0.507 OA
ATOM     11  H   UNL     1       0.894  30.368  58.055  1.00  0.00     0.293 HD
ENDBRANCH   2  10
BRANCH   4  12
ATOM     12  O   UNL     1       5.093  27.178  57.244  1.00  0.00    -0.497 OA
ATOM     13  C   UNL     1       5.228  27.006  58.651  1.00  0.00     0.278 C 
ENDBRANCH   4  12
TORSDOF 3
ENDMDL
MODEL 4
REMARK VINA RESULT:    -4.393      1.707      2.236
REMARK INTER + INTRA:          -5.350
REMARK INTER:                  -5.048
REMARK INTRA:                  -0.302
REMARK UNBOUND:                -0.315
REMARK SMILES COc1ccc(C(C)=O)c(O)c1
REMARK SMILES IDX 6 1 10 2 12 3 3 4 4 5 5 6 7 7 8 8 9 9 11 10 2 12 1 13
REMARK H PARENT 11 11
REMARK Flexibility Score: inf
ROOT
ATOM      1  C   UNL     1       3.813  27.673  57.325  1.00  0.00     0.059 A 
ATOM      2  C   UNL     1       4.792  27.936  56.339  1.00  0.00     0.130 A 
ATOM      3  C   UNL     1       4.431  28.594  55.154  1.00  0.00     0.093 A 
ATOM      4  C   UNL     1       3.114  29.012  54.934  1.00  0.00     0.122 A 
ATOM      5  C   UNL     1       2.146  28.768  55.922  1.00  0.00     0.047 A 
ATOM      6  C   UNL     1       2.494  28.109  57.103  1.00  0.00     0.019 A 
ENDROOT
BRANCH   1   7
ATOM      7  C   UNL     1       4.128  26.964  58.595  1.00  0.00     0.163 C 
ATOM      8  C   UNL     1       3.099  26.186  59.358  1.00  0.00     0.093 C 
ATOM      9  O   UNL     1       5.301  27.012  59.056  1.00  0.00    -0.294 OA
ENDBRANCH   1   7
BRANCH   2  10
ATOM     10  O   UNL     1       6.123  27.571  56.536  1.00  0.00    -0.507 OA
ATOM     11  H   UNL     1       6.742  27.373  55.758  1.00  0.00     0.293 HD
ENDBRANCH   2  10
BRANCH   4  12
ATOM     12  O   UNL     1       2.814  29.667  53.731  1.00  0.00    -0.497 OA
ATOM     13  C   UNL     1       3.735  30.472  53.001  1.00  0.00     0.278 C 
ENDBRANCH   4  12
TORSDOF 3
ENDMDL
MODEL 5
REMARK VINA RESULT:    -4.357      1.849      3.018
REMARK INTER + INTRA:          -5.308
REMARK INTER:                  -5.107
REMARK INTRA:                  -0.201
REMARK UNBOUND:                -0.315
REMARK SMILES COc1ccc(C(C)=O)c(O)c1
REMARK SMILES IDX 6 1 10 2 12 3 3 4 4 5 5 6 7 7 8 8 9 9 11 10 2 12 1 13
REMARK H PARENT 11 11
REMARK Flexibility Score: inf
ROOT
ATOM      1  C   UNL     1       2.474  28.486  55.721  1.00  0.00     0.059 A 
ATOM      2  C   UNL     1       2.146  28.329  57.087  1.00  0.00     0.130 A 
ATOM      3  C   UNL     1       0.881  28.719  57.552  1.00  0.00     0.093 A 
ATOM      4  C   UNL     1      -0.075  29.249  56.680  1.00  0.00     0.122 A 
ATOM      5  C   UNL     1       0.244  29.387  55.319  1.00  0.00     0.047 A 
ATOM      6  C   UNL     1       1.502  29.008  54.848  1.00  0.00     0.019 A 
ENDROOT
BRANCH   1   7
ATOM      7  C   UNL     1       3.803  28.109  55.169  1.00  0.00     0.163 C 
ATOM      8  C   UNL     1       4.224  28.460  53.774  1.00  0.00     0.093 C 
ATOM      9  O   UNL     1       4.615  27.471  55.893  1.00  0.00    -0.294 OA
ENDBRANCH   1   7
BRANCH   2  10
ATOM     10  O   UNL     1       3.056  27.768  57.982  1.00  0.00    -0.507 OA
ATOM     11  H   UNL     1       2.761  27.143  58.723  1.00  0.00     0.293 HD
ENDBRANCH   2  10
BRANCH   4  12
ATOM     12  O   UNL     1      -1.323  29.619  57.203  1.00  0.00    -0.497 OA
ATOM     13  C   UNL     1      -1.509  30.587  58.230  1.00  0.00     0.278 C 
ENDBRANCH   4  12
TORSDOF 3
ENDMDL
MODEL 6
REMARK VINA RESULT:    -4.292      2.517      3.768
REMARK INTER + INTRA:          -5.235
REMARK INTER:                  -4.904
REMARK INTRA:                  -0.330
REMARK UNBOUND:                -0.315
REMARK SMILES COc1ccc(C(C)=O)c(O)c1
REMARK SMILES IDX 6 1 10 2 12 3 3 4 4 5 5 6 7 7 8 8 9 9 11 10 2 12 1 13
REMARK H PARENT 11 11
REMARK Flexibility Score: inf
ROOT
ATOM      1  C   UNL     1       3.728  28.441  56.463  1.00  0.00     0.059 A 
ATOM      2  C   UNL     1       3.171  28.546  55.168  1.00  0.00     0.130 A 
ATOM      3  C   UNL     1       3.923  29.112  54.127  1.00  0.00     0.093 A 
ATOM      4  C   UNL     1       5.228  29.564  54.345  1.00  0.00     0.122 A 
ATOM      5  C   UNL     1       5.788  29.442  55.628  1.00  0.00     0.047 A 
ATOM      6  C   UNL     1       5.046  28.885  56.671  1.00  0.00     0.019 A 
ENDROOT
BRANCH   1   7
ATOM      7  C   UNL     1       2.977  27.867  57.613  1.00  0.00     0.163 C 
ATOM      8  C   UNL     1       3.617  26.962  58.621  1.00  0.00     0.093 C 
ATOM      9  O   UNL     1       1.755  28.146  57.754  1.00  0.00    -0.294 OA
ENDBRANCH   1   7
BRANCH   2  10
ATOM     10  O   UNL     1       1.888  28.072  54.899  1.00  0.00    -0.507 OA
ATOM     11  H   UNL     1       1.381  27.498  55.563  1.00  0.00     0.293 HD
ENDBRANCH   2  10
BRANCH   4  12
ATOM     12  O   UNL     1       5.931  30.119  53.266  1.00  0.00    -0.497 OA
ATOM     13  C   UNL     1       6.064  31.516  53.027  1.00  0.00     0.278 C 
ENDBRANCH   4  12
TORSDOF 3
ENDMDL
MODEL 7
REMARK VINA RESULT:    -4.244      1.558      1.956
REMARK INTER + INTRA:          -5.179
REMARK INTER:                  -4.953
REMARK INTRA:                  -0.225
REMARK UNBOUND:                -0.315
REMARK SMILES COc1ccc(C(C)=O)c(O)c1
REMARK SMILES IDX 6 1 10 2 12 3 3 4 4 5 5 6 7 7 8 8 9 9 11 10 2 12 1 13
REMARK H PARENT 11 11
REMARK Flexibility Score: inf
ROOT
ATOM      1  C   UNL     1       3.015  28.555  56.113  1.00  0.00     0.059 A 
ATOM      2  C   UNL     1       2.213  29.002  55.037  1.00  0.00     0.130 A 
ATOM      3  C   UNL     1       0.862  29.313  55.254  1.00  0.00     0.093 A 
ATOM      4  C   UNL     1       0.294  29.204  56.527  1.00  0.00     0.122 A 
ATOM      5  C   UNL     1       1.095  28.778  57.600  1.00  0.00     0.047 A 
ATOM      6  C   UNL     1       2.439  28.461  57.393  1.00  0.00     0.019 A 
ENDROOT
BRANCH   1   7
ATOM      7  C   UNL     1       4.448  28.192  55.945  1.00  0.00     0.163 C 
ATOM      8  C   UNL     1       5.207  27.414  56.976  1.00  0.00     0.093 C 
ATOM      9  O   UNL     1       5.057  28.547  54.899  1.00  0.00    -0.294 OA
ENDBRANCH   1   7
BRANCH   2  10
ATOM     10  O   UNL     1       2.751  29.161  53.761  1.00  0.00    -0.507 OA
ATOM     11  H   UNL     1       3.749  29.107  53.592  1.00  0.00     0.293 HD
ENDBRANCH   2  10
BRANCH   4  12
ATOM     12  O   UNL     1      -1.061  29.531  56.683  1.00  0.00    -0.497 OA
ATOM     13  C   UNL     1      -1.583  30.306  57.757  1.00  0.00     0.278 C 
ENDBRANCH   4  12
TORSDOF 3
ENDMDL
MODEL 8
REMARK VINA RESULT:    -4.218      2.169      4.300
REMARK INTER + INTRA:          -5.150
REMARK INTER:                  -4.856
REMARK INTRA:                  -0.294
REMARK UNBOUND:                -0.315
REMARK SMILES COc1ccc(C(C)=O)c(O)c1
REMARK SMILES IDX 6 1 10 2 12 3 3 4 4 5 5 6 7 7 8 8 9 9 11 10 2 12 1 13
REMARK H PARENT 11 11
REMARK Flexibility Score: inf
ROOT
ATOM      1  C   UNL     1       3.688  29.137  54.358  1.00  0.00     0.059 A 
ATOM      2  C   UNL     1       4.728  28.882  55.281  1.00  0.00     0.130 A 
ATOM      3  C   UNL     1       4.425  28.381  56.556  1.00  0.00     0.093 A 
ATOM      4  C   UNL     1       3.104  28.112  56.929  1.00  0.00     0.122 A 
ATOM      5  C   UNL     1       2.072  28.348  56.005  1.00  0.00     0.047 A 
ATOM      6  C   UNL     1       2.363  28.851  54.736  1.00  0.00     0.019 A 
ENDROOT
BRANCH   1   7
ATOM      7  C   UNL     1       3.942  29.684  52.998  1.00  0.00     0.163 C 
ATOM      8  C   UNL     1       3.528  31.068  52.597  1.00  0.00     0.093 C 
ATOM      9  O   UNL     1       4.526  28.966  52.142  1.00  0.00    -0.294 OA
ENDBRANCH   1   7
BRANCH   2  10
ATOM     10  O   UNL     1       6.061  29.099  54.936  1.00  0.00    -0.507 OA
ATOM     11  H   UNL     1       6.783  28.417  55.138  1.00  0.00     0.293 HD
ENDBRANCH   2  10
BRANCH   4  12
ATOM     12  O   UNL     1       2.863  27.611  58.216  1.00  0.00    -0.497 OA
ATOM     13  C   UNL     1       3.708  26.684  58.890  1.00  0.00     0.278 C 
ENDBRANCH   4  12
TORSDOF 3
ENDMDL
MODEL 9
REMARK VINA RESULT:    -4.155      2.535      4.115
REMARK INTER + INTRA:          -5.077
REMARK INTER:                  -4.751
REMARK INTRA:                  -0.327
REMARK UNBOUND:                -0.315
REMARK SMILES COc1ccc(C(C)=O)c(O)c1
REMARK SMILES IDX 6 1 10 2 12 3 3 4 4 5 5 6 7 7 8 8 9 9 11 10 2 12 1 13
REMARK H PARENT 11 11
REMARK Flexibility Score: inf
ROOT
ATOM      1  C   UNL     1       3.946  28.536  55.919  1.00  0.00     0.059 A 
ATOM      2  C   UNL     1       5.158  29.262  55.975  1.00  0.00     0.130 A 
ATOM      3  C   UNL     1       5.786  29.668  54.788  1.00  0.00     0.093 A 
ATOM      4  C   UNL     1       5.222  29.381  53.541  1.00  0.00     0.122 A 
ATOM      5  C   UNL     1       4.008  28.677  53.485  1.00  0.00     0.047 A 
ATOM      6  C   UNL     1       3.379  28.263  54.661  1.00  0.00     0.019 A 
ENDROOT
BRANCH   1   7
ATOM      7  C   UNL     1       3.241  28.061  57.140  1.00  0.00     0.163 C 
ATOM      8  C   UNL     1       1.829  28.450  57.456  1.00  0.00     0.093 C 
ATOM      9  O   UNL     1       3.843  27.301  57.945  1.00  0.00    -0.294 OA
ENDBRANCH   1   7
BRANCH   2  10
ATOM     10  O   UNL     1       5.733  29.602  57.199  1.00  0.00    -0.507 OA
ATOM     11  H   UNL     1       5.267  29.411  58.079  1.00  0.00     0.293 HD
ENDBRANCH   2  10
BRANCH   4  12
ATOM     12  O   UNL     1       5.895  29.815  52.389  1.00  0.00    -0.497 OA
ATOM     13  C   UNL     1       6.073  29.027  51.217  1.00  0.00     0.278 C 
ENDBRANCH   4  12
TORSDOF 3
ENDMDL
