MODEL 1
REMARK VINA RESULT:    -7.822      0.000      0.000
REMARK INTER + INTRA:         -12.659
REMARK INTER:                 -11.938
REMARK INTRA:                  -0.721
REMARK UNBOUND:                -0.721
REMARK SMILES COc1cc(C=CCOC(=O)C=Cc2ccc(O)c(OC)c2)ccc1O
REMARK SMILES IDX 9 1 8 2 7 3 6 4 5 5 3 6 25 7 4 8 24 9 23 10 2 11 1 12 26 13
REMARK SMILES IDX 10 15 11 16 12 17 13 18 14 19 22 20 15 21 19 22 16 23 17 24
REMARK SMILES IDX 20 25 21 26 18 27
REMARK H PARENT 26 14 18 28
REMARK Flexibility Score: inf
ROOT
ATOM      1  O   UNL     1      68.080 -16.077 -17.260  1.00  0.00    -0.458 OA
ENDROOT
BRANCH   1   2
ATOM      2  C   UNL     1      67.563 -14.780 -16.973  1.00  0.00     0.261 C 
BRANCH   2   3
ATOM      3  C   UNL     1      66.624 -14.321 -18.056  1.00  0.00     0.015 C 
ATOM      4  C   UNL     1      65.433 -14.881 -18.303  1.00  0.00     0.007 C 
BRANCH   4   5
ATOM      5  C   UNL     1      64.872 -15.996 -17.520  1.00  0.00    -0.022 A 
ATOM      6  C   UNL     1      63.670 -16.781 -15.545  1.00  0.00     0.161 A 
ATOM      7  C   UNL     1      63.846 -18.108 -15.979  1.00  0.00     0.157 A 
ATOM      8  C   UNL     1      64.197 -15.728 -16.321  1.00  0.00     0.058 A 
ATOM      9  C   UNL     1      64.544 -18.372 -17.163  1.00  0.00     0.051 A 
ATOM     10  C   UNL     1      65.062 -17.324 -17.925  1.00  0.00     0.012 A 
BRANCH   6  11
ATOM     11  O   UNL     1      62.973 -16.545 -14.348  1.00  0.00    -0.493 OA
ATOM     12  C   UNL     1      62.063 -15.469 -14.142  1.00  0.00     0.278 C 
ENDBRANCH   6  11
BRANCH   7  13
ATOM     13  O   UNL     1      63.339 -19.180 -15.244  1.00  0.00    -0.504 OA
ATOM     14  H   UNL     1      63.113 -19.101 -14.260  1.00  0.00     0.293 HD
ENDBRANCH   7  13
ENDBRANCH   4   5
ENDBRANCH   2   3
ENDBRANCH   1   2
BRANCH   1  15
ATOM     15  C   UNL     1      69.176 -16.301 -18.102  1.00  0.00     0.331 C 
ATOM     16  O   UNL     1      70.298 -16.618 -17.620  1.00  0.00    -0.247 OA
BRANCH  15  17
ATOM     17  C   UNL     1      68.991 -16.158 -19.555  1.00  0.00     0.094 C 
ATOM     18  C   UNL     1      69.254 -15.015 -20.202  1.00  0.00     0.016 C 
BRANCH  18  19
ATOM     19  C   UNL     1      69.097 -14.843 -21.668  1.00  0.00    -0.021 A 
ATOM     20  C   UNL     1      67.838 -14.477 -22.172  1.00  0.00     0.058 A 
ATOM     21  C   UNL     1      70.153 -15.066 -22.572  1.00  0.00     0.012 A 
ATOM     22  C   UNL     1      67.633 -14.307 -23.556  1.00  0.00     0.161 A 
ATOM     23  C   UNL     1      69.955 -14.901 -23.943  1.00  0.00     0.051 A 
ATOM     24  C   UNL     1      68.705 -14.520 -24.440  1.00  0.00     0.157 A 
BRANCH  22  25
ATOM     25  O   UNL     1      66.387 -13.931 -24.083  1.00  0.00    -0.493 OA
ATOM     26  C   UNL     1      65.470 -13.051 -23.441  1.00  0.00     0.278 C 
ENDBRANCH  22  25
BRANCH  24  27
ATOM     27  O   UNL     1      68.548 -14.362 -25.817  1.00  0.00    -0.504 OA
ATOM     28  H   UNL     1      67.661 -14.515 -26.280  1.00  0.00     0.293 HD
ENDBRANCH  24  27
ENDBRANCH  18  19
ENDBRANCH  15  17
ENDBRANCH   1  15
TORSDOF 10
ENDMDL
MODEL 2
REMARK VINA RESULT:    -7.795      1.515      7.322
REMARK INTER + INTRA:         -12.617
REMARK INTER:                 -11.230
REMARK INTRA:                  -1.387
REMARK UNBOUND:                -0.721
REMARK SMILES COc1cc(C=CCOC(=O)C=Cc2ccc(O)c(OC)c2)ccc1O
REMARK SMILES IDX 9 1 8 2 7 3 6 4 5 5 3 6 25 7 4 8 24 9 23 10 2 11 1 12 26 13
REMARK SMILES IDX 10 15 11 16 12 17 13 18 14 19 22 20 15 21 19 22 16 23 17 24
REMARK SMILES IDX 20 25 21 26 18 27
REMARK H PARENT 26 14 18 28
REMARK Flexibility Score: inf
ROOT
ATOM      1  O   UNL     1      66.043 -15.180 -22.754  1.00  0.00    -0.458 OA
ENDROOT
BRANCH   1   2
ATOM      2  C   UNL     1      66.723 -14.065 -23.325  1.00  0.00     0.261 C 
BRANCH   2   3
ATOM      3  C   UNL     1      68.212 -14.287 -23.331  1.00  0.00     0.015 C 
ATOM      4  C   UNL     1      68.962 -14.371 -22.225  1.00  0.00     0.007 C 
BRANCH   4   5
ATOM      5  C   UNL     1      68.419 -14.296 -20.857  1.00  0.00    -0.022 A 
ATOM      6  C   UNL     1      68.106 -15.317 -18.662  1.00  0.00     0.161 A 
ATOM      7  C   UNL     1      67.344 -14.201 -18.264  1.00  0.00     0.157 A 
ATOM      8  C   UNL     1      68.633 -15.358 -19.969  1.00  0.00     0.058 A 
ATOM      9  C   UNL     1      67.112 -13.155 -19.163  1.00  0.00     0.051 A 
ATOM     10  C   UNL     1      67.638 -13.205 -20.455  1.00  0.00     0.012 A 
BRANCH   6  11
ATOM     11  O   UNL     1      68.316 -16.357 -17.742  1.00  0.00    -0.493 OA
ATOM     12  C   UNL     1      69.580 -16.693 -17.177  1.00  0.00     0.278 C 
ENDBRANCH   6  11
BRANCH   7  13
ATOM     13  O   UNL     1      66.805 -14.118 -16.980  1.00  0.00    -0.504 OA
ATOM     14  H   UNL     1      66.813 -14.901 -16.339  1.00  0.00     0.293 HD
ENDBRANCH   7  13
ENDBRANCH   4   5
ENDBRANCH   2   3
ENDBRANCH   1   2
BRANCH   1  15
ATOM     15  C   UNL     1      64.892 -15.060 -21.967  1.00  0.00     0.331 C 
ATOM     16  O   UNL     1      63.985 -14.241 -22.281  1.00  0.00    -0.247 OA
BRANCH  15  17
ATOM     17  C   UNL     1      64.764 -15.905 -20.769  1.00  0.00     0.094 C 
ATOM     18  C   UNL     1      64.298 -15.433 -19.605  1.00  0.00     0.016 C 
BRANCH  18  19
ATOM     19  C   UNL     1      64.139 -16.262 -18.384  1.00  0.00    -0.021 A 
ATOM     20  C   UNL     1      63.106 -15.946 -17.486  1.00  0.00     0.058 A 
ATOM     21  C   UNL     1      65.005 -17.329 -18.077  1.00  0.00     0.012 A 
ATOM     22  C   UNL     1      62.915 -16.697 -16.308  1.00  0.00     0.161 A 
ATOM     23  C   UNL     1      64.821 -18.074 -16.912  1.00  0.00     0.051 A 
ATOM     24  C   UNL     1      63.782 -17.768 -16.029  1.00  0.00     0.157 A 
BRANCH  22  25
ATOM     25  O   UNL     1      61.883 -16.408 -15.401  1.00  0.00    -0.493 OA
ATOM     26  C   UNL     1      62.003 -15.517 -14.296  1.00  0.00     0.278 C 
ENDBRANCH  22  25
BRANCH  24  27
ATOM     27  O   UNL     1      63.629 -18.538 -14.876  1.00  0.00    -0.504 OA
ATOM     28  H   UNL     1      62.732 -18.659 -14.422  1.00  0.00     0.293 HD
ENDBRANCH  24  27
ENDBRANCH  18  19
ENDBRANCH  15  17
ENDBRANCH   1  15
TORSDOF 10
ENDMDL
MODEL 3
REMARK VINA RESULT:    -7.683      2.308      3.642
REMARK INTER + INTRA:         -12.446
REMARK INTER:                 -10.650
REMARK INTRA:                  -1.796
REMARK UNBOUND:                -0.721
REMARK SMILES COc1cc(C=CCOC(=O)C=Cc2ccc(O)c(OC)c2)ccc1O
REMARK SMILES IDX 9 1 8 2 7 3 6 4 5 5 3 6 25 7 4 8 24 9 23 10 2 11 1 12 26 13
REMARK SMILES IDX 10 15 11 16 12 17 13 18 14 19 22 20 15 21 19 22 16 23 17 24
REMARK SMILES IDX 20 25 21 26 18 27
REMARK H PARENT 26 14 18 28
REMARK Flexibility Score: inf
ROOT
ATOM      1  O   UNL     1      68.009 -15.221 -17.191  1.00  0.00    -0.458 OA
ENDROOT
BRANCH   1   2
ATOM      2  C   UNL     1      66.619 -14.980 -17.393  1.00  0.00     0.261 C 
BRANCH   2   3
ATOM      3  C   UNL     1      65.834 -16.263 -17.334  1.00  0.00     0.015 C 
ATOM      4  C   UNL     1      64.930 -16.632 -18.250  1.00  0.00     0.007 C 
BRANCH   4   5
ATOM      5  C   UNL     1      64.615 -15.845 -19.456  1.00  0.00    -0.022 A 
ATOM      6  C   UNL     1      63.494 -13.937 -20.485  1.00  0.00     0.161 A 
ATOM      7  C   UNL     1      63.952 -14.362 -21.747  1.00  0.00     0.157 A 
ATOM      8  C   UNL     1      63.824 -14.694 -19.343  1.00  0.00     0.058 A 
ATOM      9  C   UNL     1      64.719 -15.526 -21.857  1.00  0.00     0.051 A 
ATOM     10  C   UNL     1      65.042 -16.269 -20.721  1.00  0.00     0.012 A 
BRANCH   6  11
ATOM     11  O   UNL     1      62.717 -12.769 -20.404  1.00  0.00    -0.493 OA
ATOM     12  C   UNL     1      63.249 -11.449 -20.331  1.00  0.00     0.278 C 
ENDBRANCH   6  11
BRANCH   7  13
ATOM     13  O   UNL     1      63.651 -13.642 -22.903  1.00  0.00    -0.504 OA
ATOM     14  H   UNL     1      62.785 -13.774 -23.411  1.00  0.00     0.293 HD
ENDBRANCH   7  13
ENDBRANCH   4   5
ENDBRANCH   2   3
ENDBRANCH   1   2
BRANCH   1  15
ATOM     15  C   UNL     1      68.804 -15.946 -18.087  1.00  0.00     0.331 C 
ATOM     16  O   UNL     1      69.675 -16.753 -17.661  1.00  0.00    -0.247 OA
BRANCH  15  17
ATOM     17  C   UNL     1      68.601 -15.746 -19.531  1.00  0.00     0.094 C 
ATOM     18  C   UNL     1      69.216 -14.771 -20.213  1.00  0.00     0.016 C 
BRANCH  18  19
ATOM     19  C   UNL     1      69.049 -14.553 -21.672  1.00  0.00    -0.021 A 
ATOM     20  C   UNL     1      67.851 -13.987 -22.136  1.00  0.00     0.058 A 
ATOM     21  C   UNL     1      70.033 -14.925 -22.608  1.00  0.00     0.012 A 
ATOM     22  C   UNL     1      67.639 -13.765 -23.512  1.00  0.00     0.161 A 
ATOM     23  C   UNL     1      69.828 -14.710 -23.971  1.00  0.00     0.051 A 
ATOM     24  C   UNL     1      68.640 -14.130 -24.428  1.00  0.00     0.157 A 
BRANCH  22  25
ATOM     25  O   UNL     1      66.454 -13.190 -23.999  1.00  0.00    -0.493 OA
ATOM     26  C   UNL     1      66.251 -11.793 -24.187  1.00  0.00     0.278 C 
ENDBRANCH  22  25
BRANCH  24  27
ATOM     27  O   UNL     1      68.474 -13.928 -25.798  1.00  0.00    -0.504 OA
ATOM     28  H   UNL     1      68.992 -14.456 -26.489  1.00  0.00     0.293 HD
ENDBRANCH  24  27
ENDBRANCH  18  19
ENDBRANCH  15  17
ENDBRANCH   1  15
TORSDOF 10
ENDMDL
MODEL 4
REMARK VINA RESULT:    -7.496      2.265      6.760
REMARK INTER + INTRA:         -12.162
REMARK INTER:                 -10.395
REMARK INTRA:                  -1.767
REMARK UNBOUND:                -0.721
REMARK SMILES COc1cc(C=CCOC(=O)C=Cc2ccc(O)c(OC)c2)ccc1O
REMARK SMILES IDX 9 1 8 2 7 3 6 4 5 5 3 6 25 7 4 8 24 9 23 10 2 11 1 12 26 13
REMARK SMILES IDX 10 15 11 16 12 17 13 18 14 19 22 20 15 21 19 22 16 23 17 24
REMARK SMILES IDX 20 25 21 26 18 27
REMARK H PARENT 26 14 18 28
REMARK Flexibility Score: inf
ROOT
ATOM      1  O   UNL     1      69.055 -16.150 -19.599  1.00  0.00    -0.458 OA
ENDROOT
BRANCH   1   2
ATOM      2  C   UNL     1      68.835 -14.791 -19.967  1.00  0.00     0.261 C 
BRANCH   2   3
ATOM      3  C   UNL     1      68.663 -14.655 -21.456  1.00  0.00     0.015 C 
ATOM      4  C   UNL     1      67.476 -14.575 -22.070  1.00  0.00     0.007 C 
BRANCH   4   5
ATOM      5  C   UNL     1      66.184 -14.572 -21.360  1.00  0.00    -0.022 A 
ATOM      6  C   UNL     1      64.365 -13.324 -20.314  1.00  0.00     0.161 A 
ATOM      7  C   UNL     1      63.751 -14.540 -19.956  1.00  0.00     0.157 A 
ATOM      8  C   UNL     1      65.590 -13.351 -21.011  1.00  0.00     0.058 A 
ATOM      9  C   UNL     1      64.361 -15.755 -20.285  1.00  0.00     0.051 A 
ATOM     10  C   UNL     1      65.574 -15.773 -20.974  1.00  0.00     0.012 A 
BRANCH   6  11
ATOM     11  O   UNL     1      63.735 -12.119 -19.964  1.00  0.00    -0.493 OA
ATOM     12  C   UNL     1      62.883 -11.372 -20.827  1.00  0.00     0.278 C 
ENDBRANCH   6  11
BRANCH   7  13
ATOM     13  O   UNL     1      62.538 -14.560 -19.269  1.00  0.00    -0.504 OA
ATOM     14  H   UNL     1      62.236 -15.361 -18.728  1.00  0.00     0.293 HD
ENDBRANCH   7  13
ENDBRANCH   4   5
ENDBRANCH   2   3
ENDBRANCH   1   2
BRANCH   1  15
ATOM     15  C   UNL     1      68.894 -16.631 -18.294  1.00  0.00     0.331 C 
ATOM     16  O   UNL     1      69.843 -16.562 -17.465  1.00  0.00    -0.247 OA
BRANCH  15  17
ATOM     17  C   UNL     1      67.599 -17.216 -17.912  1.00  0.00     0.094 C 
ATOM     18  C   UNL     1      66.592 -16.476 -17.431  1.00  0.00     0.016 C 
BRANCH  18  19
ATOM     19  C   UNL     1      65.267 -17.030 -17.054  1.00  0.00    -0.021 A 
ATOM     20  C   UNL     1      64.314 -16.169 -16.485  1.00  0.00     0.058 A 
ATOM     21  C   UNL     1      64.946 -18.392 -17.213  1.00  0.00     0.012 A 
ATOM     22  C   UNL     1      63.044 -16.647 -16.103  1.00  0.00     0.161 A 
ATOM     23  C   UNL     1      63.691 -18.869 -16.834  1.00  0.00     0.051 A 
ATOM     24  C   UNL     1      62.739 -18.007 -16.284  1.00  0.00     0.157 A 
BRANCH  22  25
ATOM     25  O   UNL     1      62.071 -15.804 -15.542  1.00  0.00    -0.493 OA
ATOM     26  C   UNL     1      61.984 -15.476 -14.159  1.00  0.00     0.278 C 
ENDBRANCH  22  25
BRANCH  24  27
ATOM     27  O   UNL     1      61.494 -18.521 -15.921  1.00  0.00    -0.504 OA
ATOM     28  H   UNL     1      61.132 -18.446 -14.979  1.00  0.00     0.293 HD
ENDBRANCH  24  27
ENDBRANCH  18  19
ENDBRANCH  15  17
ENDBRANCH   1  15
TORSDOF 10
ENDMDL
MODEL 5
REMARK VINA RESULT:    -7.348      2.031      7.452
REMARK INTER + INTRA:         -11.935
REMARK INTER:                 -10.670
REMARK INTRA:                  -1.265
REMARK UNBOUND:                -0.721
REMARK SMILES COc1cc(C=CCOC(=O)C=Cc2ccc(O)c(OC)c2)ccc1O
REMARK SMILES IDX 9 1 8 2 7 3 6 4 5 5 3 6 25 7 4 8 24 9 23 10 2 11 1 12 26 13
REMARK SMILES IDX 10 15 11 16 12 17 13 18 14 19 22 20 15 21 19 22 16 23 17 24
REMARK SMILES IDX 20 25 21 26 18 27
REMARK H PARENT 26 14 18 28
REMARK Flexibility Score: inf
ROOT
ATOM      1  O   UNL     1      70.027 -15.123 -21.675  1.00  0.00    -0.458 OA
ENDROOT
BRANCH   1   2
ATOM      2  C   UNL     1      70.478 -14.420 -22.830  1.00  0.00     0.261 C 
BRANCH   2   3
ATOM      3  C   UNL     1      70.106 -15.155 -24.090  1.00  0.00     0.015 C 
ATOM      4  C   UNL     1      68.903 -15.080 -24.674  1.00  0.00     0.007 C 
BRANCH   4   5
ATOM      5  C   UNL     1      67.800 -14.238 -24.177  1.00  0.00    -0.022 A 
ATOM      6  C   UNL     1      65.696 -14.038 -22.955  1.00  0.00     0.161 A 
ATOM      7  C   UNL     1      65.657 -12.666 -23.269  1.00  0.00     0.157 A 
ATOM      8  C   UNL     1      66.771 -14.820 -23.424  1.00  0.00     0.058 A 
ATOM      9  C   UNL     1      66.673 -12.095 -24.042  1.00  0.00     0.051 A 
ATOM     10  C   UNL     1      67.734 -12.877 -24.502  1.00  0.00     0.012 A 
BRANCH   6  11
ATOM     11  O   UNL     1      64.658 -14.587 -22.185  1.00  0.00    -0.493 OA
ATOM     12  C   UNL     1      64.691 -15.880 -21.587  1.00  0.00     0.278 C 
ENDBRANCH   6  11
BRANCH   7  13
ATOM     13  O   UNL     1      64.613 -11.854 -22.824  1.00  0.00    -0.504 OA
ATOM     14  H   UNL     1      63.787 -12.233 -22.379  1.00  0.00     0.293 HD
ENDBRANCH   7  13
ENDBRANCH   4   5
ENDBRANCH   2   3
ENDBRANCH   1   2
BRANCH   1  15
ATOM     15  C   UNL     1      69.144 -14.578 -20.737  1.00  0.00     0.331 C 
ATOM     16  O   UNL     1      69.024 -13.327 -20.623  1.00  0.00    -0.247 OA
BRANCH  15  17
ATOM     17  C   UNL     1      68.361 -15.491 -19.890  1.00  0.00     0.094 C 
ATOM     18  C   UNL     1      67.324 -15.072 -19.151  1.00  0.00     0.016 C 
BRANCH  18  19
ATOM     19  C   UNL     1      66.502 -15.969 -18.301  1.00  0.00    -0.021 A 
ATOM     20  C   UNL     1      65.311 -15.468 -17.749  1.00  0.00     0.058 A 
ATOM     21  C   UNL     1      66.889 -17.288 -17.999  1.00  0.00     0.012 A 
ATOM     22  C   UNL     1      64.497 -16.276 -16.929  1.00  0.00     0.161 A 
ATOM     23  C   UNL     1      66.088 -18.091 -17.187  1.00  0.00     0.051 A 
ATOM     24  C   UNL     1      64.895 -17.595 -16.654  1.00  0.00     0.157 A 
BRANCH  22  25
ATOM     25  O   UNL     1      63.296 -15.801 -16.376  1.00  0.00    -0.493 OA
ATOM     26  C   UNL     1      62.009 -15.991 -16.954  1.00  0.00     0.278 C 
ENDBRANCH  22  25
BRANCH  24  27
ATOM     27  O   UNL     1      64.120 -18.429 -15.848  1.00  0.00    -0.504 OA
ATOM     28  H   UNL     1      63.830 -18.163 -14.916  1.00  0.00     0.293 HD
ENDBRANCH  24  27
ENDBRANCH  18  19
ENDBRANCH  15  17
ENDBRANCH   1  15
TORSDOF 10
ENDMDL
MODEL 6
REMARK VINA RESULT:    -7.303      2.318      4.262
REMARK INTER + INTRA:         -11.867
REMARK INTER:                  -9.812
REMARK INTRA:                  -2.055
REMARK UNBOUND:                -0.721
REMARK SMILES COc1cc(C=CCOC(=O)C=Cc2ccc(O)c(OC)c2)ccc1O
REMARK SMILES IDX 9 1 8 2 7 3 6 4 5 5 3 6 25 7 4 8 24 9 23 10 2 11 1 12 26 13
REMARK SMILES IDX 10 15 11 16 12 17 13 18 14 19 22 20 15 21 19 22 16 23 17 24
REMARK SMILES IDX 20 25 21 26 18 27
REMARK H PARENT 26 14 18 28
REMARK Flexibility Score: inf
ROOT
ATOM      1  O   UNL     1      67.747 -17.215 -17.375  1.00  0.00    -0.458 OA
ENDROOT
BRANCH   1   2
ATOM      2  C   UNL     1      66.689 -17.461 -18.298  1.00  0.00     0.261 C 
BRANCH   2   3
ATOM      3  C   UNL     1      65.351 -17.159 -17.680  1.00  0.00     0.015 C 
ATOM      4  C   UNL     1      64.464 -16.298 -18.196  1.00  0.00     0.007 C 
BRANCH   4   5
ATOM      5  C   UNL     1      64.670 -15.565 -19.457  1.00  0.00    -0.022 A 
ATOM      6  C   UNL     1      64.812 -13.442 -20.654  1.00  0.00     0.161 A 
ATOM      7  C   UNL     1      65.002 -14.146 -21.858  1.00  0.00     0.157 A 
ATOM      8  C   UNL     1      64.638 -14.164 -19.455  1.00  0.00     0.058 A 
ATOM      9  C   UNL     1      65.007 -15.544 -21.858  1.00  0.00     0.051 A 
ATOM     10  C   UNL     1      64.834 -16.251 -20.667  1.00  0.00     0.012 A 
BRANCH   6  11
ATOM     11  O   UNL     1      64.802 -12.037 -20.684  1.00  0.00    -0.493 OA
ATOM     12  C   UNL     1      65.078 -11.203 -19.562  1.00  0.00     0.278 C 
ENDBRANCH   6  11
BRANCH   7  13
ATOM     13  O   UNL     1      65.181 -13.472 -23.066  1.00  0.00    -0.504 OA
ATOM     14  H   UNL     1      65.856 -12.725 -23.173  1.00  0.00     0.293 HD
ENDBRANCH   7  13
ENDBRANCH   4   5
ENDBRANCH   2   3
ENDBRANCH   1   2
BRANCH   1  15
ATOM     15  C   UNL     1      68.949 -16.592 -17.729  1.00  0.00     0.331 C 
ATOM     16  O   UNL     1      69.946 -16.638 -16.956  1.00  0.00    -0.247 OA
BRANCH  15  17
ATOM     17  C   UNL     1      69.025 -15.883 -19.016  1.00  0.00     0.094 C 
ATOM     18  C   UNL     1      68.372 -14.735 -19.243  1.00  0.00     0.016 C 
BRANCH  18  19
ATOM     19  C   UNL     1      68.441 -13.986 -20.522  1.00  0.00    -0.021 A 
ATOM     20  C   UNL     1      68.604 -14.706 -21.717  1.00  0.00     0.058 A 
ATOM     21  C   UNL     1      68.385 -12.580 -20.578  1.00  0.00     0.012 A 
ATOM     22  C   UNL     1      68.682 -14.042 -22.958  1.00  0.00     0.161 A 
ATOM     23  C   UNL     1      68.463 -11.918 -21.803  1.00  0.00     0.051 A 
ATOM     24  C   UNL     1      68.608 -12.639 -22.992  1.00  0.00     0.157 A 
BRANCH  22  25
ATOM     25  O   UNL     1      68.834 -14.741 -24.167  1.00  0.00    -0.493 OA
ATOM     26  C   UNL     1      69.994 -15.483 -24.532  1.00  0.00     0.278 C 
ENDBRANCH  22  25
BRANCH  24  27
ATOM     27  O   UNL     1      68.680 -11.942 -24.197  1.00  0.00    -0.504 OA
ATOM     28  H   UNL     1      68.602 -12.404 -25.095  1.00  0.00     0.293 HD
ENDBRANCH  24  27
ENDBRANCH  18  19
ENDBRANCH  15  17
ENDBRANCH   1  15
TORSDOF 10
ENDMDL
MODEL 7
REMARK VINA RESULT:    -7.273      1.479      2.287
REMARK INTER + INTRA:         -11.821
REMARK INTER:                 -11.276
REMARK INTRA:                  -0.545
REMARK UNBOUND:                -0.721
REMARK SMILES COc1cc(C=CCOC(=O)C=Cc2ccc(O)c(OC)c2)ccc1O
REMARK SMILES IDX 9 1 8 2 7 3 6 4 5 5 3 6 25 7 4 8 24 9 23 10 2 11 1 12 26 13
REMARK SMILES IDX 10 15 11 16 12 17 13 18 14 19 22 20 15 21 19 22 16 23 17 24
REMARK SMILES IDX 20 25 21 26 18 27
REMARK H PARENT 26 14 18 28
REMARK Flexibility Score: inf
ROOT
ATOM      1  O   UNL     1      67.325 -17.715 -17.545  1.00  0.00    -0.458 OA
ENDROOT
BRANCH   1   2
ATOM      2  C   UNL     1      65.911 -17.661 -17.372  1.00  0.00     0.261 C 
BRANCH   2   3
ATOM      3  C   UNL     1      65.348 -16.378 -17.921  1.00  0.00     0.015 C 
ATOM      4  C   UNL     1      64.238 -15.787 -17.458  1.00  0.00     0.007 C 
BRANCH   4   5
ATOM      5  C   UNL     1      63.447 -16.300 -16.325  1.00  0.00    -0.022 A 
ATOM      6  C   UNL     1      61.617 -17.688 -15.499  1.00  0.00     0.161 A 
ATOM      7  C   UNL     1      61.887 -17.246 -14.190  1.00  0.00     0.157 A 
ATOM      8  C   UNL     1      62.400 -17.200 -16.565  1.00  0.00     0.058 A 
ATOM      9  C   UNL     1      62.917 -16.327 -13.960  1.00  0.00     0.051 A 
ATOM     10  C   UNL     1      63.687 -15.849 -15.021  1.00  0.00     0.012 A 
BRANCH   6  11
ATOM     11  O   UNL     1      60.571 -18.603 -15.703  1.00  0.00    -0.493 OA
ATOM     12  C   UNL     1      60.486 -19.500 -16.807  1.00  0.00     0.278 C 
ENDBRANCH   6  11
BRANCH   7  13
ATOM     13  O   UNL     1      61.139 -17.704 -13.105  1.00  0.00    -0.504 OA
ATOM     14  H   UNL     1      61.561 -17.921 -12.211  1.00  0.00     0.293 HD
ENDBRANCH   7  13
ENDBRANCH   4   5
ENDBRANCH   2   3
ENDBRANCH   1   2
BRANCH   1  15
ATOM     15  C   UNL     1      68.094 -16.617 -17.947  1.00  0.00     0.331 C 
ATOM     16  O   UNL     1      68.682 -15.900 -17.091  1.00  0.00    -0.247 OA
BRANCH  15  17
ATOM     17  C   UNL     1      68.201 -16.317 -19.384  1.00  0.00     0.094 C 
ATOM     18  C   UNL     1      68.166 -15.065 -19.859  1.00  0.00     0.016 C 
BRANCH  18  19
ATOM     19  C   UNL     1      68.290 -14.726 -21.299  1.00  0.00    -0.021 A 
ATOM     20  C   UNL     1      67.137 -14.339 -22.002  1.00  0.00     0.058 A 
ATOM     21  C   UNL     1      69.512 -14.813 -21.993  1.00  0.00     0.012 A 
ATOM     22  C   UNL     1      67.199 -14.013 -23.372  1.00  0.00     0.161 A 
ATOM     23  C   UNL     1      69.578 -14.494 -23.349  1.00  0.00     0.051 A 
ATOM     24  C   UNL     1      68.432 -14.092 -24.041  1.00  0.00     0.157 A 
BRANCH  22  25
ATOM     25  O   UNL     1      66.062 -13.612 -24.093  1.00  0.00    -0.493 OA
ATOM     26  C   UNL     1      65.553 -12.282 -24.126  1.00  0.00     0.278 C 
ENDBRANCH  22  25
BRANCH  24  27
ATOM     27  O   UNL     1      68.539 -13.778 -25.396  1.00  0.00    -0.504 OA
ATOM     28  H   UNL     1      68.572 -14.489 -26.114  1.00  0.00     0.293 HD
ENDBRANCH  24  27
ENDBRANCH  18  19
ENDBRANCH  15  17
ENDBRANCH   1  15
TORSDOF 10
ENDMDL
MODEL 8
REMARK VINA RESULT:    -7.266      2.238      7.146
REMARK INTER + INTRA:         -11.810
REMARK INTER:                 -10.072
REMARK INTRA:                  -1.738
REMARK UNBOUND:                -0.721
REMARK SMILES COc1cc(C=CCOC(=O)C=Cc2ccc(O)c(OC)c2)ccc1O
REMARK SMILES IDX 9 1 8 2 7 3 6 4 5 5 3 6 25 7 4 8 24 9 23 10 2 11 1 12 26 13
REMARK SMILES IDX 10 15 11 16 12 17 13 18 14 19 22 20 15 21 19 22 16 23 17 24
REMARK SMILES IDX 20 25 21 26 18 27
REMARK H PARENT 26 14 18 28
REMARK Flexibility Score: inf
ROOT
ATOM      1  O   UNL     1      70.636 -14.012 -22.432  1.00  0.00    -0.458 OA
ENDROOT
BRANCH   1   2
ATOM      2  C   UNL     1      70.398 -15.249 -23.099  1.00  0.00     0.261 C 
BRANCH   2   3
ATOM      3  C   UNL     1      70.023 -15.023 -24.539  1.00  0.00     0.015 C 
ATOM      4  C   UNL     1      68.831 -14.564 -24.940  1.00  0.00     0.007 C 
BRANCH   4   5
ATOM      5  C   UNL     1      67.745 -14.185 -24.018  1.00  0.00    -0.022 A 
ATOM      6  C   UNL     1      66.590 -12.466 -22.726  1.00  0.00     0.161 A 
ATOM      7  C   UNL     1      65.720 -13.448 -22.217  1.00  0.00     0.157 A 
ATOM      8  C   UNL     1      67.609 -12.847 -23.623  1.00  0.00     0.058 A 
ATOM      9  C   UNL     1      65.877 -14.786 -22.595  1.00  0.00     0.051 A 
ATOM     10  C   UNL     1      66.888 -15.155 -23.483  1.00  0.00     0.012 A 
BRANCH   6  11
ATOM     11  O   UNL     1      66.417 -11.131 -22.323  1.00  0.00    -0.493 OA
ATOM     12  C   UNL     1      67.466 -10.172 -22.230  1.00  0.00     0.278 C 
ENDBRANCH   6  11
BRANCH   7  13
ATOM     13  O   UNL     1      64.697 -13.115 -21.329  1.00  0.00    -0.504 OA
ATOM     14  H   UNL     1      63.719 -13.193 -21.578  1.00  0.00     0.293 HD
ENDBRANCH   7  13
ENDBRANCH   4   5
ENDBRANCH   2   3
ENDBRANCH   1   2
BRANCH   1  15
ATOM     15  C   UNL     1      70.017 -13.654 -21.229  1.00  0.00     0.331 C 
ATOM     16  O   UNL     1      70.007 -12.451 -20.848  1.00  0.00    -0.247 OA
BRANCH  15  17
ATOM     17  C   UNL     1      69.381 -14.707 -20.422  1.00  0.00     0.094 C 
ATOM     18  C   UNL     1      68.221 -14.515 -19.780  1.00  0.00     0.016 C 
BRANCH  18  19
ATOM     19  C   UNL     1      67.542 -15.560 -18.972  1.00  0.00    -0.021 A 
ATOM     20  C   UNL     1      66.366 -15.220 -18.283  1.00  0.00     0.058 A 
ATOM     21  C   UNL     1      68.053 -16.866 -18.845  1.00  0.00     0.012 A 
ATOM     22  C   UNL     1      65.687 -16.173 -17.497  1.00  0.00     0.161 A 
ATOM     23  C   UNL     1      67.386 -17.812 -18.066  1.00  0.00     0.051 A 
ATOM     24  C   UNL     1      66.206 -17.475 -17.396  1.00  0.00     0.157 A 
BRANCH  22  25
ATOM     25  O   UNL     1      64.504 -15.861 -16.808  1.00  0.00    -0.493 OA
ATOM     26  C   UNL     1      63.194 -15.984 -17.353  1.00  0.00     0.278 C 
ENDBRANCH  22  25
BRANCH  24  27
ATOM     27  O   UNL     1      65.566 -18.450 -16.630  1.00  0.00    -0.504 OA
ATOM     28  H   UNL     1      65.988 -18.848 -15.801  1.00  0.00     0.293 HD
ENDBRANCH  24  27
ENDBRANCH  18  19
ENDBRANCH  15  17
ENDBRANCH   1  15
TORSDOF 10
ENDMDL
MODEL 9
REMARK VINA RESULT:    -7.263      3.148      6.387
REMARK INTER + INTRA:         -11.806
REMARK INTER:                  -9.745
REMARK INTRA:                  -2.061
REMARK UNBOUND:                -0.721
REMARK SMILES COc1cc(C=CCOC(=O)C=Cc2ccc(O)c(OC)c2)ccc1O
REMARK SMILES IDX 9 1 8 2 7 3 6 4 5 5 3 6 25 7 4 8 24 9 23 10 2 11 1 12 26 13
REMARK SMILES IDX 10 15 11 16 12 17 13 18 14 19 22 20 15 21 19 22 16 23 17 24
REMARK SMILES IDX 20 25 21 26 18 27
REMARK H PARENT 26 14 18 28
REMARK Flexibility Score: inf
ROOT
ATOM      1  O   UNL     1      69.023 -14.623 -24.695  1.00  0.00    -0.458 OA
ENDROOT
BRANCH   1   2
ATOM      2  C   UNL     1      69.623 -15.184 -23.530  1.00  0.00     0.261 C 
BRANCH   2   3
ATOM      3  C   UNL     1      70.728 -14.303 -23.013  1.00  0.00     0.015 C 
ATOM      4  C   UNL     1      70.672 -13.629 -21.857  1.00  0.00     0.007 C 
BRANCH   4   5
ATOM      5  C   UNL     1      69.533 -13.695 -20.923  1.00  0.00    -0.022 A 
ATOM      6  C   UNL     1      68.185 -14.975 -19.341  1.00  0.00     0.161 A 
ATOM      7  C   UNL     1      67.334 -13.864 -19.184  1.00  0.00     0.157 A 
ATOM      8  C   UNL     1      69.280 -14.883 -20.224  1.00  0.00     0.058 A 
ATOM      9  C   UNL     1      67.576 -12.690 -19.904  1.00  0.00     0.051 A 
ATOM     10  C   UNL     1      68.663 -12.607 -20.776  1.00  0.00     0.012 A 
BRANCH   6  11
ATOM     11  O   UNL     1      67.914 -16.145 -18.612  1.00  0.00    -0.493 OA
ATOM     12  C   UNL     1      67.423 -17.356 -19.181  1.00  0.00     0.278 C 
ENDBRANCH   6  11
BRANCH   7  13
ATOM     13  O   UNL     1      66.240 -13.911 -18.319  1.00  0.00    -0.504 OA
ATOM     14  H   UNL     1      65.954 -13.113 -17.768  1.00  0.00     0.293 HD
ENDBRANCH   7  13
ENDBRANCH   4   5
ENDBRANCH   2   3
ENDBRANCH   1   2
BRANCH   1  15
ATOM     15  C   UNL     1      68.176 -13.510 -24.665  1.00  0.00     0.331 C 
ATOM     16  O   UNL     1      68.326 -12.570 -25.494  1.00  0.00    -0.247 OA
BRANCH  15  17
ATOM     17  C   UNL     1      67.111 -13.460 -23.651  1.00  0.00     0.094 C 
ATOM     18  C   UNL     1      66.428 -14.549 -23.274  1.00  0.00     0.016 C 
BRANCH  18  19
ATOM     19  C   UNL     1      65.361 -14.537 -22.242  1.00  0.00    -0.021 A 
ATOM     20  C   UNL     1      64.678 -13.335 -21.993  1.00  0.00     0.058 A 
ATOM     21  C   UNL     1      65.034 -15.676 -21.481  1.00  0.00     0.012 A 
ATOM     22  C   UNL     1      63.662 -13.269 -21.018  1.00  0.00     0.161 A 
ATOM     23  C   UNL     1      64.030 -15.615 -20.515  1.00  0.00     0.051 A 
ATOM     24  C   UNL     1      63.341 -14.421 -20.281  1.00  0.00     0.157 A 
BRANCH  22  25
ATOM     25  O   UNL     1      62.958 -12.081 -20.759  1.00  0.00    -0.493 OA
ATOM     26  C   UNL     1      63.563 -10.848 -20.384  1.00  0.00     0.278 C 
ENDBRANCH  22  25
BRANCH  24  27
ATOM     27  O   UNL     1      62.341 -14.401 -19.309  1.00  0.00    -0.504 OA
ATOM     28  H   UNL     1      62.551 -14.366 -18.319  1.00  0.00     0.293 HD
ENDBRANCH  24  27
ENDBRANCH  18  19
ENDBRANCH  15  17
ENDBRANCH   1  15
TORSDOF 10
ENDMDL
