MODEL 1
REMARK VINA RESULT:    -6.568      0.000      0.000
REMARK INTER + INTRA:         -13.961
REMARK INTER:                 -12.327
REMARK INTRA:                  -1.634
REMARK UNBOUND:                -1.634
REMARK SMILES CCCCCCCCC=CCCCCCCCC(=O)[O-]
REMARK SMILES IDX 10 1 9 2 11 3 12 4 13 5 14 6 15 7 16 8 17 9 18 10 19 11
REMARK SMILES IDX 20 12 8 13 7 14 6 15 5 16 4 17 3 18 2 19 1 20
REMARK H PARENT
REMARK Flexibility Score: inf
ROOT
ATOM      1  C   UNL     1     130.521 124.450 126.523  1.00  0.00    -0.031 C 
ATOM      2  C   UNL     1     130.937 125.163 125.464  1.00  0.00    -0.031 C 
ENDROOT
BRANCH   1   3
ATOM      3  C   UNL     1     129.673 123.220 126.355  1.00  0.00     0.027 C 
BRANCH   3   4
ATOM      4  C   UNL     1     128.181 123.583 126.306  1.00  0.00     0.004 C 
BRANCH   4   5
ATOM      5  C   UNL     1     127.890 124.967 126.910  1.00  0.00     0.000 C 
BRANCH   5   6
ATOM      6  C   UNL     1     127.154 124.876 128.258  1.00  0.00     0.000 C 
BRANCH   6   7
ATOM      7  C   UNL     1     126.901 123.425 128.696  1.00  0.00     0.000 C 
BRANCH   7   8
ATOM      8  C   UNL     1     127.813 122.989 129.851  1.00  0.00     0.006 C 
BRANCH   8   9
ATOM      9  C   UNL     1     128.822 124.089 130.196  1.00  0.00     0.053 C 
BRANCH   9  10
ATOM     10  C   UNL     1     128.947 124.243 131.679  1.00  0.00     0.041 C 
ATOM     11  O   UNL     1     128.443 123.383 132.450  1.00  0.00    -0.550 OA
ATOM     12  O   UNL     1     129.663 125.309 132.210  1.00  0.00    -0.550 OA
ENDBRANCH   9  10
ENDBRANCH   8   9
ENDBRANCH   7   8
ENDBRANCH   6   7
ENDBRANCH   5   6
ENDBRANCH   4   5
ENDBRANCH   3   4
ENDBRANCH   1   3
BRANCH   2  13
ATOM     13  C   UNL     1     131.795 126.387 125.626  1.00  0.00     0.027 C 
BRANCH  13  14
ATOM     14  C   UNL     1     131.237 127.564 124.816  1.00  0.00     0.004 C 
BRANCH  14  15
ATOM     15  C   UNL     1     129.717 127.678 124.988  1.00  0.00     0.000 C 
BRANCH  15  16
ATOM     16  C   UNL     1     129.015 127.748 123.623  1.00  0.00     0.000 C 
BRANCH  16  17
ATOM     17  C   UNL     1     127.796 126.814 123.536  1.00  0.00    -0.000 C 
BRANCH  17  18
ATOM     18  C   UNL     1     126.924 127.095 122.303  1.00  0.00    -0.000 C 
BRANCH  18  19
ATOM     19  C   UNL     1     126.921 128.590 121.964  1.00  0.00    -0.003 C 
ATOM     20  C   UNL     1     125.628 129.258 122.424  1.00  0.00     0.004 C 
ENDBRANCH  18  19
ENDBRANCH  17  18
ENDBRANCH  16  17
ENDBRANCH  15  16
ENDBRANCH  14  15
ENDBRANCH  13  14
ENDBRANCH   2  13
TORSDOF 15
ENDMDL
MODEL 2
REMARK VINA RESULT:    -6.503      3.777      7.558
REMARK INTER + INTRA:         -13.840
REMARK INTER:                 -12.401
REMARK INTRA:                  -1.439
REMARK UNBOUND:                -1.634
REMARK SMILES CCCCCCCCC=CCCCCCCCC(=O)[O-]
REMARK SMILES IDX 10 1 9 2 11 3 12 4 13 5 14 6 15 7 16 8 17 9 18 10 19 11
REMARK SMILES IDX 20 12 8 13 7 14 6 15 5 16 4 17 3 18 2 19 1 20
REMARK H PARENT
REMARK Flexibility Score: inf
ROOT
ATOM      1  C   UNL     1     131.291 125.254 126.583  1.00  0.00    -0.031 C 
ATOM      2  C   UNL     1     130.532 124.397 125.883  1.00  0.00    -0.031 C 
ENDROOT
BRANCH   1   3
ATOM      3  C   UNL     1     132.146 126.283 125.898  1.00  0.00     0.027 C 
BRANCH   3   4
ATOM      4  C   UNL     1     131.646 126.552 124.471  1.00  0.00     0.004 C 
BRANCH   4   5
ATOM      5  C   UNL     1     130.899 127.891 124.350  1.00  0.00     0.000 C 
BRANCH   5   6
ATOM      6  C   UNL     1     129.385 127.742 124.580  1.00  0.00     0.000 C 
BRANCH   6   7
ATOM      7  C   UNL     1     128.738 126.737 123.613  1.00  0.00     0.000 C 
BRANCH   7   8
ATOM      8  C   UNL     1     127.276 127.083 123.294  1.00  0.00     0.006 C 
BRANCH   8   9
ATOM      9  C   UNL     1     127.184 127.967 122.045  1.00  0.00     0.053 C 
BRANCH   9  10
ATOM     10  C   UNL     1     125.954 128.817 122.093  1.00  0.00     0.041 C 
ATOM     11  O   UNL     1     124.815 128.282 122.147  1.00  0.00    -0.550 OA
ATOM     12  O   UNL     1     126.067 130.202 122.131  1.00  0.00    -0.550 OA
ENDBRANCH   9  10
ENDBRANCH   8   9
ENDBRANCH   7   8
ENDBRANCH   6   7
ENDBRANCH   5   6
ENDBRANCH   4   5
ENDBRANCH   3   4
ENDBRANCH   1   3
BRANCH   2  13
ATOM     13  C   UNL     1     129.665 123.373 126.563  1.00  0.00     0.027 C 
BRANCH  13  14
ATOM     14  C   UNL     1     128.190 123.793 126.536  1.00  0.00     0.004 C 
BRANCH  14  15
ATOM     15  C   UNL     1     127.954 125.033 127.407  1.00  0.00     0.000 C 
BRANCH  15  16
ATOM     16  C   UNL     1     127.012 124.710 128.577  1.00  0.00     0.000 C 
BRANCH  16  17
ATOM     17  C   UNL     1     127.327 123.355 129.232  1.00  0.00    -0.000 C 
BRANCH  17  18
ATOM     18  C   UNL     1     128.669 123.360 129.980  1.00  0.00    -0.000 C 
BRANCH  18  19
ATOM     19  C   UNL     1     128.453 123.503 131.491  1.00  0.00    -0.003 C 
ATOM     20  C   UNL     1     129.275 124.656 132.060  1.00  0.00     0.004 C 
ENDBRANCH  18  19
ENDBRANCH  17  18
ENDBRANCH  16  17
ENDBRANCH  15  16
ENDBRANCH  14  15
ENDBRANCH  13  14
ENDBRANCH   2  13
TORSDOF 15
ENDMDL
MODEL 3
REMARK VINA RESULT:    -6.315      0.711      1.568
REMARK INTER + INTRA:         -13.487
REMARK INTER:                 -12.102
REMARK INTRA:                  -1.385
REMARK UNBOUND:                -1.634
REMARK SMILES CCCCCCCCC=CCCCCCCCC(=O)[O-]
REMARK SMILES IDX 10 1 9 2 11 3 12 4 13 5 14 6 15 7 16 8 17 9 18 10 19 11
REMARK SMILES IDX 20 12 8 13 7 14 6 15 5 16 4 17 3 18 2 19 1 20
REMARK H PARENT
REMARK Flexibility Score: inf
ROOT
ATOM      1  C   UNL     1     130.661 125.859 126.153  1.00  0.00    -0.031 C 
ATOM      2  C   UNL     1     131.128 126.294 124.972  1.00  0.00    -0.031 C 
ENDROOT
BRANCH   1   3
ATOM      3  C   UNL     1     130.824 124.427 126.581  1.00  0.00     0.027 C 
BRANCH   3   4
ATOM      4  C   UNL     1     129.478 123.687 126.547  1.00  0.00     0.004 C 
BRANCH   4   5
ATOM      5  C   UNL     1     128.277 124.643 126.633  1.00  0.00     0.000 C 
BRANCH   5   6
ATOM      6  C   UNL     1     127.437 124.420 127.903  1.00  0.00     0.000 C 
BRANCH   6   7
ATOM      7  C   UNL     1     127.603 123.004 128.479  1.00  0.00     0.000 C 
BRANCH   7   8
ATOM      8  C   UNL     1     128.519 122.972 129.711  1.00  0.00     0.006 C 
BRANCH   8   9
ATOM      9  C   UNL     1     128.805 124.390 130.217  1.00  0.00     0.053 C 
BRANCH   9  10
ATOM     10  C   UNL     1     128.979 124.393 131.703  1.00  0.00     0.041 C 
ATOM     11  O   UNL     1     129.625 125.318 132.263  1.00  0.00    -0.550 OA
ATOM     12  O   UNL     1     128.386 123.402 132.475  1.00  0.00    -0.550 OA
ENDBRANCH   9  10
ENDBRANCH   8   9
ENDBRANCH   7   8
ENDBRANCH   6   7
ENDBRANCH   5   6
ENDBRANCH   4   5
ENDBRANCH   3   4
ENDBRANCH   1   3
BRANCH   2  13
ATOM     13  C   UNL     1     130.979 127.727 124.544  1.00  0.00     0.027 C 
BRANCH  13  14
ATOM     14  C   UNL     1     129.554 128.013 124.054  1.00  0.00     0.004 C 
BRANCH  14  15
ATOM     15  C   UNL     1     128.889 126.736 123.523  1.00  0.00     0.000 C 
BRANCH  15  16
ATOM     16  C   UNL     1     127.358 126.857 123.568  1.00  0.00     0.000 C 
BRANCH  16  17
ATOM     17  C   UNL     1     126.778 127.498 122.297  1.00  0.00    -0.000 C 
BRANCH  17  18
ATOM     18  C   UNL     1     125.656 128.501 122.601  1.00  0.00    -0.000 C 
BRANCH  18  19
ATOM     19  C   UNL     1     125.966 129.872 121.989  1.00  0.00    -0.003 C 
ATOM     20  C   UNL     1     127.392 129.926 121.449  1.00  0.00     0.004 C 
ENDBRANCH  18  19
ENDBRANCH  17  18
ENDBRANCH  16  17
ENDBRANCH  15  16
ENDBRANCH  14  15
ENDBRANCH  13  14
ENDBRANCH   2  13
TORSDOF 15
ENDMDL
MODEL 4
REMARK VINA RESULT:    -5.692      1.324      2.923
REMARK INTER + INTRA:         -12.318
REMARK INTER:                 -11.542
REMARK INTRA:                  -0.775
REMARK UNBOUND:                -1.634
REMARK SMILES CCCCCCCCC=CCCCCCCCC(=O)[O-]
REMARK SMILES IDX 10 1 9 2 11 3 12 4 13 5 14 6 15 7 16 8 17 9 18 10 19 11
REMARK SMILES IDX 20 12 8 13 7 14 6 15 5 16 4 17 3 18 2 19 1 20
REMARK H PARENT
REMARK Flexibility Score: inf
ROOT
ATOM      1  C   UNL     1     130.649 127.667 125.460  1.00  0.00    -0.031 C 
ATOM      2  C   UNL     1     130.133 127.220 124.304  1.00  0.00    -0.031 C 
ENDROOT
BRANCH   1   3
ATOM      3  C   UNL     1     131.818 126.982 126.114  1.00  0.00     0.027 C 
BRANCH   3   4
ATOM      4  C   UNL     1     131.464 125.537 126.496  1.00  0.00     0.004 C 
BRANCH   4   5
ATOM      5  C   UNL     1     130.033 125.404 127.040  1.00  0.00     0.000 C 
BRANCH   5   6
ATOM      6  C   UNL     1     129.456 123.991 126.837  1.00  0.00     0.000 C 
BRANCH   6   7
ATOM      7  C   UNL     1     128.160 123.764 127.631  1.00  0.00     0.000 C 
BRANCH   7   8
ATOM      8  C   UNL     1     128.336 122.749 128.771  1.00  0.00     0.006 C 
BRANCH   8   9
ATOM      9  C   UNL     1     127.602 123.214 130.033  1.00  0.00     0.053 C 
BRANCH   9  10
ATOM     10  C   UNL     1     128.561 123.839 130.997  1.00  0.00     0.041 C 
ATOM     11  O   UNL     1     128.654 123.399 132.174  1.00  0.00    -0.550 OA
ATOM     12  O   UNL     1     129.389 124.875 130.582  1.00  0.00    -0.550 OA
ENDBRANCH   9  10
ENDBRANCH   8   9
ENDBRANCH   7   8
ENDBRANCH   6   7
ENDBRANCH   5   6
ENDBRANCH   4   5
ENDBRANCH   3   4
ENDBRANCH   1   3
BRANCH   2  13
ATOM     13  C   UNL     1     128.973 127.908 123.641  1.00  0.00     0.027 C 
BRANCH  13  14
ATOM     14  C   UNL     1     127.795 126.944 123.449  1.00  0.00     0.004 C 
BRANCH  14  15
ATOM     15  C   UNL     1     127.156 127.125 122.067  1.00  0.00     0.000 C 
BRANCH  15  16
ATOM     16  C   UNL     1     125.736 127.700 122.191  1.00  0.00     0.000 C 
BRANCH  16  17
ATOM     17  C   UNL     1     125.733 129.191 122.566  1.00  0.00    -0.000 C 
BRANCH  17  18
ATOM     18  C   UNL     1     126.764 130.003 121.766  1.00  0.00    -0.000 C 
BRANCH  18  19
ATOM     19  C   UNL     1     126.101 131.201 121.077  1.00  0.00    -0.003 C 
ATOM     20  C   UNL     1     126.554 132.518 121.701  1.00  0.00     0.004 C 
ENDBRANCH  18  19
ENDBRANCH  17  18
ENDBRANCH  16  17
ENDBRANCH  15  16
ENDBRANCH  14  15
ENDBRANCH  13  14
ENDBRANCH   2  13
TORSDOF 15
ENDMDL
MODEL 5
REMARK VINA RESULT:    -4.790      9.904     12.254
REMARK INTER + INTRA:         -10.625
REMARK INTER:                  -7.972
REMARK INTRA:                  -2.653
REMARK UNBOUND:                -1.634
REMARK SMILES CCCCCCCCC=CCCCCCCCC(=O)[O-]
REMARK SMILES IDX 10 1 9 2 11 3 12 4 13 5 14 6 15 7 16 8 17 9 18 10 19 11
REMARK SMILES IDX 20 12 8 13 7 14 6 15 5 16 4 17 3 18 2 19 1 20
REMARK H PARENT
REMARK Flexibility Score: inf
ROOT
ATOM      1  C   UNL     1     120.130 125.528 131.951  1.00  0.00    -0.031 C 
ATOM      2  C   UNL     1     120.001 126.079 130.734  1.00  0.00    -0.031 C 
ENDROOT
BRANCH   1   3
ATOM      3  C   UNL     1     120.009 124.044 132.156  1.00  0.00     0.027 C 
BRANCH   3   4
ATOM      4  C   UNL     1     118.937 123.720 133.207  1.00  0.00     0.004 C 
BRANCH   4   5
ATOM      5  C   UNL     1     118.503 124.958 134.009  1.00  0.00     0.000 C 
BRANCH   5   6
ATOM      6  C   UNL     1     116.999 125.252 133.867  1.00  0.00     0.000 C 
BRANCH   6   7
ATOM      7  C   UNL     1     116.724 126.615 133.214  1.00  0.00     0.000 C 
BRANCH   7   8
ATOM      8  C   UNL     1     115.770 126.513 132.014  1.00  0.00     0.006 C 
BRANCH   8   9
ATOM      9  C   UNL     1     116.510 126.796 130.702  1.00  0.00     0.053 C 
BRANCH   9  10
ATOM     10  C   UNL     1     116.229 128.187 130.230  1.00  0.00     0.041 C 
ATOM     11  O   UNL     1     116.989 128.737 129.389  1.00  0.00    -0.550 OA
ATOM     12  O   UNL     1     115.099 128.859 130.680  1.00  0.00    -0.550 OA
ENDBRANCH   9  10
ENDBRANCH   8   9
ENDBRANCH   7   8
ENDBRANCH   6   7
ENDBRANCH   5   6
ENDBRANCH   4   5
ENDBRANCH   3   4
ENDBRANCH   1   3
BRANCH   2  13
ATOM     13  C   UNL     1     120.133 127.562 130.521  1.00  0.00     0.027 C 
BRANCH  13  14
ATOM     14  C   UNL     1     121.442 127.901 129.795  1.00  0.00     0.004 C 
BRANCH  14  15
ATOM     15  C   UNL     1     122.262 128.924 130.591  1.00  0.00     0.000 C 
BRANCH  15  16
ATOM     16  C   UNL     1     122.634 128.372 131.975  1.00  0.00     0.000 C 
BRANCH  16  17
ATOM     17  C   UNL     1     122.200 129.303 133.119  1.00  0.00    -0.000 C 
BRANCH  17  18
ATOM     18  C   UNL     1     121.702 128.533 134.351  1.00  0.00    -0.000 C 
BRANCH  18  19
ATOM     19  C   UNL     1     120.186 128.318 134.287  1.00  0.00    -0.003 C 
ATOM     20  C   UNL     1     119.466 129.591 133.850  1.00  0.00     0.004 C 
ENDBRANCH  18  19
ENDBRANCH  17  18
ENDBRANCH  16  17
ENDBRANCH  15  16
ENDBRANCH  14  15
ENDBRANCH  13  14
ENDBRANCH   2  13
TORSDOF 15
ENDMDL
MODEL 6
REMARK VINA RESULT:    -4.688      9.750     12.675
REMARK INTER + INTRA:         -10.433
REMARK INTER:                  -7.268
REMARK INTRA:                  -3.166
REMARK UNBOUND:                -1.634
REMARK SMILES CCCCCCCCC=CCCCCCCCC(=O)[O-]
REMARK SMILES IDX 10 1 9 2 11 3 12 4 13 5 14 6 15 7 16 8 17 9 18 10 19 11
REMARK SMILES IDX 20 12 8 13 7 14 6 15 5 16 4 17 3 18 2 19 1 20
REMARK H PARENT
REMARK Flexibility Score: inf
ROOT
ATOM      1  C   UNL     1     118.428 127.507 130.954  1.00  0.00    -0.031 C 
ATOM      2  C   UNL     1     118.399 126.193 131.225  1.00  0.00    -0.031 C 
ENDROOT
BRANCH   1   3
ATOM      3  C   UNL     1     117.300 128.415 131.357  1.00  0.00     0.027 C 
BRANCH   3   4
ATOM      4  C   UNL     1     117.268 128.610 132.880  1.00  0.00     0.004 C 
BRANCH   4   5
ATOM      5  C   UNL     1     118.588 129.173 133.431  1.00  0.00     0.000 C 
BRANCH   5   6
ATOM      6  C   UNL     1     119.276 128.206 134.411  1.00  0.00     0.000 C 
BRANCH   6   7
ATOM      7  C   UNL     1     120.743 127.936 134.041  1.00  0.00     0.000 C 
BRANCH   7   8
ATOM      8  C   UNL     1     121.240 128.837 132.901  1.00  0.00     0.006 C 
BRANCH   8   9
ATOM      9  C   UNL     1     122.269 128.103 132.034  1.00  0.00     0.053 C 
BRANCH   9  10
ATOM     10  C   UNL     1     122.244 128.627 130.633  1.00  0.00     0.041 C 
ATOM     11  O   UNL     1     121.654 127.981 129.725  1.00  0.00    -0.550 OA
ATOM     12  O   UNL     1     122.827 129.853 130.338  1.00  0.00    -0.550 OA
ENDBRANCH   9  10
ENDBRANCH   8   9
ENDBRANCH   7   8
ENDBRANCH   6   7
ENDBRANCH   5   6
ENDBRANCH   4   5
ENDBRANCH   3   4
ENDBRANCH   1   3
BRANCH   2  13
ATOM     13  C   UNL     1     119.530 125.282 130.835  1.00  0.00     0.027 C 
BRANCH  13  14
ATOM     14  C   UNL     1     120.335 124.843 132.065  1.00  0.00     0.004 C 
BRANCH  14  15
ATOM     15  C   UNL     1     119.518 123.891 132.947  1.00  0.00     0.000 C 
BRANCH  15  16
ATOM     16  C   UNL     1     119.303 124.488 134.346  1.00  0.00     0.000 C 
BRANCH  16  17
ATOM     17  C   UNL     1     117.923 124.145 134.930  1.00  0.00    -0.000 C 
BRANCH  17  18
ATOM     18  C   UNL     1     116.801 124.237 133.884  1.00  0.00    -0.000 C 
BRANCH  18  19
ATOM     19  C   UNL     1     115.957 125.499 134.096  1.00  0.00    -0.003 C 
ATOM     20  C   UNL     1     115.051 125.765 132.897  1.00  0.00     0.004 C 
ENDBRANCH  18  19
ENDBRANCH  17  18
ENDBRANCH  16  17
ENDBRANCH  15  16
ENDBRANCH  14  15
ENDBRANCH  13  14
ENDBRANCH   2  13
TORSDOF 15
ENDMDL
MODEL 7
REMARK VINA RESULT:    -4.673      9.749     12.442
REMARK INTER + INTRA:         -10.405
REMARK INTER:                  -7.688
REMARK INTRA:                  -2.716
REMARK UNBOUND:                -1.634
REMARK SMILES CCCCCCCCC=CCCCCCCCC(=O)[O-]
REMARK SMILES IDX 10 1 9 2 11 3 12 4 13 5 14 6 15 7 16 8 17 9 18 10 19 11
REMARK SMILES IDX 20 12 8 13 7 14 6 15 5 16 4 17 3 18 2 19 1 20
REMARK H PARENT
REMARK Flexibility Score: inf
ROOT
ATOM      1  C   UNL     1     121.580 127.514 130.690  1.00  0.00    -0.031 C 
ATOM      2  C   UNL     1     120.327 127.203 130.325  1.00  0.00    -0.031 C 
ENDROOT
BRANCH   1   3
ATOM      3  C   UNL     1     122.238 128.785 130.228  1.00  0.00     0.027 C 
BRANCH   3   4
ATOM      4  C   UNL     1     122.731 129.615 131.423  1.00  0.00     0.004 C 
BRANCH   4   5
ATOM      5  C   UNL     1     122.767 128.805 132.729  1.00  0.00     0.000 C 
BRANCH   5   6
ATOM      6  C   UNL     1     121.777 129.339 133.779  1.00  0.00     0.000 C 
BRANCH   6   7
ATOM      7  C   UNL     1     120.745 128.283 134.208  1.00  0.00     0.000 C 
BRANCH   7   8
ATOM      8  C   UNL     1     119.359 128.528 133.593  1.00  0.00     0.006 C 
BRANCH   8   9
ATOM      9  C   UNL     1     118.870 129.948 133.899  1.00  0.00     0.053 C 
BRANCH   9  10
ATOM     10  C   UNL     1     117.473 130.141 133.399  1.00  0.00     0.041 C 
ATOM     11  O   UNL     1     117.060 129.489 132.404  1.00  0.00    -0.550 OA
ATOM     12  O   UNL     1     116.610 131.003 134.064  1.00  0.00    -0.550 OA
ENDBRANCH   9  10
ENDBRANCH   8   9
ENDBRANCH   7   8
ENDBRANCH   6   7
ENDBRANCH   5   6
ENDBRANCH   4   5
ENDBRANCH   3   4
ENDBRANCH   1   3
BRANCH   2  13
ATOM     13  C   UNL     1     119.660 125.940 130.795  1.00  0.00     0.027 C 
BRANCH  13  14
ATOM     14  C   UNL     1     120.410 125.329 131.985  1.00  0.00     0.004 C 
BRANCH  14  15
ATOM     15  C   UNL     1     120.044 123.850 132.166  1.00  0.00     0.000 C 
BRANCH  15  16
ATOM     16  C   UNL     1     119.190 123.647 133.427  1.00  0.00     0.000 C 
BRANCH  16  17
ATOM     17  C   UNL     1     119.148 124.898 134.320  1.00  0.00    -0.000 C 
BRANCH  17  18
ATOM     18  C   UNL     1     117.715 125.318 134.680  1.00  0.00    -0.000 C 
BRANCH  18  19
ATOM     19  C   UNL     1     116.729 124.891 133.587  1.00  0.00    -0.003 C 
ATOM     20  C   UNL     1     116.464 126.030 132.607  1.00  0.00     0.004 C 
ENDBRANCH  18  19
ENDBRANCH  17  18
ENDBRANCH  16  17
ENDBRANCH  15  16
ENDBRANCH  14  15
ENDBRANCH  13  14
ENDBRANCH   2  13
TORSDOF 15
ENDMDL
MODEL 8
REMARK VINA RESULT:    -4.655      9.890     12.839
REMARK INTER + INTRA:         -10.371
REMARK INTER:                  -7.465
REMARK INTRA:                  -2.906
REMARK UNBOUND:                -1.634
REMARK SMILES CCCCCCCCC=CCCCCCCCC(=O)[O-]
REMARK SMILES IDX 10 1 9 2 11 3 12 4 13 5 14 6 15 7 16 8 17 9 18 10 19 11
REMARK SMILES IDX 20 12 8 13 7 14 6 15 5 16 4 17 3 18 2 19 1 20
REMARK H PARENT
REMARK Flexibility Score: inf
ROOT
ATOM      1  C   UNL     1     116.748 127.483 134.222  1.00  0.00    -0.031 C 
ATOM      2  C   UNL     1     116.799 127.577 132.884  1.00  0.00    -0.031 C 
ENDROOT
BRANCH   1   3
ATOM      3  C   UNL     1     117.321 128.556 135.105  1.00  0.00     0.027 C 
BRANCH   3   4
ATOM      4  C   UNL     1     117.825 129.744 134.271  1.00  0.00     0.004 C 
BRANCH   4   5
ATOM      5  C   UNL     1     119.310 129.614 133.896  1.00  0.00     0.000 C 
BRANCH   5   6
ATOM      6  C   UNL     1     120.111 128.811 134.936  1.00  0.00     0.000 C 
BRANCH   6   7
ATOM      7  C   UNL     1     121.549 128.522 134.478  1.00  0.00     0.000 C 
BRANCH   7   8
ATOM      8  C   UNL     1     121.974 129.390 133.284  1.00  0.00     0.006 C 
BRANCH   8   9
ATOM      9  C   UNL     1     122.778 128.569 132.270  1.00  0.00     0.053 C 
BRANCH   9  10
ATOM     10  C   UNL     1     122.427 128.970 130.873  1.00  0.00     0.041 C 
ATOM     11  O   UNL     1     121.642 128.261 130.188  1.00  0.00    -0.550 OA
ATOM     12  O   UNL     1     122.924 130.155 130.343  1.00  0.00    -0.550 OA
ENDBRANCH   9  10
ENDBRANCH   8   9
ENDBRANCH   7   8
ENDBRANCH   6   7
ENDBRANCH   5   6
ENDBRANCH   4   5
ENDBRANCH   3   4
ENDBRANCH   1   3
BRANCH   2  13
ATOM     13  C   UNL     1     116.216 126.512 131.996  1.00  0.00     0.027 C 
BRANCH  13  14
ATOM     14  C   UNL     1     117.059 126.330 130.727  1.00  0.00     0.004 C 
BRANCH  14  15
ATOM     15  C   UNL     1     118.500 126.806 130.950  1.00  0.00     0.000 C 
BRANCH  15  16
ATOM     16  C   UNL     1     119.443 125.613 131.170  1.00  0.00     0.000 C 
BRANCH  16  17
ATOM     17  C   UNL     1     120.250 125.730 132.473  1.00  0.00    -0.000 C 
BRANCH  17  18
ATOM     18  C   UNL     1     119.534 125.086 133.670  1.00  0.00    -0.000 C 
BRANCH  18  19
ATOM     19  C   UNL     1     118.799 123.809 133.246  1.00  0.00    -0.003 C 
ATOM     20  C   UNL     1     117.462 123.675 133.970  1.00  0.00     0.004 C 
ENDBRANCH  18  19
ENDBRANCH  17  18
ENDBRANCH  16  17
ENDBRANCH  15  16
ENDBRANCH  14  15
ENDBRANCH  13  14
ENDBRANCH   2  13
TORSDOF 15
ENDMDL
MODEL 9
REMARK VINA RESULT:    -4.654      9.521     11.917
REMARK INTER + INTRA:         -10.369
REMARK INTER:                  -7.472
REMARK INTRA:                  -2.897
REMARK UNBOUND:                -1.634
REMARK SMILES CCCCCCCCC=CCCCCCCCC(=O)[O-]
REMARK SMILES IDX 10 1 9 2 11 3 12 4 13 5 14 6 15 7 16 8 17 9 18 10 19 11
REMARK SMILES IDX 20 12 8 13 7 14 6 15 5 16 4 17 3 18 2 19 1 20
REMARK H PARENT
REMARK Flexibility Score: inf
ROOT
ATOM      1  C   UNL     1     118.378 127.066 132.293  1.00  0.00    -0.031 C 
ATOM      2  C   UNL     1     118.511 128.397 132.406  1.00  0.00    -0.031 C 
ENDROOT
BRANCH   1   3
ATOM      3  C   UNL     1     118.360 126.392 130.949  1.00  0.00     0.027 C 
BRANCH   3   4
ATOM      4  C   UNL     1     119.613 125.525 130.753  1.00  0.00     0.004 C 
BRANCH   4   5
ATOM      5  C   UNL     1     120.261 125.113 132.085  1.00  0.00     0.000 C 
BRANCH   5   6
ATOM      6  C   UNL     1     119.924 123.664 132.478  1.00  0.00     0.000 C 
BRANCH   6   7
ATOM      7  C   UNL     1     118.962 123.585 133.674  1.00  0.00     0.000 C 
BRANCH   7   8
ATOM      8  C   UNL     1     119.236 124.671 134.725  1.00  0.00     0.006 C 
BRANCH   8   9
ATOM      9  C   UNL     1     117.933 125.130 135.388  1.00  0.00     0.053 C 
BRANCH   9  10
ATOM     10  C   UNL     1     117.167 123.955 135.910  1.00  0.00     0.041 C 
ATOM     11  O   UNL     1     117.595 123.309 136.904  1.00  0.00    -0.550 OA
ATOM     12  O   UNL     1     115.954 123.603 135.331  1.00  0.00    -0.550 OA
ENDBRANCH   9  10
ENDBRANCH   8   9
ENDBRANCH   7   8
ENDBRANCH   6   7
ENDBRANCH   5   6
ENDBRANCH   4   5
ENDBRANCH   3   4
ENDBRANCH   1   3
BRANCH   2  13
ATOM     13  C   UNL     1     118.541 129.075 133.748  1.00  0.00     0.027 C 
BRANCH  13  14
ATOM     14  C   UNL     1     119.974 129.462 134.139  1.00  0.00     0.004 C 
BRANCH  14  15
ATOM     15  C   UNL     1     120.650 128.337 134.931  1.00  0.00     0.000 C 
BRANCH  15  16
ATOM     16  C   UNL     1     121.819 127.734 134.137  1.00  0.00     0.000 C 
BRANCH  16  17
ATOM     17  C   UNL     1     122.315 128.664 133.017  1.00  0.00    -0.000 C 
BRANCH  17  18
ATOM     18  C   UNL     1     122.561 127.919 131.697  1.00  0.00    -0.000 C 
BRANCH  18  19
ATOM     19  C   UNL     1     122.239 128.814 130.495  1.00  0.00    -0.003 C 
ATOM     20  C   UNL     1     121.962 127.982 129.245  1.00  0.00     0.004 C 
ENDBRANCH  18  19
ENDBRANCH  17  18
ENDBRANCH  16  17
ENDBRANCH  15  16
ENDBRANCH  14  15
ENDBRANCH  13  14
ENDBRANCH   2  13
TORSDOF 15
ENDMDL
