MODEL 1
REMARK VINA RESULT:    -6.350      0.000      0.000
REMARK INTER + INTRA:         -10.817
REMARK INTER:                  -9.691
REMARK INTRA:                  -1.127
REMARK UNBOUND:                -1.127
REMARK SMILES CC(=O)CCC=C(C)CCC=C(C)CCC=C(C)C
REMARK SMILES IDX 10 1 11 2 12 3 13 4 14 5 15 6 16 7 18 8 17 9 19 10 9 11 7 12
REMARK SMILES IDX 6 13 8 14 5 15 4 16 2 17 3 18 1 19
REMARK H PARENT
REMARK Flexibility Score: inf
ROOT
ATOM      1  C   UNL     1     254.215 260.481 246.199  1.00  0.00     0.032 C 
ENDROOT
BRANCH   1   2
ATOM      2  C   UNL     1     255.612 260.541 246.770  1.00  0.00    -0.028 C 
ATOM      3  C   UNL     1     255.909 260.723 248.077  1.00  0.00    -0.077 C 
ATOM      4  C   UNL     1     254.837 260.824 249.135  1.00  0.00     0.039 C 
BRANCH   3   5
ATOM      5  C   UNL     1     257.361 260.838 248.488  1.00  0.00     0.034 C 
BRANCH   5   6
ATOM      6  C   UNL     1     258.262 261.039 247.265  1.00  0.00     0.032 C 
BRANCH   6   7
ATOM      7  C   UNL     1     258.193 262.462 246.763  1.00  0.00    -0.028 C 
ATOM      8  C   UNL     1     258.050 264.231 245.061  1.00  0.00     0.039 C 
ATOM      9  C   UNL     1     258.114 262.778 245.453  1.00  0.00    -0.080 C 
ATOM     10  C   UNL     1     258.091 261.712 244.383  1.00  0.00     0.039 C 
ENDBRANCH   6   7
ENDBRANCH   5   6
ENDBRANCH   3   5
ENDBRANCH   1   2
BRANCH   1  11
ATOM     11  C   UNL     1     253.854 259.057 245.753  1.00  0.00     0.034 C 
BRANCH  11  12
ATOM     12  C   UNL     1     253.279 258.235 246.892  1.00  0.00    -0.077 C 
ATOM     13  C   UNL     1     252.081 258.490 247.466  1.00  0.00    -0.028 C 
ATOM     14  C   UNL     1     254.101 257.096 247.439  1.00  0.00     0.039 C 
BRANCH  13  15
ATOM     15  C   UNL     1     251.098 259.539 247.004  1.00  0.00     0.035 C 
BRANCH  15  16
ATOM     16  C   UNL     1     249.674 258.975 246.901  1.00  0.00     0.079 C 
BRANCH  16  17
ATOM     17  C   UNL     1     248.760 259.912 246.152  1.00  0.00     0.130 C 
ATOM     18  O   UNL     1     248.968 261.115 246.193  1.00  0.00    -0.300 OA
ATOM     19  C   UNL     1     247.600 259.396 245.354  1.00  0.00     0.087 C 
ENDBRANCH  16  17
ENDBRANCH  15  16
ENDBRANCH  13  15
ENDBRANCH  11  12
ENDBRANCH   1  11
TORSDOF 9
ENDMDL
MODEL 2
REMARK VINA RESULT:    -6.348      3.078      7.139
REMARK INTER + INTRA:         -10.814
REMARK INTER:                  -9.038
REMARK INTRA:                  -1.776
REMARK UNBOUND:                -1.127
REMARK SMILES CC(=O)CCC=C(C)CCC=C(C)CCC=C(C)C
REMARK SMILES IDX 10 1 11 2 12 3 13 4 14 5 15 6 16 7 18 8 17 9 19 10 9 11 7 12
REMARK SMILES IDX 6 13 8 14 5 15 4 16 2 17 3 18 1 19
REMARK H PARENT
REMARK Flexibility Score: inf
ROOT
ATOM      1  C   UNL     1     253.970 260.260 245.992  1.00  0.00     0.032 C 
ENDROOT
BRANCH   1   2
ATOM      2  C   UNL     1     253.956 258.754 245.882  1.00  0.00    -0.028 C 
ATOM      3  C   UNL     1     253.076 257.938 246.506  1.00  0.00    -0.077 C 
ATOM      4  C   UNL     1     251.947 258.475 247.350  1.00  0.00     0.039 C 
BRANCH   3   5
ATOM      5  C   UNL     1     253.236 256.440 246.358  1.00  0.00     0.034 C 
BRANCH   5   6
ATOM      6  C   UNL     1     253.405 255.769 247.726  1.00  0.00     0.032 C 
BRANCH   6   7
ATOM      7  C   UNL     1     254.796 255.206 247.891  1.00  0.00    -0.028 C 
ATOM      8  C   UNL     1     257.150 255.227 248.605  1.00  0.00     0.039 C 
ATOM      9  C   UNL     1     255.798 255.882 248.493  1.00  0.00    -0.080 C 
ATOM     10  C   UNL     1     255.592 257.271 249.049  1.00  0.00     0.039 C 
ENDBRANCH   6   7
ENDBRANCH   5   6
ENDBRANCH   3   5
ENDBRANCH   1   2
BRANCH   1  11
ATOM     11  C   UNL     1     255.381 260.785 246.295  1.00  0.00     0.034 C 
BRANCH  11  12
ATOM     12  C   UNL     1     255.673 260.798 247.784  1.00  0.00    -0.077 C 
ATOM     13  C   UNL     1     256.924 260.774 248.299  1.00  0.00    -0.028 C 
ATOM     14  C   UNL     1     254.510 260.801 248.742  1.00  0.00     0.039 C 
BRANCH  13  15
ATOM     15  C   UNL     1     258.200 260.841 247.495  1.00  0.00     0.035 C 
BRANCH  15  16
ATOM     16  C   UNL     1     258.516 262.276 247.051  1.00  0.00     0.079 C 
BRANCH  16  17
ATOM     17  C   UNL     1     259.027 262.318 245.633  1.00  0.00     0.130 C 
ATOM     18  O   UNL     1     259.913 263.105 245.336  1.00  0.00    -0.300 OA
ATOM     19  C   UNL     1     258.471 261.410 244.577  1.00  0.00     0.087 C 
ENDBRANCH  16  17
ENDBRANCH  15  16
ENDBRANCH  13  15
ENDBRANCH  11  12
ENDBRANCH   1  11
TORSDOF 9
ENDMDL
MODEL 3
REMARK VINA RESULT:    -6.328      2.556      4.738
REMARK INTER + INTRA:         -10.784
REMARK INTER:                  -9.601
REMARK INTRA:                  -1.182
REMARK UNBOUND:                -1.127
REMARK SMILES CC(=O)CCC=C(C)CCC=C(C)CCC=C(C)C
REMARK SMILES IDX 10 1 11 2 12 3 13 4 14 5 15 6 16 7 18 8 17 9 19 10 9 11 7 12
REMARK SMILES IDX 6 13 8 14 5 15 4 16 2 17 3 18 1 19
REMARK H PARENT
REMARK Flexibility Score: inf
ROOT
ATOM      1  C   UNL     1     250.126 259.122 247.182  1.00  0.00     0.032 C 
ENDROOT
BRANCH   1   2
ATOM      2  C   UNL     1     251.594 258.891 246.910  1.00  0.00    -0.028 C 
ATOM      3  C   UNL     1     252.534 259.862 246.847  1.00  0.00    -0.077 C 
ATOM      4  C   UNL     1     252.207 261.310 247.114  1.00  0.00     0.039 C 
BRANCH   3   5
ATOM      5  C   UNL     1     253.955 259.482 246.488  1.00  0.00     0.034 C 
BRANCH   5   6
ATOM      6  C   UNL     1     254.924 260.626 246.805  1.00  0.00     0.032 C 
BRANCH   6   7
ATOM      7  C   UNL     1     255.838 260.907 245.637  1.00  0.00    -0.028 C 
ATOM      8  C   UNL     1     257.933 261.600 244.550  1.00  0.00     0.039 C 
ATOM      9  C   UNL     1     257.105 261.351 245.783  1.00  0.00    -0.080 C 
ATOM     10  C   UNL     1     257.702 261.603 247.148  1.00  0.00     0.039 C 
ENDBRANCH   6   7
ENDBRANCH   5   6
ENDBRANCH   3   5
ENDBRANCH   1   2
BRANCH   1  11
ATOM     11  C   UNL     1     249.386 257.797 247.414  1.00  0.00     0.034 C 
BRANCH  11  12
ATOM     12  C   UNL     1     249.023 257.115 246.107  1.00  0.00    -0.077 C 
ATOM     13  C   UNL     1     249.668 256.025 245.630  1.00  0.00    -0.028 C 
ATOM     14  C   UNL     1     247.910 257.702 245.277  1.00  0.00     0.039 C 
BRANCH  13  15
ATOM     15  C   UNL     1     250.753 255.266 246.357  1.00  0.00     0.035 C 
BRANCH  15  16
ATOM     16  C   UNL     1     252.112 255.413 245.659  1.00  0.00     0.079 C 
BRANCH  16  17
ATOM     17  C   UNL     1     253.253 255.129 246.603  1.00  0.00     0.130 C 
ATOM     18  O   UNL     1     253.827 256.060 247.150  1.00  0.00    -0.300 OA
ATOM     19  C   UNL     1     253.698 253.726 246.889  1.00  0.00     0.087 C 
ENDBRANCH  16  17
ENDBRANCH  15  16
ENDBRANCH  13  15
ENDBRANCH  11  12
ENDBRANCH   1  11
TORSDOF 9
ENDMDL
MODEL 4
REMARK VINA RESULT:    -6.319      2.976      5.427
REMARK INTER + INTRA:         -10.770
REMARK INTER:                  -9.204
REMARK INTRA:                  -1.566
REMARK UNBOUND:                -1.127
REMARK SMILES CC(=O)CCC=C(C)CCC=C(C)CCC=C(C)C
REMARK SMILES IDX 10 1 11 2 12 3 13 4 14 5 15 6 16 7 18 8 17 9 19 10 9 11 7 12
REMARK SMILES IDX 6 13 8 14 5 15 4 16 2 17 3 18 1 19
REMARK H PARENT
REMARK Flexibility Score: inf
ROOT
ATOM      1  C   UNL     1     254.493 260.414 245.511  1.00  0.00     0.032 C 
ENDROOT
BRANCH   1   2
ATOM      2  C   UNL     1     255.533 260.872 246.506  1.00  0.00    -0.028 C 
ATOM      3  C   UNL     1     256.806 261.210 246.197  1.00  0.00    -0.077 C 
ATOM      4  C   UNL     1     257.308 261.224 244.774  1.00  0.00     0.039 C 
BRANCH   3   5
ATOM      5  C   UNL     1     257.757 261.577 247.317  1.00  0.00     0.034 C 
BRANCH   5   6
ATOM      6  C   UNL     1     257.492 260.724 248.562  1.00  0.00     0.032 C 
BRANCH   6   7
ATOM      7  C   UNL     1     257.147 261.585 249.752  1.00  0.00    -0.028 C 
ATOM      8  C   UNL     1     255.932 262.186 251.804  1.00  0.00     0.039 C 
ATOM      9  C   UNL     1     256.197 261.253 250.652  1.00  0.00    -0.080 C 
ATOM     10  C   UNL     1     255.399 259.977 250.524  1.00  0.00     0.039 C 
ENDBRANCH   6   7
ENDBRANCH   5   6
ENDBRANCH   3   5
ENDBRANCH   1   2
BRANCH   1  11
ATOM     11  C   UNL     1     254.107 258.946 245.741  1.00  0.00     0.034 C 
BRANCH  11  12
ATOM     12  C   UNL     1     253.212 258.780 246.956  1.00  0.00    -0.077 C 
ATOM     13  C   UNL     1     253.521 257.986 248.008  1.00  0.00    -0.028 C 
ATOM     14  C   UNL     1     251.892 259.508 246.979  1.00  0.00     0.039 C 
BRANCH  13  15
ATOM     15  C   UNL     1     254.823 257.243 248.187  1.00  0.00     0.035 C 
BRANCH  15  16
ATOM     16  C   UNL     1     254.597 255.826 248.731  1.00  0.00     0.079 C 
BRANCH  16  17
ATOM     17  C   UNL     1     255.847 255.269 249.364  1.00  0.00     0.130 C 
ATOM     18  O   UNL     1     255.773 254.697 250.441  1.00  0.00    -0.300 OA
ATOM     19  C   UNL     1     257.184 255.402 248.697  1.00  0.00     0.087 C 
ENDBRANCH  16  17
ENDBRANCH  15  16
ENDBRANCH  13  15
ENDBRANCH  11  12
ENDBRANCH   1  11
TORSDOF 9
ENDMDL
MODEL 5
REMARK VINA RESULT:    -6.305      3.168      7.948
REMARK INTER + INTRA:         -10.748
REMARK INTER:                  -9.644
REMARK INTRA:                  -1.104
REMARK UNBOUND:                -1.127
REMARK SMILES CC(=O)CCC=C(C)CCC=C(C)CCC=C(C)C
REMARK SMILES IDX 10 1 11 2 12 3 13 4 14 5 15 6 16 7 18 8 17 9 19 10 9 11 7 12
REMARK SMILES IDX 6 13 8 14 5 15 4 16 2 17 3 18 1 19
REMARK H PARENT
REMARK Flexibility Score: inf
ROOT
ATOM      1  C   UNL     1     257.091 261.152 244.789  1.00  0.00     0.032 C 
ENDROOT
BRANCH   1   2
ATOM      2  C   UNL     1     256.229 261.248 246.025  1.00  0.00    -0.028 C 
ATOM      3  C   UNL     1     255.029 260.643 246.184  1.00  0.00    -0.077 C 
ATOM      4  C   UNL     1     254.446 259.734 245.130  1.00  0.00     0.039 C 
BRANCH   3   5
ATOM      5  C   UNL     1     254.245 260.896 247.454  1.00  0.00     0.034 C 
BRANCH   5   6
ATOM      6  C   UNL     1     252.790 260.439 247.299  1.00  0.00     0.032 C 
BRANCH   6   7
ATOM      7  C   UNL     1     251.879 261.606 247.001  1.00  0.00    -0.028 C 
ATOM      8  C   UNL     1     249.722 262.714 246.591  1.00  0.00     0.039 C 
ATOM      9  C   UNL     1     250.539 261.485 246.891  1.00  0.00    -0.080 C 
ATOM     10  C   UNL     1     249.849 260.151 247.058  1.00  0.00     0.039 C 
ENDBRANCH   6   7
ENDBRANCH   5   6
ENDBRANCH   3   5
ENDBRANCH   1   2
BRANCH   1  11
ATOM     11  C   UNL     1     258.573 261.371 245.123  1.00  0.00     0.034 C 
BRANCH  11  12
ATOM     12  C   UNL     1     258.818 262.734 245.744  1.00  0.00    -0.077 C 
ATOM     13  C   UNL     1     259.280 262.909 247.004  1.00  0.00    -0.028 C 
ATOM     14  C   UNL     1     258.497 263.961 244.928  1.00  0.00     0.039 C 
BRANCH  13  15
ATOM     15  C   UNL     1     259.719 261.802 247.933  1.00  0.00     0.035 C 
BRANCH  15  16
ATOM     16  C   UNL     1     258.810 261.704 249.166  1.00  0.00     0.079 C 
BRANCH  16  17
ATOM     17  C   UNL     1     259.378 262.467 250.335  1.00  0.00     0.130 C 
ATOM     18  O   UNL     1     258.646 262.780 251.263  1.00  0.00    -0.300 OA
ATOM     19  C   UNL     1     260.827 262.850 250.386  1.00  0.00     0.087 C 
ENDBRANCH  16  17
ENDBRANCH  15  16
ENDBRANCH  13  15
ENDBRANCH  11  12
ENDBRANCH   1  11
TORSDOF 9
ENDMDL
MODEL 6
REMARK VINA RESULT:    -6.298      3.557      6.948
REMARK INTER + INTRA:         -10.738
REMARK INTER:                  -8.650
REMARK INTRA:                  -2.087
REMARK UNBOUND:                -1.127
REMARK SMILES CC(=O)CCC=C(C)CCC=C(C)CCC=C(C)C
REMARK SMILES IDX 10 1 11 2 12 3 13 4 14 5 15 6 16 7 18 8 17 9 19 10 9 11 7 12
REMARK SMILES IDX 6 13 8 14 5 15 4 16 2 17 3 18 1 19
REMARK H PARENT
REMARK Flexibility Score: inf
ROOT
ATOM      1  C   UNL     1     255.389 259.414 250.654  1.00  0.00     0.032 C 
ENDROOT
BRANCH   1   2
ATOM      2  C   UNL     1     254.344 258.647 249.880  1.00  0.00    -0.028 C 
ATOM      3  C   UNL     1     254.599 257.614 249.045  1.00  0.00    -0.077 C 
ATOM      4  C   UNL     1     255.992 257.069 248.849  1.00  0.00     0.039 C 
BRANCH   3   5
ATOM      5  C   UNL     1     253.451 256.992 248.279  1.00  0.00     0.034 C 
BRANCH   5   6
ATOM      6  C   UNL     1     252.727 258.042 247.430  1.00  0.00     0.032 C 
BRANCH   6   7
ATOM      7  C   UNL     1     253.592 258.512 246.285  1.00  0.00    -0.028 C 
ATOM      8  C   UNL     1     254.814 260.164 244.933  1.00  0.00     0.039 C 
ATOM      9  C   UNL     1     253.946 259.803 246.111  1.00  0.00    -0.080 C 
ATOM     10  C   UNL     1     253.492 260.883 247.064  1.00  0.00     0.039 C 
ENDBRANCH   6   7
ENDBRANCH   5   6
ENDBRANCH   3   5
ENDBRANCH   1   2
BRANCH   1  11
ATOM     11  C   UNL     1     255.286 260.923 250.389  1.00  0.00     0.034 C 
BRANCH  11  12
ATOM     12  C   UNL     1     256.041 261.734 251.427  1.00  0.00    -0.077 C 
ATOM     13  C   UNL     1     257.173 262.423 251.157  1.00  0.00    -0.028 C 
ATOM     14  C   UNL     1     255.523 261.743 252.842  1.00  0.00     0.039 C 
BRANCH  13  15
ATOM     15  C   UNL     1     257.792 262.582 249.789  1.00  0.00     0.035 C 
BRANCH  15  16
ATOM     16  C   UNL     1     258.936 261.584 249.564  1.00  0.00     0.079 C 
BRANCH  16  17
ATOM     17  C   UNL     1     258.721 260.766 248.317  1.00  0.00     0.130 C 
ATOM     18  O   UNL     1     259.598 260.004 247.937  1.00  0.00    -0.300 OA
ATOM     19  C   UNL     1     257.448 260.865 247.529  1.00  0.00     0.087 C 
ENDBRANCH  16  17
ENDBRANCH  15  16
ENDBRANCH  13  15
ENDBRANCH  11  12
ENDBRANCH   1  11
TORSDOF 9
ENDMDL
MODEL 7
REMARK VINA RESULT:    -6.269      2.806      7.790
REMARK INTER + INTRA:         -10.693
REMARK INTER:                  -9.313
REMARK INTRA:                  -1.381
REMARK UNBOUND:                -1.127
REMARK SMILES CC(=O)CCC=C(C)CCC=C(C)CCC=C(C)C
REMARK SMILES IDX 10 1 11 2 12 3 13 4 14 5 15 6 16 7 18 8 17 9 19 10 9 11 7 12
REMARK SMILES IDX 6 13 8 14 5 15 4 16 2 17 3 18 1 19
REMARK H PARENT
REMARK Flexibility Score: inf
ROOT
ATOM      1  C   UNL     1     253.100 260.687 246.794  1.00  0.00     0.032 C 
ENDROOT
BRANCH   1   2
ATOM      2  C   UNL     1     252.005 259.707 247.141  1.00  0.00    -0.028 C 
ATOM      3  C   UNL     1     252.096 258.363 247.010  1.00  0.00    -0.077 C 
ATOM      4  C   UNL     1     253.365 257.688 246.549  1.00  0.00     0.039 C 
BRANCH   3   5
ATOM      5  C   UNL     1     250.884 257.514 247.328  1.00  0.00     0.034 C 
BRANCH   5   6
ATOM      6  C   UNL     1     249.599 258.347 247.264  1.00  0.00     0.032 C 
BRANCH   6   7
ATOM      7  C   UNL     1     248.478 257.574 246.612  1.00  0.00    -0.028 C 
ATOM      8  C   UNL     1     246.543 257.261 245.126  1.00  0.00     0.039 C 
ATOM      9  C   UNL     1     247.628 258.122 245.717  1.00  0.00    -0.080 C 
ATOM     10  C   UNL     1     247.742 259.571 245.304  1.00  0.00     0.039 C 
ENDBRANCH   6   7
ENDBRANCH   5   6
ENDBRANCH   3   5
ENDBRANCH   1   2
BRANCH   1  11
ATOM     11  C   UNL     1     253.899 261.098 248.039  1.00  0.00     0.034 C 
BRANCH  11  12
ATOM     12  C   UNL     1     255.305 260.527 248.023  1.00  0.00    -0.077 C 
ATOM     13  C   UNL     1     255.790 259.709 248.985  1.00  0.00    -0.028 C 
ATOM     14  C   UNL     1     256.225 260.921 246.896  1.00  0.00     0.039 C 
BRANCH  13  15
ATOM     15  C   UNL     1     254.993 259.156 250.143  1.00  0.00     0.035 C 
BRANCH  15  16
ATOM     16  C   UNL     1     255.054 260.082 251.366  1.00  0.00     0.079 C 
BRANCH  16  17
ATOM     17  C   UNL     1     254.871 259.315 252.651  1.00  0.00     0.130 C 
ATOM     18  O   UNL     1     254.050 259.700 253.470  1.00  0.00    -0.300 OA
ATOM     19  C   UNL     1     255.675 258.084 252.945  1.00  0.00     0.087 C 
ENDBRANCH  16  17
ENDBRANCH  15  16
ENDBRANCH  13  15
ENDBRANCH  11  12
ENDBRANCH   1  11
TORSDOF 9
ENDMDL
MODEL 8
REMARK VINA RESULT:    -6.239      2.803      6.722
REMARK INTER + INTRA:         -10.649
REMARK INTER:                  -9.133
REMARK INTRA:                  -1.516
REMARK UNBOUND:                -1.127
REMARK SMILES CC(=O)CCC=C(C)CCC=C(C)CCC=C(C)C
REMARK SMILES IDX 10 1 11 2 12 3 13 4 14 5 15 6 16 7 18 8 17 9 19 10 9 11 7 12
REMARK SMILES IDX 6 13 8 14 5 15 4 16 2 17 3 18 1 19
REMARK H PARENT
REMARK Flexibility Score: inf
ROOT
ATOM      1  C   UNL     1     253.744 259.988 246.276  1.00  0.00     0.032 C 
ENDROOT
BRANCH   1   2
ATOM      2  C   UNL     1     253.783 258.478 246.304  1.00  0.00    -0.028 C 
ATOM      3  C   UNL     1     252.729 257.679 246.591  1.00  0.00    -0.077 C 
ATOM      4  C   UNL     1     251.352 258.237 246.855  1.00  0.00     0.039 C 
BRANCH   3   5
ATOM      5  C   UNL     1     252.942 256.182 246.656  1.00  0.00     0.034 C 
BRANCH   5   6
ATOM      6  C   UNL     1     253.340 255.747 248.070  1.00  0.00     0.032 C 
BRANCH   6   7
ATOM      7  C   UNL     1     254.761 255.239 248.107  1.00  0.00    -0.028 C 
ATOM      8  C   UNL     1     257.161 255.338 248.635  1.00  0.00     0.039 C 
ATOM      9  C   UNL     1     255.780 255.938 248.652  1.00  0.00    -0.080 C 
ATOM     10  C   UNL     1     255.562 257.299 249.270  1.00  0.00     0.039 C 
ENDBRANCH   6   7
ENDBRANCH   5   6
ENDBRANCH   3   5
ENDBRANCH   1   2
BRANCH   1  11
ATOM     11  C   UNL     1     253.994 260.580 247.670  1.00  0.00     0.034 C 
BRANCH  11  12
ATOM     12  C   UNL     1     255.471 260.826 247.923  1.00  0.00    -0.077 C 
ATOM     13  C   UNL     1     256.000 260.980 249.159  1.00  0.00    -0.028 C 
ATOM     14  C   UNL     1     256.392 260.943 246.736  1.00  0.00     0.039 C 
BRANCH  13  15
ATOM     15  C   UNL     1     255.245 260.824 250.457  1.00  0.00     0.035 C 
BRANCH  15  16
ATOM     16  C   UNL     1     255.820 261.726 251.559  1.00  0.00     0.079 C 
BRANCH  16  17
ATOM     17  C   UNL     1     254.741 262.221 252.488  1.00  0.00     0.130 C 
ATOM     18  O   UNL     1     253.728 262.721 252.022  1.00  0.00    -0.300 OA
ATOM     19  C   UNL     1     254.883 262.109 253.977  1.00  0.00     0.087 C 
ENDBRANCH  16  17
ENDBRANCH  15  16
ENDBRANCH  13  15
ENDBRANCH  11  12
ENDBRANCH   1  11
TORSDOF 9
ENDMDL
MODEL 9
REMARK VINA RESULT:    -6.203      2.452      4.141
REMARK INTER + INTRA:         -10.593
REMARK INTER:                  -9.157
REMARK INTRA:                  -1.436
REMARK UNBOUND:                -1.127
REMARK SMILES CC(=O)CCC=C(C)CCC=C(C)CCC=C(C)C
REMARK SMILES IDX 10 1 11 2 12 3 13 4 14 5 15 6 16 7 18 8 17 9 19 10 9 11 7 12
REMARK SMILES IDX 6 13 8 14 5 15 4 16 2 17 3 18 1 19
REMARK H PARENT
REMARK Flexibility Score: inf
ROOT
ATOM      1  C   UNL     1     253.789 260.863 247.883  1.00  0.00     0.032 C 
ENDROOT
BRANCH   1   2
ATOM      2  C   UNL     1     255.298 260.896 247.914  1.00  0.00    -0.028 C 
ATOM      3  C   UNL     1     256.051 260.946 249.037  1.00  0.00    -0.077 C 
ATOM      4  C   UNL     1     255.436 260.907 250.415  1.00  0.00     0.039 C 
BRANCH   3   5
ATOM      5  C   UNL     1     257.555 261.052 248.906  1.00  0.00     0.034 C 
BRANCH   5   6
ATOM      6  C   UNL     1     257.994 260.840 247.453  1.00  0.00     0.032 C 
BRANCH   6   7
ATOM      7  C   UNL     1     258.170 262.157 246.737  1.00  0.00    -0.028 C 
ATOM      8  C   UNL     1     258.105 263.684 244.810  1.00  0.00     0.039 C 
ATOM      9  C   UNL     1     257.894 262.326 245.426  1.00  0.00    -0.080 C 
ATOM     10  C   UNL     1     257.384 261.188 244.573  1.00  0.00     0.039 C 
ENDBRANCH   6   7
ENDBRANCH   5   6
ENDBRANCH   3   5
ENDBRANCH   1   2
BRANCH   1  11
ATOM     11  C   UNL     1     253.271 260.146 246.628  1.00  0.00     0.034 C 
BRANCH  11  12
ATOM     12  C   UNL     1     252.308 259.024 246.973  1.00  0.00    -0.077 C 
ATOM     13  C   UNL     1     252.701 257.752 247.215  1.00  0.00    -0.028 C 
ATOM     14  C   UNL     1     250.834 259.334 247.014  1.00  0.00     0.039 C 
BRANCH  13  15
ATOM     15  C   UNL     1     254.133 257.280 247.287  1.00  0.00     0.035 C 
BRANCH  15  16
ATOM     16  C   UNL     1     254.663 257.294 248.728  1.00  0.00     0.079 C 
BRANCH  16  17
ATOM     17  C   UNL     1     255.261 255.964 249.111  1.00  0.00     0.130 C 
ATOM     18  O   UNL     1     254.964 255.457 250.182  1.00  0.00    -0.300 OA
ATOM     19  C   UNL     1     256.214 255.248 248.202  1.00  0.00     0.087 C 
ENDBRANCH  16  17
ENDBRANCH  15  16
ENDBRANCH  13  15
ENDBRANCH  11  12
ENDBRANCH   1  11
TORSDOF 9
ENDMDL
