MODEL 1
REMARK VINA RESULT:    -5.185      0.000      0.000
REMARK INTER + INTRA:         -11.288
REMARK INTER:                  -9.125
REMARK INTRA:                  -2.163
REMARK UNBOUND:                -2.163
REMARK SMILES CCCCCCC=CCCCCCCCC(=O)[O-]
REMARK SMILES IDX 10 1 11 2 12 3 13 4 14 5 15 6 16 7 17 8 18 9 9 10 8 11 7 12
REMARK SMILES IDX 6 13 5 14 4 15 3 16 2 17 1 18
REMARK H PARENT
REMARK Flexibility Score: inf
ROOT
ATOM      1  C   UNL     1     -44.320  13.214  -1.192  1.00  0.00     0.004 C 
ENDROOT
BRANCH   1   2
ATOM      2  C   UNL     1     -44.846  13.175   0.259  1.00  0.00     0.000 C 
BRANCH   2   3
ATOM      3  C   UNL     1     -44.525  11.882   1.030  1.00  0.00     0.000 C 
BRANCH   3   4
ATOM      4  C   UNL     1     -43.016  11.600   1.119  1.00  0.00     0.000 C 
BRANCH   4   5
ATOM      5  C   UNL     1     -42.250  12.683   1.902  1.00  0.00     0.006 C 
BRANCH   5   6
ATOM      6  C   UNL     1     -40.721  12.518   1.854  1.00  0.00     0.053 C 
BRANCH   6   7
ATOM      7  C   UNL     1     -39.994  13.790   2.158  1.00  0.00     0.041 C 
ATOM      8  O   UNL     1     -39.159  14.258   1.339  1.00  0.00    -0.550 OA
ATOM      9  O   UNL     1     -40.240  14.465   3.347  1.00  0.00    -0.550 OA
ENDBRANCH   6   7
ENDBRANCH   5   6
ENDBRANCH   4   5
ENDBRANCH   3   4
ENDBRANCH   2   3
ENDBRANCH   1   2
BRANCH   1  10
ATOM     10  C   UNL     1     -43.500  14.468  -1.540  1.00  0.00     0.027 C 
BRANCH  10  11
ATOM     11  C   UNL     1     -42.016  14.241  -1.427  1.00  0.00    -0.031 C 
ATOM     12  C   UNL     1     -41.431  13.148  -1.941  1.00  0.00    -0.031 C 
BRANCH  12  13
ATOM     13  C   UNL     1     -39.946  12.930  -1.838  1.00  0.00     0.027 C 
BRANCH  13  14
ATOM     14  C   UNL     1     -39.253  13.182  -3.182  1.00  0.00     0.004 C 
BRANCH  14  15
ATOM     15  C   UNL     1     -38.880  14.660  -3.339  1.00  0.00     0.000 C 
BRANCH  15  16
ATOM     16  C   UNL     1     -39.473  15.246  -4.627  1.00  0.00    -0.000 C 
BRANCH  16  17
ATOM     17  C   UNL     1     -40.640  16.189  -4.315  1.00  0.00    -0.003 C 
ATOM     18  C   UNL     1     -41.968  15.590  -4.765  1.00  0.00     0.004 C 
ENDBRANCH  16  17
ENDBRANCH  15  16
ENDBRANCH  14  15
ENDBRANCH  13  14
ENDBRANCH  12  13
ENDBRANCH  10  11
ENDBRANCH   1  10
TORSDOF 13
ENDMDL
MODEL 2
REMARK VINA RESULT:    -5.146      2.891      5.908
REMARK INTER + INTRA:         -11.220
REMARK INTER:                  -9.361
REMARK INTRA:                  -1.859
REMARK UNBOUND:                -2.163
REMARK SMILES CCCCCCC=CCCCCCCCC(=O)[O-]
REMARK SMILES IDX 10 1 11 2 12 3 13 4 14 5 15 6 16 7 17 8 18 9 9 10 8 11 7 12
REMARK SMILES IDX 6 13 5 14 4 15 3 16 2 17 1 18
REMARK H PARENT
REMARK Flexibility Score: inf
ROOT
ATOM      1  C   UNL     1     -39.885  13.520   1.804  1.00  0.00     0.004 C 
ENDROOT
BRANCH   1   2
ATOM      2  C   UNL     1     -38.714  13.462   0.801  1.00  0.00     0.000 C 
BRANCH   2   3
ATOM      3  C   UNL     1     -38.445  14.773   0.041  1.00  0.00     0.000 C 
BRANCH   3   4
ATOM      4  C   UNL     1     -37.221  14.684  -0.886  1.00  0.00     0.000 C 
BRANCH   4   5
ATOM      5  C   UNL     1     -37.595  14.346  -2.341  1.00  0.00     0.006 C 
BRANCH   5   6
ATOM      6  C   UNL     1     -38.153  15.542  -3.132  1.00  0.00     0.053 C 
BRANCH   6   7
ATOM      7  C   UNL     1     -37.241  15.981  -4.234  1.00  0.00     0.041 C 
ATOM      8  O   UNL     1     -35.992  15.933  -4.082  1.00  0.00    -0.550 OA
ATOM      9  O   UNL     1     -37.770  16.440  -5.434  1.00  0.00    -0.550 OA
ENDBRANCH   6   7
ENDBRANCH   5   6
ENDBRANCH   4   5
ENDBRANCH   3   4
ENDBRANCH   2   3
ENDBRANCH   1   2
BRANCH   1  10
ATOM     10  C   UNL     1     -40.812  12.292   1.776  1.00  0.00     0.027 C 
BRANCH  10  11
ATOM     11  C   UNL     1     -42.269  12.666   1.748  1.00  0.00    -0.031 C 
ATOM     12  C   UNL     1     -43.147  12.018   0.966  1.00  0.00    -0.031 C 
BRANCH  12  13
ATOM     13  C   UNL     1     -44.606  12.386   0.951  1.00  0.00     0.027 C 
BRANCH  13  14
ATOM     14  C   UNL     1     -44.903  13.432  -0.131  1.00  0.00     0.004 C 
BRANCH  14  15
ATOM     15  C   UNL     1     -44.102  13.147  -1.405  1.00  0.00     0.000 C 
BRANCH  15  16
ATOM     16  C   UNL     1     -43.431  14.422  -1.932  1.00  0.00    -0.000 C 
BRANCH  16  17
ATOM     17  C   UNL     1     -41.961  14.488  -1.502  1.00  0.00    -0.003 C 
ATOM     18  C   UNL     1     -41.190  13.266  -1.991  1.00  0.00     0.004 C 
ENDBRANCH  16  17
ENDBRANCH  15  16
ENDBRANCH  14  15
ENDBRANCH  13  14
ENDBRANCH  12  13
ENDBRANCH  10  11
ENDBRANCH   1  10
TORSDOF 13
ENDMDL
MODEL 3
REMARK VINA RESULT:    -5.124      2.905      6.722
REMARK INTER + INTRA:         -11.181
REMARK INTER:                  -9.781
REMARK INTRA:                  -1.400
REMARK UNBOUND:                -2.163
REMARK SMILES CCCCCCC=CCCCCCCCC(=O)[O-]
REMARK SMILES IDX 10 1 11 2 12 3 13 4 14 5 15 6 16 7 17 8 18 9 9 10 8 11 7 12
REMARK SMILES IDX 6 13 5 14 4 15 3 16 2 17 1 18
REMARK H PARENT
REMARK Flexibility Score: inf
ROOT
ATOM      1  C   UNL     1     -40.866  15.322  -3.617  1.00  0.00     0.004 C 
ENDROOT
BRANCH   1   2
ATOM      2  C   UNL     1     -39.645  14.696  -4.324  1.00  0.00     0.000 C 
BRANCH   2   3
ATOM      3  C   UNL     1     -39.056  13.457  -3.627  1.00  0.00     0.000 C 
BRANCH   3   4
ATOM      4  C   UNL     1     -37.739  12.984  -4.264  1.00  0.00     0.000 C 
BRANCH   4   5
ATOM      5  C   UNL     1     -36.499  13.650  -3.638  1.00  0.00     0.006 C 
BRANCH   5   6
ATOM      6  C   UNL     1     -35.547  14.280  -4.670  1.00  0.00     0.053 C 
BRANCH   6   7
ATOM      7  C   UNL     1     -35.478  15.771  -4.556  1.00  0.00     0.041 C 
ATOM      8  O   UNL     1     -34.396  16.376  -4.779  1.00  0.00    -0.550 OA
ATOM      9  O   UNL     1     -36.612  16.495  -4.209  1.00  0.00    -0.550 OA
ENDBRANCH   6   7
ENDBRANCH   5   6
ENDBRANCH   4   5
ENDBRANCH   3   4
ENDBRANCH   2   3
ENDBRANCH   1   2
BRANCH   1  10
ATOM     10  C   UNL     1     -40.983  14.980  -2.121  1.00  0.00     0.027 C 
BRANCH  10  11
ATOM     11  C   UNL     1     -42.388  14.628  -1.715  1.00  0.00    -0.031 C 
ATOM     12  C   UNL     1     -42.914  13.421  -1.976  1.00  0.00    -0.031 C 
BRANCH  12  13
ATOM     13  C   UNL     1     -44.315  13.067  -1.557  1.00  0.00     0.027 C 
BRANCH  13  14
ATOM     14  C   UNL     1     -44.563  13.428  -0.087  1.00  0.00     0.004 C 
BRANCH  14  15
ATOM     15  C   UNL     1     -44.702  12.167   0.773  1.00  0.00     0.000 C 
BRANCH  15  16
ATOM     16  C   UNL     1     -43.327  11.604   1.152  1.00  0.00    -0.000 C 
BRANCH  16  17
ATOM     17  C   UNL     1     -42.440  12.689   1.771  1.00  0.00    -0.003 C 
ATOM     18  C   UNL     1     -41.039  12.665   1.168  1.00  0.00     0.004 C 
ENDBRANCH  16  17
ENDBRANCH  15  16
ENDBRANCH  14  15
ENDBRANCH  13  14
ENDBRANCH  12  13
ENDBRANCH  10  11
ENDBRANCH   1  10
TORSDOF 13
ENDMDL
MODEL 4
REMARK VINA RESULT:    -5.111      2.856      5.706
REMARK INTER + INTRA:         -11.158
REMARK INTER:                  -9.491
REMARK INTRA:                  -1.667
REMARK UNBOUND:                -2.163
REMARK SMILES CCCCCCC=CCCCCCCCC(=O)[O-]
REMARK SMILES IDX 10 1 11 2 12 3 13 4 14 5 15 6 16 7 17 8 18 9 9 10 8 11 7 12
REMARK SMILES IDX 6 13 5 14 4 15 3 16 2 17 1 18
REMARK H PARENT
REMARK Flexibility Score: inf
ROOT
ATOM      1  C   UNL     1     -39.897  13.711   2.123  1.00  0.00     0.004 C 
ENDROOT
BRANCH   1   2
ATOM      2  C   UNL     1     -39.424  14.677   1.016  1.00  0.00     0.000 C 
BRANCH   2   3
ATOM      3  C   UNL     1     -38.317  14.123   0.101  1.00  0.00     0.000 C 
BRANCH   3   4
ATOM      4  C   UNL     1     -37.844  15.145  -0.947  1.00  0.00     0.000 C 
BRANCH   4   5
ATOM      5  C   UNL     1     -38.790  15.239  -2.160  1.00  0.00     0.006 C 
BRANCH   5   6
ATOM      6  C   UNL     1     -38.875  13.941  -2.982  1.00  0.00     0.053 C 
BRANCH   6   7
ATOM      7  C   UNL     1     -37.815  13.855  -4.035  1.00  0.00     0.041 C 
ATOM      8  O   UNL     1     -37.514  14.869  -4.719  1.00  0.00    -0.550 OA
ATOM      9  O   UNL     1     -37.153  12.655  -4.260  1.00  0.00    -0.550 OA
ENDBRANCH   6   7
ENDBRANCH   5   6
ENDBRANCH   4   5
ENDBRANCH   3   4
ENDBRANCH   2   3
ENDBRANCH   1   2
BRANCH   1  10
ATOM     10  C   UNL     1     -40.151  12.269   1.647  1.00  0.00     0.027 C 
BRANCH  10  11
ATOM     11  C   UNL     1     -41.507  12.097   1.017  1.00  0.00    -0.031 C 
ATOM     12  C   UNL     1     -42.628  12.483   1.645  1.00  0.00    -0.031 C 
BRANCH  12  13
ATOM     13  C   UNL     1     -43.981  12.322   1.008  1.00  0.00     0.027 C 
BRANCH  13  14
ATOM     14  C   UNL     1     -43.918  11.373  -0.195  1.00  0.00     0.004 C 
BRANCH  14  15
ATOM     15  C   UNL     1     -44.057  12.145  -1.512  1.00  0.00     0.000 C 
BRANCH  15  16
ATOM     16  C   UNL     1     -44.672  13.530  -1.277  1.00  0.00    -0.000 C 
BRANCH  16  17
ATOM     17  C   UNL     1     -43.863  14.619  -1.988  1.00  0.00    -0.003 C 
ATOM     18  C   UNL     1     -42.389  14.551  -1.602  1.00  0.00     0.004 C 
ENDBRANCH  16  17
ENDBRANCH  15  16
ENDBRANCH  14  15
ENDBRANCH  13  14
ENDBRANCH  12  13
ENDBRANCH  10  11
ENDBRANCH   1  10
TORSDOF 13
ENDMDL
MODEL 5
REMARK VINA RESULT:    -5.108      1.343      2.193
REMARK INTER + INTRA:         -11.153
REMARK INTER:                  -9.512
REMARK INTRA:                  -1.641
REMARK UNBOUND:                -2.163
REMARK SMILES CCCCCCC=CCCCCCCCC(=O)[O-]
REMARK SMILES IDX 10 1 11 2 12 3 13 4 14 5 15 6 16 7 17 8 18 9 9 10 8 11 7 12
REMARK SMILES IDX 6 13 5 14 4 15 3 16 2 17 1 18
REMARK H PARENT
REMARK Flexibility Score: inf
ROOT
ATOM      1  C   UNL     1     -44.465  13.539  -1.537  1.00  0.00     0.004 C 
ENDROOT
BRANCH   1   2
ATOM      2  C   UNL     1     -45.116  13.679  -0.144  1.00  0.00     0.000 C 
BRANCH   2   3
ATOM      3  C   UNL     1     -44.706  12.601   0.874  1.00  0.00     0.000 C 
BRANCH   3   4
ATOM      4  C   UNL     1     -43.316  12.008   0.587  1.00  0.00     0.000 C 
BRANCH   4   5
ATOM      5  C   UNL     1     -42.210  12.625   1.465  1.00  0.00     0.006 C 
BRANCH   5   6
ATOM      6  C   UNL     1     -40.792  12.152   1.099  1.00  0.00     0.053 C 
BRANCH   6   7
ATOM      7  C   UNL     1     -39.724  12.974   1.750  1.00  0.00     0.041 C 
ATOM      8  O   UNL     1     -40.026  14.012   2.395  1.00  0.00    -0.550 OA
ATOM      9  O   UNL     1     -38.393  12.590   1.650  1.00  0.00    -0.550 OA
ENDBRANCH   6   7
ENDBRANCH   5   6
ENDBRANCH   4   5
ENDBRANCH   3   4
ENDBRANCH   2   3
ENDBRANCH   1   2
BRANCH   1  10
ATOM     10  C   UNL     1     -43.585  14.731  -1.953  1.00  0.00     0.027 C 
BRANCH  10  11
ATOM     11  C   UNL     1     -42.174  14.324  -2.280  1.00  0.00    -0.031 C 
ATOM     12  C   UNL     1     -41.138  14.704  -1.516  1.00  0.00    -0.031 C 
BRANCH  12  13
ATOM     13  C   UNL     1     -39.729  14.284  -1.838  1.00  0.00     0.027 C 
BRANCH  13  14
ATOM     14  C   UNL     1     -39.695  13.325  -3.033  1.00  0.00     0.004 C 
BRANCH  14  15
ATOM     15  C   UNL     1     -38.771  13.854  -4.136  1.00  0.00     0.000 C 
BRANCH  15  16
ATOM     16  C   UNL     1     -37.503  13.000  -4.250  1.00  0.00    -0.000 C 
BRANCH  16  17
ATOM     17  C   UNL     1     -36.253  13.824  -3.920  1.00  0.00    -0.003 C 
ATOM     18  C   UNL     1     -36.595  15.302  -3.759  1.00  0.00     0.004 C 
ENDBRANCH  16  17
ENDBRANCH  15  16
ENDBRANCH  14  15
ENDBRANCH  13  14
ENDBRANCH  12  13
ENDBRANCH  10  11
ENDBRANCH   1  10
TORSDOF 13
ENDMDL
MODEL 6
REMARK VINA RESULT:    -5.105      2.544      6.237
REMARK INTER + INTRA:         -11.147
REMARK INTER:                  -9.416
REMARK INTRA:                  -1.731
REMARK UNBOUND:                -2.163
REMARK SMILES CCCCCCC=CCCCCCCCC(=O)[O-]
REMARK SMILES IDX 10 1 11 2 12 3 13 4 14 5 15 6 16 7 17 8 18 9 9 10 8 11 7 12
REMARK SMILES IDX 6 13 5 14 4 15 3 16 2 17 1 18
REMARK H PARENT
REMARK Flexibility Score: inf
ROOT
ATOM      1  C   UNL     1     -39.636  14.893  -0.163  1.00  0.00     0.004 C 
ENDROOT
BRANCH   1   2
ATOM      2  C   UNL     1     -38.267  14.190  -0.046  1.00  0.00     0.000 C 
BRANCH   2   3
ATOM      3  C   UNL     1     -37.139  14.827  -0.876  1.00  0.00     0.000 C 
BRANCH   3   4
ATOM      4  C   UNL     1     -36.396  13.807  -1.755  1.00  0.00     0.000 C 
BRANCH   4   5
ATOM      5  C   UNL     1     -36.448  14.159  -3.254  1.00  0.00     0.006 C 
BRANCH   5   6
ATOM      6  C   UNL     1     -37.186  13.115  -4.111  1.00  0.00     0.053 C 
BRANCH   6   7
ATOM      7  C   UNL     1     -38.673  13.256  -4.037  1.00  0.00     0.041 C 
ATOM      8  O   UNL     1     -39.271  14.088  -4.771  1.00  0.00    -0.550 OA
ATOM      9  O   UNL     1     -39.405  12.464  -3.160  1.00  0.00    -0.550 OA
ENDBRANCH   6   7
ENDBRANCH   5   6
ENDBRANCH   4   5
ENDBRANCH   3   4
ENDBRANCH   2   3
ENDBRANCH   1   2
BRANCH   1  10
ATOM     10  C   UNL     1     -39.892  15.575  -1.518  1.00  0.00     0.027 C 
BRANCH  10  11
ATOM     11  C   UNL     1     -41.291  15.351  -2.026  1.00  0.00    -0.031 C 
ATOM     12  C   UNL     1     -42.084  14.402  -1.506  1.00  0.00    -0.031 C 
BRANCH  12  13
ATOM     13  C   UNL     1     -43.487  14.189  -2.006  1.00  0.00     0.027 C 
BRANCH  13  14
ATOM     14  C   UNL     1     -44.078  12.883  -1.463  1.00  0.00     0.004 C 
BRANCH  14  15
ATOM     15  C   UNL     1     -44.756  13.109  -0.107  1.00  0.00     0.000 C 
BRANCH  15  16
ATOM     16  C   UNL     1     -44.204  12.147   0.952  1.00  0.00    -0.000 C 
BRANCH  16  17
ATOM     17  C   UNL     1     -42.911  12.692   1.569  1.00  0.00    -0.003 C 
ATOM     18  C   UNL     1     -41.705  11.859   1.146  1.00  0.00     0.004 C 
ENDBRANCH  16  17
ENDBRANCH  15  16
ENDBRANCH  14  15
ENDBRANCH  13  14
ENDBRANCH  12  13
ENDBRANCH  10  11
ENDBRANCH   1  10
TORSDOF 13
ENDMDL
MODEL 7
REMARK VINA RESULT:    -5.104      9.728     11.584
REMARK INTER + INTRA:         -11.145
REMARK INTER:                  -9.057
REMARK INTRA:                  -2.088
REMARK UNBOUND:                -2.163
REMARK SMILES CCCCCCC=CCCCCCCCC(=O)[O-]
REMARK SMILES IDX 10 1 11 2 12 3 13 4 14 5 15 6 16 7 17 8 18 9 9 10 8 11 7 12
REMARK SMILES IDX 6 13 5 14 4 15 3 16 2 17 1 18
REMARK H PARENT
REMARK Flexibility Score: inf
ROOT
ATOM      1  C   UNL     1     -41.478  25.122  -1.494  1.00  0.00     0.004 C 
ENDROOT
BRANCH   1   2
ATOM      2  C   UNL     1     -40.255  25.989  -1.128  1.00  0.00     0.000 C 
BRANCH   2   3
ATOM      3  C   UNL     1     -39.324  25.381  -0.064  1.00  0.00     0.000 C 
BRANCH   3   4
ATOM      4  C   UNL     1     -39.363  26.147   1.270  1.00  0.00     0.000 C 
BRANCH   4   5
ATOM      5  C   UNL     1     -40.787  26.268   1.847  1.00  0.00     0.006 C 
BRANCH   5   6
ATOM      6  C   UNL     1     -41.224  25.050   2.680  1.00  0.00     0.053 C 
BRANCH   6   7
ATOM      7  C   UNL     1     -42.535  24.485   2.231  1.00  0.00     0.041 C 
ATOM      8  O   UNL     1     -43.428  25.241   1.765  1.00  0.00    -0.550 OA
ATOM      9  O   UNL     1     -42.771  23.119   2.321  1.00  0.00    -0.550 OA
ENDBRANCH   6   7
ENDBRANCH   5   6
ENDBRANCH   4   5
ENDBRANCH   3   4
ENDBRANCH   2   3
ENDBRANCH   1   2
BRANCH   1  10
ATOM     10  C   UNL     1     -41.316  23.623  -1.182  1.00  0.00     0.027 C 
BRANCH  10  11
ATOM     11  C   UNL     1     -42.618  22.872  -1.250  1.00  0.00    -0.031 C 
ATOM     12  C   UNL     1     -43.795  23.486  -1.052  1.00  0.00    -0.031 C 
BRANCH  12  13
ATOM     13  C   UNL     1     -45.096  22.735  -1.134  1.00  0.00     0.027 C 
BRANCH  13  14
ATOM     14  C   UNL     1     -45.714  22.845  -2.533  1.00  0.00     0.004 C 
BRANCH  14  15
ATOM     15  C   UNL     1     -45.872  24.312  -2.950  1.00  0.00     0.000 C 
BRANCH  15  16
ATOM     16  C   UNL     1     -45.355  24.539  -4.376  1.00  0.00    -0.000 C 
BRANCH  16  17
ATOM     17  C   UNL     1     -43.888  24.981  -4.366  1.00  0.00    -0.003 C 
ATOM     18  C   UNL     1     -42.971  23.856  -4.836  1.00  0.00     0.004 C 
ENDBRANCH  16  17
ENDBRANCH  15  16
ENDBRANCH  14  15
ENDBRANCH  13  14
ENDBRANCH  12  13
ENDBRANCH  10  11
ENDBRANCH   1  10
TORSDOF 13
ENDMDL
MODEL 8
REMARK VINA RESULT:    -5.064      2.353      5.755
REMARK INTER + INTRA:         -11.076
REMARK INTER:                  -9.060
REMARK INTRA:                  -2.016
REMARK UNBOUND:                -2.163
REMARK SMILES CCCCCCC=CCCCCCCCC(=O)[O-]
REMARK SMILES IDX 10 1 11 2 12 3 13 4 14 5 15 6 16 7 17 8 18 9 9 10 8 11 7 12
REMARK SMILES IDX 6 13 5 14 4 15 3 16 2 17 1 18
REMARK H PARENT
REMARK Flexibility Score: inf
ROOT
ATOM      1  C   UNL     1     -42.255  14.694  -2.846  1.00  0.00     0.004 C 
ENDROOT
BRANCH   1   2
ATOM      2  C   UNL     1     -41.097  15.170  -1.943  1.00  0.00     0.000 C 
BRANCH   2   3
ATOM      3  C   UNL     1     -39.756  15.382  -2.666  1.00  0.00     0.000 C 
BRANCH   3   4
ATOM      4  C   UNL     1     -39.609  14.503  -3.920  1.00  0.00     0.000 C 
BRANCH   4   5
ATOM      5  C   UNL     1     -38.953  13.141  -3.621  1.00  0.00     0.006 C 
BRANCH   5   6
ATOM      6  C   UNL     1     -37.610  12.928  -4.341  1.00  0.00     0.053 C 
BRANCH   6   7
ATOM      7  C   UNL     1     -36.472  13.616  -3.656  1.00  0.00     0.041 C 
ATOM      8  O   UNL     1     -36.508  13.821  -2.413  1.00  0.00    -0.550 OA
ATOM      9  O   UNL     1     -35.365  14.029  -4.387  1.00  0.00    -0.550 OA
ENDBRANCH   6   7
ENDBRANCH   5   6
ENDBRANCH   4   5
ENDBRANCH   3   4
ENDBRANCH   2   3
ENDBRANCH   1   2
BRANCH   1  10
ATOM     10  C   UNL     1     -43.660  15.007  -2.303  1.00  0.00     0.027 C 
BRANCH  10  11
ATOM     11  C   UNL     1     -43.983  14.236  -1.052  1.00  0.00    -0.031 C 
ATOM     12  C   UNL     1     -44.300  12.933  -1.091  1.00  0.00    -0.031 C 
BRANCH  12  13
ATOM     13  C   UNL     1     -44.610  12.162   0.163  1.00  0.00     0.027 C 
BRANCH  13  14
ATOM     14  C   UNL     1     -43.707  12.600   1.322  1.00  0.00     0.004 C 
BRANCH  14  15
ATOM     15  C   UNL     1     -42.381  11.831   1.307  1.00  0.00     0.000 C 
BRANCH  15  16
ATOM     16  C   UNL     1     -41.210  12.757   0.958  1.00  0.00    -0.000 C 
BRANCH  16  17
ATOM     17  C   UNL     1     -40.264  12.092  -0.048  1.00  0.00    -0.003 C 
ATOM     18  C   UNL     1     -41.041  11.450  -1.193  1.00  0.00     0.004 C 
ENDBRANCH  16  17
ENDBRANCH  15  16
ENDBRANCH  14  15
ENDBRANCH  13  14
ENDBRANCH  12  13
ENDBRANCH  10  11
ENDBRANCH   1  10
TORSDOF 13
ENDMDL
MODEL 9
REMARK VINA RESULT:    -5.001      2.644      4.170
REMARK INTER + INTRA:         -10.964
REMARK INTER:                  -9.272
REMARK INTRA:                  -1.693
REMARK UNBOUND:                -2.163
REMARK SMILES CCCCCCC=CCCCCCCCC(=O)[O-]
REMARK SMILES IDX 10 1 11 2 12 3 13 4 14 5 15 6 16 7 17 8 18 9 9 10 8 11 7 12
REMARK SMILES IDX 6 13 5 14 4 15 3 16 2 17 1 18
REMARK H PARENT
REMARK Flexibility Score: inf
ROOT
ATOM      1  C   UNL     1     -40.611  12.100  -1.578  1.00  0.00     0.004 C 
ENDROOT
BRANCH   1   2
ATOM      2  C   UNL     1     -40.790  11.663  -0.109  1.00  0.00     0.000 C 
BRANCH   2   3
ATOM      3  C   UNL     1     -41.113  12.803   0.873  1.00  0.00     0.000 C 
BRANCH   3   4
ATOM      4  C   UNL     1     -42.325  12.493   1.768  1.00  0.00     0.000 C 
BRANCH   4   5
ATOM      5  C   UNL     1     -43.428  11.710   1.030  1.00  0.00     0.006 C 
BRANCH   5   6
ATOM      6  C   UNL     1     -44.729  12.508   0.832  1.00  0.00     0.053 C 
BRANCH   6   7
ATOM      7  C   UNL     1     -44.754  13.257  -0.463  1.00  0.00     0.041 C 
ATOM      8  O   UNL     1     -45.332  14.374  -0.540  1.00  0.00    -0.550 OA
ATOM      9  O   UNL     1     -44.135  12.725  -1.587  1.00  0.00    -0.550 OA
ENDBRANCH   6   7
ENDBRANCH   5   6
ENDBRANCH   4   5
ENDBRANCH   3   4
ENDBRANCH   2   3
ENDBRANCH   1   2
BRANCH   1  10
ATOM     10  C   UNL     1     -40.734  13.616  -1.813  1.00  0.00     0.027 C 
BRANCH  10  11
ATOM     11  C   UNL     1     -40.114  14.054  -3.112  1.00  0.00    -0.031 C 
ATOM     12  C   UNL     1     -39.125  13.354  -3.690  1.00  0.00    -0.031 C 
BRANCH  12  13
ATOM     13  C   UNL     1     -38.516  13.787  -4.996  1.00  0.00     0.027 C 
BRANCH  13  14
ATOM     14  C   UNL     1     -37.682  15.062  -4.824  1.00  0.00     0.004 C 
BRANCH  14  15
ATOM     15  C   UNL     1     -36.557  14.849  -3.805  1.00  0.00     0.000 C 
BRANCH  15  16
ATOM     16  C   UNL     1     -36.533  15.978  -2.767  1.00  0.00    -0.000 C 
BRANCH  16  17
ATOM     17  C   UNL     1     -36.972  15.469  -1.390  1.00  0.00    -0.003 C 
ATOM     18  C   UNL     1     -36.531  14.025  -1.171  1.00  0.00     0.004 C 
ENDBRANCH  16  17
ENDBRANCH  15  16
ENDBRANCH  14  15
ENDBRANCH  13  14
ENDBRANCH  12  13
ENDBRANCH  10  11
ENDBRANCH   1  10
TORSDOF 13
ENDMDL
