MODEL 1
REMARK VINA RESULT:    12.920      0.000      0.000
REMARK INTER + INTRA:          26.896
REMARK INTER:                  28.026
REMARK INTRA:                  -1.131
REMARK UNBOUND:                -1.131
REMARK SMILES CCCCCCCCCCCCCCCCCCCCCC(=O)[O-]
REMARK SMILES IDX 12 1 11 2 10 3 9 4 8 5 7 6 6 7 5 8 4 9 3 10 2 11 1 12 13 13
REMARK SMILES IDX 14 14 15 15 16 16 17 17 18 18 19 19 20 20 21 21 22 22 23 23
REMARK SMILES IDX 24 24
REMARK H PARENT
REMARK Flexibility Score: inf
ROOT
ATOM      1  C   UNL     1      12.317 -57.642  -3.076  1.00  0.00     0.000 C 
ENDROOT
BRANCH   1   2
ATOM      2  C   UNL     1      13.377 -58.110  -4.093  1.00  0.00     0.000 C 
BRANCH   2   3
ATOM      3  C   UNL     1      14.832 -58.038  -3.596  1.00  0.00     0.000 C 
BRANCH   3   4
ATOM      4  C   UNL     1      15.597 -59.355  -3.802  1.00  0.00    -0.000 C 
BRANCH   4   5
ATOM      5  C   UNL     1      16.490 -59.712  -2.602  1.00  0.00    -0.000 C 
BRANCH   5   6
ATOM      6  C   UNL     1      17.978 -59.787  -2.978  1.00  0.00    -0.000 C 
BRANCH   6   7
ATOM      7  C   UNL     1      18.636 -58.404  -2.902  1.00  0.00    -0.000 C 
BRANCH   7   8
ATOM      8  C   UNL     1      18.470 -57.792  -1.503  1.00  0.00    -0.000 C 
BRANCH   8   9
ATOM      9  C   UNL     1      17.993 -56.332  -1.544  1.00  0.00    -0.000 C 
BRANCH   9  10
ATOM     10  C   UNL     1      17.013 -56.061  -2.699  1.00  0.00    -0.000 C 
BRANCH  10  11
ATOM     11  C   UNL     1      17.353 -54.777  -3.471  1.00  0.00    -0.003 C 
ATOM     12  C   UNL     1      17.716 -55.041  -4.931  1.00  0.00     0.004 C 
ENDBRANCH  10  11
ENDBRANCH   9  10
ENDBRANCH   8   9
ENDBRANCH   7   8
ENDBRANCH   6   7
ENDBRANCH   5   6
ENDBRANCH   4   5
ENDBRANCH   3   4
ENDBRANCH   2   3
ENDBRANCH   1   2
BRANCH   1  13
ATOM     13  C   UNL     1      11.234 -56.702  -3.643  1.00  0.00     0.000 C 
BRANCH  13  14
ATOM     14  C   UNL     1      11.668 -55.236  -3.818  1.00  0.00     0.000 C 
BRANCH  14  15
ATOM     15  C   UNL     1      10.628 -54.390  -4.568  1.00  0.00     0.000 C 
BRANCH  15  16
ATOM     16  C   UNL     1      10.258 -53.136  -3.766  1.00  0.00     0.000 C 
BRANCH  16  17
ATOM     17  C   UNL     1       8.761 -53.114  -3.435  1.00  0.00     0.000 C 
BRANCH  17  18
ATOM     18  C   UNL     1       8.252 -51.676  -3.282  1.00  0.00     0.000 C 
BRANCH  18  19
ATOM     19  C   UNL     1       9.413 -50.698  -3.074  1.00  0.00     0.000 C 
BRANCH  19  20
ATOM     20  C   UNL     1       9.254 -49.927  -1.758  1.00  0.00     0.006 C 
BRANCH  20  21
ATOM     21  C   UNL     1       9.671 -48.462  -1.923  1.00  0.00     0.053 C 
BRANCH  21  22
ATOM     22  C   UNL     1      10.942 -48.364  -2.705  1.00  0.00     0.041 C 
ATOM     23  O   UNL     1      12.040 -48.676  -2.171  1.00  0.00    -0.550 OA
ATOM     24  O   UNL     1      10.910 -47.973  -4.038  1.00  0.00    -0.550 OA
ENDBRANCH  21  22
ENDBRANCH  20  21
ENDBRANCH  19  20
ENDBRANCH  18  19
ENDBRANCH  17  18
ENDBRANCH  16  17
ENDBRANCH  15  16
ENDBRANCH  14  15
ENDBRANCH  13  14
ENDBRANCH   1  13
TORSDOF 20
ENDMDL
MODEL 2
REMARK VINA RESULT:    13.036      2.524      9.176
REMARK INTER + INTRA:          27.147
REMARK INTER:                  28.178
REMARK INTRA:                  -1.031
REMARK UNBOUND:                -1.131
REMARK SMILES CCCCCCCCCCCCCCCCCCCCCC(=O)[O-]
REMARK SMILES IDX 12 1 11 2 10 3 9 4 8 5 7 6 6 7 5 8 4 9 3 10 2 11 1 12 13 13
REMARK SMILES IDX 14 14 15 15 16 16 17 17 18 18 19 19 20 20 21 21 22 22 23 23
REMARK SMILES IDX 24 24
REMARK H PARENT
REMARK Flexibility Score: inf
ROOT
ATOM      1  C   UNL     1      12.473 -57.498  -2.991  1.00  0.00     0.000 C 
ENDROOT
BRANCH   1   2
ATOM      2  C   UNL     1      11.305 -56.637  -3.513  1.00  0.00     0.000 C 
BRANCH   2   3
ATOM      3  C   UNL     1      11.702 -55.236  -4.011  1.00  0.00     0.000 C 
BRANCH   3   4
ATOM      4  C   UNL     1      10.516 -54.455  -4.599  1.00  0.00    -0.000 C 
BRANCH   4   5
ATOM      5  C   UNL     1      10.142 -53.227  -3.754  1.00  0.00    -0.000 C 
BRANCH   5   6
ATOM      6  C   UNL     1       8.626 -53.104  -3.532  1.00  0.00    -0.000 C 
BRANCH   6   7
ATOM      7  C   UNL     1       8.271 -51.760  -2.886  1.00  0.00    -0.000 C 
BRANCH   7   8
ATOM      8  C   UNL     1       9.484 -50.818  -2.872  1.00  0.00    -0.000 C 
BRANCH   8   9
ATOM      9  C   UNL     1       9.192 -49.481  -2.173  1.00  0.00    -0.000 C 
BRANCH   9  10
ATOM     10  C   UNL     1      10.450 -48.854  -1.547  1.00  0.00    -0.000 C 
BRANCH  10  11
ATOM     11  C   UNL     1      11.502 -48.469  -2.597  1.00  0.00    -0.003 C 
ATOM     12  C   UNL     1      10.885 -47.911  -3.879  1.00  0.00     0.004 C 
ENDBRANCH  10  11
ENDBRANCH   9  10
ENDBRANCH   8   9
ENDBRANCH   7   8
ENDBRANCH   6   7
ENDBRANCH   5   6
ENDBRANCH   4   5
ENDBRANCH   3   4
ENDBRANCH   2   3
ENDBRANCH   1   2
BRANCH   1  13
ATOM     13  C   UNL     1      13.397 -58.079  -4.081  1.00  0.00     0.000 C 
BRANCH  13  14
ATOM     14  C   UNL     1      14.897 -58.072  -3.736  1.00  0.00     0.000 C 
BRANCH  14  15
ATOM     15  C   UNL     1      15.521 -59.476  -3.752  1.00  0.00     0.000 C 
BRANCH  15  16
ATOM     16  C   UNL     1      16.460 -59.674  -2.556  1.00  0.00     0.000 C 
BRANCH  16  17
ATOM     17  C   UNL     1      17.919 -59.790  -3.014  1.00  0.00     0.000 C 
BRANCH  17  18
ATOM     18  C   UNL     1      18.719 -58.541  -2.629  1.00  0.00     0.000 C 
BRANCH  18  19
ATOM     19  C   UNL     1      17.978 -57.714  -1.571  1.00  0.00     0.000 C 
BRANCH  19  20
ATOM     20  C   UNL     1      18.035 -56.218  -1.903  1.00  0.00     0.006 C 
BRANCH  20  21
ATOM     21  C   UNL     1      16.977 -55.844  -2.945  1.00  0.00     0.053 C 
BRANCH  21  22
ATOM     22  C   UNL     1      17.569 -54.967  -4.002  1.00  0.00     0.041 C 
ATOM     23  O   UNL     1      17.608 -55.358  -5.200  1.00  0.00    -0.550 OA
ATOM     24  O   UNL     1      18.035 -53.700  -3.674  1.00  0.00    -0.550 OA
ENDBRANCH  21  22
ENDBRANCH  20  21
ENDBRANCH  19  20
ENDBRANCH  18  19
ENDBRANCH  17  18
ENDBRANCH  16  17
ENDBRANCH  15  16
ENDBRANCH  14  15
ENDBRANCH  13  14
ENDBRANCH   1  13
TORSDOF 20
ENDMDL
MODEL 3
REMARK VINA RESULT:    13.878      2.569      9.319
REMARK INTER + INTRA:          28.973
REMARK INTER:                  29.933
REMARK INTRA:                  -0.959
REMARK UNBOUND:                -1.131
REMARK SMILES CCCCCCCCCCCCCCCCCCCCCC(=O)[O-]
REMARK SMILES IDX 12 1 11 2 10 3 9 4 8 5 7 6 6 7 5 8 4 9 3 10 2 11 1 12 13 13
REMARK SMILES IDX 14 14 15 15 16 16 17 17 18 18 19 19 20 20 21 21 22 22 23 23
REMARK SMILES IDX 24 24
REMARK H PARENT
REMARK Flexibility Score: inf
ROOT
ATOM      1  C   UNL     1      11.284 -56.826  -3.704  1.00  0.00     0.000 C 
ENDROOT
BRANCH   1   2
ATOM      2  C   UNL     1      11.641 -55.327  -3.749  1.00  0.00     0.000 C 
BRANCH   2   3
ATOM      3  C   UNL     1      10.633 -54.440  -4.501  1.00  0.00     0.000 C 
BRANCH   3   4
ATOM      4  C   UNL     1      10.270 -53.163  -3.727  1.00  0.00    -0.000 C 
BRANCH   4   5
ATOM      5  C   UNL     1       8.751 -52.969  -3.588  1.00  0.00    -0.000 C 
BRANCH   5   6
ATOM      6  C   UNL     1       8.387 -51.621  -2.946  1.00  0.00    -0.000 C 
BRANCH   6   7
ATOM      7  C   UNL     1       9.601 -50.686  -2.902  1.00  0.00    -0.000 C 
BRANCH   7   8
ATOM      8  C   UNL     1       9.229 -49.329  -2.287  1.00  0.00    -0.000 C 
BRANCH   8   9
ATOM      9  C   UNL     1      10.273 -48.239  -2.574  1.00  0.00    -0.000 C 
BRANCH   9  10
ATOM     10  C   UNL     1      11.709 -48.699  -2.268  1.00  0.00    -0.000 C 
BRANCH  10  11
ATOM     11  C   UNL     1      12.062 -48.577  -0.778  1.00  0.00    -0.003 C 
ATOM     12  C   UNL     1      13.567 -48.633  -0.518  1.00  0.00     0.004 C 
ENDBRANCH  10  11
ENDBRANCH   9  10
ENDBRANCH   8   9
ENDBRANCH   7   8
ENDBRANCH   6   7
ENDBRANCH   5   6
ENDBRANCH   4   5
ENDBRANCH   3   4
ENDBRANCH   2   3
ENDBRANCH   1   2
BRANCH   1  13
ATOM     13  C   UNL     1      12.343 -57.734  -3.047  1.00  0.00     0.000 C 
BRANCH  13  14
ATOM     14  C   UNL     1      13.374 -58.340  -4.015  1.00  0.00     0.000 C 
BRANCH  14  15
ATOM     15  C   UNL     1      14.825 -58.106  -3.567  1.00  0.00     0.000 C 
BRANCH  15  16
ATOM     16  C   UNL     1      15.677 -59.362  -3.785  1.00  0.00     0.000 C 
BRANCH  16  17
ATOM     17  C   UNL     1      16.583 -59.631  -2.577  1.00  0.00     0.000 C 
BRANCH  17  18
ATOM     18  C   UNL     1      18.048 -59.771  -3.008  1.00  0.00     0.000 C 
BRANCH  18  19
ATOM     19  C   UNL     1      18.821 -58.469  -2.772  1.00  0.00     0.000 C 
BRANCH  19  20
ATOM     20  C   UNL     1      18.101 -57.579  -1.751  1.00  0.00     0.006 C 
BRANCH  20  21
ATOM     21  C   UNL     1      18.323 -56.096  -2.060  1.00  0.00     0.053 C 
BRANCH  21  22
ATOM     22  C   UNL     1      17.224 -55.571  -2.928  1.00  0.00     0.041 C 
ATOM     23  O   UNL     1      16.038 -55.545  -2.502  1.00  0.00    -0.550 OA
ATOM     24  O   UNL     1      17.516 -55.065  -4.188  1.00  0.00    -0.550 OA
ENDBRANCH  21  22
ENDBRANCH  20  21
ENDBRANCH  19  20
ENDBRANCH  18  19
ENDBRANCH  17  18
ENDBRANCH  16  17
ENDBRANCH  15  16
ENDBRANCH  14  15
ENDBRANCH  13  14
ENDBRANCH   1  13
TORSDOF 20
ENDMDL
