MODEL 1
REMARK VINA RESULT:    -5.876      0.000      0.000
REMARK INTER + INTRA:          -6.425
REMARK INTER:                  -6.392
REMARK INTRA:                  -0.033
REMARK UNBOUND:                -0.033
REMARK SMILES O=C([O-])c1ccc(O)cc1
REMARK SMILES IDX 4 1 5 2 10 3 6 4 9 5 7 6 2 7 1 8 3 9 8 10
REMARK H PARENT 8 11
REMARK Flexibility Score: inf
ROOT
ATOM      1  C   UNL     1      17.533  -1.911  26.907  1.00  0.00    -0.003 A 
ATOM      2  C   UNL     1      17.844  -0.932  25.945  1.00  0.00     0.014 A 
ATOM      3  C   UNL     1      16.183  -2.207  27.164  1.00  0.00     0.014 A 
ATOM      4  C   UNL     1      16.826  -0.265  25.257  1.00  0.00     0.047 A 
ATOM      5  C   UNL     1      15.166  -1.539  26.474  1.00  0.00     0.047 A 
ATOM      6  C   UNL     1      15.486  -0.566  25.518  1.00  0.00     0.115 A 
ENDROOT
BRANCH   1   7
ATOM      7  C   UNL     1      18.606  -2.618  27.638  1.00  0.00     0.071 C 
ATOM      8  O   UNL     1      19.722  -2.831  27.091  1.00  0.00    -0.545 OA
ATOM      9  O   UNL     1      18.399  -3.060  28.939  1.00  0.00    -0.545 OA
ENDBRANCH   1   7
BRANCH   6  10
ATOM     10  O   UNL     1      14.481   0.106  24.825  1.00  0.00    -0.508 OA
ATOM     11  H   UNL     1      14.485   0.163  23.813  1.00  0.00     0.293 HD
ENDBRANCH   6  10
TORSDOF 2
ENDMDL
MODEL 2
REMARK VINA RESULT:    -5.875      0.044      1.532
REMARK INTER + INTRA:          -6.423
REMARK INTER:                  -6.390
REMARK INTRA:                  -0.033
REMARK UNBOUND:                -0.033
REMARK SMILES O=C([O-])c1ccc(O)cc1
REMARK SMILES IDX 4 1 5 2 10 3 6 4 9 5 7 6 2 7 1 8 3 9 8 10
REMARK H PARENT 8 11
REMARK Flexibility Score: inf
ROOT
ATOM      1  C   UNL     1      17.549  -1.911  26.943  1.00  0.00    -0.003 A 
ATOM      2  C   UNL     1      16.198  -2.215  27.195  1.00  0.00     0.014 A 
ATOM      3  C   UNL     1      17.858  -0.929  25.984  1.00  0.00     0.014 A 
ATOM      4  C   UNL     1      15.181  -1.550  26.504  1.00  0.00     0.047 A 
ATOM      5  C   UNL     1      16.838  -0.266  25.294  1.00  0.00     0.047 A 
ATOM      6  C   UNL     1      15.497  -0.575  25.553  1.00  0.00     0.115 A 
ENDROOT
BRANCH   1   7
ATOM      7  C   UNL     1      18.628  -2.612  27.671  1.00  0.00     0.071 C 
ATOM      8  O   UNL     1      19.733  -2.846  27.111  1.00  0.00    -0.545 OA
ATOM      9  O   UNL     1      18.439  -3.024  28.985  1.00  0.00    -0.545 OA
ENDBRANCH   1   7
BRANCH   6  10
ATOM     10  O   UNL     1      14.473   0.080  24.871  1.00  0.00    -0.508 OA
ATOM     11  H   UNL     1      14.426   0.077  23.859  1.00  0.00     0.293 HD
ENDBRANCH   6  10
TORSDOF 2
ENDMDL
MODEL 3
REMARK VINA RESULT:    -5.840     11.630     12.970
REMARK INTER + INTRA:          -6.386
REMARK INTER:                  -6.350
REMARK INTRA:                  -0.036
REMARK UNBOUND:                -0.033
REMARK SMILES O=C([O-])c1ccc(O)cc1
REMARK SMILES IDX 4 1 5 2 10 3 6 4 9 5 7 6 2 7 1 8 3 9 8 10
REMARK H PARENT 8 11
REMARK Flexibility Score: inf
ROOT
ATOM      1  C   UNL     1      12.772 -12.619  28.756  1.00  0.00    -0.003 A 
ATOM      2  C   UNL     1      12.876 -13.478  27.647  1.00  0.00     0.014 A 
ATOM      3  C   UNL     1      13.687 -12.759  29.815  1.00  0.00     0.014 A 
ATOM      4  C   UNL     1      13.875 -14.455  27.598  1.00  0.00     0.047 A 
ATOM      5  C   UNL     1      14.686 -13.737  29.763  1.00  0.00     0.047 A 
ATOM      6  C   UNL     1      14.782 -14.588  28.654  1.00  0.00     0.115 A 
ENDROOT
BRANCH   1   7
ATOM      7  C   UNL     1      11.717 -11.584  28.813  1.00  0.00     0.071 C 
ATOM      8  O   UNL     1      10.870 -11.480  27.885  1.00  0.00    -0.545 OA
ATOM      9  O   UNL     1      11.645 -10.709  29.891  1.00  0.00    -0.545 OA
ENDBRANCH   1   7
BRANCH   6  10
ATOM     10  O   UNL     1      15.772 -15.566  28.592  1.00  0.00    -0.508 OA
ATOM     11  H   UNL     1      15.563 -16.541  28.771  1.00  0.00     0.293 HD
ENDBRANCH   6  10
TORSDOF 2
ENDMDL
MODEL 4
REMARK VINA RESULT:    -5.837     11.626     12.992
REMARK INTER + INTRA:          -6.382
REMARK INTER:                  -6.346
REMARK INTRA:                  -0.036
REMARK UNBOUND:                -0.033
REMARK SMILES O=C([O-])c1ccc(O)cc1
REMARK SMILES IDX 4 1 5 2 10 3 6 4 9 5 7 6 2 7 1 8 3 9 8 10
REMARK H PARENT 8 11
REMARK Flexibility Score: inf
ROOT
ATOM      1  C   UNL     1      12.767 -12.629  28.744  1.00  0.00    -0.003 A 
ATOM      2  C   UNL     1      13.660 -12.804  29.818  1.00  0.00     0.014 A 
ATOM      3  C   UNL     1      12.884 -13.465  27.619  1.00  0.00     0.014 A 
ATOM      4  C   UNL     1      14.647 -13.793  29.766  1.00  0.00     0.047 A 
ATOM      5  C   UNL     1      13.872 -14.454  27.570  1.00  0.00     0.047 A 
ATOM      6  C   UNL     1      14.756 -14.620  28.644  1.00  0.00     0.115 A 
ENDROOT
BRANCH   1   7
ATOM      7  C   UNL     1      11.722 -11.584  28.794  1.00  0.00     0.071 C 
ATOM      8  O   UNL     1      10.858 -11.497  27.881  1.00  0.00    -0.545 OA
ATOM      9  O   UNL     1      11.679 -10.681  29.850  1.00  0.00    -0.545 OA
ENDBRANCH   1   7
BRANCH   6  10
ATOM     10  O   UNL     1      15.744 -15.601  28.605  1.00  0.00    -0.508 OA
ATOM     11  H   UNL     1      16.728 -15.360  28.595  1.00  0.00     0.293 HD
ENDBRANCH   6  10
TORSDOF 2
ENDMDL
MODEL 5
REMARK VINA RESULT:    -5.818     12.129     12.694
REMARK INTER + INTRA:          -6.362
REMARK INTER:                  -6.335
REMARK INTRA:                  -0.027
REMARK UNBOUND:                -0.033
REMARK SMILES O=C([O-])c1ccc(O)cc1
REMARK SMILES IDX 4 1 5 2 10 3 6 4 9 5 7 6 2 7 1 8 3 9 8 10
REMARK H PARENT 8 11
REMARK Flexibility Score: inf
ROOT
ATOM      1  C   UNL     1      13.569 -13.763  28.027  1.00  0.00    -0.003 A 
ATOM      2  C   UNL     1      13.544 -12.938  29.166  1.00  0.00     0.014 A 
ATOM      3  C   UNL     1      12.452 -13.780  27.173  1.00  0.00     0.014 A 
ATOM      4  C   UNL     1      12.424 -12.147  29.444  1.00  0.00     0.047 A 
ATOM      5  C   UNL     1      11.334 -12.988  27.453  1.00  0.00     0.047 A 
ATOM      6  C   UNL     1      11.318 -12.169  28.590  1.00  0.00     0.115 A 
ENDROOT
BRANCH   1   7
ATOM      7  C   UNL     1      14.751 -14.602  27.730  1.00  0.00     0.071 C 
ATOM      8  O   UNL     1      15.590 -14.242  26.862  1.00  0.00    -0.545 OA
ATOM      9  O   UNL     1      14.950 -15.801  28.404  1.00  0.00    -0.545 OA
ENDBRANCH   1   7
BRANCH   6  10
ATOM     10  O   UNL     1      10.209 -11.376  28.878  1.00  0.00    -0.508 OA
ATOM     11  H   UNL     1       9.280 -11.631  28.563  1.00  0.00     0.293 HD
ENDBRANCH   6  10
TORSDOF 2
ENDMDL
MODEL 6
REMARK VINA RESULT:    -5.804     12.129     12.687
REMARK INTER + INTRA:          -6.346
REMARK INTER:                  -6.319
REMARK INTRA:                  -0.027
REMARK UNBOUND:                -0.033
REMARK SMILES O=C([O-])c1ccc(O)cc1
REMARK SMILES IDX 4 1 5 2 10 3 6 4 9 5 7 6 2 7 1 8 3 9 8 10
REMARK H PARENT 8 11
REMARK Flexibility Score: inf
ROOT
ATOM      1  C   UNL     1      13.550 -13.734  28.011  1.00  0.00    -0.003 A 
ATOM      2  C   UNL     1      12.413 -13.729  27.182  1.00  0.00     0.014 A 
ATOM      3  C   UNL     1      13.554 -12.934  29.167  1.00  0.00     0.014 A 
ATOM      4  C   UNL     1      11.305 -12.939  27.504  1.00  0.00     0.047 A 
ATOM      5  C   UNL     1      12.443 -12.145  29.487  1.00  0.00     0.047 A 
ATOM      6  C   UNL     1      11.316 -12.147  28.655  1.00  0.00     0.115 A 
ENDROOT
BRANCH   1   7
ATOM      7  C   UNL     1      14.725 -14.567  27.674  1.00  0.00     0.071 C 
ATOM      8  O   UNL     1      15.543 -14.194  26.790  1.00  0.00    -0.545 OA
ATOM      9  O   UNL     1      14.943 -15.774  28.327  1.00  0.00    -0.545 OA
ENDBRANCH   1   7
BRANCH   6  10
ATOM     10  O   UNL     1      10.204 -11.365  28.964  1.00  0.00    -0.508 OA
ATOM     11  H   UNL     1      10.303 -10.406  29.275  1.00  0.00     0.293 HD
ENDBRANCH   6  10
TORSDOF 2
ENDMDL
MODEL 7
REMARK VINA RESULT:    -5.803      1.348      4.284
REMARK INTER + INTRA:          -6.345
REMARK INTER:                  -6.318
REMARK INTRA:                  -0.027
REMARK UNBOUND:                -0.033
REMARK SMILES O=C([O-])c1ccc(O)cc1
REMARK SMILES IDX 4 1 5 2 10 3 6 4 9 5 7 6 2 7 1 8 3 9 8 10
REMARK H PARENT 8 11
REMARK Flexibility Score: inf
ROOT
ATOM      1  C   UNL     1      16.890  -0.496  26.201  1.00  0.00    -0.003 A 
ATOM      2  C   UNL     1      17.988  -0.804  25.377  1.00  0.00     0.014 A 
ATOM      3  C   UNL     1      16.941  -0.845  27.563  1.00  0.00     0.014 A 
ATOM      4  C   UNL     1      19.113  -1.445  25.905  1.00  0.00     0.047 A 
ATOM      5  C   UNL     1      18.068  -1.486  28.088  1.00  0.00     0.047 A 
ATOM      6  C   UNL     1      19.157  -1.788  27.260  1.00  0.00     0.115 A 
ENDROOT
BRANCH   1   7
ATOM      7  C   UNL     1      15.698   0.181  25.647  1.00  0.00     0.071 C 
ATOM      8  O   UNL     1      14.880  -0.449  24.925  1.00  0.00    -0.545 OA
ATOM      9  O   UNL     1      15.463   1.525  25.916  1.00  0.00    -0.545 OA
ENDBRANCH   1   7
BRANCH   6  10
ATOM     10  O   UNL     1      20.284  -2.426  27.773  1.00  0.00    -0.508 OA
ATOM     11  H   UNL     1      20.724  -3.196  27.282  1.00  0.00     0.293 HD
ENDBRANCH   6  10
TORSDOF 2
ENDMDL
MODEL 8
REMARK VINA RESULT:    -5.637     10.935     12.097
REMARK INTER + INTRA:          -6.165
REMARK INTER:                  -6.130
REMARK INTRA:                  -0.034
REMARK UNBOUND:                -0.033
REMARK SMILES O=C([O-])c1ccc(O)cc1
REMARK SMILES IDX 4 1 5 2 10 3 6 4 9 5 7 6 2 7 1 8 3 9 8 10
REMARK H PARENT 8 11
REMARK Flexibility Score: inf
ROOT
ATOM      1  C   UNL     1      13.320 -12.849  28.695  1.00  0.00    -0.003 A 
ATOM      2  C   UNL     1      12.065 -12.241  28.876  1.00  0.00     0.014 A 
ATOM      3  C   UNL     1      14.414 -12.392  29.452  1.00  0.00     0.014 A 
ATOM      4  C   UNL     1      11.908 -11.198  29.795  1.00  0.00     0.047 A 
ATOM      5  C   UNL     1      14.254 -11.349  30.370  1.00  0.00     0.047 A 
ATOM      6  C   UNL     1      13.000 -10.750  30.544  1.00  0.00     0.115 A 
ENDROOT
BRANCH   1   7
ATOM      7  C   UNL     1      13.491 -13.952  27.724  1.00  0.00     0.071 C 
ATOM      8  O   UNL     1      12.692 -14.086  26.759  1.00  0.00    -0.545 OA
ATOM      9  O   UNL     1      14.536 -14.858  27.865  1.00  0.00    -0.545 OA
ENDBRANCH   1   7
BRANCH   6  10
ATOM     10  O   UNL     1      12.830  -9.710  31.455  1.00  0.00    -0.508 OA
ATOM     11  H   UNL     1      12.058  -9.704  32.112  1.00  0.00     0.293 HD
ENDBRANCH   6  10
TORSDOF 2
ENDMDL
MODEL 9
REMARK VINA RESULT:    -5.586      1.730      4.065
REMARK INTER + INTRA:          -6.110
REMARK INTER:                  -6.074
REMARK INTRA:                  -0.036
REMARK UNBOUND:                -0.033
REMARK SMILES O=C([O-])c1ccc(O)cc1
REMARK SMILES IDX 4 1 5 2 10 3 6 4 9 5 7 6 2 7 1 8 3 9 8 10
REMARK H PARENT 8 11
REMARK Flexibility Score: inf
ROOT
ATOM      1  C   UNL     1      17.115  -1.080  26.813  1.00  0.00    -0.003 A 
ATOM      2  C   UNL     1      18.104  -2.081  26.818  1.00  0.00     0.014 A 
ATOM      3  C   UNL     1      16.329  -0.895  27.964  1.00  0.00     0.014 A 
ATOM      4  C   UNL     1      18.301  -2.878  27.951  1.00  0.00     0.047 A 
ATOM      5  C   UNL     1      16.527  -1.694  29.095  1.00  0.00     0.047 A 
ATOM      6  C   UNL     1      17.515  -2.687  29.091  1.00  0.00     0.115 A 
ENDROOT
BRANCH   1   7
ATOM      7  C   UNL     1      16.903  -0.236  25.618  1.00  0.00     0.071 C 
ATOM      8  O   UNL     1      17.619  -0.386  24.592  1.00  0.00    -0.545 OA
ATOM      9  O   UNL     1      15.912   0.739  25.612  1.00  0.00    -0.545 OA
ENDBRANCH   1   7
BRANCH   6  10
ATOM     10  O   UNL     1      17.721  -3.489  30.212  1.00  0.00    -0.508 OA
ATOM     11  H   UNL     1      17.707  -4.500  30.148  1.00  0.00     0.293 HD
ENDBRANCH   6  10
TORSDOF 2
ENDMDL
