MODEL 1
REMARK VINA RESULT:     0.355      0.000      0.000
REMARK INTER + INTRA:           0.256
REMARK INTER:                   0.375
REMARK INTRA:                  -0.120
REMARK UNBOUND:                -0.120
REMARK SMILES CC1=CC[C@H](C(C)C)C=C1
REMARK SMILES IDX 1 1 2 2 3 3 4 4 5 5 9 6 10 7 6 8 7 9 8 10
REMARK H PARENT
REMARK Flexibility Score: inf
ROOT
ATOM      1  C   UNL     1       0.680   6.825  -6.983  1.00  0.00     0.044 C 
ATOM      2  C   UNL     1       0.153   6.368  -8.310  1.00  0.00    -0.055 C 
ATOM      3  C   UNL     1      -1.132   6.566  -8.636  1.00  0.00    -0.023 C 
ATOM      4  C   UNL     1      -1.704   5.987  -9.904  1.00  0.00     0.035 C 
ATOM      5  C   UNL     1      -0.645   5.952 -11.037  1.00  0.00     0.018 C 
ATOM      6  C   UNL     1       0.646   5.366 -10.488  1.00  0.00    -0.023 C 
ATOM      7  C   UNL     1       1.033   5.619  -9.234  1.00  0.00    -0.001 C 
ENDROOT
BRANCH   5   8
ATOM      8  C   UNL     1      -1.130   5.179 -12.303  1.00  0.00    -0.010 C 
ATOM      9  C   UNL     1      -2.638   5.351 -12.559  1.00  0.00     0.008 C 
ATOM     10  C   UNL     1      -0.366   5.635 -13.561  1.00  0.00     0.008 C 
ENDBRANCH   5   8
TORSDOF 1
ENDMDL
MODEL 2
REMARK VINA RESULT:     2.135      8.878     11.138
REMARK INTER + INTRA:           2.140
REMARK INTER:                   2.262
REMARK INTRA:                  -0.122
REMARK UNBOUND:                -0.120
REMARK SMILES CC1=CC[C@H](C(C)C)C=C1
REMARK SMILES IDX 1 1 2 2 3 3 4 4 5 5 9 6 10 7 6 8 7 9 8 10
REMARK H PARENT
REMARK Flexibility Score: inf
ROOT
ATOM      1  C   UNL     1       5.831   9.448  -5.977  1.00  0.00     0.044 C 
ATOM      2  C   UNL     1       7.173   8.877  -6.325  1.00  0.00    -0.055 C 
ATOM      3  C   UNL     1       8.021   9.562  -7.106  1.00  0.00    -0.023 C 
ATOM      4  C   UNL     1       9.311   8.940  -7.574  1.00  0.00     0.035 C 
ATOM      5  C   UNL     1       9.892   7.974  -6.509  1.00  0.00     0.018 C 
ATOM      6  C   UNL     1       8.784   7.061  -6.012  1.00  0.00    -0.023 C 
ATOM      7  C   UNL     1       7.534   7.515  -5.875  1.00  0.00    -0.001 C 
ENDROOT
BRANCH   5   8
ATOM      8  C   UNL     1      11.116   7.156  -7.029  1.00  0.00    -0.010 C 
ATOM      9  C   UNL     1      11.884   7.887  -8.144  1.00  0.00     0.008 C 
ATOM     10  C   UNL     1      12.098   6.837  -5.886  1.00  0.00     0.008 C 
ENDBRANCH   5   8
TORSDOF 1
ENDMDL
MODEL 3
REMARK VINA RESULT:     2.501      1.001      4.606
REMARK INTER + INTRA:           2.528
REMARK INTER:                   2.653
REMARK INTRA:                  -0.125
REMARK UNBOUND:                -0.120
REMARK SMILES CC1=CC[C@H](C(C)C)C=C1
REMARK SMILES IDX 1 1 2 2 3 3 4 4 5 5 9 6 10 7 6 8 7 9 8 10
REMARK H PARENT
REMARK Flexibility Score: inf
ROOT
ATOM      1  C   UNL     1      -0.946   5.292 -13.671  1.00  0.00     0.044 C 
ATOM      2  C   UNL     1      -0.741   5.531 -12.205  1.00  0.00    -0.055 C 
ATOM      3  C   UNL     1       0.498   5.603 -11.696  1.00  0.00    -0.023 C 
ATOM      4  C   UNL     1       0.715   5.702 -10.208  1.00  0.00     0.035 C 
ATOM      5  C   UNL     1      -0.420   6.507  -9.524  1.00  0.00     0.018 C 
ATOM      6  C   UNL     1      -1.761   6.000 -10.030  1.00  0.00    -0.023 C 
ATOM      7  C   UNL     1      -1.907   5.606 -11.299  1.00  0.00    -0.001 C 
ENDROOT
BRANCH   5   8
ATOM      8  C   UNL     1      -0.346   6.465  -7.965  1.00  0.00    -0.010 C 
ATOM      9  C   UNL     1       1.054   6.086  -7.451  1.00  0.00     0.008 C 
ATOM     10  C   UNL     1      -0.742   7.821  -7.352  1.00  0.00     0.008 C 
ENDBRANCH   5   8
TORSDOF 1
ENDMDL
MODEL 4
REMARK VINA RESULT:     3.127      0.958      4.334
REMARK INTER + INTRA:           3.190
REMARK INTER:                   3.389
REMARK INTRA:                  -0.199
REMARK UNBOUND:                -0.120
REMARK SMILES CC1=CC[C@H](C(C)C)C=C1
REMARK SMILES IDX 1 1 2 2 3 3 4 4 5 5 9 6 10 7 6 8 7 9 8 10
REMARK H PARENT
REMARK Flexibility Score: inf
ROOT
ATOM      1  C   UNL     1      -0.750   5.255 -13.113  1.00  0.00     0.044 C 
ATOM      2  C   UNL     1      -0.683   5.637 -11.665  1.00  0.00    -0.055 C 
ATOM      3  C   UNL     1      -1.808   5.854 -10.967  1.00  0.00    -0.023 C 
ATOM      4  C   UNL     1      -1.750   6.374  -9.554  1.00  0.00     0.035 C 
ATOM      5  C   UNL     1      -0.500   5.840  -8.807  1.00  0.00     0.018 C 
ATOM      6  C   UNL     1       0.721   6.016  -9.696  1.00  0.00    -0.023 C 
ATOM      7  C   UNL     1       0.629   5.858 -11.021  1.00  0.00    -0.001 C 
ENDROOT
BRANCH   5   8
ATOM      8  C   UNL     1      -0.290   6.508  -7.412  1.00  0.00    -0.010 C 
ATOM      9  C   UNL     1       1.196   6.612  -7.024  1.00  0.00     0.008 C 
ATOM     10  C   UNL     1      -0.905   7.920  -7.372  1.00  0.00     0.008 C 
ENDBRANCH   5   8
TORSDOF 1
ENDMDL
