MODEL 1
REMARK VINA RESULT:    -2.000      0.000      0.000
REMARK INTER + INTRA:          -2.000
REMARK INTER:                  -2.000
REMARK INTRA:                   0.000
REMARK UNBOUND:                 0.000
REMARK SMILES CC(=O)[O-]
REMARK SMILES IDX 1 1 2 2 3 3 4 4
REMARK H PARENT
REMARK Flexibility Score: inf
ROOT
ATOM      1  C   UNL     1       8.248  16.114  15.312  1.00  0.00     0.063 C 
ATOM      2  C   UNL     1       8.142  16.881  16.585  1.00  0.00     0.038 C 
ATOM      3  O   UNL     1       7.611  18.023  16.592  1.00  0.00    -0.550 OA
ATOM      4  O   UNL     1       8.580  16.317  17.776  1.00  0.00    -0.550 OA
ENDROOT
TORSDOF 0
ENDMDL
MODEL 2
REMARK VINA RESULT:    -1.997     10.636     10.894
REMARK INTER + INTRA:          -1.997
REMARK INTER:                  -1.997
REMARK INTRA:                   0.000
REMARK UNBOUND:                 0.000
REMARK SMILES CC(=O)[O-]
REMARK SMILES IDX 1 1 2 2 3 3 4 4
REMARK H PARENT
REMARK Flexibility Score: inf
ROOT
ATOM      1  C   UNL     1      -2.628  20.277  13.066  1.00  0.00     0.063 C 
ATOM      2  C   UNL     1      -1.906  20.132  14.362  1.00  0.00     0.038 C 
ATOM      3  O   UNL     1      -1.164  21.059  14.779  1.00  0.00    -0.550 OA
ATOM      4  O   UNL     1      -2.093  18.997  15.140  1.00  0.00    -0.550 OA
ENDROOT
TORSDOF 0
ENDMDL
MODEL 3
REMARK VINA RESULT:    -1.983     10.617     10.795
REMARK INTER + INTRA:          -1.983
REMARK INTER:                  -1.983
REMARK INTRA:                   0.000
REMARK UNBOUND:                 0.000
REMARK SMILES CC(=O)[O-]
REMARK SMILES IDX 1 1 2 2 3 3 4 4
REMARK H PARENT
REMARK Flexibility Score: inf
ROOT
ATOM      1  C   UNL     1      -2.068  19.948  14.908  1.00  0.00     0.063 C 
ATOM      2  C   UNL     1      -2.287  18.500  15.184  1.00  0.00     0.038 C 
ATOM      3  O   UNL     1      -1.943  17.636  14.335  1.00  0.00    -0.550 OA
ATOM      4  O   UNL     1      -2.819  18.096  16.401  1.00  0.00    -0.550 OA
ENDROOT
TORSDOF 0
ENDMDL
MODEL 4
REMARK VINA RESULT:    -1.972     12.955     13.398
REMARK INTER + INTRA:          -1.972
REMARK INTER:                  -1.972
REMARK INTRA:                   0.000
REMARK UNBOUND:                 0.000
REMARK SMILES CC(=O)[O-]
REMARK SMILES IDX 1 1 2 2 3 3 4 4
REMARK H PARENT
REMARK Flexibility Score: inf
ROOT
ATOM      1  C   UNL     1       8.562  22.853  28.181  1.00  0.00     0.063 C 
ATOM      2  C   UNL     1       7.111  22.653  28.455  1.00  0.00     0.038 C 
ATOM      3  O   UNL     1       6.440  21.851  27.753  1.00  0.00    -0.550 OA
ATOM      4  O   UNL     1       6.507  23.308  29.520  1.00  0.00    -0.550 OA
ENDROOT
TORSDOF 0
ENDMDL
MODEL 5
REMARK VINA RESULT:    -1.934     12.675     13.178
REMARK INTER + INTRA:          -1.934
REMARK INTER:                  -1.934
REMARK INTRA:                   0.000
REMARK UNBOUND:                 0.000
REMARK SMILES CC(=O)[O-]
REMARK SMILES IDX 1 1 2 2 3 3 4 4
REMARK H PARENT
REMARK Flexibility Score: inf
ROOT
ATOM      1  C   UNL     1       9.572  21.699  29.482  1.00  0.00     0.063 C 
ATOM      2  C   UNL     1       9.243  22.442  28.233  1.00  0.00     0.038 C 
ATOM      3  O   UNL     1       9.959  22.302  27.207  1.00  0.00    -0.550 OA
ATOM      4  O   UNL     1       8.114  23.249  28.181  1.00  0.00    -0.550 OA
ENDROOT
TORSDOF 0
ENDMDL
MODEL 6
REMARK VINA RESULT:    -1.922     11.569     12.012
REMARK INTER + INTRA:          -1.922
REMARK INTER:                  -1.922
REMARK INTRA:                   0.000
REMARK UNBOUND:                 0.000
REMARK SMILES CC(=O)[O-]
REMARK SMILES IDX 1 1 2 2 3 3 4 4
REMARK H PARENT
REMARK Flexibility Score: inf
ROOT
ATOM      1  C   UNL     1       9.189  22.681  28.208  1.00  0.00     0.063 C 
ATOM      2  C   UNL     1       9.583  21.600  27.260  1.00  0.00     0.038 C 
ATOM      3  O   UNL     1       8.810  20.627  27.055  1.00  0.00    -0.550 OA
ATOM      4  O   UNL     1      10.778  21.690  26.558  1.00  0.00    -0.550 OA
ENDROOT
TORSDOF 0
ENDMDL
MODEL 7
REMARK VINA RESULT:    -1.895     18.393     18.845
REMARK INTER + INTRA:          -1.895
REMARK INTER:                  -1.895
REMARK INTRA:                   0.000
REMARK UNBOUND:                 0.000
REMARK SMILES CC(=O)[O-]
REMARK SMILES IDX 1 1 2 2 3 3 4 4
REMARK H PARENT
REMARK Flexibility Score: inf
ROOT
ATOM      1  C   UNL     1      -1.625  12.701  30.777  1.00  0.00     0.063 C 
ATOM      2  C   UNL     1      -1.952  11.463  31.540  1.00  0.00     0.038 C 
ATOM      3  O   UNL     1      -3.125  11.266  31.953  1.00  0.00    -0.550 OA
ATOM      4  O   UNL     1      -0.976  10.497  31.750  1.00  0.00    -0.550 OA
ENDROOT
TORSDOF 0
ENDMDL
MODEL 8
REMARK VINA RESULT:    -1.894     11.649     12.106
REMARK INTER + INTRA:          -1.894
REMARK INTER:                  -1.894
REMARK INTRA:                   0.000
REMARK UNBOUND:                 0.000
REMARK SMILES CC(=O)[O-]
REMARK SMILES IDX 1 1 2 2 3 3 4 4
REMARK H PARENT
REMARK Flexibility Score: inf
ROOT
ATOM      1  C   UNL     1      10.514  21.405  26.808  1.00  0.00     0.063 C 
ATOM      2  C   UNL     1       9.268  21.799  27.526  1.00  0.00     0.038 C 
ATOM      3  O   UNL     1       9.225  22.881  28.169  1.00  0.00    -0.550 OA
ATOM      4  O   UNL     1       8.134  21.002  27.442  1.00  0.00    -0.550 OA
ENDROOT
TORSDOF 0
ENDMDL
MODEL 9
REMARK VINA RESULT:    -1.845     16.249     16.747
REMARK INTER + INTRA:          -1.845
REMARK INTER:                  -1.845
REMARK INTRA:                   0.000
REMARK UNBOUND:                 0.000
REMARK SMILES CC(=O)[O-]
REMARK SMILES IDX 1 1 2 2 3 3 4 4
REMARK H PARENT
REMARK Flexibility Score: inf
ROOT
ATOM      1  C   UNL     1      -1.273  13.611  29.834  1.00  0.00     0.063 C 
ATOM      2  C   UNL     1      -0.917  12.167  29.744  1.00  0.00     0.038 C 
ATOM      3  O   UNL     1      -1.533  11.319  30.443  1.00  0.00    -0.550 OA
ATOM      4  O   UNL     1       0.058  11.744  28.849  1.00  0.00    -0.550 OA
ENDROOT
TORSDOF 0
ENDMDL
