MODEL 1
REMARK VINA RESULT:     2.062      0.000      0.000
REMARK INTER + INTRA:           2.183
REMARK INTER:                   2.183
REMARK INTRA:                   0.000
REMARK UNBOUND:                 0.000
REMARK SMILES Cc1cc(O)c(C)c(C)c1O
REMARK SMILES IDX 1 1 2 2 3 3 4 4 6 5 8 6 10 7 9 8 7 9 11 10 5 12
REMARK H PARENT 11 11 5 13
REMARK Flexibility Score: inf
ROOT
ATOM      1  C   UNL     1     141.292 132.323 128.125  1.00  0.00     0.048 C 
ATOM      2  C   UNL     1     140.217 131.283 128.308  1.00  0.00    -0.005 A 
ATOM      3  C   UNL     1     139.420 131.321 129.457  1.00  0.00     0.053 A 
ATOM      4  C   UNL     1     138.408 130.386 129.663  1.00  0.00     0.119 A 
ATOM      5  C   UNL     1     138.154 129.387 128.693  1.00  0.00    -0.003 A 
ATOM      6  C   UNL     1     138.998 129.300 127.552  1.00  0.00    -0.002 A 
ATOM      7  C   UNL     1     140.011 130.266 127.352  1.00  0.00     0.121 A 
ATOM      8  C   UNL     1     138.811 128.198 126.532  1.00  0.00     0.049 C 
ATOM      9  C   UNL     1     137.009 128.421 128.910  1.00  0.00     0.049 C 
ENDROOT
BRANCH   7  10
ATOM     10  O   UNL     1     140.800 130.200 126.198  1.00  0.00    -0.507 OA
ATOM     11  H   UNL     1     141.417 130.944 125.900  1.00  0.00     0.293 HD
ENDBRANCH   7  10
BRANCH   4  12
ATOM     12  O   UNL     1     137.677 130.475 130.851  1.00  0.00    -0.508 OA
ATOM     13  H   UNL     1     137.126 131.283 131.111  1.00  0.00     0.293 HD
ENDBRANCH   4  12
TORSDOF 2
ENDMDL
MODEL 2
REMARK VINA RESULT:     2.630      1.315      2.974
REMARK INTER + INTRA:           2.784
REMARK INTER:                   2.784
REMARK INTRA:                   0.000
REMARK UNBOUND:                 0.000
REMARK SMILES Cc1cc(O)c(C)c(C)c1O
REMARK SMILES IDX 1 1 2 2 3 3 4 4 6 5 8 6 10 7 9 8 7 9 11 10 5 12
REMARK H PARENT 11 11 5 13
REMARK Flexibility Score: inf
ROOT
ATOM      1  C   UNL     1     141.381 132.078 127.843  1.00  0.00     0.048 C 
ATOM      2  C   UNL     1     140.348 130.986 127.921  1.00  0.00    -0.005 A 
ATOM      3  C   UNL     1     140.414 129.918 127.022  1.00  0.00     0.053 A 
ATOM      4  C   UNL     1     139.485 128.880 127.064  1.00  0.00     0.119 A 
ATOM      5  C   UNL     1     138.463 128.880 128.042  1.00  0.00    -0.003 A 
ATOM      6  C   UNL     1     138.347 129.992 128.922  1.00  0.00    -0.002 A 
ATOM      7  C   UNL     1     139.307 131.028 128.874  1.00  0.00     0.121 A 
ATOM      8  C   UNL     1     137.220 130.068 129.928  1.00  0.00     0.049 C 
ATOM      9  C   UNL     1     137.504 127.711 128.109  1.00  0.00     0.049 C 
ENDROOT
BRANCH   7  10
ATOM     10  O   UNL     1     139.212 132.090 129.780  1.00  0.00    -0.507 OA
ATOM     11  H   UNL     1     139.929 132.795 129.894  1.00  0.00     0.293 HD
ENDBRANCH   7  10
BRANCH   4  12
ATOM     12  O   UNL     1     139.605 127.866 126.110  1.00  0.00    -0.508 OA
ATOM     13  H   UNL     1     139.169 126.957 126.200  1.00  0.00     0.293 HD
ENDBRANCH   4  12
TORSDOF 2
ENDMDL
MODEL 3
REMARK VINA RESULT:     3.016      1.529      3.863
REMARK INTER + INTRA:           3.192
REMARK INTER:                   3.192
REMARK INTRA:                   0.000
REMARK UNBOUND:                 0.000
REMARK SMILES Cc1cc(O)c(C)c(C)c1O
REMARK SMILES IDX 1 1 2 2 3 3 4 4 6 5 8 6 10 7 9 8 7 9 11 10 5 12
REMARK H PARENT 11 11 5 13
REMARK Flexibility Score: inf
ROOT
ATOM      1  C   UNL     1     139.204 127.527 126.241  1.00  0.00     0.048 C 
ATOM      2  C   UNL     1     139.335 128.748 127.113  1.00  0.00    -0.005 A 
ATOM      3  C   UNL     1     140.353 129.669 126.850  1.00  0.00     0.053 A 
ATOM      4  C   UNL     1     140.506 130.818 127.623  1.00  0.00     0.119 A 
ATOM      5  C   UNL     1     139.608 131.084 128.685  1.00  0.00    -0.003 A 
ATOM      6  C   UNL     1     138.607 130.125 129.003  1.00  0.00    -0.002 A 
ATOM      7  C   UNL     1     138.459 128.972 128.197  1.00  0.00     0.121 A 
ATOM      8  C   UNL     1     137.680 130.333 130.179  1.00  0.00     0.049 C 
ATOM      9  C   UNL     1     139.755 132.368 129.472  1.00  0.00     0.049 C 
ENDROOT
BRANCH   7  10
ATOM     10  O   UNL     1     137.436 128.062 128.488  1.00  0.00    -0.507 OA
ATOM     11  H   UNL     1     137.297 127.651 129.402  1.00  0.00     0.293 HD
ENDBRANCH   7  10
BRANCH   4  12
ATOM     12  O   UNL     1     141.568 131.671 127.313  1.00  0.00    -0.508 OA
ATOM     13  H   UNL     1     142.227 131.497 126.565  1.00  0.00     0.293 HD
ENDBRANCH   4  12
TORSDOF 2
ENDMDL
MODEL 4
REMARK VINA RESULT:     3.153      1.561      3.336
REMARK INTER + INTRA:           3.337
REMARK INTER:                   3.337
REMARK INTRA:                   0.000
REMARK UNBOUND:                 0.000
REMARK SMILES Cc1cc(O)c(C)c(C)c1O
REMARK SMILES IDX 1 1 2 2 3 3 4 4 6 5 8 6 10 7 9 8 7 9 11 10 5 12
REMARK H PARENT 11 11 5 13
REMARK Flexibility Score: inf
ROOT
ATOM      1  C   UNL     1     137.285 130.106 131.055  1.00  0.00     0.048 C 
ATOM      2  C   UNL     1     138.211 130.206 129.872  1.00  0.00    -0.005 A 
ATOM      3  C   UNL     1     139.121 131.266 129.805  1.00  0.00     0.053 A 
ATOM      4  C   UNL     1     140.004 131.392 128.734  1.00  0.00     0.119 A 
ATOM      5  C   UNL     1     140.007 130.428 127.698  1.00  0.00    -0.003 A 
ATOM      6  C   UNL     1     139.044 129.382 127.722  1.00  0.00    -0.002 A 
ATOM      7  C   UNL     1     138.167 129.262 128.824  1.00  0.00     0.121 A 
ATOM      8  C   UNL     1     138.962 128.378 126.593  1.00  0.00     0.049 C 
ATOM      9  C   UNL     1     141.016 130.552 126.577  1.00  0.00     0.049 C 
ENDROOT
BRANCH   7  10
ATOM     10  O   UNL     1     137.259 128.196 128.862  1.00  0.00    -0.507 OA
ATOM     11  H   UNL     1     136.913 127.786 129.719  1.00  0.00     0.293 HD
ENDBRANCH   7  10
BRANCH   4  12
ATOM     12  O   UNL     1     140.860 132.496 128.728  1.00  0.00    -0.508 OA
ATOM     13  H   UNL     1     141.862 132.429 128.597  1.00  0.00     0.293 HD
ENDBRANCH   4  12
TORSDOF 2
ENDMDL
MODEL 5
REMARK VINA RESULT:     3.269      1.125      2.915
REMARK INTER + INTRA:           3.460
REMARK INTER:                   3.460
REMARK INTRA:                   0.000
REMARK UNBOUND:                 0.000
REMARK SMILES Cc1cc(O)c(C)c(C)c1O
REMARK SMILES IDX 1 1 2 2 3 3 4 4 6 5 8 6 10 7 9 8 7 9 11 10 5 12
REMARK H PARENT 11 11 5 13
REMARK Flexibility Score: inf
ROOT
ATOM      1  C   UNL     1     139.887 128.104 125.737  1.00  0.00     0.048 C 
ATOM      2  C   UNL     1     139.431 128.863 126.956  1.00  0.00    -0.005 A 
ATOM      3  C   UNL     1     138.355 128.374 127.702  1.00  0.00     0.053 A 
ATOM      4  C   UNL     1     137.906 129.038 128.842  1.00  0.00     0.119 A 
ATOM      5  C   UNL     1     138.554 130.218 129.279  1.00  0.00    -0.003 A 
ATOM      6  C   UNL     1     139.609 130.760 128.493  1.00  0.00    -0.002 A 
ATOM      7  C   UNL     1     140.060 130.064 127.348  1.00  0.00     0.121 A 
ATOM      8  C   UNL     1     140.274 132.062 128.882  1.00  0.00     0.049 C 
ATOM      9  C   UNL     1     138.089 130.887 130.554  1.00  0.00     0.049 C 
ENDROOT
BRANCH   7  10
ATOM     10  O   UNL     1     141.134 130.581 126.614  1.00  0.00    -0.507 OA
ATOM     11  H   UNL     1     141.892 130.014 126.258  1.00  0.00     0.293 HD
ENDBRANCH   7  10
BRANCH   4  12
ATOM     12  O   UNL     1     136.805 128.499 129.513  1.00  0.00    -0.508 OA
ATOM     13  H   UNL     1     135.945 128.230 129.054  1.00  0.00     0.293 HD
ENDBRANCH   4  12
TORSDOF 2
ENDMDL
MODEL 6
REMARK VINA RESULT:     3.388      0.564      0.564
REMARK INTER + INTRA:           3.586
REMARK INTER:                   3.586
REMARK INTRA:                   0.000
REMARK UNBOUND:                 0.000
REMARK SMILES Cc1cc(O)c(C)c(C)c1O
REMARK SMILES IDX 1 1 2 2 3 3 4 4 6 5 8 6 10 7 9 8 7 9 11 10 5 12
REMARK H PARENT 11 11 5 13
REMARK Flexibility Score: inf
ROOT
ATOM      1  C   UNL     1     140.753 132.652 128.853  1.00  0.00     0.048 C 
ATOM      2  C   UNL     1     139.833 131.461 128.798  1.00  0.00    -0.005 A 
ATOM      3  C   UNL     1     138.904 131.268 129.825  1.00  0.00     0.053 A 
ATOM      4  C   UNL     1     138.026 130.185 129.810  1.00  0.00     0.119 A 
ATOM      5  C   UNL     1     138.047 129.268 128.733  1.00  0.00    -0.003 A 
ATOM      6  C   UNL     1     139.030 129.417 127.715  1.00  0.00    -0.002 A 
ATOM      7  C   UNL     1     139.902 130.530 127.739  1.00  0.00     0.121 A 
ATOM      8  C   UNL     1     139.138 128.413 126.589  1.00  0.00     0.049 C 
ATOM      9  C   UNL     1     137.044 128.136 128.707  1.00  0.00     0.049 C 
ENDROOT
BRANCH   7  10
ATOM     10  O   UNL     1     140.828 130.695 126.703  1.00  0.00    -0.507 OA
ATOM     11  H   UNL     1     141.768 130.321 126.729  1.00  0.00     0.293 HD
ENDBRANCH   7  10
BRANCH   4  12
ATOM     12  O   UNL     1     137.150 130.049 130.890  1.00  0.00    -0.508 OA
ATOM     13  H   UNL     1     136.146 130.149 130.813  1.00  0.00     0.293 HD
ENDBRANCH   4  12
TORSDOF 2
ENDMDL
MODEL 7
REMARK VINA RESULT:     3.414      1.066      4.320
REMARK INTER + INTRA:           3.614
REMARK INTER:                   3.614
REMARK INTRA:                   0.000
REMARK UNBOUND:                 0.000
REMARK SMILES Cc1cc(O)c(C)c(C)c1O
REMARK SMILES IDX 1 1 2 2 3 3 4 4 6 5 8 6 10 7 9 8 7 9 11 10 5 12
REMARK H PARENT 11 11 5 13
REMARK Flexibility Score: inf
ROOT
ATOM      1  C   UNL     1     136.459 128.296 129.267  1.00  0.00     0.048 C 
ATOM      2  C   UNL     1     137.668 128.996 128.703  1.00  0.00    -0.005 A 
ATOM      3  C   UNL     1     138.325 128.442 127.600  1.00  0.00     0.053 A 
ATOM      4  C   UNL     1     139.440 129.060 127.039  1.00  0.00     0.119 A 
ATOM      5  C   UNL     1     139.917 130.283 127.569  1.00  0.00    -0.003 A 
ATOM      6  C   UNL     1     139.297 130.823 128.730  1.00  0.00    -0.002 A 
ATOM      7  C   UNL     1     138.157 130.189 129.276  1.00  0.00     0.121 A 
ATOM      8  C   UNL     1     139.826 132.085 129.374  1.00  0.00     0.049 C 
ATOM      9  C   UNL     1     141.092 130.968 126.906  1.00  0.00     0.049 C 
ENDROOT
BRANCH   7  10
ATOM     10  O   UNL     1     137.524 130.760 130.386  1.00  0.00    -0.507 OA
ATOM     11  H   UNL     1     137.815 130.598 131.341  1.00  0.00     0.293 HD
ENDBRANCH   7  10
BRANCH   4  12
ATOM     12  O   UNL     1     140.057 128.425 125.958  1.00  0.00    -0.508 OA
ATOM     13  H   UNL     1     141.059 128.407 125.815  1.00  0.00     0.293 HD
ENDBRANCH   4  12
TORSDOF 2
ENDMDL
MODEL 8
REMARK VINA RESULT:     4.068      1.740      3.323
REMARK INTER + INTRA:           4.305
REMARK INTER:                   4.305
REMARK INTRA:                   0.000
REMARK UNBOUND:                 0.000
REMARK SMILES Cc1cc(O)c(C)c(C)c1O
REMARK SMILES IDX 1 1 2 2 3 3 4 4 6 5 8 6 10 7 9 8 7 9 11 10 5 12
REMARK H PARENT 11 11 5 13
REMARK Flexibility Score: inf
ROOT
ATOM      1  C   UNL     1     136.376 128.748 129.432  1.00  0.00     0.048 C 
ATOM      2  C   UNL     1     137.626 129.385 128.885  1.00  0.00    -0.005 A 
ATOM      3  C   UNL     1     138.033 130.627 129.381  1.00  0.00     0.053 A 
ATOM      4  C   UNL     1     139.189 131.248 128.911  1.00  0.00     0.119 A 
ATOM      5  C   UNL     1     139.989 130.614 127.932  1.00  0.00    -0.003 A 
ATOM      6  C   UNL     1     139.552 129.380 127.373  1.00  0.00    -0.002 A 
ATOM      7  C   UNL     1     138.384 128.758 127.873  1.00  0.00     0.121 A 
ATOM      8  C   UNL     1     140.336 128.710 126.267  1.00  0.00     0.049 C 
ATOM      9  C   UNL     1     141.272 131.278 127.482  1.00  0.00     0.049 C 
ENDROOT
BRANCH   7  10
ATOM     10  O   UNL     1     137.995 127.519 127.352  1.00  0.00    -0.507 OA
ATOM     11  H   UNL     1     138.422 126.641 127.620  1.00  0.00     0.293 HD
ENDBRANCH   7  10
BRANCH   4  12
ATOM     12  O   UNL     1     139.508 132.502 129.438  1.00  0.00    -0.508 OA
ATOM     13  H   UNL     1     139.763 133.301 128.870  1.00  0.00     0.293 HD
ENDBRANCH   4  12
TORSDOF 2
ENDMDL
