MODEL 1
REMARK VINA RESULT:    -5.459      0.000      0.000
REMARK INTER + INTRA:          -6.711
REMARK INTER:                  -6.416
REMARK INTRA:                  -0.295
REMARK UNBOUND:                -0.295
REMARK SMILES O=c1cc(-c2ccc(O)c(O)c2)oc2cc(O)cc(O)c12
REMARK SMILES IDX 4 1 3 2 2 3 1 4 21 5 19 6 18 7 16 8 15 9 14 10 13 11 5 12
REMARK SMILES IDX 6 13 7 14 8 15 12 16 10 17 9 18 11 20 20 22 17 24
REMARK H PARENT 9 19 11 21 20 23 17 25
REMARK Flexibility Score: inf
ROOT
ATOM      1  C   UNL     1      13.922 -17.295  20.220  1.00  0.00     0.138 A 
ATOM      2  C   UNL     1      14.621 -17.924  21.259  1.00  0.00     0.100 A 
ATOM      3  C   UNL     1      15.864 -17.428  21.654  1.00  0.00     0.197 A 
ATOM      4  O   UNL     1      16.439 -17.976  22.630  1.00  0.00    -0.289 OA
ATOM      5  C   UNL     1      16.423 -16.315  20.983  1.00  0.00     0.107 A 
ATOM      6  C   UNL     1      17.700 -15.748  21.271  1.00  0.00     0.134 A 
ATOM      7  C   UNL     1      18.098 -14.575  20.620  1.00  0.00     0.093 A 
ATOM      8  C   UNL     1      17.291 -13.982  19.646  1.00  0.00     0.123 A 
ATOM      9  C   UNL     1      16.065 -14.558  19.318  1.00  0.00     0.094 A 
ATOM     10  C   UNL     1      15.625 -15.709  19.976  1.00  0.00     0.146 A 
ATOM     11  O   UNL     1      14.443 -16.217  19.643  1.00  0.00    -0.456 OA
ENDROOT
BRANCH   1  12
ATOM     12  C   UNL     1      12.596 -17.781  19.760  1.00  0.00     0.021 A 
ATOM     13  C   UNL     1      11.614 -18.222  20.668  1.00  0.00     0.016 A 
ATOM     14  C   UNL     1      10.379 -18.686  20.207  1.00  0.00     0.051 A 
ATOM     15  C   UNL     1      10.107 -18.724  18.835  1.00  0.00     0.157 A 
ATOM     16  C   UNL     1      12.318 -17.837  18.382  1.00  0.00     0.062 A 
ATOM     17  C   UNL     1      11.078 -18.301  17.920  1.00  0.00     0.158 A 
BRANCH  15  18
ATOM     18  O   UNL     1       8.875 -19.184  18.371  1.00  0.00    -0.504 OA
ATOM     19  H   UNL     1       8.406 -18.744  17.588  1.00  0.00     0.293 HD
ENDBRANCH  15  18
BRANCH  17  20
ATOM     20  O   UNL     1      10.806 -18.344  16.554  1.00  0.00    -0.504 OA
ATOM     21  H   UNL     1      11.157 -19.090  15.966  1.00  0.00     0.293 HD
ENDBRANCH  17  20
ENDBRANCH   1  12
BRANCH   6  22
ATOM     22  O   UNL     1      18.619 -16.308  22.165  1.00  0.00    -0.507 OA
ATOM     23  H   UNL     1      19.406 -15.819  22.564  1.00  0.00     0.293 HD
ENDBRANCH   6  22
BRANCH   8  24
ATOM     24  O   UNL     1      17.701 -12.823  18.992  1.00  0.00    -0.508 OA
ATOM     25  H   UNL     1      17.288 -11.922  19.200  1.00  0.00     0.293 HD
ENDBRANCH   8  24
TORSDOF 5
ENDMDL
MODEL 2
REMARK VINA RESULT:    -5.421     13.011     16.055
REMARK INTER + INTRA:          -6.667
REMARK INTER:                  -6.383
REMARK INTRA:                  -0.284
REMARK UNBOUND:                -0.295
REMARK SMILES O=c1cc(-c2ccc(O)c(O)c2)oc2cc(O)cc(O)c12
REMARK SMILES IDX 4 1 3 2 2 3 1 4 21 5 19 6 18 7 16 8 15 9 14 10 13 11 5 12
REMARK SMILES IDX 6 13 7 14 8 15 12 16 10 17 9 18 11 20 20 22 17 24
REMARK H PARENT 9 19 11 21 20 23 17 25
REMARK Flexibility Score: inf
ROOT
ATOM      1  C   UNL     1      15.818  -7.081   8.204  1.00  0.00     0.138 A 
ATOM      2  C   UNL     1      14.936  -8.039   7.686  1.00  0.00     0.100 A 
ATOM      3  C   UNL     1      14.340  -8.964   8.544  1.00  0.00     0.197 A 
ATOM      4  O   UNL     1      13.506  -9.772   8.059  1.00  0.00    -0.289 OA
ATOM      5  C   UNL     1      14.653  -8.947   9.924  1.00  0.00     0.107 A 
ATOM      6  C   UNL     1      14.138  -9.867  10.886  1.00  0.00     0.134 A 
ATOM      7  C   UNL     1      14.428  -9.680  12.243  1.00  0.00     0.093 A 
ATOM      8  C   UNL     1      15.264  -8.644  12.666  1.00  0.00     0.123 A 
ATOM      9  C   UNL     1      15.816  -7.773  11.729  1.00  0.00     0.094 A 
ATOM     10  C   UNL     1      15.517  -7.913  10.371  1.00  0.00     0.146 A 
ATOM     11  O   UNL     1      16.053  -7.051   9.512  1.00  0.00    -0.456 OA
ENDROOT
BRANCH   1  12
ATOM     12  C   UNL     1      16.480  -6.074   7.336  1.00  0.00     0.021 A 
ATOM     13  C   UNL     1      15.744  -5.259   6.455  1.00  0.00     0.016 A 
ATOM     14  C   UNL     1      16.394  -4.327   5.641  1.00  0.00     0.051 A 
ATOM     15  C   UNL     1      17.787  -4.200   5.687  1.00  0.00     0.157 A 
ATOM     16  C   UNL     1      17.881  -5.948   7.365  1.00  0.00     0.062 A 
ATOM     17  C   UNL     1      18.532  -5.013   6.549  1.00  0.00     0.158 A 
BRANCH  15  18
ATOM     18  O   UNL     1      18.439  -3.270   4.878  1.00  0.00    -0.504 OA
ATOM     19  H   UNL     1      18.635  -3.463   3.902  1.00  0.00     0.293 HD
ENDBRANCH  15  18
BRANCH  17  20
ATOM     20  O   UNL     1      19.920  -4.887   6.590  1.00  0.00    -0.504 OA
ATOM     21  H   UNL     1      20.528  -5.696   6.548  1.00  0.00     0.293 HD
ENDBRANCH  17  20
ENDBRANCH   1  12
BRANCH   6  22
ATOM     22  O   UNL     1      13.363 -10.984  10.561  1.00  0.00    -0.507 OA
ATOM     23  H   UNL     1      13.704 -11.801  10.077  1.00  0.00     0.293 HD
ENDBRANCH   6  22
BRANCH   8  24
ATOM     24  O   UNL     1      15.559  -8.476  14.017  1.00  0.00    -0.508 OA
ATOM     25  H   UNL     1      15.153  -7.721  14.557  1.00  0.00     0.293 HD
ENDBRANCH   8  24
TORSDOF 5
ENDMDL
MODEL 3
REMARK VINA RESULT:    -5.240      2.185      7.204
REMARK INTER + INTRA:          -6.454
REMARK INTER:                  -6.137
REMARK INTRA:                  -0.317
REMARK UNBOUND:                -0.295
REMARK SMILES O=c1cc(-c2ccc(O)c(O)c2)oc2cc(O)cc(O)c12
REMARK SMILES IDX 4 1 3 2 2 3 1 4 21 5 19 6 18 7 16 8 15 9 14 10 13 11 5 12
REMARK SMILES IDX 6 13 7 14 8 15 12 16 10 17 9 18 11 20 20 22 17 24
REMARK H PARENT 9 19 11 21 20 23 17 25
REMARK Flexibility Score: inf
ROOT
ATOM      1  C   UNL     1      17.058 -14.281  19.923  1.00  0.00     0.138 A 
ATOM      2  C   UNL     1      17.454 -15.101  20.989  1.00  0.00     0.100 A 
ATOM      3  C   UNL     1      16.768 -16.291  21.236  1.00  0.00     0.197 A 
ATOM      4  O   UNL     1      17.186 -17.036  22.160  1.00  0.00    -0.289 OA
ATOM      5  C   UNL     1      15.660 -16.644  20.430  1.00  0.00     0.107 A 
ATOM      6  C   UNL     1      14.860 -17.812  20.615  1.00  0.00     0.134 A 
ATOM      7  C   UNL     1      13.861 -18.118  19.683  1.00  0.00     0.093 A 
ATOM      8  C   UNL     1      13.591 -17.266  18.609  1.00  0.00     0.123 A 
ATOM      9  C   UNL     1      14.331 -16.096  18.450  1.00  0.00     0.094 A 
ATOM     10  C   UNL     1      15.358 -15.782  19.343  1.00  0.00     0.146 A 
ATOM     11  O   UNL     1      16.049 -14.663  19.147  1.00  0.00    -0.456 OA
ENDROOT
BRANCH   1  12
ATOM     12  C   UNL     1      17.753 -13.005  19.616  1.00  0.00     0.021 A 
ATOM     13  C   UNL     1      18.940 -12.632  20.275  1.00  0.00     0.016 A 
ATOM     14  C   UNL     1      19.567 -11.420  19.974  1.00  0.00     0.051 A 
ATOM     15  C   UNL     1      19.016 -10.558  19.019  1.00  0.00     0.157 A 
ATOM     16  C   UNL     1      17.200 -12.126  18.667  1.00  0.00     0.062 A 
ATOM     17  C   UNL     1      17.829 -10.910  18.366  1.00  0.00     0.158 A 
BRANCH  15  18
ATOM     18  O   UNL     1      19.640  -9.349  18.715  1.00  0.00    -0.504 OA
ATOM     19  H   UNL     1      19.457  -8.509  19.252  1.00  0.00     0.293 HD
ENDBRANCH  15  18
BRANCH  17  20
ATOM     20  O   UNL     1      17.281 -10.048  17.417  1.00  0.00    -0.504 OA
ATOM     21  H   UNL     1      16.796 -10.398  16.600  1.00  0.00     0.293 HD
ENDBRANCH  17  20
ENDBRANCH   1  12
BRANCH   6  22
ATOM     22  O   UNL     1      14.990 -18.684  21.700  1.00  0.00    -0.507 OA
ATOM     23  H   UNL     1      14.926 -18.411  22.669  1.00  0.00     0.293 HD
ENDBRANCH   6  22
BRANCH   8  24
ATOM     24  O   UNL     1      12.585 -17.571  17.695  1.00  0.00    -0.508 OA
ATOM     25  H   UNL     1      11.777 -18.121  17.961  1.00  0.00     0.293 HD
ENDBRANCH   8  24
TORSDOF 5
ENDMDL
MODEL 4
REMARK VINA RESULT:    -5.240     13.187     15.949
REMARK INTER + INTRA:          -6.454
REMARK INTER:                  -6.181
REMARK INTRA:                  -0.274
REMARK UNBOUND:                -0.295
REMARK SMILES O=c1cc(-c2ccc(O)c(O)c2)oc2cc(O)cc(O)c12
REMARK SMILES IDX 4 1 3 2 2 3 1 4 21 5 19 6 18 7 16 8 15 9 14 10 13 11 5 12
REMARK SMILES IDX 6 13 7 14 8 15 12 16 10 17 9 18 11 20 20 22 17 24
REMARK H PARENT 9 19 11 21 20 23 17 25
REMARK Flexibility Score: inf
ROOT
ATOM      1  C   UNL     1      15.429  -7.117   9.243  1.00  0.00     0.138 A 
ATOM      2  C   UNL     1      14.306  -7.316   8.428  1.00  0.00     0.100 A 
ATOM      3  C   UNL     1      14.381  -7.019   7.067  1.00  0.00     0.197 A 
ATOM      4  O   UNL     1      13.377  -7.267   6.349  1.00  0.00    -0.289 OA
ATOM      5  C   UNL     1      15.576  -6.490   6.526  1.00  0.00     0.107 A 
ATOM      6  C   UNL     1      15.754  -6.112   5.162  1.00  0.00     0.134 A 
ATOM      7  C   UNL     1      17.019  -5.709   4.716  1.00  0.00     0.093 A 
ATOM      8  C   UNL     1      18.097  -5.613   5.600  1.00  0.00     0.123 A 
ATOM      9  C   UNL     1      17.920  -5.928   6.945  1.00  0.00     0.094 A 
ATOM     10  C   UNL     1      16.679  -6.367   7.412  1.00  0.00     0.146 A 
ATOM     11  O   UNL     1      16.557  -6.671   8.701  1.00  0.00    -0.456 OA
ENDROOT
BRANCH   1  12
ATOM     12  C   UNL     1      15.405  -7.417  10.698  1.00  0.00     0.021 A 
ATOM     13  C   UNL     1      15.197  -8.723  11.180  1.00  0.00     0.016 A 
ATOM     14  C   UNL     1      15.167  -8.974  12.555  1.00  0.00     0.051 A 
ATOM     15  C   UNL     1      15.337  -7.927  13.468  1.00  0.00     0.157 A 
ATOM     16  C   UNL     1      15.561  -6.369  11.623  1.00  0.00     0.062 A 
ATOM     17  C   UNL     1      15.532  -6.622  13.002  1.00  0.00     0.158 A 
BRANCH  15  18
ATOM     18  O   UNL     1      15.310  -8.175  14.840  1.00  0.00    -0.504 OA
ATOM     19  H   UNL     1      15.370  -9.117  15.209  1.00  0.00     0.293 HD
ENDBRANCH  15  18
BRANCH  17  20
ATOM     20  O   UNL     1      15.697  -5.580  13.914  1.00  0.00    -0.504 OA
ATOM     21  H   UNL     1      15.674  -4.611  13.621  1.00  0.00     0.293 HD
ENDBRANCH  17  20
ENDBRANCH   1  12
BRANCH   6  22
ATOM     22  O   UNL     1      14.724  -6.091   4.216  1.00  0.00    -0.507 OA
ATOM     23  H   UNL     1      14.341  -6.907   3.764  1.00  0.00     0.293 HD
ENDBRANCH   6  22
BRANCH   8  24
ATOM     24  O   UNL     1      19.348  -5.197   5.151  1.00  0.00    -0.508 OA
ATOM     25  H   UNL     1      19.734  -5.529   4.275  1.00  0.00     0.293 HD
ENDBRANCH   8  24
TORSDOF 5
ENDMDL
MODEL 5
REMARK VINA RESULT:    -5.091      9.614     11.493
REMARK INTER + INTRA:          -6.280
REMARK INTER:                  -6.013
REMARK INTRA:                  -0.267
REMARK UNBOUND:                -0.295
REMARK SMILES O=c1cc(-c2ccc(O)c(O)c2)oc2cc(O)cc(O)c12
REMARK SMILES IDX 4 1 3 2 2 3 1 4 21 5 19 6 18 7 16 8 15 9 14 10 13 11 5 12
REMARK SMILES IDX 6 13 7 14 8 15 12 16 10 17 9 18 11 20 20 22 17 24
REMARK H PARENT 9 19 11 21 20 23 17 25
REMARK Flexibility Score: inf
ROOT
ATOM      1  C   UNL     1      14.573 -11.081  11.379  1.00  0.00     0.138 A 
ATOM      2  C   UNL     1      14.909 -10.381  12.546  1.00  0.00     0.100 A 
ATOM      3  C   UNL     1      15.169  -9.012  12.479  1.00  0.00     0.197 A 
ATOM      4  O   UNL     1      15.406  -8.399  13.553  1.00  0.00    -0.289 OA
ATOM      5  C   UNL     1      15.122  -8.347  11.231  1.00  0.00     0.107 A 
ATOM      6  C   UNL     1      15.409  -6.963  11.036  1.00  0.00     0.134 A 
ATOM      7  C   UNL     1      15.216  -6.390   9.773  1.00  0.00     0.093 A 
ATOM      8  C   UNL     1      14.807  -7.165   8.685  1.00  0.00     0.123 A 
ATOM      9  C   UNL     1      14.577  -8.528   8.853  1.00  0.00     0.094 A 
ATOM     10  C   UNL     1      14.726  -9.122  10.109  1.00  0.00     0.146 A 
ATOM     11  O   UNL     1      14.483 -10.423  10.228  1.00  0.00    -0.456 OA
ENDROOT
BRANCH   1  12
ATOM     12  C   UNL     1      14.287 -12.539  11.394  1.00  0.00     0.021 A 
ATOM     13  C   UNL     1      13.047 -13.053  10.971  1.00  0.00     0.016 A 
ATOM     14  C   UNL     1      12.801 -14.429  11.007  1.00  0.00     0.051 A 
ATOM     15  C   UNL     1      13.785 -15.310  11.471  1.00  0.00     0.157 A 
ATOM     16  C   UNL     1      15.264 -13.431  11.872  1.00  0.00     0.062 A 
ATOM     17  C   UNL     1      15.018 -14.811  11.906  1.00  0.00     0.158 A 
BRANCH  15  18
ATOM     18  O   UNL     1      13.544 -16.683  11.506  1.00  0.00    -0.504 OA
ATOM     19  H   UNL     1      13.304 -17.157  12.369  1.00  0.00     0.293 HD
ENDBRANCH  15  18
BRANCH  17  20
ATOM     20  O   UNL     1      15.994 -15.690  12.372  1.00  0.00    -0.504 OA
ATOM     21  H   UNL     1      16.970 -15.577  12.128  1.00  0.00     0.293 HD
ENDBRANCH  17  20
ENDBRANCH   1  12
BRANCH   6  22
ATOM     22  O   UNL     1      15.903  -6.119  12.035  1.00  0.00    -0.507 OA
ATOM     23  H   UNL     1      15.515  -5.219  12.273  1.00  0.00     0.293 HD
ENDBRANCH   6  22
BRANCH   8  24
ATOM     24  O   UNL     1      14.633  -6.589   7.428  1.00  0.00    -0.508 OA
ATOM     25  H   UNL     1      14.082  -7.043   6.709  1.00  0.00     0.293 HD
ENDBRANCH   8  24
TORSDOF 5
ENDMDL
MODEL 6
REMARK VINA RESULT:    -4.968      9.580     12.524
REMARK INTER + INTRA:          -6.134
REMARK INTER:                  -5.861
REMARK INTRA:                  -0.274
REMARK UNBOUND:                -0.295
REMARK SMILES O=c1cc(-c2ccc(O)c(O)c2)oc2cc(O)cc(O)c12
REMARK SMILES IDX 4 1 3 2 2 3 1 4 21 5 19 6 18 7 16 8 15 9 14 10 13 11 5 12
REMARK SMILES IDX 6 13 7 14 8 15 12 16 10 17 9 18 11 20 20 22 17 24
REMARK H PARENT 9 19 11 21 20 23 17 25
REMARK Flexibility Score: inf
ROOT
ATOM      1  C   UNL     1      25.052 -12.809  17.993  1.00  0.00     0.138 A 
ATOM      2  C   UNL     1      25.478 -11.913  18.983  1.00  0.00     0.100 A 
ATOM      3  C   UNL     1      25.932 -10.645  18.618  1.00  0.00     0.197 A 
ATOM      4  O   UNL     1      26.249  -9.842  19.533  1.00  0.00    -0.289 OA
ATOM      5  C   UNL     1      25.990 -10.286  17.251  1.00  0.00     0.107 A 
ATOM      6  C   UNL     1      26.474  -9.037  16.758  1.00  0.00     0.134 A 
ATOM      7  C   UNL     1      26.374  -8.749  15.391  1.00  0.00     0.093 A 
ATOM      8  C   UNL     1      25.864  -9.688  14.492  1.00  0.00     0.123 A 
ATOM      9  C   UNL     1      25.439 -10.931  14.956  1.00  0.00     0.094 A 
ATOM     10  C   UNL     1      25.493 -11.235  16.318  1.00  0.00     0.146 A 
ATOM     11  O   UNL     1      25.064 -12.427  16.720  1.00  0.00    -0.456 OA
ENDROOT
BRANCH   1  12
ATOM     12  C   UNL     1      24.559 -14.170  18.326  1.00  0.00     0.021 A 
ATOM     13  C   UNL     1      23.404 -14.367  19.106  1.00  0.00     0.016 A 
ATOM     14  C   UNL     1      22.969 -15.659  19.415  1.00  0.00     0.051 A 
ATOM     15  C   UNL     1      23.683 -16.773  18.957  1.00  0.00     0.157 A 
ATOM     16  C   UNL     1      25.278 -15.295  17.882  1.00  0.00     0.062 A 
ATOM     17  C   UNL     1      24.841 -16.590  18.191  1.00  0.00     0.158 A 
BRANCH  15  18
ATOM     18  O   UNL     1      23.251 -18.063  19.261  1.00  0.00    -0.504 OA
ATOM     19  H   UNL     1      23.431 -18.482  20.166  1.00  0.00     0.293 HD
ENDBRANCH  15  18
BRANCH  17  20
ATOM     20  O   UNL     1      25.552 -17.701  17.739  1.00  0.00    -0.504 OA
ATOM     21  H   UNL     1      26.414 -17.995  18.182  1.00  0.00     0.293 HD
ENDBRANCH  17  20
ENDBRANCH   1  12
BRANCH   6  22
ATOM     22  O   UNL     1      27.079  -8.063  17.558  1.00  0.00    -0.507 OA
ATOM     23  H   UNL     1      27.928  -8.197  18.086  1.00  0.00     0.293 HD
ENDBRANCH   6  22
BRANCH   8  24
ATOM     24  O   UNL     1      25.782  -9.398  13.132  1.00  0.00    -0.508 OA
ATOM     25  H   UNL     1      25.546 -10.111  12.451  1.00  0.00     0.293 HD
ENDBRANCH   8  24
TORSDOF 5
ENDMDL
MODEL 7
REMARK VINA RESULT:    -4.957      9.409     11.481
REMARK INTER + INTRA:          -6.122
REMARK INTER:                  -5.835
REMARK INTRA:                  -0.286
REMARK UNBOUND:                -0.295
REMARK SMILES O=c1cc(-c2ccc(O)c(O)c2)oc2cc(O)cc(O)c12
REMARK SMILES IDX 4 1 3 2 2 3 1 4 21 5 19 6 18 7 16 8 15 9 14 10 13 11 5 12
REMARK SMILES IDX 6 13 7 14 8 15 12 16 10 17 9 18 11 20 20 22 17 24
REMARK H PARENT 9 19 11 21 20 23 17 25
REMARK Flexibility Score: inf
ROOT
ATOM      1  C   UNL     1      14.469 -11.028  10.876  1.00  0.00     0.138 A 
ATOM      2  C   UNL     1      14.462 -10.379   9.633  1.00  0.00     0.100 A 
ATOM      3  C   UNL     1      14.681  -9.003   9.572  1.00  0.00     0.197 A 
ATOM      4  O   UNL     1      14.731  -8.460   8.438  1.00  0.00    -0.289 OA
ATOM      5  C   UNL     1      14.877  -8.268  10.764  1.00  0.00     0.107 A 
ATOM      6  C   UNL     1      15.068  -6.855  10.827  1.00  0.00     0.134 A 
ATOM      7  C   UNL     1      15.369  -6.253  12.054  1.00  0.00     0.093 A 
ATOM      8  C   UNL     1      15.424  -7.003  13.231  1.00  0.00     0.123 A 
ATOM      9  C   UNL     1      15.185  -8.375  13.189  1.00  0.00     0.094 A 
ATOM     10  C   UNL     1      14.918  -9.010  11.974  1.00  0.00     0.146 A 
ATOM     11  O   UNL     1      14.710 -10.323  11.977  1.00  0.00    -0.456 OA
ENDROOT
BRANCH   1  12
ATOM     12  C   UNL     1      14.241 -12.490  10.998  1.00  0.00     0.021 A 
ATOM     13  C   UNL     1      13.111 -13.112  10.435  1.00  0.00     0.016 A 
ATOM     14  C   UNL     1      12.915 -14.489  10.575  1.00  0.00     0.051 A 
ATOM     15  C   UNL     1      13.839 -15.265  11.286  1.00  0.00     0.157 A 
ATOM     16  C   UNL     1      15.156 -13.276  11.722  1.00  0.00     0.062 A 
ATOM     17  C   UNL     1      14.960 -14.657  11.862  1.00  0.00     0.158 A 
BRANCH  15  18
ATOM     18  O   UNL     1      13.648 -16.638  11.426  1.00  0.00    -0.504 OA
ATOM     19  H   UNL     1      12.853 -17.014  11.930  1.00  0.00     0.293 HD
ENDBRANCH  15  18
BRANCH  17  20
ATOM     20  O   UNL     1      15.877 -15.431  12.573  1.00  0.00    -0.504 OA
ATOM     21  H   UNL     1      16.383 -15.058  13.367  1.00  0.00     0.293 HD
ENDBRANCH  17  20
ENDBRANCH   1  12
BRANCH   6  22
ATOM     22  O   UNL     1      14.952  -6.002   9.725  1.00  0.00    -0.507 OA
ATOM     23  H   UNL     1      14.814  -5.004   9.782  1.00  0.00     0.293 HD
ENDBRANCH   6  22
BRANCH   8  24
ATOM     24  O   UNL     1      15.709  -6.393  14.451  1.00  0.00    -0.508 OA
ATOM     25  H   UNL     1      16.252  -6.864  15.165  1.00  0.00     0.293 HD
ENDBRANCH   8  24
TORSDOF 5
ENDMDL
MODEL 8
REMARK VINA RESULT:    -4.874      3.366      6.781
REMARK INTER + INTRA:          -6.024
REMARK INTER:                  -5.714
REMARK INTRA:                  -0.310
REMARK UNBOUND:                -0.295
REMARK SMILES O=c1cc(-c2ccc(O)c(O)c2)oc2cc(O)cc(O)c12
REMARK SMILES IDX 4 1 3 2 2 3 1 4 21 5 19 6 18 7 16 8 15 9 14 10 13 11 5 12
REMARK SMILES IDX 6 13 7 14 8 15 12 16 10 17 9 18 11 20 20 22 17 24
REMARK H PARENT 9 19 11 21 20 23 17 25
REMARK Flexibility Score: inf
ROOT
ATOM      1  C   UNL     1      15.252 -13.637  20.285  1.00  0.00     0.138 A 
ATOM      2  C   UNL     1      14.449 -13.743  21.430  1.00  0.00     0.100 A 
ATOM      3  C   UNL     1      14.105 -15.004  21.917  1.00  0.00     0.197 A 
ATOM      4  O   UNL     1      13.436 -15.067  22.981  1.00  0.00    -0.289 OA
ATOM      5  C   UNL     1      14.541 -16.164  21.235  1.00  0.00     0.107 A 
ATOM      6  C   UNL     1      14.217 -17.501  21.616  1.00  0.00     0.134 A 
ATOM      7  C   UNL     1      14.803 -18.574  20.933  1.00  0.00     0.093 A 
ATOM      8  C   UNL     1      15.652 -18.359  19.845  1.00  0.00     0.123 A 
ATOM      9  C   UNL     1      15.931 -17.058  19.431  1.00  0.00     0.094 A 
ATOM     10  C   UNL     1      15.390 -15.967  20.114  1.00  0.00     0.146 A 
ATOM     11  O   UNL     1      15.694 -14.742  19.695  1.00  0.00    -0.456 OA
ENDROOT
BRANCH   1  12
ATOM     12  C   UNL     1      15.648 -12.319  19.725  1.00  0.00     0.021 A 
ATOM     13  C   UNL     1      14.864 -11.167  19.921  1.00  0.00     0.016 A 
ATOM     14  C   UNL     1      15.255  -9.942  19.372  1.00  0.00     0.051 A 
ATOM     15  C   UNL     1      16.427  -9.850  18.613  1.00  0.00     0.157 A 
ATOM     16  C   UNL     1      16.817 -12.220  18.949  1.00  0.00     0.062 A 
ATOM     17  C   UNL     1      17.209 -10.991  18.399  1.00  0.00     0.158 A 
BRANCH  15  18
ATOM     18  O   UNL     1      16.821  -8.630  18.066  1.00  0.00    -0.504 OA
ATOM     19  H   UNL     1      16.456  -7.751  18.415  1.00  0.00     0.293 HD
ENDBRANCH  15  18
BRANCH  17  20
ATOM     20  O   UNL     1      18.374 -10.898  17.640  1.00  0.00    -0.504 OA
ATOM     21  H   UNL     1      19.289 -10.860  18.073  1.00  0.00     0.293 HD
ENDBRANCH  17  20
ENDBRANCH   1  12
BRANCH   6  22
ATOM     22  O   UNL     1      13.316 -17.827  22.634  1.00  0.00    -0.507 OA
ATOM     23  H   UNL     1      12.334 -17.596  22.629  1.00  0.00     0.293 HD
ENDBRANCH   6  22
BRANCH   8  24
ATOM     24  O   UNL     1      16.218 -19.433  19.162  1.00  0.00    -0.508 OA
ATOM     25  H   UNL     1      15.782 -19.825  18.335  1.00  0.00     0.293 HD
ENDBRANCH   8  24
TORSDOF 5
ENDMDL
