MODEL 1
REMARK VINA RESULT:    -5.875      0.000      0.000
REMARK INTER + INTRA:         -18.666
REMARK INTER:                 -15.491
REMARK INTRA:                  -3.174
REMARK UNBOUND:                -3.174
REMARK SMILES CCCCCCCCCCCCCCCCCCCCCCCCCCCCCC(=O)[O-]
REMARK SMILES IDX 16 1 17 2 18 3 19 4 20 5 21 6 22 7 23 8 24 9 25 10 26 11
REMARK SMILES IDX 27 12 28 13 29 14 30 15 31 16 32 17 15 18 14 19 13 20 12 21
REMARK SMILES IDX 11 22 10 23 9 24 8 25 7 26 6 27 5 28 4 29 3 30 2 31 1 32
REMARK H PARENT
REMARK Flexibility Score: inf
ROOT
ATOM      1  C   UNL     1      19.220 -44.283 -25.297  1.00  0.00     0.000 C 
ENDROOT
BRANCH   1   2
ATOM      2  C   UNL     1      19.545 -42.774 -25.275  1.00  0.00     0.000 C 
BRANCH   2   3
ATOM      3  C   UNL     1      20.541 -42.397 -24.162  1.00  0.00     0.000 C 
BRANCH   3   4
ATOM      4  C   UNL     1      20.661 -43.485 -23.084  1.00  0.00     0.000 C 
BRANCH   4   5
ATOM      5  C   UNL     1      19.959 -43.105 -21.772  1.00  0.00     0.000 C 
BRANCH   5   6
ATOM      6  C   UNL     1      19.858 -41.579 -21.636  1.00  0.00     0.000 C 
BRANCH   6   7
ATOM      7  C   UNL     1      18.704 -41.131 -20.721  1.00  0.00     0.000 C 
BRANCH   7   8
ATOM      8  C   UNL     1      17.644 -42.213 -20.428  1.00  0.00     0.000 C 
BRANCH   8   9
ATOM      9  C   UNL     1      16.194 -41.827 -20.781  1.00  0.00     0.000 C 
BRANCH   9  10
ATOM     10  C   UNL     1      15.839 -41.932 -22.275  1.00  0.00     0.000 C 
BRANCH  10  11
ATOM     11  C   UNL     1      16.620 -43.037 -22.999  1.00  0.00     0.000 C 
BRANCH  11  12
ATOM     12  C   UNL     1      15.744 -44.281 -23.190  1.00  0.00     0.000 C 
BRANCH  12  13
ATOM     13  C   UNL     1      16.519 -45.599 -23.011  1.00  0.00     0.006 C 
BRANCH  13  14
ATOM     14  C   UNL     1      17.571 -45.551 -21.884  1.00  0.00     0.053 C 
BRANCH  14  15
ATOM     15  C   UNL     1      18.535 -46.697 -21.956  1.00  0.00     0.041 C 
ATOM     16  O   UNL     1      19.661 -46.607 -21.405  1.00  0.00    -0.550 OA
ATOM     17  O   UNL     1      18.213 -47.838 -22.679  1.00  0.00    -0.550 OA
ENDBRANCH  14  15
ENDBRANCH  13  14
ENDBRANCH  12  13
ENDBRANCH  11  12
ENDBRANCH  10  11
ENDBRANCH   9  10
ENDBRANCH   8   9
ENDBRANCH   7   8
ENDBRANCH   6   7
ENDBRANCH   5   6
ENDBRANCH   4   5
ENDBRANCH   3   4
ENDBRANCH   2   3
ENDBRANCH   1   2
BRANCH   1  18
ATOM     18  C   UNL     1      17.998 -44.646 -26.159  1.00  0.00     0.000 C 
BRANCH  18  19
ATOM     19  C   UNL     1      18.358 -45.510 -27.380  1.00  0.00     0.000 C 
BRANCH  19  20
ATOM     20  C   UNL     1      17.256 -45.499 -28.451  1.00  0.00     0.000 C 
BRANCH  20  21
ATOM     21  C   UNL     1      17.342 -46.711 -29.395  1.00  0.00     0.000 C 
BRANCH  21  22
ATOM     22  C   UNL     1      18.656 -46.735 -30.191  1.00  0.00     0.000 C 
BRANCH  22  23
ATOM     23  C   UNL     1      18.760 -47.970 -31.103  1.00  0.00     0.000 C 
BRANCH  23  24
ATOM     24  C   UNL     1      19.439 -47.660 -32.446  1.00  0.00    -0.000 C 
BRANCH  24  25
ATOM     25  C   UNL     1      20.235 -48.856 -33.000  1.00  0.00    -0.000 C 
BRANCH  25  26
ATOM     26  C   UNL     1      20.190 -50.079 -32.073  1.00  0.00    -0.000 C 
BRANCH  26  27
ATOM     27  C   UNL     1      19.963 -51.395 -32.836  1.00  0.00    -0.000 C 
BRANCH  27  28
ATOM     28  C   UNL     1      21.253 -52.217 -32.987  1.00  0.00    -0.000 C 
BRANCH  28  29
ATOM     29  C   UNL     1      21.317 -52.984 -34.321  1.00  0.00    -0.000 C 
BRANCH  29  30
ATOM     30  C   UNL     1      21.195 -54.510 -34.118  1.00  0.00    -0.000 C 
BRANCH  30  31
ATOM     31  C   UNL     1      19.872 -55.095 -34.639  1.00  0.00    -0.003 C 
ATOM     32  C   UNL     1      18.668 -54.713 -33.780  1.00  0.00     0.004 C 
ENDBRANCH  30  31
ENDBRANCH  29  30
ENDBRANCH  28  29
ENDBRANCH  27  28
ENDBRANCH  26  27
ENDBRANCH  25  26
ENDBRANCH  24  25
ENDBRANCH  23  24
ENDBRANCH  22  23
ENDBRANCH  21  22
ENDBRANCH  20  21
ENDBRANCH  19  20
ENDBRANCH  18  19
ENDBRANCH   1  18
TORSDOF 28
ENDMDL
MODEL 2
REMARK VINA RESULT:    -5.782      3.468     10.944
REMARK INTER + INTRA:         -18.422
REMARK INTER:                 -14.499
REMARK INTRA:                  -3.923
REMARK UNBOUND:                -3.174
REMARK SMILES CCCCCCCCCCCCCCCCCCCCCCCCCCCCCC(=O)[O-]
REMARK SMILES IDX 16 1 17 2 18 3 19 4 20 5 21 6 22 7 23 8 24 9 25 10 26 11
REMARK SMILES IDX 27 12 28 13 29 14 30 15 31 16 32 17 15 18 14 19 13 20 12 21
REMARK SMILES IDX 11 22 10 23 9 24 8 25 7 26 6 27 5 28 4 29 3 30 2 31 1 32
REMARK H PARENT
REMARK Flexibility Score: inf
ROOT
ATOM      1  C   UNL     1      21.003 -45.364 -24.477  1.00  0.00     0.000 C 
ENDROOT
BRANCH   1   2
ATOM      2  C   UNL     1      19.528 -45.663 -24.816  1.00  0.00     0.000 C 
BRANCH   2   3
ATOM      3  C   UNL     1      18.989 -44.778 -25.956  1.00  0.00     0.000 C 
BRANCH   3   4
ATOM      4  C   UNL     1      17.660 -45.297 -26.529  1.00  0.00     0.000 C 
BRANCH   4   5
ATOM      5  C   UNL     1      17.852 -46.205 -27.752  1.00  0.00     0.000 C 
BRANCH   5   6
ATOM      6  C   UNL     1      17.534 -45.442 -29.046  1.00  0.00     0.000 C 
BRANCH   6   7
ATOM      7  C   UNL     1      17.422 -46.362 -30.275  1.00  0.00     0.000 C 
BRANCH   7   8
ATOM      8  C   UNL     1      17.390 -47.872 -29.961  1.00  0.00     0.000 C 
BRANCH   8   9
ATOM      9  C   UNL     1      18.182 -48.765 -30.936  1.00  0.00     0.000 C 
BRANCH   9  10
ATOM     10  C   UNL     1      19.410 -48.095 -31.579  1.00  0.00     0.000 C 
BRANCH  10  11
ATOM     11  C   UNL     1      20.159 -49.022 -32.545  1.00  0.00     0.000 C 
BRANCH  11  12
ATOM     12  C   UNL     1      19.719 -50.478 -32.345  1.00  0.00     0.000 C 
BRANCH  12  13
ATOM     13  C   UNL     1      20.903 -51.451 -32.200  1.00  0.00     0.006 C 
BRANCH  13  14
ATOM     14  C   UNL     1      21.295 -52.149 -33.518  1.00  0.00     0.053 C 
BRANCH  14  15
ATOM     15  C   UNL     1      20.700 -53.521 -33.635  1.00  0.00     0.041 C 
ATOM     16  O   UNL     1      21.347 -54.441 -34.197  1.00  0.00    -0.550 OA
ATOM     17  O   UNL     1      19.413 -53.766 -33.177  1.00  0.00    -0.550 OA
ENDBRANCH  14  15
ENDBRANCH  13  14
ENDBRANCH  12  13
ENDBRANCH  11  12
ENDBRANCH  10  11
ENDBRANCH   9  10
ENDBRANCH   8   9
ENDBRANCH   7   8
ENDBRANCH   6   7
ENDBRANCH   5   6
ENDBRANCH   4   5
ENDBRANCH   3   4
ENDBRANCH   2   3
ENDBRANCH   1   2
BRANCH   1  18
ATOM     18  C   UNL     1      21.395 -45.712 -23.030  1.00  0.00     0.000 C 
BRANCH  18  19
ATOM     19  C   UNL     1      21.609 -44.470 -22.149  1.00  0.00     0.000 C 
BRANCH  19  20
ATOM     20  C   UNL     1      20.286 -43.814 -21.729  1.00  0.00     0.000 C 
BRANCH  20  21
ATOM     21  C   UNL     1      20.288 -42.291 -21.949  1.00  0.00     0.000 C 
BRANCH  21  22
ATOM     22  C   UNL     1      20.864 -41.904 -23.321  1.00  0.00     0.000 C 
BRANCH  22  23
ATOM     23  C   UNL     1      19.792 -41.915 -24.424  1.00  0.00     0.000 C 
BRANCH  23  24
ATOM     24  C   UNL     1      18.464 -41.292 -23.967  1.00  0.00    -0.000 C 
BRANCH  24  25
ATOM     25  C   UNL     1      17.279 -42.269 -24.080  1.00  0.00    -0.000 C 
BRANCH  25  26
ATOM     26  C   UNL     1      16.648 -42.595 -22.718  1.00  0.00    -0.000 C 
BRANCH  26  27
ATOM     27  C   UNL     1      16.935 -44.035 -22.260  1.00  0.00    -0.000 C 
BRANCH  27  28
ATOM     28  C   UNL     1      16.185 -45.080 -23.102  1.00  0.00    -0.000 C 
BRANCH  28  29
ATOM     29  C   UNL     1      16.466 -46.524 -22.647  1.00  0.00    -0.000 C 
BRANCH  29  30
ATOM     30  C   UNL     1      17.792 -46.637 -21.863  1.00  0.00    -0.000 C 
BRANCH  30  31
ATOM     31  C   UNL     1      18.436 -48.031 -21.943  1.00  0.00    -0.003 C 
ATOM     32  C   UNL     1      19.763 -48.121 -21.193  1.00  0.00     0.004 C 
ENDBRANCH  30  31
ENDBRANCH  29  30
ENDBRANCH  28  29
ENDBRANCH  27  28
ENDBRANCH  26  27
ENDBRANCH  25  26
ENDBRANCH  24  25
ENDBRANCH  23  24
ENDBRANCH  22  23
ENDBRANCH  21  22
ENDBRANCH  20  21
ENDBRANCH  19  20
ENDBRANCH  18  19
ENDBRANCH   1  18
TORSDOF 28
ENDMDL
MODEL 3
REMARK VINA RESULT:    -5.757      3.511     11.593
REMARK INTER + INTRA:         -18.355
REMARK INTER:                 -15.134
REMARK INTRA:                  -3.221
REMARK UNBOUND:                -3.174
REMARK SMILES CCCCCCCCCCCCCCCCCCCCCCCCCCCCCC(=O)[O-]
REMARK SMILES IDX 16 1 17 2 18 3 19 4 20 5 21 6 22 7 23 8 24 9 25 10 26 11
REMARK SMILES IDX 27 12 28 13 29 14 30 15 31 16 32 17 15 18 14 19 13 20 12 21
REMARK SMILES IDX 11 22 10 23 9 24 8 25 7 26 6 27 5 28 4 29 3 30 2 31 1 32
REMARK H PARENT
REMARK Flexibility Score: inf
ROOT
ATOM      1  C   UNL     1      19.736 -43.787 -25.761  1.00  0.00     0.000 C 
ENDROOT
BRANCH   1   2
ATOM      2  C   UNL     1      18.740 -44.965 -25.720  1.00  0.00     0.000 C 
BRANCH   2   3
ATOM      3  C   UNL     1      17.789 -44.982 -26.932  1.00  0.00     0.000 C 
BRANCH   3   4
ATOM      4  C   UNL     1      17.970 -46.233 -27.806  1.00  0.00     0.000 C 
BRANCH   4   5
ATOM      5  C   UNL     1      17.154 -46.175 -29.105  1.00  0.00     0.000 C 
BRANCH   5   6
ATOM      6  C   UNL     1      17.899 -45.362 -30.174  1.00  0.00     0.000 C 
BRANCH   6   7
ATOM      7  C   UNL     1      19.076 -46.129 -30.803  1.00  0.00     0.000 C 
BRANCH   7   8
ATOM      8  C   UNL     1      18.678 -47.212 -31.827  1.00  0.00     0.000 C 
BRANCH   8   9
ATOM      9  C   UNL     1      19.578 -47.301 -33.076  1.00  0.00     0.000 C 
BRANCH   9  10
ATOM     10  C   UNL     1      20.179 -48.693 -33.346  1.00  0.00     0.000 C 
BRANCH  10  11
ATOM     11  C   UNL     1      20.188 -49.591 -32.102  1.00  0.00     0.000 C 
BRANCH  11  12
ATOM     12  C   UNL     1      19.766 -51.021 -32.466  1.00  0.00     0.000 C 
BRANCH  12  13
ATOM     13  C   UNL     1      20.938 -52.017 -32.455  1.00  0.00     0.006 C 
BRANCH  13  14
ATOM     14  C   UNL     1      21.265 -52.605 -33.843  1.00  0.00     0.053 C 
BRANCH  14  15
ATOM     15  C   UNL     1      20.853 -54.042 -33.964  1.00  0.00     0.041 C 
ATOM     16  O   UNL     1      21.619 -54.872 -34.518  1.00  0.00    -0.550 OA
ATOM     17  O   UNL     1      19.603 -54.451 -33.520  1.00  0.00    -0.550 OA
ENDBRANCH  14  15
ENDBRANCH  13  14
ENDBRANCH  12  13
ENDBRANCH  11  12
ENDBRANCH  10  11
ENDBRANCH   9  10
ENDBRANCH   8   9
ENDBRANCH   7   8
ENDBRANCH   6   7
ENDBRANCH   5   6
ENDBRANCH   4   5
ENDBRANCH   3   4
ENDBRANCH   2   3
ENDBRANCH   1   2
BRANCH   1  18
ATOM     18  C   UNL     1      19.287 -42.560 -24.948  1.00  0.00     0.000 C 
BRANCH  18  19
ATOM     19  C   UNL     1      20.237 -42.230 -23.784  1.00  0.00     0.000 C 
BRANCH  19  20
ATOM     20  C   UNL     1      20.325 -43.370 -22.758  1.00  0.00     0.000 C 
BRANCH  20  21
ATOM     21  C   UNL     1      19.501 -43.085 -21.490  1.00  0.00     0.000 C 
BRANCH  21  22
ATOM     22  C   UNL     1      19.269 -41.580 -21.274  1.00  0.00     0.000 C 
BRANCH  22  23
ATOM     23  C   UNL     1      18.117 -41.305 -20.293  1.00  0.00     0.000 C 
BRANCH  23  24
ATOM     24  C   UNL     1      16.866 -42.144 -20.597  1.00  0.00    -0.000 C 
BRANCH  24  25
ATOM     25  C   UNL     1      16.023 -41.561 -21.745  1.00  0.00    -0.000 C 
BRANCH  25  26
ATOM     26  C   UNL     1      16.255 -42.287 -23.079  1.00  0.00    -0.000 C 
BRANCH  26  27
ATOM     27  C   UNL     1      15.518 -43.635 -23.157  1.00  0.00    -0.000 C 
BRANCH  27  28
ATOM     28  C   UNL     1      16.481 -44.823 -23.306  1.00  0.00    -0.000 C 
BRANCH  28  29
ATOM     29  C   UNL     1      16.863 -45.454 -21.954  1.00  0.00    -0.000 C 
BRANCH  29  30
ATOM     30  C   UNL     1      16.963 -46.992 -22.039  1.00  0.00    -0.000 C 
BRANCH  30  31
ATOM     31  C   UNL     1      18.257 -47.488 -22.705  1.00  0.00    -0.003 C 
ATOM     32  C   UNL     1      19.512 -46.827 -22.140  1.00  0.00     0.004 C 
ENDBRANCH  30  31
ENDBRANCH  29  30
ENDBRANCH  28  29
ENDBRANCH  27  28
ENDBRANCH  26  27
ENDBRANCH  25  26
ENDBRANCH  24  25
ENDBRANCH  23  24
ENDBRANCH  22  23
ENDBRANCH  21  22
ENDBRANCH  20  21
ENDBRANCH  19  20
ENDBRANCH  18  19
ENDBRANCH   1  18
TORSDOF 28
ENDMDL
MODEL 4
REMARK VINA RESULT:    -5.685      3.455     11.699
REMARK INTER + INTRA:         -18.166
REMARK INTER:                 -14.709
REMARK INTRA:                  -3.457
REMARK UNBOUND:                -3.174
REMARK SMILES CCCCCCCCCCCCCCCCCCCCCCCCCCCCCC(=O)[O-]
REMARK SMILES IDX 16 1 17 2 18 3 19 4 20 5 21 6 22 7 23 8 24 9 25 10 26 11
REMARK SMILES IDX 27 12 28 13 29 14 30 15 31 16 32 17 15 18 14 19 13 20 12 21
REMARK SMILES IDX 11 22 10 23 9 24 8 25 7 26 6 27 5 28 4 29 3 30 2 31 1 32
REMARK H PARENT
REMARK Flexibility Score: inf
ROOT
ATOM      1  C   UNL     1      20.924 -43.171 -25.646  1.00  0.00     0.000 C 
ENDROOT
BRANCH   1   2
ATOM      2  C   UNL     1      20.158 -44.439 -26.080  1.00  0.00     0.000 C 
BRANCH   2   3
ATOM      3  C   UNL     1      18.635 -44.307 -25.889  1.00  0.00     0.000 C 
BRANCH   3   4
ATOM      4  C   UNL     1      17.865 -45.521 -26.432  1.00  0.00     0.000 C 
BRANCH   4   5
ATOM      5  C   UNL     1      17.433 -45.348 -27.895  1.00  0.00     0.000 C 
BRANCH   5   6
ATOM      6  C   UNL     1      17.951 -46.511 -28.753  1.00  0.00     0.000 C 
BRANCH   6   7
ATOM      7  C   UNL     1      18.910 -46.058 -29.868  1.00  0.00     0.000 C 
BRANCH   7   8
ATOM      8  C   UNL     1      18.320 -46.096 -31.293  1.00  0.00     0.000 C 
BRANCH   8   9
ATOM      9  C   UNL     1      18.845 -47.232 -32.193  1.00  0.00     0.000 C 
BRANCH   9  10
ATOM     10  C   UNL     1      19.048 -48.583 -31.483  1.00  0.00     0.000 C 
BRANCH  10  11
ATOM     11  C   UNL     1      20.234 -49.380 -32.042  1.00  0.00     0.000 C 
BRANCH  11  12
ATOM     12  C   UNL     1      19.782 -50.777 -32.488  1.00  0.00     0.000 C 
BRANCH  12  13
ATOM     13  C   UNL     1      20.851 -51.859 -32.256  1.00  0.00     0.006 C 
BRANCH  13  14
ATOM     14  C   UNL     1      21.288 -52.585 -33.544  1.00  0.00     0.053 C 
BRANCH  14  15
ATOM     15  C   UNL     1      20.575 -53.891 -33.732  1.00  0.00     0.041 C 
ATOM     16  O   UNL     1      19.428 -54.057 -33.246  1.00  0.00    -0.550 OA
ATOM     17  O   UNL     1      21.201 -54.940 -34.392  1.00  0.00    -0.550 OA
ENDBRANCH  14  15
ENDBRANCH  13  14
ENDBRANCH  12  13
ENDBRANCH  11  12
ENDBRANCH  10  11
ENDBRANCH   9  10
ENDBRANCH   8   9
ENDBRANCH   7   8
ENDBRANCH   6   7
ENDBRANCH   5   6
ENDBRANCH   4   5
ENDBRANCH   3   4
ENDBRANCH   2   3
ENDBRANCH   1   2
BRANCH   1  18
ATOM     18  C   UNL     1      20.024 -42.060 -25.079  1.00  0.00     0.000 C 
BRANCH  18  19
ATOM     19  C   UNL     1      20.324 -41.736 -23.605  1.00  0.00     0.000 C 
BRANCH  19  20
ATOM     20  C   UNL     1      21.708 -42.238 -23.165  1.00  0.00     0.000 C 
BRANCH  20  21
ATOM     21  C   UNL     1      21.622 -43.308 -22.063  1.00  0.00     0.000 C 
BRANCH  21  22
ATOM     22  C   UNL     1      20.169 -43.636 -21.684  1.00  0.00     0.000 C 
BRANCH  22  23
ATOM     23  C   UNL     1      19.904 -45.151 -21.656  1.00  0.00     0.000 C 
BRANCH  23  24
ATOM     24  C   UNL     1      18.744 -45.567 -22.574  1.00  0.00    -0.000 C 
BRANCH  24  25
ATOM     25  C   UNL     1      17.365 -45.351 -21.925  1.00  0.00    -0.000 C 
BRANCH  25  26
ATOM     26  C   UNL     1      16.215 -45.413 -22.942  1.00  0.00    -0.000 C 
BRANCH  26  27
ATOM     27  C   UNL     1      15.658 -44.023 -23.293  1.00  0.00    -0.000 C 
BRANCH  27  28
ATOM     28  C   UNL     1      16.767 -43.002 -23.591  1.00  0.00    -0.000 C 
BRANCH  28  29
ATOM     29  C   UNL     1      16.305 -41.546 -23.395  1.00  0.00    -0.000 C 
BRANCH  29  30
ATOM     30  C   UNL     1      16.751 -40.975 -22.032  1.00  0.00    -0.000 C 
BRANCH  30  31
ATOM     31  C   UNL     1      16.058 -41.639 -20.831  1.00  0.00    -0.003 C 
ATOM     32  C   UNL     1      17.038 -42.300 -19.865  1.00  0.00     0.004 C 
ENDBRANCH  30  31
ENDBRANCH  29  30
ENDBRANCH  28  29
ENDBRANCH  27  28
ENDBRANCH  26  27
ENDBRANCH  25  26
ENDBRANCH  24  25
ENDBRANCH  23  24
ENDBRANCH  22  23
ENDBRANCH  21  22
ENDBRANCH  20  21
ENDBRANCH  19  20
ENDBRANCH  18  19
ENDBRANCH   1  18
TORSDOF 28
ENDMDL
MODEL 5
REMARK VINA RESULT:    -5.657      3.250     10.386
REMARK INTER + INTRA:         -18.091
REMARK INTER:                 -14.324
REMARK INTRA:                  -3.766
REMARK UNBOUND:                -3.174
REMARK SMILES CCCCCCCCCCCCCCCCCCCCCCCCCCCCCC(=O)[O-]
REMARK SMILES IDX 16 1 17 2 18 3 19 4 20 5 21 6 22 7 23 8 24 9 25 10 26 11
REMARK SMILES IDX 27 12 28 13 29 14 30 15 31 16 32 17 15 18 14 19 13 20 12 21
REMARK SMILES IDX 11 22 10 23 9 24 8 25 7 26 6 27 5 28 4 29 3 30 2 31 1 32
REMARK H PARENT
REMARK Flexibility Score: inf
ROOT
ATOM      1  C   UNL     1      21.065 -44.343 -22.033  1.00  0.00     0.000 C 
ENDROOT
BRANCH   1   2
ATOM      2  C   UNL     1      21.840 -45.502 -22.694  1.00  0.00     0.000 C 
BRANCH   2   3
ATOM      3  C   UNL     1      21.442 -45.719 -24.166  1.00  0.00     0.000 C 
BRANCH   3   4
ATOM      4  C   UNL     1      19.921 -45.830 -24.356  1.00  0.00     0.000 C 
BRANCH   4   5
ATOM      5  C   UNL     1      19.415 -45.058 -25.583  1.00  0.00     0.000 C 
BRANCH   5   6
ATOM      6  C   UNL     1      17.981 -45.480 -25.934  1.00  0.00     0.000 C 
BRANCH   6   7
ATOM      7  C   UNL     1      17.633 -45.258 -27.416  1.00  0.00     0.000 C 
BRANCH   7   8
ATOM      8  C   UNL     1      17.691 -46.522 -28.298  1.00  0.00     0.000 C 
BRANCH   8   9
ATOM      9  C   UNL     1      17.952 -46.269 -29.796  1.00  0.00     0.000 C 
BRANCH   9  10
ATOM     10  C   UNL     1      18.236 -47.533 -30.629  1.00  0.00     0.000 C 
BRANCH  10  11
ATOM     11  C   UNL     1      19.459 -47.384 -31.543  1.00  0.00     0.000 C 
BRANCH  11  12
ATOM     12  C   UNL     1      19.542 -48.557 -32.529  1.00  0.00     0.000 C 
BRANCH  12  13
ATOM     13  C   UNL     1      20.213 -49.804 -31.927  1.00  0.00     0.006 C 
BRANCH  13  14
ATOM     14  C   UNL     1      19.873 -51.111 -32.672  1.00  0.00     0.053 C 
BRANCH  14  15
ATOM     15  C   UNL     1      21.019 -52.078 -32.679  1.00  0.00     0.041 C 
ATOM     16  O   UNL     1      21.773 -52.167 -31.676  1.00  0.00    -0.550 OA
ATOM     17  O   UNL     1      21.290 -52.834 -33.811  1.00  0.00    -0.550 OA
ENDBRANCH  14  15
ENDBRANCH  13  14
ENDBRANCH  12  13
ENDBRANCH  11  12
ENDBRANCH  10  11
ENDBRANCH   9  10
ENDBRANCH   8   9
ENDBRANCH   7   8
ENDBRANCH   6   7
ENDBRANCH   5   6
ENDBRANCH   4   5
ENDBRANCH   3   4
ENDBRANCH   2   3
ENDBRANCH   1   2
BRANCH   1  18
ATOM     18  C   UNL     1      21.622 -42.948 -22.366  1.00  0.00     0.000 C 
BRANCH  18  19
ATOM     19  C   UNL     1      20.534 -41.956 -22.813  1.00  0.00     0.000 C 
BRANCH  19  20
ATOM     20  C   UNL     1      20.205 -42.081 -24.308  1.00  0.00     0.000 C 
BRANCH  20  21
ATOM     21  C   UNL     1      18.934 -41.306 -24.698  1.00  0.00     0.000 C 
BRANCH  21  22
ATOM     22  C   UNL     1      17.655 -42.117 -24.431  1.00  0.00     0.000 C 
BRANCH  22  23
ATOM     23  C   UNL     1      16.570 -41.277 -23.737  1.00  0.00     0.000 C 
BRANCH  23  24
ATOM     24  C   UNL     1      16.809 -41.131 -22.226  1.00  0.00    -0.000 C 
BRANCH  24  25
ATOM     25  C   UNL     1      16.455 -42.408 -21.441  1.00  0.00    -0.000 C 
BRANCH  25  26
ATOM     26  C   UNL     1      17.697 -43.199 -21.005  1.00  0.00    -0.000 C 
BRANCH  26  27
ATOM     27  C   UNL     1      17.676 -44.656 -21.498  1.00  0.00    -0.000 C 
BRANCH  27  28
ATOM     28  C   UNL     1      16.670 -44.876 -22.637  1.00  0.00    -0.000 C 
BRANCH  28  29
ATOM     29  C   UNL     1      16.384 -46.367 -22.899  1.00  0.00    -0.000 C 
BRANCH  29  30
ATOM     30  C   UNL     1      17.211 -47.286 -21.976  1.00  0.00    -0.000 C 
BRANCH  30  31
ATOM     31  C   UNL     1      16.421 -48.493 -21.442  1.00  0.00    -0.003 C 
ATOM     32  C   UNL     1      14.928 -48.211 -21.289  1.00  0.00     0.004 C 
ENDBRANCH  30  31
ENDBRANCH  29  30
ENDBRANCH  28  29
ENDBRANCH  27  28
ENDBRANCH  26  27
ENDBRANCH  25  26
ENDBRANCH  24  25
ENDBRANCH  23  24
ENDBRANCH  22  23
ENDBRANCH  21  22
ENDBRANCH  20  21
ENDBRANCH  19  20
ENDBRANCH  18  19
ENDBRANCH   1  18
TORSDOF 28
ENDMDL
MODEL 6
REMARK VINA RESULT:    -5.559      2.166      3.636
REMARK INTER + INTRA:         -17.832
REMARK INTER:                 -14.918
REMARK INTRA:                  -2.914
REMARK UNBOUND:                -3.174
REMARK SMILES CCCCCCCCCCCCCCCCCCCCCCCCCCCCCC(=O)[O-]
REMARK SMILES IDX 16 1 17 2 18 3 19 4 20 5 21 6 22 7 23 8 24 9 25 10 26 11
REMARK SMILES IDX 27 12 28 13 29 14 30 15 31 16 32 17 15 18 14 19 13 20 12 21
REMARK SMILES IDX 11 22 10 23 9 24 8 25 7 26 6 27 5 28 4 29 3 30 2 31 1 32
REMARK H PARENT
REMARK Flexibility Score: inf
ROOT
ATOM      1  C   UNL     1      18.016 -46.341 -23.460  1.00  0.00     0.000 C 
ENDROOT
BRANCH   1   2
ATOM      2  C   UNL     1      18.009 -45.782 -22.021  1.00  0.00     0.000 C 
BRANCH   2   3
ATOM      3  C   UNL     1      19.387 -45.250 -21.584  1.00  0.00     0.000 C 
BRANCH   3   4
ATOM      4  C   UNL     1      20.549 -46.005 -22.247  1.00  0.00     0.000 C 
BRANCH   4   5
ATOM      5  C   UNL     1      21.783 -45.120 -22.476  1.00  0.00     0.000 C 
BRANCH   5   6
ATOM      6  C   UNL     1      21.363 -43.668 -22.748  1.00  0.00     0.000 C 
BRANCH   6   7
ATOM      7  C   UNL     1      21.210 -43.357 -24.247  1.00  0.00     0.000 C 
BRANCH   7   8
ATOM      8  C   UNL     1      20.620 -41.969 -24.570  1.00  0.00     0.000 C 
BRANCH   8   9
ATOM      9  C   UNL     1      19.122 -41.959 -24.935  1.00  0.00     0.000 C 
BRANCH   9  10
ATOM     10  C   UNL     1      18.214 -41.221 -23.934  1.00  0.00     0.000 C 
BRANCH  10  11
ATOM     11  C   UNL     1      17.476 -42.173 -22.983  1.00  0.00     0.000 C 
BRANCH  11  12
ATOM     12  C   UNL     1      15.973 -41.870 -22.975  1.00  0.00     0.000 C 
BRANCH  12  13
ATOM     13  C   UNL     1      15.409 -41.652 -21.560  1.00  0.00     0.006 C 
BRANCH  13  14
ATOM     14  C   UNL     1      16.489 -41.623 -20.460  1.00  0.00     0.053 C 
BRANCH  14  15
ATOM     15  C   UNL     1      15.901 -41.706 -19.083  1.00  0.00     0.041 C 
ATOM     16  O   UNL     1      14.664 -41.555 -18.916  1.00  0.00    -0.550 OA
ATOM     17  O   UNL     1      16.725 -41.890 -17.981  1.00  0.00    -0.550 OA
ENDBRANCH  14  15
ENDBRANCH  13  14
ENDBRANCH  12  13
ENDBRANCH  11  12
ENDBRANCH  10  11
ENDBRANCH   9  10
ENDBRANCH   8   9
ENDBRANCH   7   8
ENDBRANCH   6   7
ENDBRANCH   5   6
ENDBRANCH   4   5
ENDBRANCH   3   4
ENDBRANCH   2   3
ENDBRANCH   1   2
BRANCH   1  18
ATOM     18  C   UNL     1      17.459 -45.365 -24.511  1.00  0.00     0.000 C 
BRANCH  18  19
ATOM     19  C   UNL     1      18.344 -45.264 -25.766  1.00  0.00     0.000 C 
BRANCH  19  20
ATOM     20  C   UNL     1      17.806 -46.107 -26.932  1.00  0.00     0.000 C 
BRANCH  20  21
ATOM     21  C   UNL     1      17.603 -45.278 -28.212  1.00  0.00     0.000 C 
BRANCH  21  22
ATOM     22  C   UNL     1      17.188 -46.150 -29.408  1.00  0.00     0.000 C 
BRANCH  22  23
ATOM     23  C   UNL     1      17.597 -45.523 -30.753  1.00  0.00     0.000 C 
BRANCH  23  24
ATOM     24  C   UNL     1      18.231 -46.542 -31.713  1.00  0.00    -0.000 C 
BRANCH  24  25
ATOM     25  C   UNL     1      19.134 -47.559 -30.991  1.00  0.00    -0.000 C 
BRANCH  25  26
ATOM     26  C   UNL     1      19.306 -48.864 -31.782  1.00  0.00    -0.000 C 
BRANCH  26  27
ATOM     27  C   UNL     1      20.265 -48.712 -32.975  1.00  0.00    -0.000 C 
BRANCH  27  28
ATOM     28  C   UNL     1      20.695 -50.067 -33.560  1.00  0.00    -0.000 C 
BRANCH  28  29
ATOM     29  C   UNL     1      20.138 -51.262 -32.765  1.00  0.00    -0.000 C 
BRANCH  29  30
ATOM     30  C   UNL     1      21.160 -52.414 -32.659  1.00  0.00    -0.000 C 
BRANCH  30  31
ATOM     31  C   UNL     1      20.910 -53.551 -33.664  1.00  0.00    -0.003 C 
ATOM     32  C   UNL     1      19.591 -54.283 -33.425  1.00  0.00     0.004 C 
ENDBRANCH  30  31
ENDBRANCH  29  30
ENDBRANCH  28  29
ENDBRANCH  27  28
ENDBRANCH  26  27
ENDBRANCH  25  26
ENDBRANCH  24  25
ENDBRANCH  23  24
ENDBRANCH  22  23
ENDBRANCH  21  22
ENDBRANCH  20  21
ENDBRANCH  19  20
ENDBRANCH  18  19
ENDBRANCH   1  18
TORSDOF 28
ENDMDL
MODEL 7
REMARK VINA RESULT:    -5.544      3.486     12.135
REMARK INTER + INTRA:         -17.793
REMARK INTER:                 -14.821
REMARK INTRA:                  -2.971
REMARK UNBOUND:                -3.174
REMARK SMILES CCCCCCCCCCCCCCCCCCCCCCCCCCCCCC(=O)[O-]
REMARK SMILES IDX 16 1 17 2 18 3 19 4 20 5 21 6 22 7 23 8 24 9 25 10 26 11
REMARK SMILES IDX 27 12 28 13 29 14 30 15 31 16 32 17 15 18 14 19 13 20 12 21
REMARK SMILES IDX 11 22 10 23 9 24 8 25 7 26 6 27 5 28 4 29 3 30 2 31 1 32
REMARK H PARENT
REMARK Flexibility Score: inf
ROOT
ATOM      1  C   UNL     1      17.265 -45.993 -28.004  1.00  0.00     0.000 C 
ENDROOT
BRANCH   1   2
ATOM      2  C   UNL     1      18.041 -46.308 -29.300  1.00  0.00     0.000 C 
BRANCH   2   3
ATOM      3  C   UNL     1      17.640 -45.389 -30.470  1.00  0.00     0.000 C 
BRANCH   3   4
ATOM      4  C   UNL     1      17.651 -46.117 -31.823  1.00  0.00     0.000 C 
BRANCH   4   5
ATOM      5  C   UNL     1      19.028 -46.091 -32.504  1.00  0.00     0.000 C 
BRANCH   5   6
ATOM      6  C   UNL     1      19.481 -47.514 -32.861  1.00  0.00     0.000 C 
BRANCH   6   7
ATOM      7  C   UNL     1      19.276 -48.518 -31.713  1.00  0.00     0.000 C 
BRANCH   7   8
ATOM      8  C   UNL     1      19.257 -50.001 -32.137  1.00  0.00     0.000 C 
BRANCH   8   9
ATOM      9  C   UNL     1      20.634 -50.692 -32.177  1.00  0.00     0.000 C 
BRANCH   9  10
ATOM     10  C   UNL     1      20.963 -51.408 -33.500  1.00  0.00     0.000 C 
BRANCH  10  11
ATOM     11  C   UNL     1      21.433 -52.855 -33.295  1.00  0.00     0.000 C 
BRANCH  11  12
ATOM     12  C   UNL     1      21.566 -53.575 -34.643  1.00  0.00     0.000 C 
BRANCH  12  13
ATOM     13  C   UNL     1      20.485 -54.647 -34.863  1.00  0.00     0.006 C 
BRANCH  13  14
ATOM     14  C   UNL     1      19.603 -54.902 -33.624  1.00  0.00     0.053 C 
BRANCH  14  15
ATOM     15  C   UNL     1      18.197 -54.417 -33.815  1.00  0.00     0.041 C 
ATOM     16  O   UNL     1      17.370 -55.119 -34.450  1.00  0.00    -0.550 OA
ATOM     17  O   UNL     1      17.819 -53.166 -33.345  1.00  0.00    -0.550 OA
ENDBRANCH  14  15
ENDBRANCH  13  14
ENDBRANCH  12  13
ENDBRANCH  11  12
ENDBRANCH  10  11
ENDBRANCH   9  10
ENDBRANCH   8   9
ENDBRANCH   7   8
ENDBRANCH   6   7
ENDBRANCH   5   6
ENDBRANCH   4   5
ENDBRANCH   3   4
ENDBRANCH   2   3
ENDBRANCH   1   2
BRANCH   1  18
ATOM     18  C   UNL     1      17.976 -44.991 -27.078  1.00  0.00     0.000 C 
BRANCH  18  19
ATOM     19  C   UNL     1      17.980 -45.432 -25.604  1.00  0.00     0.000 C 
BRANCH  19  20
ATOM     20  C   UNL     1      19.381 -45.369 -24.977  1.00  0.00     0.000 C 
BRANCH  20  21
ATOM     21  C   UNL     1      20.049 -43.996 -25.165  1.00  0.00     0.000 C 
BRANCH  21  22
ATOM     22  C   UNL     1      20.512 -43.388 -23.831  1.00  0.00     0.000 C 
BRANCH  22  23
ATOM     23  C   UNL     1      19.807 -42.055 -23.526  1.00  0.00     0.000 C 
BRANCH  23  24
ATOM     24  C   UNL     1      18.798 -41.655 -24.613  1.00  0.00    -0.000 C 
BRANCH  24  25
ATOM     25  C   UNL     1      17.341 -41.954 -24.212  1.00  0.00    -0.000 C 
BRANCH  25  26
ATOM     26  C   UNL     1      17.205 -42.369 -22.739  1.00  0.00    -0.000 C 
BRANCH  26  27
ATOM     27  C   UNL     1      16.868 -43.860 -22.571  1.00  0.00    -0.000 C 
BRANCH  27  28
ATOM     28  C   UNL     1      17.847 -44.582 -21.633  1.00  0.00    -0.000 C 
BRANCH  28  29
ATOM     29  C   UNL     1      17.747 -46.115 -21.733  1.00  0.00    -0.000 C 
BRANCH  29  30
ATOM     30  C   UNL     1      16.338 -46.577 -22.163  1.00  0.00    -0.000 C 
BRANCH  30  31
ATOM     31  C   UNL     1      16.052 -48.055 -21.846  1.00  0.00    -0.003 C 
ATOM     32  C   UNL     1      14.690 -48.273 -21.189  1.00  0.00     0.004 C 
ENDBRANCH  30  31
ENDBRANCH  29  30
ENDBRANCH  28  29
ENDBRANCH  27  28
ENDBRANCH  26  27
ENDBRANCH  25  26
ENDBRANCH  24  25
ENDBRANCH  23  24
ENDBRANCH  22  23
ENDBRANCH  21  22
ENDBRANCH  20  21
ENDBRANCH  19  20
ENDBRANCH  18  19
ENDBRANCH   1  18
TORSDOF 28
ENDMDL
MODEL 8
REMARK VINA RESULT:    -5.508      3.487      5.952
REMARK INTER + INTRA:         -17.699
REMARK INTER:                 -13.797
REMARK INTRA:                  -3.902
REMARK UNBOUND:                -3.174
REMARK SMILES CCCCCCCCCCCCCCCCCCCCCCCCCCCCCC(=O)[O-]
REMARK SMILES IDX 16 1 17 2 18 3 19 4 20 5 21 6 22 7 23 8 24 9 25 10 26 11
REMARK SMILES IDX 27 12 28 13 29 14 30 15 31 16 32 17 15 18 14 19 13 20 12 21
REMARK SMILES IDX 11 22 10 23 9 24 8 25 7 26 6 27 5 28 4 29 3 30 2 31 1 32
REMARK H PARENT
REMARK Flexibility Score: inf
ROOT
ATOM      1  C   UNL     1      21.084 -45.582 -21.270  1.00  0.00     0.000 C 
ENDROOT
BRANCH   1   2
ATOM      2  C   UNL     1      20.227 -46.801 -21.674  1.00  0.00     0.000 C 
BRANCH   2   3
ATOM      3  C   UNL     1      19.355 -46.529 -22.914  1.00  0.00     0.000 C 
BRANCH   3   4
ATOM      4  C   UNL     1      17.997 -47.245 -22.849  1.00  0.00     0.000 C 
BRANCH   4   5
ATOM      5  C   UNL     1      16.979 -46.515 -21.962  1.00  0.00     0.000 C 
BRANCH   5   6
ATOM      6  C   UNL     1      17.139 -44.993 -22.096  1.00  0.00     0.000 C 
BRANCH   6   7
ATOM      7  C   UNL     1      16.273 -44.394 -23.218  1.00  0.00     0.000 C 
BRANCH   7   8
ATOM      8  C   UNL     1      15.688 -42.998 -22.917  1.00  0.00     0.000 C 
BRANCH   8   9
ATOM      9  C   UNL     1      16.491 -41.811 -23.484  1.00  0.00     0.000 C 
BRANCH   9  10
ATOM     10  C   UNL     1      17.102 -40.875 -22.426  1.00  0.00     0.000 C 
BRANCH  10  11
ATOM     11  C   UNL     1      18.170 -41.564 -21.565  1.00  0.00     0.000 C 
BRANCH  11  12
ATOM     12  C   UNL     1      17.975 -41.216 -20.084  1.00  0.00     0.000 C 
BRANCH  12  13
ATOM     13  C   UNL     1      16.878 -42.056 -19.407  1.00  0.00     0.006 C 
BRANCH  13  14
ATOM     14  C   UNL     1      15.719 -41.216 -18.832  1.00  0.00     0.053 C 
BRANCH  14  15
ATOM     15  C   UNL     1      15.581 -41.375 -17.348  1.00  0.00     0.041 C 
ATOM     16  O   UNL     1      16.589 -41.646 -16.647  1.00  0.00    -0.550 OA
ATOM     17  O   UNL     1      14.332 -41.286 -16.748  1.00  0.00    -0.550 OA
ENDBRANCH  14  15
ENDBRANCH  13  14
ENDBRANCH  12  13
ENDBRANCH  11  12
ENDBRANCH  10  11
ENDBRANCH   9  10
ENDBRANCH   8   9
ENDBRANCH   7   8
ENDBRANCH   6   7
ENDBRANCH   5   6
ENDBRANCH   4   5
ENDBRANCH   3   4
ENDBRANCH   2   3
ENDBRANCH   1   2
BRANCH   1  18
ATOM     18  C   UNL     1      20.851 -44.337 -22.143  1.00  0.00     0.000 C 
BRANCH  18  19
ATOM     19  C   UNL     1      21.996 -44.075 -23.135  1.00  0.00     0.000 C 
BRANCH  19  20
ATOM     20  C   UNL     1      21.508 -43.408 -24.431  1.00  0.00     0.000 C 
BRANCH  20  21
ATOM     21  C   UNL     1      20.152 -42.703 -24.255  1.00  0.00     0.000 C 
BRANCH  21  22
ATOM     22  C   UNL     1      19.123 -43.156 -25.303  1.00  0.00     0.000 C 
BRANCH  22  23
ATOM     23  C   UNL     1      19.240 -44.657 -25.621  1.00  0.00     0.000 C 
BRANCH  23  24
ATOM     24  C   UNL     1      18.008 -45.205 -26.355  1.00  0.00    -0.000 C 
BRANCH  24  25
ATOM     25  C   UNL     1      18.311 -45.603 -27.812  1.00  0.00    -0.000 C 
BRANCH  25  26
ATOM     26  C   UNL     1      17.115 -45.380 -28.749  1.00  0.00    -0.000 C 
BRANCH  26  27
ATOM     27  C   UNL     1      17.154 -46.289 -29.989  1.00  0.00    -0.000 C 
BRANCH  27  28
ATOM     28  C   UNL     1      18.116 -47.474 -29.818  1.00  0.00    -0.000 C 
BRANCH  28  29
ATOM     29  C   UNL     1      19.370 -47.356 -30.704  1.00  0.00    -0.000 C 
BRANCH  29  30
ATOM     30  C   UNL     1      19.152 -47.969 -32.104  1.00  0.00    -0.000 C 
BRANCH  30  31
ATOM     31  C   UNL     1      19.328 -46.959 -33.251  1.00  0.00    -0.003 C 
ATOM     32  C   UNL     1      20.275 -47.453 -34.342  1.00  0.00     0.004 C 
ENDBRANCH  30  31
ENDBRANCH  29  30
ENDBRANCH  28  29
ENDBRANCH  27  28
ENDBRANCH  26  27
ENDBRANCH  25  26
ENDBRANCH  24  25
ENDBRANCH  23  24
ENDBRANCH  22  23
ENDBRANCH  21  22
ENDBRANCH  20  21
ENDBRANCH  19  20
ENDBRANCH  18  19
ENDBRANCH   1  18
TORSDOF 28
ENDMDL
MODEL 9
REMARK VINA RESULT:    -5.458      1.282      3.085
REMARK INTER + INTRA:         -17.565
REMARK INTER:                 -14.684
REMARK INTRA:                  -2.881
REMARK UNBOUND:                -3.174
REMARK SMILES CCCCCCCCCCCCCCCCCCCCCCCCCCCCCC(=O)[O-]
REMARK SMILES IDX 16 1 17 2 18 3 19 4 20 5 21 6 22 7 23 8 24 9 25 10 26 11
REMARK SMILES IDX 27 12 28 13 29 14 30 15 31 16 32 17 15 18 14 19 13 20 12 21
REMARK SMILES IDX 11 22 10 23 9 24 8 25 7 26 6 27 5 28 4 29 3 30 2 31 1 32
REMARK H PARENT
REMARK Flexibility Score: inf
ROOT
ATOM      1  C   UNL     1      18.879 -42.301 -24.952  1.00  0.00     0.000 C 
ENDROOT
BRANCH   1   2
ATOM      2  C   UNL     1      18.007 -41.216 -24.285  1.00  0.00     0.000 C 
BRANCH   2   3
ATOM      3  C   UNL     1      16.698 -41.781 -23.702  1.00  0.00     0.000 C 
BRANCH   3   4
ATOM      4  C   UNL     1      16.328 -41.141 -22.354  1.00  0.00     0.000 C 
BRANCH   4   5
ATOM      5  C   UNL     1      16.518 -42.098 -21.168  1.00  0.00     0.000 C 
BRANCH   5   6
ATOM      6  C   UNL     1      17.644 -41.603 -20.250  1.00  0.00     0.000 C 
BRANCH   6   7
ATOM      7  C   UNL     1      19.041 -41.742 -20.881  1.00  0.00     0.000 C 
BRANCH   7   8
ATOM      8  C   UNL     1      19.407 -43.165 -21.351  1.00  0.00     0.000 C 
BRANCH   8   9
ATOM      9  C   UNL     1      20.657 -43.262 -22.248  1.00  0.00     0.000 C 
BRANCH   9  10
ATOM     10  C   UNL     1      21.685 -44.324 -21.817  1.00  0.00     0.000 C 
BRANCH  10  11
ATOM     11  C   UNL     1      21.385 -45.714 -22.393  1.00  0.00     0.000 C 
BRANCH  11  12
ATOM     12  C   UNL     1      20.125 -46.304 -21.747  1.00  0.00     0.000 C 
BRANCH  12  13
ATOM     13  C   UNL     1      19.046 -46.691 -22.773  1.00  0.00     0.006 C 
BRANCH  13  14
ATOM     14  C   UNL     1      17.618 -46.285 -22.354  1.00  0.00     0.053 C 
BRANCH  14  15
ATOM     15  C   UNL     1      16.805 -47.457 -21.891  1.00  0.00     0.041 C 
ATOM     16  O   UNL     1      15.556 -47.357 -21.792  1.00  0.00    -0.550 OA
ATOM     17  O   UNL     1      17.431 -48.638 -21.514  1.00  0.00    -0.550 OA
ENDBRANCH  14  15
ENDBRANCH  13  14
ENDBRANCH  12  13
ENDBRANCH  11  12
ENDBRANCH  10  11
ENDBRANCH   9  10
ENDBRANCH   8   9
ENDBRANCH   7   8
ENDBRANCH   6   7
ENDBRANCH   5   6
ENDBRANCH   4   5
ENDBRANCH   3   4
ENDBRANCH   2   3
ENDBRANCH   1   2
BRANCH   1  18
ATOM     18  C   UNL     1      18.216 -43.688 -25.007  1.00  0.00     0.000 C 
BRANCH  18  19
ATOM     19  C   UNL     1      18.897 -44.641 -26.004  1.00  0.00     0.000 C 
BRANCH  19  20
ATOM     20  C   UNL     1      17.911 -45.644 -26.623  1.00  0.00     0.000 C 
BRANCH  20  21
ATOM     21  C   UNL     1      17.574 -45.311 -28.087  1.00  0.00     0.000 C 
BRANCH  21  22
ATOM     22  C   UNL     1      17.448 -46.574 -28.955  1.00  0.00     0.000 C 
BRANCH  22  23
ATOM     23  C   UNL     1      18.669 -46.774 -29.869  1.00  0.00     0.000 C 
BRANCH  23  24
ATOM     24  C   UNL     1      18.599 -45.922 -31.146  1.00  0.00    -0.000 C 
BRANCH  24  25
ATOM     25  C   UNL     1      18.770 -46.757 -32.429  1.00  0.00    -0.000 C 
BRANCH  25  26
ATOM     26  C   UNL     1      19.450 -48.109 -32.170  1.00  0.00    -0.000 C 
BRANCH  26  27
ATOM     27  C   UNL     1      20.475 -48.475 -33.256  1.00  0.00    -0.000 C 
BRANCH  27  28
ATOM     28  C   UNL     1      20.435 -49.967 -33.623  1.00  0.00    -0.000 C 
BRANCH  28  29
ATOM     29  C   UNL     1      20.239 -50.876 -32.396  1.00  0.00    -0.000 C 
BRANCH  29  30
ATOM     30  C   UNL     1      21.226 -52.063 -32.391  1.00  0.00    -0.000 C 
BRANCH  30  31
ATOM     31  C   UNL     1      20.856 -53.176 -33.386  1.00  0.00    -0.003 C 
ATOM     32  C   UNL     1      19.395 -53.609 -33.283  1.00  0.00     0.004 C 
ENDBRANCH  30  31
ENDBRANCH  29  30
ENDBRANCH  28  29
ENDBRANCH  27  28
ENDBRANCH  26  27
ENDBRANCH  25  26
ENDBRANCH  24  25
ENDBRANCH  23  24
ENDBRANCH  22  23
ENDBRANCH  21  22
ENDBRANCH  20  21
ENDBRANCH  19  20
ENDBRANCH  18  19
ENDBRANCH   1  18
TORSDOF 28
ENDMDL
