MODEL 1
REMARK VINA RESULT:    -5.766      0.000      0.000
REMARK INTER + INTRA:          -5.766
REMARK INTER:                  -5.766
REMARK INTRA:                   0.000
REMARK UNBOUND:                 0.000
REMARK SMILES CC1=CC(=O)[C@@H]2C[C@H]1C2(C)C
REMARK SMILES IDX 1 1 2 2 3 3 4 4 5 5 6 6 7 7 8 8 9 9 10 10 11 11
REMARK H PARENT
REMARK Flexibility Score: inf
ROOT
ATOM      1  C   UNL     1      -5.040  -9.875  29.456  1.00  0.00     0.040 C 
ATOM      2  C   UNL     1      -4.312 -11.180  29.397  1.00  0.00    -0.066 C 
ATOM      3  C   UNL     1      -4.026 -11.904  30.516  1.00  0.00     0.047 C 
ATOM      4  C   UNL     1      -3.293 -13.193  30.300  1.00  0.00     0.159 C 
ATOM      5  O   UNL     1      -3.007 -13.971  31.248  1.00  0.00    -0.295 OA
ATOM      6  C   UNL     1      -2.914 -13.497  28.850  1.00  0.00     0.067 C 
ATOM      7  C   UNL     1      -2.338 -12.164  28.324  1.00  0.00     0.021 C 
ATOM      8  C   UNL     1      -3.799 -11.740  28.054  1.00  0.00     0.022 C 
ATOM      9  C   UNL     1      -4.159 -13.250  27.951  1.00  0.00    -0.019 C 
ATOM     10  C   UNL     1      -5.549 -13.712  28.474  1.00  0.00     0.012 C 
ATOM     11  C   UNL     1      -3.970 -13.805  26.516  1.00  0.00     0.012 C 
ENDROOT
TORSDOF 0
ENDMDL
MODEL 2
REMARK VINA RESULT:    -5.674      1.606      2.576
REMARK INTER + INTRA:          -5.674
REMARK INTER:                  -5.674
REMARK INTRA:                   0.000
REMARK UNBOUND:                 0.000
REMARK SMILES CC1=CC(=O)[C@@H]2C[C@H]1C2(C)C
REMARK SMILES IDX 1 1 2 2 3 3 4 4 5 5 6 6 7 7 8 8 9 9 10 10 11 11
REMARK H PARENT
REMARK Flexibility Score: inf
ROOT
ATOM      1  C   UNL     1      -4.800 -14.190  31.335  1.00  0.00     0.040 C 
ATOM      2  C   UNL     1      -4.057 -13.196  30.500  1.00  0.00    -0.066 C 
ATOM      3  C   UNL     1      -3.015 -12.467  30.993  1.00  0.00     0.047 C 
ATOM      4  C   UNL     1      -2.367 -11.511  30.038  1.00  0.00     0.159 C 
ATOM      5  O   UNL     1      -1.370 -10.812  30.359  1.00  0.00    -0.295 OA
ATOM      6  C   UNL     1      -2.999 -11.443  28.647  1.00  0.00     0.067 C 
ATOM      7  C   UNL     1      -4.516 -11.371  28.927  1.00  0.00     0.021 C 
ATOM      8  C   UNL     1      -4.480 -12.911  29.045  1.00  0.00     0.022 C 
ATOM      9  C   UNL     1      -3.220 -12.894  28.132  1.00  0.00    -0.019 C 
ATOM     10  C   UNL     1      -2.107 -13.948  28.397  1.00  0.00     0.012 C 
ATOM     11  C   UNL     1      -3.581 -12.936  26.626  1.00  0.00     0.012 C 
ENDROOT
TORSDOF 0
ENDMDL
MODEL 3
REMARK VINA RESULT:    -5.544      1.896      2.954
REMARK INTER + INTRA:          -5.544
REMARK INTER:                  -5.544
REMARK INTRA:                   0.000
REMARK UNBOUND:                 0.000
REMARK SMILES CC1=CC(=O)[C@@H]2C[C@H]1C2(C)C
REMARK SMILES IDX 1 1 2 2 3 3 4 4 5 5 6 6 7 7 8 8 9 9 10 10 11 11
REMARK H PARENT
REMARK Flexibility Score: inf
ROOT
ATOM      1  C   UNL     1      -0.673 -12.412  29.866  1.00  0.00     0.040 C 
ATOM      2  C   UNL     1      -2.090 -12.191  29.443  1.00  0.00    -0.066 C 
ATOM      3  C   UNL     1      -2.739 -11.013  29.662  1.00  0.00     0.047 C 
ATOM      4  C   UNL     1      -4.157 -10.938  29.181  1.00  0.00     0.159 C 
ATOM      5  O   UNL     1      -4.849  -9.892  29.288  1.00  0.00    -0.295 OA
ATOM      6  C   UNL     1      -4.703 -12.221  28.552  1.00  0.00     0.067 C 
ATOM      7  C   UNL     1      -4.258 -13.336  29.523  1.00  0.00     0.021 C 
ATOM      8  C   UNL     1      -2.903 -13.322  28.780  1.00  0.00     0.022 C 
ATOM      9  C   UNL     1      -3.655 -12.761  27.539  1.00  0.00    -0.019 C 
ATOM     10  C   UNL     1      -2.913 -11.740  26.629  1.00  0.00     0.012 C 
ATOM     11  C   UNL     1      -4.229 -13.885  26.639  1.00  0.00     0.012 C 
ENDROOT
TORSDOF 0
ENDMDL
MODEL 4
REMARK VINA RESULT:    -5.505      1.585      3.154
REMARK INTER + INTRA:          -5.505
REMARK INTER:                  -5.505
REMARK INTRA:                   0.000
REMARK UNBOUND:                 0.000
REMARK SMILES CC1=CC(=O)[C@@H]2C[C@H]1C2(C)C
REMARK SMILES IDX 1 1 2 2 3 3 4 4 5 5 6 6 7 7 8 8 9 9 10 10 11 11
REMARK H PARENT
REMARK Flexibility Score: inf
ROOT
ATOM      1  C   UNL     1      -0.435 -12.436  31.428  1.00  0.00     0.040 C 
ATOM      2  C   UNL     1      -1.846 -12.745  31.042  1.00  0.00    -0.066 C 
ATOM      3  C   UNL     1      -2.614 -13.630  31.740  1.00  0.00     0.047 C 
ATOM      4  C   UNL     1      -4.010 -13.836  31.235  1.00  0.00     0.159 C 
ATOM      5  O   UNL     1      -4.830 -14.595  31.816  1.00  0.00    -0.295 OA
ATOM      6  C   UNL     1      -4.369 -13.062  29.967  1.00  0.00     0.067 C 
ATOM      7  C   UNL     1      -3.155 -13.278  29.037  1.00  0.00     0.021 C 
ATOM      8  C   UNL     1      -2.481 -12.108  29.789  1.00  0.00     0.022 C 
ATOM      9  C   UNL     1      -3.906 -11.587  30.138  1.00  0.00    -0.019 C 
ATOM     10  C   UNL     1      -4.120 -10.902  31.518  1.00  0.00     0.012 C 
ATOM     11  C   UNL     1      -4.479 -10.657  29.039  1.00  0.00     0.012 C 
ENDROOT
TORSDOF 0
ENDMDL
MODEL 5
REMARK VINA RESULT:    -5.416      1.722      2.293
REMARK INTER + INTRA:          -5.416
REMARK INTER:                  -5.416
REMARK INTRA:                   0.000
REMARK UNBOUND:                 0.000
REMARK SMILES CC1=CC(=O)[C@@H]2C[C@H]1C2(C)C
REMARK SMILES IDX 1 1 2 2 3 3 4 4 5 5 6 6 7 7 8 8 9 9 10 10 11 11
REMARK H PARENT
REMARK Flexibility Score: inf
ROOT
ATOM      1  C   UNL     1      -2.171  -9.924  30.569  1.00  0.00     0.040 C 
ATOM      2  C   UNL     1      -2.207 -11.198  29.787  1.00  0.00    -0.066 C 
ATOM      3  C   UNL     1      -1.164 -12.076  29.781  1.00  0.00     0.047 C 
ATOM      4  C   UNL     1      -1.345 -13.312  28.952  1.00  0.00     0.159 C 
ATOM      5  O   UNL     1      -0.472 -14.217  28.896  1.00  0.00    -0.295 OA
ATOM      6  C   UNL     1      -2.661 -13.395  28.178  1.00  0.00     0.067 C 
ATOM      7  C   UNL     1      -2.818 -11.994  27.549  1.00  0.00     0.021 C 
ATOM      8  C   UNL     1      -3.419 -11.549  28.901  1.00  0.00     0.022 C 
ATOM      9  C   UNL     1      -3.826 -13.032  29.142  1.00  0.00    -0.019 C 
ATOM     10  C   UNL     1      -3.777 -13.580  30.597  1.00  0.00     0.012 C 
ATOM     11  C   UNL     1      -5.215 -13.368  28.543  1.00  0.00     0.012 C 
ENDROOT
TORSDOF 0
ENDMDL
MODEL 6
REMARK VINA RESULT:    -5.361      2.059      3.142
REMARK INTER + INTRA:          -5.361
REMARK INTER:                  -5.361
REMARK INTRA:                   0.000
REMARK UNBOUND:                 0.000
REMARK SMILES CC1=CC(=O)[C@@H]2C[C@H]1C2(C)C
REMARK SMILES IDX 1 1 2 2 3 3 4 4 5 5 6 6 7 7 8 8 9 9 10 10 11 11
REMARK H PARENT
REMARK Flexibility Score: inf
ROOT
ATOM      1  C   UNL     1      -4.489 -14.293  31.860  1.00  0.00     0.040 C 
ATOM      2  C   UNL     1      -3.380 -13.422  31.363  1.00  0.00    -0.066 C 
ATOM      3  C   UNL     1      -2.086 -13.601  31.749  1.00  0.00     0.047 C 
ATOM      4  C   UNL     1      -1.083 -12.652  31.166  1.00  0.00     0.159 C 
ATOM      5  O   UNL     1       0.148 -12.739  31.413  1.00  0.00    -0.295 OA
ATOM      6  C   UNL     1      -1.660 -11.571  30.251  1.00  0.00     0.067 C 
ATOM      7  C   UNL     1      -2.890 -11.043  31.022  1.00  0.00     0.021 C 
ATOM      8  C   UNL     1      -3.669 -12.235  30.421  1.00  0.00     0.022 C 
ATOM      9  C   UNL     1      -2.643 -12.241  29.250  1.00  0.00    -0.019 C 
ATOM     10  C   UNL     1      -2.244 -13.610  28.630  1.00  0.00     0.012 C 
ATOM     11  C   UNL     1      -3.055 -11.287  28.100  1.00  0.00     0.012 C 
ENDROOT
TORSDOF 0
ENDMDL
MODEL 7
REMARK VINA RESULT:    -5.353      2.132      3.376
REMARK INTER + INTRA:          -5.353
REMARK INTER:                  -5.353
REMARK INTRA:                   0.000
REMARK UNBOUND:                 0.000
REMARK SMILES CC1=CC(=O)[C@@H]2C[C@H]1C2(C)C
REMARK SMILES IDX 1 1 2 2 3 3 4 4 5 5 6 6 7 7 8 8 9 9 10 10 11 11
REMARK H PARENT
REMARK Flexibility Score: inf
ROOT
ATOM      1  C   UNL     1      -4.824 -14.370  31.923  1.00  0.00     0.040 C 
ATOM      2  C   UNL     1      -3.984 -13.323  31.264  1.00  0.00    -0.066 C 
ATOM      3  C   UNL     1      -3.871 -12.060  31.765  1.00  0.00     0.047 C 
ATOM      4  C   UNL     1      -2.992 -11.120  30.997  1.00  0.00     0.159 C 
ATOM      5  O   UNL     1      -2.774  -9.940  31.378  1.00  0.00    -0.295 OA
ATOM      6  C   UNL     1      -2.379 -11.693  29.718  1.00  0.00     0.067 C 
ATOM      7  C   UNL     1      -3.557 -12.413  29.026  1.00  0.00     0.021 C 
ATOM      8  C   UNL     1      -3.245 -13.618  29.942  1.00  0.00     0.022 C 
ATOM      9  C   UNL     1      -1.783 -13.092  30.038  1.00  0.00    -0.019 C 
ATOM     10  C   UNL     1      -1.021 -13.280  31.381  1.00  0.00     0.012 C 
ATOM     11  C   UNL     1      -0.888 -13.629  28.892  1.00  0.00     0.012 C 
ENDROOT
TORSDOF 0
ENDMDL
MODEL 8
REMARK VINA RESULT:    -5.309      1.726      3.271
REMARK INTER + INTRA:          -5.309
REMARK INTER:                  -5.309
REMARK INTRA:                   0.000
REMARK UNBOUND:                 0.000
REMARK SMILES CC1=CC(=O)[C@@H]2C[C@H]1C2(C)C
REMARK SMILES IDX 1 1 2 2 3 3 4 4 5 5 6 6 7 7 8 8 9 9 10 10 11 11
REMARK H PARENT
REMARK Flexibility Score: inf
ROOT
ATOM      1  C   UNL     1      -4.003 -13.633  27.202  1.00  0.00     0.040 C 
ATOM      2  C   UNL     1      -3.732 -12.789  28.407  1.00  0.00    -0.066 C 
ATOM      3  C   UNL     1      -4.512 -11.721  28.736  1.00  0.00     0.047 C 
ATOM      4  C   UNL     1      -4.118 -10.971  29.973  1.00  0.00     0.159 C 
ATOM      5  O   UNL     1      -4.782  -9.992  30.405  1.00  0.00    -0.295 OA
ATOM      6  C   UNL     1      -2.856 -11.477  30.672  1.00  0.00     0.067 C 
ATOM      7  C   UNL     1      -1.847 -11.685  29.522  1.00  0.00     0.021 C 
ATOM      8  C   UNL     1      -2.510 -13.064  29.307  1.00  0.00     0.022 C 
ATOM      9  C   UNL     1      -2.947 -13.023  30.800  1.00  0.00    -0.019 C 
ATOM     10  C   UNL     1      -4.317 -13.653  31.183  1.00  0.00     0.012 C 
ATOM     11  C   UNL     1      -1.865 -13.602  31.747  1.00  0.00     0.012 C 
ENDROOT
TORSDOF 0
ENDMDL
MODEL 9
REMARK VINA RESULT:    -5.304      1.603      3.226
REMARK INTER + INTRA:          -5.304
REMARK INTER:                  -5.304
REMARK INTRA:                   0.000
REMARK UNBOUND:                 0.000
REMARK SMILES CC1=CC(=O)[C@@H]2C[C@H]1C2(C)C
REMARK SMILES IDX 1 1 2 2 3 3 4 4 5 5 6 6 7 7 8 8 9 9 10 10 11 11
REMARK H PARENT
REMARK Flexibility Score: inf
ROOT
ATOM      1  C   UNL     1      -3.019 -11.391  26.105  1.00  0.00     0.040 C 
ATOM      2  C   UNL     1      -3.432 -11.726  27.503  1.00  0.00    -0.066 C 
ATOM      3  C   UNL     1      -4.226 -12.795  27.790  1.00  0.00     0.047 C 
ATOM      4  C   UNL     1      -4.555 -13.006  29.237  1.00  0.00     0.159 C 
ATOM      5  O   UNL     1      -5.245 -13.981  29.635  1.00  0.00    -0.295 OA
ATOM      6  C   UNL     1      -3.994 -11.956  30.196  1.00  0.00     0.067 C 
ATOM      7  C   UNL     1      -4.306 -10.610  29.505  1.00  0.00     0.021 C 
ATOM      8  C   UNL     1      -3.014 -10.830  28.687  1.00  0.00     0.022 C 
ATOM      9  C   UNL     1      -2.496 -11.721  29.854  1.00  0.00    -0.019 C 
ATOM     10  C   UNL     1      -1.618 -12.956  29.501  1.00  0.00     0.012 C 
ATOM     11  C   UNL     1      -1.763 -10.899  30.943  1.00  0.00     0.012 C 
ENDROOT
TORSDOF 0
ENDMDL
