MODEL 1
REMARK VINA RESULT:    -2.503      0.000      0.000
REMARK INTER + INTRA:          -2.503
REMARK INTER:                  -2.503
REMARK INTRA:                   0.000
REMARK UNBOUND:                 0.000
REMARK SMILES CC(=O)[O-]
REMARK SMILES IDX 1 1 2 2 3 3 4 4
REMARK H PARENT
REMARK Flexibility Score: inf
ROOT
ATOM      1  C   UNL     1      16.922  53.653  81.876  1.00  0.00     0.063 C 
ATOM      2  C   UNL     1      17.859  52.974  82.816  1.00  0.00     0.038 C 
ATOM      3  O   UNL     1      18.882  52.388  82.375  1.00  0.00    -0.550 OA
ATOM      4  O   UNL     1      17.636  53.033  84.186  1.00  0.00    -0.550 OA
ENDROOT
TORSDOF 0
ENDMDL
MODEL 2
REMARK VINA RESULT:    -2.457      1.447      2.140
REMARK INTER + INTRA:          -2.457
REMARK INTER:                  -2.457
REMARK INTRA:                   0.000
REMARK UNBOUND:                 0.000
REMARK SMILES CC(=O)[O-]
REMARK SMILES IDX 1 1 2 2 3 3 4 4
REMARK H PARENT
REMARK Flexibility Score: inf
ROOT
ATOM      1  C   UNL     1      18.898  52.559  82.478  1.00  0.00     0.063 C 
ATOM      2  C   UNL     1      17.675  53.301  82.895  1.00  0.00     0.038 C 
ATOM      3  O   UNL     1      17.376  53.392  84.114  1.00  0.00    -0.550 OA
ATOM      4  O   UNL     1      16.890  53.941  81.944  1.00  0.00    -0.550 OA
ENDROOT
TORSDOF 0
ENDMDL
MODEL 3
REMARK VINA RESULT:    -2.336     13.734     14.184
REMARK INTER + INTRA:          -2.336
REMARK INTER:                  -2.336
REMARK INTRA:                   0.000
REMARK UNBOUND:                 0.000
REMARK SMILES CC(=O)[O-]
REMARK SMILES IDX 1 1 2 2 3 3 4 4
REMARK H PARENT
REMARK Flexibility Score: inf
ROOT
ATOM      1  C   UNL     1      24.212  41.233  84.508  1.00  0.00     0.063 C 
ATOM      2  C   UNL     1      25.672  41.484  84.668  1.00  0.00     0.038 C 
ATOM      3  O   UNL     1      26.093  42.161  85.642  1.00  0.00    -0.550 OA
ATOM      4  O   UNL     1      26.577  40.926  83.775  1.00  0.00    -0.550 OA
ENDROOT
TORSDOF 0
ENDMDL
MODEL 4
REMARK VINA RESULT:    -2.317     13.453     13.833
REMARK INTER + INTRA:          -2.317
REMARK INTER:                  -2.317
REMARK INTRA:                   0.000
REMARK UNBOUND:                 0.000
REMARK SMILES CC(=O)[O-]
REMARK SMILES IDX 1 1 2 2 3 3 4 4
REMARK H PARENT
REMARK Flexibility Score: inf
ROOT
ATOM      1  C   UNL     1      26.029  41.275  84.145  1.00  0.00     0.063 C 
ATOM      2  C   UNL     1      24.680  41.346  84.775  1.00  0.00     0.038 C 
ATOM      3  O   UNL     1      24.487  42.087  85.773  1.00  0.00    -0.550 OA
ATOM      4  O   UNL     1      23.618  40.635  84.229  1.00  0.00    -0.550 OA
ENDROOT
TORSDOF 0
ENDMDL
MODEL 5
REMARK VINA RESULT:    -2.302     13.373     13.725
REMARK INTER + INTRA:          -2.302
REMARK INTER:                  -2.302
REMARK INTRA:                   0.000
REMARK UNBOUND:                 0.000
REMARK SMILES CC(=O)[O-]
REMARK SMILES IDX 1 1 2 2 3 3 4 4
REMARK H PARENT
REMARK Flexibility Score: inf
ROOT
ATOM      1  C   UNL     1      25.918  41.280  84.187  1.00  0.00     0.063 C 
ATOM      2  C   UNL     1      24.539  41.333  84.750  1.00  0.00     0.038 C 
ATOM      3  O   UNL     1      23.620  40.642  84.237  1.00  0.00    -0.550 OA
ATOM      4  O   UNL     1      24.274  42.105  85.875  1.00  0.00    -0.550 OA
ENDROOT
TORSDOF 0
ENDMDL
MODEL 6
REMARK VINA RESULT:    -2.297     13.615     13.953
REMARK INTER + INTRA:          -2.297
REMARK INTER:                  -2.297
REMARK INTRA:                   0.000
REMARK UNBOUND:                 0.000
REMARK SMILES CC(=O)[O-]
REMARK SMILES IDX 1 1 2 2 3 3 4 4
REMARK H PARENT
REMARK Flexibility Score: inf
ROOT
ATOM      1  C   UNL     1      23.964  41.129  84.477  1.00  0.00     0.063 C 
ATOM      2  C   UNL     1      25.401  41.437  84.727  1.00  0.00     0.038 C 
ATOM      3  O   UNL     1      26.284  41.023  83.932  1.00  0.00    -0.550 OA
ATOM      4  O   UNL     1      25.766  42.227  85.810  1.00  0.00    -0.550 OA
ENDROOT
TORSDOF 0
ENDMDL
MODEL 7
REMARK VINA RESULT:    -2.224     12.498     13.037
REMARK INTER + INTRA:          -2.224
REMARK INTER:                  -2.224
REMARK INTRA:                   0.000
REMARK UNBOUND:                 0.000
REMARK SMILES CC(=O)[O-]
REMARK SMILES IDX 1 1 2 2 3 3 4 4
REMARK H PARENT
REMARK Flexibility Score: inf
ROOT
ATOM      1  C   UNL     1      22.611  42.033  83.438  1.00  0.00     0.063 C 
ATOM      2  C   UNL     1      23.497  41.504  84.514  1.00  0.00     0.038 C 
ATOM      3  O   UNL     1      23.258  41.777  85.720  1.00  0.00    -0.550 OA
ATOM      4  O   UNL     1      24.556  40.664  84.195  1.00  0.00    -0.550 OA
ENDROOT
TORSDOF 0
ENDMDL
MODEL 8
REMARK VINA RESULT:    -2.146     11.852     12.289
REMARK INTER + INTRA:          -2.146
REMARK INTER:                  -2.146
REMARK INTRA:                   0.000
REMARK UNBOUND:                 0.000
REMARK SMILES CC(=O)[O-]
REMARK SMILES IDX 1 1 2 2 3 3 4 4
REMARK H PARENT
REMARK Flexibility Score: inf
ROOT
ATOM      1  C   UNL     1      24.281  41.434  84.568  1.00  0.00     0.063 C 
ATOM      2  C   UNL     1      23.002  42.140  84.273  1.00  0.00     0.038 C 
ATOM      3  O   UNL     1      22.519  42.113  83.110  1.00  0.00    -0.550 OA
ATOM      4  O   UNL     1      22.310  42.784  85.291  1.00  0.00    -0.550 OA
ENDROOT
TORSDOF 0
ENDMDL
MODEL 9
REMARK VINA RESULT:    -1.855     12.605     13.016
REMARK INTER + INTRA:          -1.855
REMARK INTER:                  -1.855
REMARK INTRA:                   0.000
REMARK UNBOUND:                 0.000
REMARK SMILES CC(=O)[O-]
REMARK SMILES IDX 1 1 2 2 3 3 4 4
REMARK H PARENT
REMARK Flexibility Score: inf
ROOT
ATOM      1  C   UNL     1      25.100  41.221  84.435  1.00  0.00     0.063 C 
ATOM      2  C   UNL     1      24.406  42.216  85.300  1.00  0.00     0.038 C 
ATOM      3  O   UNL     1      24.851  43.390  85.395  1.00  0.00    -0.550 OA
ATOM      4  O   UNL     1      23.235  41.868  85.962  1.00  0.00    -0.550 OA
ENDROOT
TORSDOF 0
ENDMDL
