MODEL 1
REMARK VINA RESULT:    -2.191      0.000      0.000
REMARK INTER + INTRA:          -3.088
REMARK INTER:                  -2.703
REMARK INTRA:                  -0.385
REMARK UNBOUND:                -0.385
REMARK SMILES CCCCC(=O)CC
REMARK SMILES IDX 4 1 3 2 2 3 1 4 5 5 6 6 7 7 8 8
REMARK H PARENT
REMARK Flexibility Score: inf
ROOT
ATOM      1  C   UNL     1     111.727 110.174 104.950  1.00  0.00     0.075 C 
ENDROOT
BRANCH   1   2
ATOM      2  C   UNL     1     112.764 109.798 103.876  1.00  0.00     0.008 C 
BRANCH   2   3
ATOM      3  C   UNL     1     113.231 108.339 103.995  1.00  0.00    -0.003 C 
ATOM      4  C   UNL     1     113.300 107.856 105.444  1.00  0.00     0.004 C 
ENDBRANCH   2   3
ENDBRANCH   1   2
BRANCH   1   5
ATOM      5  C   UNL     1     110.290 109.853 104.596  1.00  0.00     0.132 C 
ATOM      6  O   UNL     1     109.691 110.640 103.876  1.00  0.00    -0.300 OA
BRANCH   5   7
ATOM      7  C   UNL     1     109.547 108.632 105.085  1.00  0.00     0.072 C 
ATOM      8  C   UNL     1     109.543 107.541 104.020  1.00  0.00     0.012 C 
ENDBRANCH   5   7
ENDBRANCH   1   5
TORSDOF 4
ENDMDL
MODEL 2
REMARK VINA RESULT:    -2.150      1.629      2.893
REMARK INTER + INTRA:          -3.037
REMARK INTER:                  -2.844
REMARK INTRA:                  -0.194
REMARK UNBOUND:                -0.385
REMARK SMILES CCCCC(=O)CC
REMARK SMILES IDX 4 1 3 2 2 3 1 4 5 5 6 6 7 7 8 8
REMARK H PARENT
REMARK Flexibility Score: inf
ROOT
ATOM      1  C   UNL     1     111.438 109.724 104.725  1.00  0.00     0.075 C 
ENDROOT
BRANCH   1   2
ATOM      2  C   UNL     1     112.683 109.406 103.877  1.00  0.00     0.008 C 
BRANCH   2   3
ATOM      3  C   UNL     1     113.476 108.208 104.422  1.00  0.00    -0.003 C 
ATOM      4  C   UNL     1     113.028 107.791 105.824  1.00  0.00     0.004 C 
ENDBRANCH   2   3
ENDBRANCH   1   2
BRANCH   1   5
ATOM      5  C   UNL     1     111.230 111.193 105.034  1.00  0.00     0.132 C 
ATOM      6  O   UNL     1     110.115 111.548 105.388  1.00  0.00    -0.300 OA
BRANCH   5   7
ATOM      7  C   UNL     1     112.308 112.245 104.919  1.00  0.00     0.072 C 
ATOM      8  C   UNL     1     111.897 113.333 103.933  1.00  0.00     0.012 C 
ENDBRANCH   5   7
ENDBRANCH   1   5
TORSDOF 4
ENDMDL
MODEL 3
REMARK VINA RESULT:    -2.144      2.187      2.797
REMARK INTER + INTRA:          -3.031
REMARK INTER:                  -2.890
REMARK INTRA:                  -0.141
REMARK UNBOUND:                -0.385
REMARK SMILES CCCCC(=O)CC
REMARK SMILES IDX 4 1 3 2 2 3 1 4 5 5 6 6 7 7 8 8
REMARK H PARENT
REMARK Flexibility Score: inf
ROOT
ATOM      1  C   UNL     1     110.199 107.468 103.875  1.00  0.00     0.075 C 
ENDROOT
BRANCH   1   2
ATOM      2  C   UNL     1     111.077 108.314 104.815  1.00  0.00     0.008 C 
BRANCH   2   3
ATOM      3  C   UNL     1     112.543 107.854 104.824  1.00  0.00    -0.003 C 
ATOM      4  C   UNL     1     113.051 107.521 106.227  1.00  0.00     0.004 C 
ENDBRANCH   2   3
ENDBRANCH   1   2
BRANCH   1   5
ATOM      5  C   UNL     1     108.800 107.187 104.383  1.00  0.00     0.132 C 
ATOM      6  O   UNL     1     108.185 106.260 103.876  1.00  0.00    -0.300 OA
BRANCH   5   7
ATOM      7  C   UNL     1     108.113 107.986 105.466  1.00  0.00     0.072 C 
ATOM      8  C   UNL     1     107.834 107.114 106.685  1.00  0.00     0.012 C 
ENDBRANCH   5   7
ENDBRANCH   1   5
TORSDOF 4
ENDMDL
MODEL 4
REMARK VINA RESULT:    -2.122      2.890      5.047
REMARK INTER + INTRA:          -3.003
REMARK INTER:                  -2.742
REMARK INTRA:                  -0.261
REMARK UNBOUND:                -0.385
REMARK SMILES CCCCC(=O)CC
REMARK SMILES IDX 4 1 3 2 2 3 1 4 5 5 6 6 7 7 8 8
REMARK H PARENT
REMARK Flexibility Score: inf
ROOT
ATOM      1  C   UNL     1     108.592 110.296 104.766  1.00  0.00     0.075 C 
ENDROOT
BRANCH   1   2
ATOM      2  C   UNL     1     107.363 110.552 103.875  1.00  0.00     0.008 C 
BRANCH   2   3
ATOM      3  C   UNL     1     106.584 111.809 104.293  1.00  0.00    -0.003 C 
ATOM      4  C   UNL     1     106.861 112.223 105.739  1.00  0.00     0.004 C 
ENDBRANCH   2   3
ENDBRANCH   1   2
BRANCH   1   5
ATOM      5  C   UNL     1     109.918 110.722 104.167  1.00  0.00     0.132 C 
ATOM      6  O   UNL     1     110.721 109.846 103.882  1.00  0.00    -0.300 OA
BRANCH   5   7
ATOM      7  C   UNL     1     110.313 112.158 103.914  1.00  0.00     0.072 C 
ATOM      8  C   UNL     1     111.288 112.645 104.979  1.00  0.00     0.012 C 
ENDBRANCH   5   7
ENDBRANCH   1   5
TORSDOF 4
ENDMDL
MODEL 5
REMARK VINA RESULT:    -2.119      2.106      3.817
REMARK INTER + INTRA:          -2.999
REMARK INTER:                  -2.711
REMARK INTRA:                  -0.288
REMARK UNBOUND:                -0.385
REMARK SMILES CCCCC(=O)CC
REMARK SMILES IDX 4 1 3 2 2 3 1 4 5 5 6 6 7 7 8 8
REMARK H PARENT
REMARK Flexibility Score: inf
ROOT
ATOM      1  C   UNL     1     111.535 108.571 104.871  1.00  0.00     0.075 C 
ENDROOT
BRANCH   1   2
ATOM      2  C   UNL     1     110.706 107.740 103.875  1.00  0.00     0.008 C 
BRANCH   2   3
ATOM      3  C   UNL     1     109.289 107.444 104.392  1.00  0.00    -0.003 C 
ATOM      4  C   UNL     1     109.058 107.958 105.814  1.00  0.00     0.004 C 
ENDBRANCH   2   3
ENDBRANCH   1   2
BRANCH   1   5
ATOM      5  C   UNL     1     112.945 108.070 105.107  1.00  0.00     0.132 C 
ATOM      6  O   UNL     1     113.766 108.238 104.216  1.00  0.00    -0.300 OA
BRANCH   5   7
ATOM      7  C   UNL     1     113.397 107.366 106.365  1.00  0.00     0.072 C 
ATOM      8  C   UNL     1     112.356 107.513 107.469  1.00  0.00     0.012 C 
ENDBRANCH   5   7
ENDBRANCH   1   5
TORSDOF 4
ENDMDL
MODEL 6
REMARK VINA RESULT:    -2.110      2.328      3.824
REMARK INTER + INTRA:          -2.989
REMARK INTER:                  -2.781
REMARK INTRA:                  -0.208
REMARK UNBOUND:                -0.385
REMARK SMILES CCCCC(=O)CC
REMARK SMILES IDX 4 1 3 2 2 3 1 4 5 5 6 6 7 7 8 8
REMARK H PARENT
REMARK Flexibility Score: inf
ROOT
ATOM      1  C   UNL     1     111.785 109.285 104.357  1.00  0.00     0.075 C 
ENDROOT
BRANCH   1   2
ATOM      2  C   UNL     1     112.123 110.725 103.927  1.00  0.00     0.008 C 
BRANCH   2   3
ATOM      3  C   UNL     1     111.727 111.764 104.988  1.00  0.00    -0.003 C 
ATOM      4  C   UNL     1     111.877 113.203 104.491  1.00  0.00     0.004 C 
ENDBRANCH   2   3
ENDBRANCH   1   2
BRANCH   1   5
ATOM      5  C   UNL     1     112.975 108.441 104.764  1.00  0.00     0.132 C 
ATOM      6  O   UNL     1     113.850 108.249 103.932  1.00  0.00    -0.300 OA
BRANCH   5   7
ATOM      7  C   UNL     1     113.143 107.813 106.128  1.00  0.00     0.072 C 
ATOM      8  C   UNL     1     112.616 108.740 107.218  1.00  0.00     0.012 C 
ENDBRANCH   5   7
ENDBRANCH   1   5
TORSDOF 4
ENDMDL
MODEL 7
REMARK VINA RESULT:    -2.104      2.274      3.566
REMARK INTER + INTRA:          -2.981
REMARK INTER:                  -2.620
REMARK INTRA:                  -0.361
REMARK UNBOUND:                -0.385
REMARK SMILES CCCCC(=O)CC
REMARK SMILES IDX 4 1 3 2 2 3 1 4 5 5 6 6 7 7 8 8
REMARK H PARENT
REMARK Flexibility Score: inf
ROOT
ATOM      1  C   UNL     1     112.596 111.870 104.135  1.00  0.00     0.075 C 
ENDROOT
BRANCH   1   2
ATOM      2  C   UNL     1     112.030 113.067 104.919  1.00  0.00     0.008 C 
BRANCH   2   3
ATOM      3  C   UNL     1     112.533 113.112 106.370  1.00  0.00    -0.003 C 
ATOM      4  C   UNL     1     111.497 112.599 107.372  1.00  0.00     0.004 C 
ENDBRANCH   2   3
ENDBRANCH   1   2
BRANCH   1   5
ATOM      5  C   UNL     1     111.771 110.602 104.213  1.00  0.00     0.132 C 
ATOM      6  O   UNL     1     110.588 110.673 103.913  1.00  0.00    -0.300 OA
BRANCH   5   7
ATOM      7  C   UNL     1     112.313 109.261 104.652  1.00  0.00     0.072 C 
ATOM      8  C   UNL     1     112.297 109.144 106.171  1.00  0.00     0.012 C 
ENDBRANCH   5   7
ENDBRANCH   1   5
TORSDOF 4
ENDMDL
MODEL 8
REMARK VINA RESULT:    -2.103      3.530      4.766
REMARK INTER + INTRA:          -2.980
REMARK INTER:                  -2.757
REMARK INTRA:                  -0.223
REMARK UNBOUND:                -0.385
REMARK SMILES CCCCC(=O)CC
REMARK SMILES IDX 4 1 3 2 2 3 1 4 5 5 6 6 7 7 8 8
REMARK H PARENT
REMARK Flexibility Score: inf
ROOT
ATOM      1  C   UNL     1     108.827 108.357 104.777  1.00  0.00     0.075 C 
ENDROOT
BRANCH   1   2
ATOM      2  C   UNL     1     107.899 109.524 104.394  1.00  0.00     0.008 C 
BRANCH   2   3
ATOM      3  C   UNL     1     107.786 110.577 105.508  1.00  0.00    -0.003 C 
ATOM      4  C   UNL     1     107.589 111.993 104.966  1.00  0.00     0.004 C 
ENDBRANCH   2   3
ENDBRANCH   1   2
BRANCH   1   5
ATOM      5  C   UNL     1     108.133 107.028 104.992  1.00  0.00     0.132 C 
ATOM      6  O   UNL     1     108.188 106.204 104.091  1.00  0.00    -0.300 OA
BRANCH   5   7
ATOM      7  C   UNL     1     107.366 106.663 106.243  1.00  0.00     0.072 C 
ATOM      8  C   UNL     1     108.048 107.237 107.480  1.00  0.00     0.012 C 
ENDBRANCH   5   7
ENDBRANCH   1   5
TORSDOF 4
ENDMDL
