MODEL 1
REMARK VINA RESULT:    -3.530      0.000      0.000
REMARK INTER + INTRA:          -9.325
REMARK INTER:                  -8.071
REMARK INTRA:                  -1.254
REMARK UNBOUND:                -1.254
REMARK SMILES CCCCCCCCCCCCCCCCCCCCCCCC(=O)[O-]
REMARK SMILES IDX 13 1 14 2 15 3 16 4 17 5 18 6 19 7 20 8 21 9 22 10 23 11
REMARK SMILES IDX 24 12 25 13 26 14 12 15 11 16 10 17 9 18 8 19 7 20 6 21 5 22
REMARK SMILES IDX 4 23 3 24 2 25 1 26
REMARK H PARENT
REMARK Flexibility Score: inf
ROOT
ATOM      1  C   UNL     1       5.192  10.815   8.266  1.00  0.00     0.000 C 
ENDROOT
BRANCH   1   2
ATOM      2  C   UNL     1       6.685  11.188   8.339  1.00  0.00     0.000 C 
BRANCH   2   3
ATOM      3  C   UNL     1       6.921  12.702   8.478  1.00  0.00     0.000 C 
BRANCH   3   4
ATOM      4  C   UNL     1       8.019  13.028   9.504  1.00  0.00     0.000 C 
BRANCH   4   5
ATOM      5  C   UNL     1       9.410  13.123   8.855  1.00  0.00     0.000 C 
BRANCH   5   6
ATOM      6  C   UNL     1       9.539  12.243   7.596  1.00  0.00     0.000 C 
BRANCH   6   7
ATOM      7  C   UNL     1      10.123  12.980   6.373  1.00  0.00     0.000 C 
BRANCH   7   8
ATOM      8  C   UNL     1       9.760  12.321   5.022  1.00  0.00     0.000 C 
BRANCH   8   9
ATOM      9  C   UNL     1       8.563  12.984   4.311  1.00  0.00     0.000 C 
BRANCH   9  10
ATOM     10  C   UNL     1       7.257  12.984   5.122  1.00  0.00     0.006 C 
BRANCH  10  11
ATOM     11  C   UNL     1       6.063  12.433   4.326  1.00  0.00     0.053 C 
BRANCH  11  12
ATOM     12  C   UNL     1       5.665  11.077   4.823  1.00  0.00     0.041 C 
ATOM     13  O   UNL     1       4.454  10.808   5.034  1.00  0.00    -0.550 OA
ATOM     14  O   UNL     1       6.640  10.121   5.083  1.00  0.00    -0.550 OA
ENDBRANCH  11  12
ENDBRANCH  10  11
ENDBRANCH   9  10
ENDBRANCH   8   9
ENDBRANCH   7   8
ENDBRANCH   6   7
ENDBRANCH   5   6
ENDBRANCH   4   5
ENDBRANCH   3   4
ENDBRANCH   2   3
ENDBRANCH   1   2
BRANCH   1  15
ATOM     15  C   UNL     1       4.905   9.314   8.076  1.00  0.00     0.000 C 
BRANCH  15  16
ATOM     16  C   UNL     1       3.407   8.974   8.143  1.00  0.00     0.000 C 
BRANCH  16  17
ATOM     17  C   UNL     1       2.920   8.731   9.581  1.00  0.00     0.000 C 
BRANCH  17  18
ATOM     18  C   UNL     1       3.081   9.972  10.476  1.00  0.00    -0.000 C 
BRANCH  18  19
ATOM     19  C   UNL     1       1.906  10.966  10.349  1.00  0.00    -0.000 C 
BRANCH  19  20
ATOM     20  C   UNL     1       2.218  12.199   9.479  1.00  0.00    -0.000 C 
BRANCH  20  21
ATOM     21  C   UNL     1       0.989  13.035   9.082  1.00  0.00    -0.000 C 
BRANCH  21  22
ATOM     22  C   UNL     1      -0.253  12.182   8.740  1.00  0.00    -0.000 C 
BRANCH  22  23
ATOM     23  C   UNL     1      -1.427  13.035   8.241  1.00  0.00    -0.000 C 
BRANCH  23  24
ATOM     24  C   UNL     1      -2.639  12.913   9.176  1.00  0.00    -0.000 C 
BRANCH  24  25
ATOM     25  C   UNL     1      -3.919  12.505   8.430  1.00  0.00    -0.003 C 
ATOM     26  C   UNL     1      -3.924  12.956   6.969  1.00  0.00     0.004 C 
ENDBRANCH  24  25
ENDBRANCH  23  24
ENDBRANCH  22  23
ENDBRANCH  21  22
ENDBRANCH  20  21
ENDBRANCH  19  20
ENDBRANCH  18  19
ENDBRANCH  17  18
ENDBRANCH  16  17
ENDBRANCH  15  16
ENDBRANCH   1  15
TORSDOF 22
ENDMDL
MODEL 2
REMARK VINA RESULT:    -2.052      2.947      8.557
REMARK INTER + INTRA:          -5.946
REMARK INTER:                  -4.925
REMARK INTRA:                  -1.020
REMARK UNBOUND:                -1.254
REMARK SMILES CCCCCCCCCCCCCCCCCCCCCCCC(=O)[O-]
REMARK SMILES IDX 13 1 14 2 15 3 16 4 17 5 18 6 19 7 20 8 21 9 22 10 23 11
REMARK SMILES IDX 24 12 25 13 26 14 12 15 11 16 10 17 9 18 8 19 7 20 6 21 5 22
REMARK SMILES IDX 4 23 3 24 2 25 1 26
REMARK H PARENT
REMARK Flexibility Score: inf
ROOT
ATOM      1  C   UNL     1       4.863   9.881   6.715  1.00  0.00     0.000 C 
ENDROOT
BRANCH   1   2
ATOM      2  C   UNL     1       3.623  10.157   7.588  1.00  0.00     0.000 C 
BRANCH   2   3
ATOM      3  C   UNL     1       3.437   9.124   8.713  1.00  0.00     0.000 C 
BRANCH   3   4
ATOM      4  C   UNL     1       3.814   9.692  10.092  1.00  0.00     0.000 C 
BRANCH   4   5
ATOM      5  C   UNL     1       3.078  11.007  10.398  1.00  0.00     0.000 C 
BRANCH   5   6
ATOM      6  C   UNL     1       1.641  10.779  10.905  1.00  0.00     0.000 C 
BRANCH   6   7
ATOM      7  C   UNL     1       0.663  11.916  10.548  1.00  0.00     0.000 C 
BRANCH   7   8
ATOM      8  C   UNL     1       0.639  12.261   9.041  1.00  0.00     0.000 C 
BRANCH   8   9
ATOM      9  C   UNL     1      -0.599  13.073   8.610  1.00  0.00     0.000 C 
BRANCH   9  10
ATOM     10  C   UNL     1      -1.924  12.294   8.660  1.00  0.00     0.006 C 
BRANCH  10  11
ATOM     11  C   UNL     1      -3.118  13.117   8.149  1.00  0.00     0.053 C 
BRANCH  11  12
ATOM     12  C   UNL     1      -3.877  12.367   7.098  1.00  0.00     0.041 C 
ATOM     13  O   UNL     1      -4.015  11.119   7.182  1.00  0.00    -0.550 OA
ATOM     14  O   UNL     1      -4.403  13.047   6.005  1.00  0.00    -0.550 OA
ENDBRANCH  11  12
ENDBRANCH  10  11
ENDBRANCH   9  10
ENDBRANCH   8   9
ENDBRANCH   7   8
ENDBRANCH   6   7
ENDBRANCH   5   6
ENDBRANCH   4   5
ENDBRANCH   3   4
ENDBRANCH   2   3
ENDBRANCH   1   2
BRANCH   1  15
ATOM     15  C   UNL     1       6.207   9.918   7.465  1.00  0.00     0.000 C 
BRANCH  15  16
ATOM     16  C   UNL     1       6.476  11.267   8.152  1.00  0.00     0.000 C 
BRANCH  16  17
ATOM     17  C   UNL     1       7.221  12.256   7.241  1.00  0.00     0.000 C 
BRANCH  17  18
ATOM     18  C   UNL     1       8.652  12.544   7.729  1.00  0.00    -0.000 C 
BRANCH  18  19
ATOM     19  C   UNL     1       9.659  11.443   7.331  1.00  0.00    -0.000 C 
BRANCH  19  20
ATOM     20  C   UNL     1       9.457  10.894   5.906  1.00  0.00    -0.000 C 
BRANCH  20  21
ATOM     21  C   UNL     1      10.119  11.727   4.795  1.00  0.00    -0.000 C 
BRANCH  21  22
ATOM     22  C   UNL     1       9.478  13.120   4.605  1.00  0.00    -0.000 C 
BRANCH  22  23
ATOM     23  C   UNL     1       8.212  13.066   3.739  1.00  0.00    -0.000 C 
BRANCH  23  24
ATOM     24  C   UNL     1       7.005  12.571   4.550  1.00  0.00    -0.000 C 
BRANCH  24  25
ATOM     25  C   UNL     1       6.449  11.239   4.024  1.00  0.00    -0.003 C 
ATOM     26  C   UNL     1       4.984  11.334   3.598  1.00  0.00     0.004 C 
ENDBRANCH  24  25
ENDBRANCH  23  24
ENDBRANCH  22  23
ENDBRANCH  21  22
ENDBRANCH  20  21
ENDBRANCH  19  20
ENDBRANCH  18  19
ENDBRANCH  17  18
ENDBRANCH  16  17
ENDBRANCH  15  16
ENDBRANCH   1  15
TORSDOF 22
ENDMDL
MODEL 3
REMARK VINA RESULT:    -1.022      2.919      7.892
REMARK INTER + INTRA:          -3.590
REMARK INTER:                  -3.300
REMARK INTRA:                  -0.290
REMARK UNBOUND:                -1.254
REMARK SMILES CCCCCCCCCCCCCCCCCCCCCCCC(=O)[O-]
REMARK SMILES IDX 13 1 14 2 15 3 16 4 17 5 18 6 19 7 20 8 21 9 22 10 23 11
REMARK SMILES IDX 24 12 25 13 26 14 12 15 11 16 10 17 9 18 8 19 7 20 6 21 5 22
REMARK SMILES IDX 4 23 3 24 2 25 1 26
REMARK H PARENT
REMARK Flexibility Score: inf
ROOT
ATOM      1  C   UNL     1       7.213  12.635   4.089  1.00  0.00     0.000 C 
ENDROOT
BRANCH   1   2
ATOM      2  C   UNL     1       5.930  11.789   4.209  1.00  0.00     0.000 C 
BRANCH   2   3
ATOM      3  C   UNL     1       5.771  11.131   5.590  1.00  0.00     0.000 C 
BRANCH   3   4
ATOM      4  C   UNL     1       4.755   9.976   5.571  1.00  0.00     0.000 C 
BRANCH   4   5
ATOM      5  C   UNL     1       3.309  10.474   5.725  1.00  0.00     0.000 C 
BRANCH   5   6
ATOM      6  C   UNL     1       2.959  10.846   7.180  1.00  0.00     0.000 C 
BRANCH   6   7
ATOM      7  C   UNL     1       1.480  11.222   7.393  1.00  0.00     0.000 C 
BRANCH   7   8
ATOM      8  C   UNL     1       1.117  11.494   8.871  1.00  0.00     0.000 C 
BRANCH   8   9
ATOM      9  C   UNL     1       0.560  12.910   9.123  1.00  0.00     0.000 C 
BRANCH   9  10
ATOM     10  C   UNL     1      -0.948  12.961   9.420  1.00  0.00     0.006 C 
BRANCH  10  11
ATOM     11  C   UNL     1      -1.804  13.026   8.144  1.00  0.00     0.053 C 
BRANCH  11  12
ATOM     12  C   UNL     1      -3.159  12.433   8.375  1.00  0.00     0.041 C 
ATOM     13  O   UNL     1      -3.682  11.685   7.507  1.00  0.00    -0.550 OA
ATOM     14  O   UNL     1      -3.861  12.736   9.536  1.00  0.00    -0.550 OA
ENDBRANCH  11  12
ENDBRANCH  10  11
ENDBRANCH   9  10
ENDBRANCH   8   9
ENDBRANCH   7   8
ENDBRANCH   6   7
ENDBRANCH   5   6
ENDBRANCH   4   5
ENDBRANCH   3   4
ENDBRANCH   2   3
ENDBRANCH   1   2
BRANCH   1  15
ATOM     15  C   UNL     1       8.302  12.039   3.177  1.00  0.00     0.000 C 
BRANCH  15  16
ATOM     16  C   UNL     1       9.221  11.046   3.908  1.00  0.00     0.000 C 
BRANCH  16  17
ATOM     17  C   UNL     1       8.990  11.035   5.428  1.00  0.00     0.000 C 
BRANCH  17  18
ATOM     18  C   UNL     1       9.310  12.391   6.082  1.00  0.00    -0.000 C 
BRANCH  18  19
ATOM     19  C   UNL     1       9.978  12.252   7.467  1.00  0.00    -0.000 C 
BRANCH  19  20
ATOM     20  C   UNL     1       9.088  12.702   8.641  1.00  0.00    -0.000 C 
BRANCH  20  21
ATOM     21  C   UNL     1       7.640  12.185   8.586  1.00  0.00    -0.000 C 
BRANCH  21  22
ATOM     22  C   UNL     1       6.623  13.124   9.272  1.00  0.00    -0.000 C 
BRANCH  22  23
ATOM     23  C   UNL     1       5.200  12.547   9.267  1.00  0.00    -0.000 C 
BRANCH  23  24
ATOM     24  C   UNL     1       5.223  11.016   9.153  1.00  0.00    -0.000 C 
BRANCH  24  25
ATOM     25  C   UNL     1       4.040  10.355   9.877  1.00  0.00    -0.003 C 
ATOM     26  C   UNL     1       4.055   8.830   9.767  1.00  0.00     0.004 C 
ENDBRANCH  24  25
ENDBRANCH  23  24
ENDBRANCH  22  23
ENDBRANCH  21  22
ENDBRANCH  20  21
ENDBRANCH  19  20
ENDBRANCH  18  19
ENDBRANCH  17  18
ENDBRANCH  16  17
ENDBRANCH  15  16
ENDBRANCH   1  15
TORSDOF 22
ENDMDL
MODEL 4
REMARK VINA RESULT:    -0.984      2.397      8.012
REMARK INTER + INTRA:          -3.504
REMARK INTER:                  -2.402
REMARK INTRA:                  -1.102
REMARK UNBOUND:                -1.254
REMARK SMILES CCCCCCCCCCCCCCCCCCCCCCCC(=O)[O-]
REMARK SMILES IDX 13 1 14 2 15 3 16 4 17 5 18 6 19 7 20 8 21 9 22 10 23 11
REMARK SMILES IDX 24 12 25 13 26 14 12 15 11 16 10 17 9 18 8 19 7 20 6 21 5 22
REMARK SMILES IDX 4 23 3 24 2 25 1 26
REMARK H PARENT
REMARK Flexibility Score: inf
ROOT
ATOM      1  C   UNL     1       5.438  10.470   4.778  1.00  0.00     0.000 C 
ENDROOT
BRANCH   1   2
ATOM      2  C   UNL     1       5.018  11.353   5.969  1.00  0.00     0.000 C 
BRANCH   2   3
ATOM      3  C   UNL     1       4.885  10.566   7.284  1.00  0.00     0.000 C 
BRANCH   3   4
ATOM      4  C   UNL     1       3.436  10.130   7.558  1.00  0.00     0.000 C 
BRANCH   4   5
ATOM      5  C   UNL     1       3.365   8.818   8.356  1.00  0.00     0.000 C 
BRANCH   5   6
ATOM      6  C   UNL     1       3.977   8.946   9.765  1.00  0.00     0.000 C 
BRANCH   6   7
ATOM      7  C   UNL     1       3.362  10.075  10.616  1.00  0.00     0.000 C 
BRANCH   7   8
ATOM      8  C   UNL     1       1.821  10.001  10.721  1.00  0.00     0.000 C 
BRANCH   8   9
ATOM      9  C   UNL     1       1.144  11.377  10.883  1.00  0.00     0.000 C 
BRANCH   9  10
ATOM     10  C   UNL     1       1.952  12.558  10.320  1.00  0.00     0.006 C 
BRANCH  10  11
ATOM     11  C   UNL     1       1.402  13.068   8.978  1.00  0.00     0.053 C 
BRANCH  11  12
ATOM     12  C   UNL     1       0.069  12.456   8.675  1.00  0.00     0.041 C 
ATOM     13  O   UNL     1      -0.001  11.349   8.078  1.00  0.00    -0.550 OA
ATOM     14  O   UNL     1      -1.098  13.125   9.025  1.00  0.00    -0.550 OA
ENDBRANCH  11  12
ENDBRANCH  10  11
ENDBRANCH   9  10
ENDBRANCH   8   9
ENDBRANCH   7   8
ENDBRANCH   6   7
ENDBRANCH   5   6
ENDBRANCH   4   5
ENDBRANCH   3   4
ENDBRANCH   2   3
ENDBRANCH   1   2
BRANCH   1  15
ATOM     15  C   UNL     1       5.615  11.219   3.444  1.00  0.00     0.000 C 
BRANCH  15  16
ATOM     16  C   UNL     1       6.664  12.341   3.519  1.00  0.00     0.000 C 
BRANCH  16  17
ATOM     17  C   UNL     1       7.460  12.320   4.834  1.00  0.00     0.000 C 
BRANCH  17  18
ATOM     18  C   UNL     1       8.981  12.352   4.603  1.00  0.00    -0.000 C 
BRANCH  18  19
ATOM     19  C   UNL     1       9.646  10.967   4.757  1.00  0.00    -0.000 C 
BRANCH  19  20
ATOM     20  C   UNL     1       8.964  10.056   5.797  1.00  0.00    -0.000 C 
BRANCH  20  21
ATOM     21  C   UNL     1       8.761  10.699   7.180  1.00  0.00    -0.000 C 
BRANCH  21  22
ATOM     22  C   UNL     1       9.798  11.796   7.508  1.00  0.00    -0.000 C 
BRANCH  22  23
ATOM     23  C   UNL     1       9.276  12.801   8.544  1.00  0.00    -0.000 C 
BRANCH  23  24
ATOM     24  C   UNL     1       7.793  13.125   8.305  1.00  0.00    -0.000 C 
BRANCH  24  25
ATOM     25  C   UNL     1       6.966  13.081   9.599  1.00  0.00    -0.003 C 
ATOM     26  C   UNL     1       5.591  12.442   9.403  1.00  0.00     0.004 C 
ENDBRANCH  24  25
ENDBRANCH  23  24
ENDBRANCH  22  23
ENDBRANCH  21  22
ENDBRANCH  20  21
ENDBRANCH  19  20
ENDBRANCH  18  19
ENDBRANCH  17  18
ENDBRANCH  16  17
ENDBRANCH  15  16
ENDBRANCH   1  15
TORSDOF 22
ENDMDL
MODEL 5
REMARK VINA RESULT:    -0.824      2.074      4.072
REMARK INTER + INTRA:          -3.137
REMARK INTER:                  -3.217
REMARK INTRA:                   0.080
REMARK UNBOUND:                -1.254
REMARK SMILES CCCCCCCCCCCCCCCCCCCCCCCC(=O)[O-]
REMARK SMILES IDX 13 1 14 2 15 3 16 4 17 5 18 6 19 7 20 8 21 9 22 10 23 11
REMARK SMILES IDX 24 12 25 13 26 14 12 15 11 16 10 17 9 18 8 19 7 20 6 21 5 22
REMARK SMILES IDX 4 23 3 24 2 25 1 26
REMARK H PARENT
REMARK Flexibility Score: inf
ROOT
ATOM      1  C   UNL     1       5.952  11.472   3.511  1.00  0.00     0.000 C 
ENDROOT
BRANCH   1   2
ATOM      2  C   UNL     1       7.359  11.282   4.111  1.00  0.00     0.000 C 
BRANCH   2   3
ATOM      3  C   UNL     1       8.388  12.282   3.559  1.00  0.00     0.000 C 
BRANCH   3   4
ATOM      4  C   UNL     1       9.341  12.799   4.650  1.00  0.00     0.000 C 
BRANCH   4   5
ATOM      5  C   UNL     1       8.668  12.850   6.031  1.00  0.00     0.000 C 
BRANCH   5   6
ATOM      6  C   UNL     1       8.768  11.513   6.791  1.00  0.00     0.000 C 
BRANCH   6   7
ATOM      7  C   UNL     1       7.989  11.487   8.121  1.00  0.00     0.000 C 
BRANCH   7   8
ATOM      8  C   UNL     1       6.931  12.609   8.240  1.00  0.00     0.000 C 
BRANCH   8   9
ATOM      9  C   UNL     1       5.869  12.347   9.327  1.00  0.00     0.000 C 
BRANCH   9  10
ATOM     10  C   UNL     1       5.243  10.943   9.284  1.00  0.00     0.006 C 
BRANCH  10  11
ATOM     11  C   UNL     1       4.268  10.691  10.446  1.00  0.00     0.053 C 
BRANCH  11  12
ATOM     12  C   UNL     1       3.421   9.484  10.186  1.00  0.00     0.041 C 
ATOM     13  O   UNL     1       3.660   8.741   9.197  1.00  0.00    -0.550 OA
ATOM     14  O   UNL     1       2.346   9.197  11.019  1.00  0.00    -0.550 OA
ENDBRANCH  11  12
ENDBRANCH  10  11
ENDBRANCH   9  10
ENDBRANCH   8   9
ENDBRANCH   7   8
ENDBRANCH   6   7
ENDBRANCH   5   6
ENDBRANCH   4   5
ENDBRANCH   3   4
ENDBRANCH   2   3
ENDBRANCH   1   2
BRANCH   1  15
ATOM     15  C   UNL     1       4.795  10.974   4.397  1.00  0.00     0.000 C 
BRANCH  15  16
ATOM     16  C   UNL     1       5.231  10.663   5.838  1.00  0.00     0.000 C 
BRANCH  16  17
ATOM     17  C   UNL     1       4.053  10.674   6.827  1.00  0.00     0.000 C 
BRANCH  17  18
ATOM     18  C   UNL     1       2.691  10.546   6.123  1.00  0.00    -0.000 C 
BRANCH  18  19
ATOM     19  C   UNL     1       1.495  10.763   7.076  1.00  0.00    -0.000 C 
BRANCH  19  20
ATOM     20  C   UNL     1       1.890  11.297   8.466  1.00  0.00    -0.000 C 
BRANCH  20  21
ATOM     21  C   UNL     1       0.711  11.776   9.331  1.00  0.00    -0.000 C 
BRANCH  21  22
ATOM     22  C   UNL     1      -0.091  12.933   8.694  1.00  0.00    -0.000 C 
BRANCH  22  23
ATOM     23  C   UNL     1      -1.601  12.801   8.939  1.00  0.00    -0.000 C 
BRANCH  23  24
ATOM     24  C   UNL     1      -2.400  13.122   7.668  1.00  0.00    -0.000 C 
BRANCH  24  25
ATOM     25  C   UNL     1      -3.814  12.524   7.695  1.00  0.00    -0.003 C 
ATOM     26  C   UNL     1      -3.829  11.055   8.116  1.00  0.00     0.004 C 
ENDBRANCH  24  25
ENDBRANCH  23  24
ENDBRANCH  22  23
ENDBRANCH  21  22
ENDBRANCH  20  21
ENDBRANCH  19  20
ENDBRANCH  18  19
ENDBRANCH  17  18
ENDBRANCH  16  17
ENDBRANCH  15  16
ENDBRANCH   1  15
TORSDOF 22
ENDMDL
MODEL 6
REMARK VINA RESULT:    -0.652      1.581      2.579
REMARK INTER + INTRA:          -2.746
REMARK INTER:                  -1.468
REMARK INTRA:                  -1.277
REMARK UNBOUND:                -1.254
REMARK SMILES CCCCCCCCCCCCCCCCCCCCCCCC(=O)[O-]
REMARK SMILES IDX 13 1 14 2 15 3 16 4 17 5 18 6 19 7 20 8 21 9 22 10 23 11
REMARK SMILES IDX 24 12 25 13 26 14 12 15 11 16 10 17 9 18 8 19 7 20 6 21 5 22
REMARK SMILES IDX 4 23 3 24 2 25 1 26
REMARK H PARENT
REMARK Flexibility Score: inf
ROOT
ATOM      1  C   UNL     1       3.882   9.484   5.787  1.00  0.00     0.000 C 
ENDROOT
BRANCH   1   2
ATOM      2  C   UNL     1       5.344   9.308   6.242  1.00  0.00     0.000 C 
BRANCH   2   3
ATOM      3  C   UNL     1       5.532   9.510   7.755  1.00  0.00     0.000 C 
BRANCH   3   4
ATOM      4  C   UNL     1       6.859  10.212   8.088  1.00  0.00     0.000 C 
BRANCH   4   5
ATOM      5  C   UNL     1       6.654  11.682   8.487  1.00  0.00     0.000 C 
BRANCH   5   6
ATOM      6  C   UNL     1       7.623  12.138   9.595  1.00  0.00     0.000 C 
BRANCH   6   7
ATOM      7  C   UNL     1       8.713  13.116   9.112  1.00  0.00     0.000 C 
BRANCH   7   8
ATOM      8  C   UNL     1       9.740  12.472   8.151  1.00  0.00     0.000 C 
BRANCH   8   9
ATOM      9  C   UNL     1       9.713  13.065   6.728  1.00  0.00     0.000 C 
BRANCH   9  10
ATOM     10  C   UNL     1       9.266  12.081   5.634  1.00  0.00     0.006 C 
BRANCH  10  11
ATOM     11  C   UNL     1       9.830  12.435   4.248  1.00  0.00     0.053 C 
BRANCH  11  12
ATOM     12  C   UNL     1       8.743  12.476   3.219  1.00  0.00     0.041 C 
ATOM     13  O   UNL     1       7.621  12.974   3.499  1.00  0.00    -0.550 OA
ATOM     14  O   UNL     1       8.961  11.932   1.959  1.00  0.00    -0.550 OA
ENDBRANCH  11  12
ENDBRANCH  10  11
ENDBRANCH   9  10
ENDBRANCH   8   9
ENDBRANCH   7   8
ENDBRANCH   6   7
ENDBRANCH   5   6
ENDBRANCH   4   5
ENDBRANCH   3   4
ENDBRANCH   2   3
ENDBRANCH   1   2
BRANCH   1  15
ATOM     15  C   UNL     1       3.069  10.512   6.596  1.00  0.00     0.000 C 
BRANCH  15  16
ATOM     16  C   UNL     1       2.382   9.900   7.829  1.00  0.00     0.000 C 
BRANCH  16  17
ATOM     17  C   UNL     1       3.008  10.375   9.150  1.00  0.00     0.000 C 
BRANCH  17  18
ATOM     18  C   UNL     1       2.057  10.204  10.348  1.00  0.00    -0.000 C 
BRANCH  18  19
ATOM     19  C   UNL     1       1.410  11.531  10.801  1.00  0.00    -0.000 C 
BRANCH  19  20
ATOM     20  C   UNL     1       1.775  12.740   9.919  1.00  0.00    -0.000 C 
BRANCH  20  21
ATOM     21  C   UNL     1       0.706  13.125   8.880  1.00  0.00    -0.000 C 
BRANCH  21  22
ATOM     22  C   UNL     1      -0.635  12.382   9.072  1.00  0.00    -0.000 C 
BRANCH  22  23
ATOM     23  C   UNL     1      -1.790  13.060   8.323  1.00  0.00    -0.000 C 
BRANCH  23  24
ATOM     24  C   UNL     1      -3.148  12.508   8.780  1.00  0.00    -0.000 C 
BRANCH  24  25
ATOM     25  C   UNL     1      -4.010  12.020   7.606  1.00  0.00    -0.003 C 
ATOM     26  C   UNL     1      -3.889  12.911   6.370  1.00  0.00     0.004 C 
ENDBRANCH  24  25
ENDBRANCH  23  24
ENDBRANCH  22  23
ENDBRANCH  21  22
ENDBRANCH  20  21
ENDBRANCH  19  20
ENDBRANCH  18  19
ENDBRANCH  17  18
ENDBRANCH  16  17
ENDBRANCH  15  16
ENDBRANCH   1  15
TORSDOF 22
ENDMDL
