MODEL 1
REMARK VINA RESULT:     4.116      0.000      0.000
REMARK INTER + INTRA:           7.245
REMARK INTER:                   7.485
REMARK INTRA:                  -0.240
REMARK UNBOUND:                -0.240
REMARK SMILES CCCCCCCCCCCCCCCC(=O)[O-]
REMARK SMILES IDX 9 1 10 2 11 3 12 4 13 5 14 6 15 7 16 8 17 9 18 10 8 11 7 12
REMARK SMILES IDX 6 13 5 14 4 15 3 16 2 17 1 18
REMARK H PARENT
REMARK Flexibility Score: inf
ROOT
ATOM      1  C   UNL     1      10.172  13.908  -0.285  1.00  0.00     0.000 C 
ENDROOT
BRANCH   1   2
ATOM      2  C   UNL     1       9.689  14.367  -1.666  1.00  0.00     0.000 C 
BRANCH   2   3
ATOM      3  C   UNL     1      10.827  14.305  -2.696  1.00  0.00     0.000 C 
BRANCH   3   4
ATOM      4  C   UNL     1      10.365  14.678  -4.113  1.00  0.00     0.000 C 
BRANCH   4   5
ATOM      5  C   UNL     1      11.536  15.018  -5.048  1.00  0.00     0.000 C 
BRANCH   5   6
ATOM      6  C   UNL     1      11.267  16.322  -5.813  1.00  0.00     0.006 C 
BRANCH   6   7
ATOM      7  C   UNL     1      12.280  17.421  -5.461  1.00  0.00     0.053 C 
BRANCH   7   8
ATOM      8  C   UNL     1      13.384  17.500  -6.471  1.00  0.00     0.041 C 
ATOM      9  O   UNL     1      13.452  16.658  -7.405  1.00  0.00    -0.550 OA
ATOM     10  O   UNL     1      14.358  18.485  -6.360  1.00  0.00    -0.550 OA
ENDBRANCH   7   8
ENDBRANCH   6   7
ENDBRANCH   5   6
ENDBRANCH   4   5
ENDBRANCH   3   4
ENDBRANCH   2   3
ENDBRANCH   1   2
BRANCH   1  11
ATOM     11  C   UNL     1      11.652  13.496  -0.330  1.00  0.00     0.000 C 
BRANCH  11  12
ATOM     12  C   UNL     1      12.251  13.277   1.068  1.00  0.00    -0.000 C 
BRANCH  12  13
ATOM     13  C   UNL     1      12.528  14.601   1.806  1.00  0.00    -0.000 C 
BRANCH  13  14
ATOM     14  C   UNL     1      11.240  15.378   2.123  1.00  0.00    -0.000 C 
BRANCH  14  15
ATOM     15  C   UNL     1      11.071  16.624   1.237  1.00  0.00    -0.000 C 
BRANCH  15  16
ATOM     16  C   UNL     1       9.963  17.568   1.738  1.00  0.00    -0.000 C 
BRANCH  16  17
ATOM     17  C   UNL     1       8.643  16.875   2.124  1.00  0.00    -0.003 C 
ATOM     18  C   UNL     1       7.430  17.796   2.012  1.00  0.00     0.004 C 
ENDBRANCH  16  17
ENDBRANCH  15  16
ENDBRANCH  14  15
ENDBRANCH  13  14
ENDBRANCH  12  13
ENDBRANCH  11  12
ENDBRANCH   1  11
TORSDOF 14
ENDMDL
MODEL 2
REMARK VINA RESULT:     4.241      3.834      7.773
REMARK INTER + INTRA:           7.472
REMARK INTER:                   8.105
REMARK INTRA:                  -0.634
REMARK UNBOUND:                -0.240
REMARK SMILES CCCCCCCCCCCCCCCC(=O)[O-]
REMARK SMILES IDX 9 1 10 2 11 3 12 4 13 5 14 6 15 7 16 8 17 9 18 10 8 11 7 12
REMARK SMILES IDX 6 13 5 14 4 15 3 16 2 17 1 18
REMARK H PARENT
REMARK Flexibility Score: inf
ROOT
ATOM      1  C   UNL     1      11.145  14.339  -1.492  1.00  0.00     0.000 C 
ENDROOT
BRANCH   1   2
ATOM      2  C   UNL     1      11.432  12.919  -0.994  1.00  0.00     0.000 C 
BRANCH   2   3
ATOM      3  C   UNL     1      12.588  12.914   0.018  1.00  0.00     0.000 C 
BRANCH   3   4
ATOM      4  C   UNL     1      12.127  13.244   1.446  1.00  0.00     0.000 C 
BRANCH   4   5
ATOM      5  C   UNL     1      11.736  14.720   1.617  1.00  0.00     0.000 C 
BRANCH   5   6
ATOM      6  C   UNL     1      10.278  14.851   2.081  1.00  0.00     0.006 C 
BRANCH   6   7
ATOM      7  C   UNL     1       9.594  16.098   1.503  1.00  0.00     0.053 C 
BRANCH   7   8
ATOM      8  C   UNL     1       8.161  16.192   1.928  1.00  0.00     0.041 C 
ATOM      9  O   UNL     1       7.475  15.147   2.081  1.00  0.00    -0.550 OA
ATOM     10  O   UNL     1       7.573  17.436   2.123  1.00  0.00    -0.550 OA
ENDBRANCH   7   8
ENDBRANCH   6   7
ENDBRANCH   5   6
ENDBRANCH   4   5
ENDBRANCH   3   4
ENDBRANCH   2   3
ENDBRANCH   1   2
BRANCH   1  11
ATOM     11  C   UNL     1      10.184  14.318  -2.691  1.00  0.00     0.000 C 
BRANCH  11  12
ATOM     12  C   UNL     1      10.886  13.955  -4.009  1.00  0.00    -0.000 C 
BRANCH  12  13
ATOM     13  C   UNL     1      10.705  15.034  -5.092  1.00  0.00    -0.000 C 
BRANCH  13  14
ATOM     14  C   UNL     1      11.640  16.237  -4.885  1.00  0.00    -0.000 C 
BRANCH  14  15
ATOM     15  C   UNL     1      11.864  17.038  -6.179  1.00  0.00    -0.000 C 
BRANCH  15  16
ATOM     16  C   UNL     1      13.128  17.915  -6.128  1.00  0.00    -0.000 C 
BRANCH  16  17
ATOM     17  C   UNL     1      14.438  17.189  -6.483  1.00  0.00    -0.003 C 
ATOM     18  C   UNL     1      14.302  16.266  -7.692  1.00  0.00     0.004 C 
ENDBRANCH  16  17
ENDBRANCH  15  16
ENDBRANCH  14  15
ENDBRANCH  13  14
ENDBRANCH  12  13
ENDBRANCH  11  12
ENDBRANCH   1  11
TORSDOF 14
ENDMDL
MODEL 3
REMARK VINA RESULT:     5.396      3.383      7.903
REMARK INTER + INTRA:           9.572
REMARK INTER:                  10.037
REMARK INTRA:                  -0.466
REMARK UNBOUND:                -0.240
REMARK SMILES CCCCCCCCCCCCCCCC(=O)[O-]
REMARK SMILES IDX 9 1 10 2 11 3 12 4 13 5 14 6 15 7 16 8 17 9 18 10 8 11 7 12
REMARK SMILES IDX 6 13 5 14 4 15 3 16 2 17 1 18
REMARK H PARENT
REMARK Flexibility Score: inf
ROOT
ATOM      1  C   UNL     1      11.190  14.354  -2.854  1.00  0.00     0.000 C 
ENDROOT
BRANCH   1   2
ATOM      2  C   UNL     1       9.968  14.307  -1.931  1.00  0.00     0.000 C 
BRANCH   2   3
ATOM      3  C   UNL     1      10.330  13.690  -0.571  1.00  0.00     0.000 C 
BRANCH   3   4
ATOM      4  C   UNL     1      11.835  13.416  -0.425  1.00  0.00     0.000 C 
BRANCH   4   5
ATOM      5  C   UNL     1      12.237  13.065   1.016  1.00  0.00     0.000 C 
BRANCH   5   6
ATOM      6  C   UNL     1      11.424  13.886   2.027  1.00  0.00     0.006 C 
BRANCH   6   7
ATOM      7  C   UNL     1      11.915  15.337   2.125  1.00  0.00     0.053 C 
BRANCH   7   8
ATOM      8  C   UNL     1      10.782  16.313   2.036  1.00  0.00     0.041 C 
ATOM      9  O   UNL     1      11.008  17.552   2.063  1.00  0.00    -0.550 OA
ATOM     10  O   UNL     1       9.473  15.854   1.956  1.00  0.00    -0.550 OA
ENDBRANCH   7   8
ENDBRANCH   6   7
ENDBRANCH   5   6
ENDBRANCH   4   5
ENDBRANCH   3   4
ENDBRANCH   2   3
ENDBRANCH   1   2
BRANCH   1  11
ATOM     11  C   UNL     1      10.767  14.293  -4.330  1.00  0.00     0.000 C 
BRANCH  11  12
ATOM     12  C   UNL     1      10.623  15.685  -4.965  1.00  0.00    -0.000 C 
BRANCH  12  13
ATOM     13  C   UNL     1      11.885  16.118  -5.733  1.00  0.00    -0.000 C 
BRANCH  13  14
ATOM     14  C   UNL     1      11.953  17.640  -5.942  1.00  0.00    -0.000 C 
BRANCH  14  15
ATOM     15  C   UNL     1      13.395  18.146  -6.118  1.00  0.00    -0.000 C 
BRANCH  15  16
ATOM     16  C   UNL     1      14.383  17.021  -6.477  1.00  0.00    -0.000 C 
BRANCH  16  17
ATOM     17  C   UNL     1      14.184  16.401  -7.872  1.00  0.00    -0.003 C 
ATOM     18  C   UNL     1      15.337  15.491  -8.291  1.00  0.00     0.004 C 
ENDBRANCH  16  17
ENDBRANCH  15  16
ENDBRANCH  14  15
ENDBRANCH  13  14
ENDBRANCH  12  13
ENDBRANCH  11  12
ENDBRANCH   1  11
TORSDOF 14
ENDMDL
MODEL 4
REMARK VINA RESULT:     5.626      1.410      2.360
REMARK INTER + INTRA:           9.990
REMARK INTER:                  10.954
REMARK INTRA:                  -0.964
REMARK UNBOUND:                -0.240
REMARK SMILES CCCCCCCCCCCCCCCC(=O)[O-]
REMARK SMILES IDX 9 1 10 2 11 3 12 4 13 5 14 6 15 7 16 8 17 9 18 10 8 11 7 12
REMARK SMILES IDX 6 13 5 14 4 15 3 16 2 17 1 18
REMARK H PARENT
REMARK Flexibility Score: inf
ROOT
ATOM      1  C   UNL     1      11.037  14.708  -2.289  1.00  0.00     0.000 C 
ENDROOT
BRANCH   1   2
ATOM      2  C   UNL     1      11.051  14.363  -3.783  1.00  0.00     0.000 C 
BRANCH   2   3
ATOM      3  C   UNL     1      10.673  15.585  -4.633  1.00  0.00     0.000 C 
BRANCH   3   4
ATOM      4  C   UNL     1      11.739  15.929  -5.685  1.00  0.00     0.000 C 
BRANCH   4   5
ATOM      5  C   UNL     1      12.629  17.109  -5.263  1.00  0.00     0.000 C 
BRANCH   5   6
ATOM      6  C   UNL     1      13.653  17.442  -6.358  1.00  0.00     0.006 C 
BRANCH   6   7
ATOM      7  C   UNL     1      13.420  16.627  -7.638  1.00  0.00     0.053 C 
BRANCH   7   8
ATOM      8  C   UNL     1      14.665  15.920  -8.080  1.00  0.00     0.041 C 
ATOM      9  O   UNL     1      15.400  16.426  -8.968  1.00  0.00    -0.550 OA
ATOM     10  O   UNL     1      14.995  14.686  -7.534  1.00  0.00    -0.550 OA
ENDBRANCH   7   8
ENDBRANCH   6   7
ENDBRANCH   5   6
ENDBRANCH   4   5
ENDBRANCH   3   4
ENDBRANCH   2   3
ENDBRANCH   1   2
BRANCH   1  11
ATOM     11  C   UNL     1      11.032  13.434  -1.431  1.00  0.00     0.000 C 
BRANCH  11  12
ATOM     12  C   UNL     1      12.299  13.290  -0.572  1.00  0.00    -0.000 C 
BRANCH  12  13
ATOM     13  C   UNL     1      12.034  13.553   0.922  1.00  0.00    -0.000 C 
BRANCH  13  14
ATOM     14  C   UNL     1      10.537  13.502   1.271  1.00  0.00    -0.000 C 
BRANCH  14  15
ATOM     15  C   UNL     1      10.086  14.715   2.102  1.00  0.00    -0.000 C 
BRANCH  15  16
ATOM     16  C   UNL     1      11.129  15.847   2.122  1.00  0.00    -0.000 C 
BRANCH  16  17
ATOM     17  C   UNL     1      10.544  17.271   2.124  1.00  0.00    -0.003 C 
ATOM     18  C   UNL     1       9.197  17.365   1.410  1.00  0.00     0.004 C 
ENDBRANCH  16  17
ENDBRANCH  15  16
ENDBRANCH  14  15
ENDBRANCH  13  14
ENDBRANCH  12  13
ENDBRANCH  11  12
ENDBRANCH   1  11
TORSDOF 14
ENDMDL
MODEL 5
REMARK VINA RESULT:     6.862      6.782     12.344
REMARK INTER + INTRA:          12.238
REMARK INTER:                  13.328
REMARK INTRA:                  -1.091
REMARK UNBOUND:                -0.240
REMARK SMILES CCCCCCCCCCCCCCCC(=O)[O-]
REMARK SMILES IDX 9 1 10 2 11 3 12 4 13 5 14 6 15 7 16 8 17 9 18 10 8 11 7 12
REMARK SMILES IDX 6 13 5 14 4 15 3 16 2 17 1 18
REMARK H PARENT
REMARK Flexibility Score: inf
ROOT
ATOM      1  C   UNL     1      16.519  14.588 -13.286  1.00  0.00     0.000 C 
ENDROOT
BRANCH   1   2
ATOM      2  C   UNL     1      15.401  15.331 -12.547  1.00  0.00     0.000 C 
BRANCH   2   3
ATOM      3  C   UNL     1      14.896  14.514 -11.348  1.00  0.00     0.000 C 
BRANCH   3   4
ATOM      4  C   UNL     1      14.292  15.394 -10.242  1.00  0.00     0.000 C 
BRANCH   4   5
ATOM      5  C   UNL     1      15.355  15.950  -9.282  1.00  0.00     0.000 C 
BRANCH   5   6
ATOM      6  C   UNL     1      14.865  15.889  -7.827  1.00  0.00     0.006 C 
BRANCH   6   7
ATOM      7  C   UNL     1      13.492  16.553  -7.649  1.00  0.00     0.053 C 
BRANCH   7   8
ATOM      8  C   UNL     1      13.461  17.446  -6.447  1.00  0.00     0.041 C 
ATOM      9  O   UNL     1      14.419  18.230  -6.213  1.00  0.00    -0.550 OA
ATOM     10  O   UNL     1      12.388  17.388  -5.566  1.00  0.00    -0.550 OA
ENDBRANCH   7   8
ENDBRANCH   6   7
ENDBRANCH   5   6
ENDBRANCH   4   5
ENDBRANCH   3   4
ENDBRANCH   2   3
ENDBRANCH   1   2
BRANCH   1  11
ATOM     11  C   UNL     1      17.806  15.427 -13.325  1.00  0.00     0.000 C 
BRANCH  11  12
ATOM     12  C   UNL     1      17.545  16.926 -13.107  1.00  0.00    -0.000 C 
BRANCH  12  13
ATOM     13  C   UNL     1      18.665  17.610 -12.302  1.00  0.00    -0.000 C 
BRANCH  13  14
ATOM     14  C   UNL     1      18.134  18.331 -11.052  1.00  0.00    -0.000 C 
BRANCH  14  15
ATOM     15  C   UNL     1      17.681  19.770 -11.350  1.00  0.00    -0.000 C 
BRANCH  15  16
ATOM     16  C   UNL     1      18.309  20.340 -12.635  1.00  0.00    -0.000 C 
BRANCH  16  17
ATOM     17  C   UNL     1      19.381  21.422 -12.411  1.00  0.00    -0.003 C 
ATOM     18  C   UNL     1      20.803  20.866 -12.418  1.00  0.00     0.004 C 
ENDBRANCH  16  17
ENDBRANCH  15  16
ENDBRANCH  14  15
ENDBRANCH  13  14
ENDBRANCH  12  13
ENDBRANCH  11  12
ENDBRANCH   1  11
TORSDOF 14
ENDMDL
MODEL 6
REMARK VINA RESULT:     6.922      6.451     10.763
REMARK INTER + INTRA:          12.348
REMARK INTER:                  13.346
REMARK INTRA:                  -0.998
REMARK UNBOUND:                -0.240
REMARK SMILES CCCCCCCCCCCCCCCC(=O)[O-]
REMARK SMILES IDX 9 1 10 2 11 3 12 4 13 5 14 6 15 7 16 8 17 9 18 10 8 11 7 12
REMARK SMILES IDX 6 13 5 14 4 15 3 16 2 17 1 18
REMARK H PARENT
REMARK Flexibility Score: inf
ROOT
ATOM      1  C   UNL     1      15.444  15.217 -12.897  1.00  0.00     0.000 C 
ENDROOT
BRANCH   1   2
ATOM      2  C   UNL     1      16.730  14.643 -13.501  1.00  0.00     0.000 C 
BRANCH   2   3
ATOM      3  C   UNL     1      17.924  15.574 -13.238  1.00  0.00     0.000 C 
BRANCH   3   4
ATOM      4  C   UNL     1      17.492  16.998 -12.857  1.00  0.00     0.000 C 
BRANCH   4   5
ATOM      5  C   UNL     1      18.485  17.684 -11.904  1.00  0.00     0.000 C 
BRANCH   5   6
ATOM      6  C   UNL     1      17.987  19.080 -11.506  1.00  0.00     0.006 C 
BRANCH   6   7
ATOM      7  C   UNL     1      18.096  20.087 -12.660  1.00  0.00     0.053 C 
BRANCH   7   8
ATOM      8  C   UNL     1      19.267  21.004 -12.487  1.00  0.00     0.041 C 
ATOM      9  O   UNL     1      19.087  22.240 -12.324  1.00  0.00    -0.550 OA
ATOM     10  O   UNL     1      20.560  20.498 -12.540  1.00  0.00    -0.550 OA
ENDBRANCH   7   8
ENDBRANCH   6   7
ENDBRANCH   5   6
ENDBRANCH   4   5
ENDBRANCH   3   4
ENDBRANCH   2   3
ENDBRANCH   1   2
BRANCH   1  11
ATOM     11  C   UNL     1      15.082  14.497 -11.588  1.00  0.00     0.000 C 
BRANCH  11  12
ATOM     12  C   UNL     1      14.468  15.441 -10.542  1.00  0.00    -0.000 C 
BRANCH  12  13
ATOM     13  C   UNL     1      15.497  15.920  -9.502  1.00  0.00    -0.000 C 
BRANCH  13  14
ATOM     14  C   UNL     1      15.078  15.585  -8.061  1.00  0.00    -0.000 C 
BRANCH  14  15
ATOM     15  C   UNL     1      13.777  16.295  -7.647  1.00  0.00    -0.000 C 
BRANCH  15  16
ATOM     16  C   UNL     1      14.031  17.591  -6.855  1.00  0.00    -0.000 C 
BRANCH  16  17
ATOM     17  C   UNL     1      12.989  17.902  -5.765  1.00  0.00    -0.003 C 
ATOM     18  C   UNL     1      11.839  16.896  -5.733  1.00  0.00     0.004 C 
ENDBRANCH  16  17
ENDBRANCH  15  16
ENDBRANCH  14  15
ENDBRANCH  13  14
ENDBRANCH  12  13
ENDBRANCH  11  12
ENDBRANCH   1  11
TORSDOF 14
ENDMDL
