MODEL 1
REMARK VINA RESULT:    -2.765      0.000      0.000
REMARK INTER + INTRA:          -6.102
REMARK INTER:                  -4.704
REMARK INTRA:                  -1.398
REMARK UNBOUND:                -1.398
REMARK SMILES CCCCCCCCCCCCCC(=O)[O-]
REMARK SMILES IDX 8 1 9 2 10 3 11 4 12 5 13 6 14 7 15 8 16 9 7 10 6 11 5 12
REMARK SMILES IDX 4 13 3 14 2 15 1 16
REMARK H PARENT
REMARK Flexibility Score: inf
ROOT
ATOM      1  C   UNL     1     -10.019 -19.217  20.074  1.00  0.00     0.000 C 
ENDROOT
BRANCH   1   2
ATOM      2  C   UNL     1     -11.036 -19.782  19.070  1.00  0.00     0.000 C 
BRANCH   2   3
ATOM      3  C   UNL     1     -10.855 -21.298  18.901  1.00  0.00     0.000 C 
BRANCH   3   4
ATOM      4  C   UNL     1     -10.213 -21.671  17.556  1.00  0.00     0.000 C 
BRANCH   4   5
ATOM      5  C   UNL     1      -9.050 -22.663  17.708  1.00  0.00     0.006 C 
BRANCH   5   6
ATOM      6  C   UNL     1      -7.793 -21.960  18.229  1.00  0.00     0.053 C 
BRANCH   6   7
ATOM      7  C   UNL     1      -6.648 -22.167  17.287  1.00  0.00     0.041 C 
ATOM      8  O   UNL     1      -5.508 -22.459  17.731  1.00  0.00    -0.550 OA
ATOM      9  O   UNL     1      -6.832 -21.990  15.922  1.00  0.00    -0.550 OA
ENDBRANCH   6   7
ENDBRANCH   5   6
ENDBRANCH   4   5
ENDBRANCH   3   4
ENDBRANCH   2   3
ENDBRANCH   1   2
BRANCH   1  10
ATOM     10  C   UNL     1     -10.622 -18.139  20.993  1.00  0.00     0.000 C 
BRANCH  10  11
ATOM     11  C   UNL     1     -10.487 -18.421  22.503  1.00  0.00    -0.000 C 
BRANCH  11  12
ATOM     12  C   UNL     1      -9.778 -19.742  22.862  1.00  0.00    -0.000 C 
BRANCH  12  13
ATOM     13  C   UNL     1     -10.717 -20.881  23.300  1.00  0.00    -0.000 C 
BRANCH  13  14
ATOM     14  C   UNL     1     -10.002 -22.240  23.395  1.00  0.00    -0.000 C 
BRANCH  14  15
ATOM     15  C   UNL     1      -9.672 -22.829  22.016  1.00  0.00    -0.003 C 
ATOM     16  C   UNL     1      -8.173 -23.049  21.812  1.00  0.00     0.004 C 
ENDBRANCH  14  15
ENDBRANCH  13  14
ENDBRANCH  12  13
ENDBRANCH  11  12
ENDBRANCH  10  11
ENDBRANCH   1  10
TORSDOF 12
ENDMDL
MODEL 2
REMARK VINA RESULT:    -2.493      3.323      6.338
REMARK INTER + INTRA:          -5.640
REMARK INTER:                  -4.873
REMARK INTRA:                  -0.767
REMARK UNBOUND:                -1.398
REMARK SMILES CCCCCCCCCCCCCC(=O)[O-]
REMARK SMILES IDX 8 1 9 2 10 3 11 4 12 5 13 6 14 7 15 8 16 9 7 10 6 11 5 12
REMARK SMILES IDX 4 13 3 14 2 15 1 16
REMARK H PARENT
REMARK Flexibility Score: inf
ROOT
ATOM      1  C   UNL     1      -8.051 -22.943  21.051  1.00  0.00     0.000 C 
ENDROOT
BRANCH   1   2
ATOM      2  C   UNL     1      -8.504 -22.831  22.515  1.00  0.00     0.000 C 
BRANCH   2   3
ATOM      3  C   UNL     1     -10.027 -22.995  22.631  1.00  0.00     0.000 C 
BRANCH   3   4
ATOM      4  C   UNL     1     -10.713 -21.749  23.212  1.00  0.00     0.000 C 
BRANCH   4   5
ATOM      5  C   UNL     1     -10.583 -20.520  22.299  1.00  0.00     0.006 C 
BRANCH   5   6
ATOM      6  C   UNL     1      -9.419 -19.628  22.742  1.00  0.00     0.053 C 
BRANCH   6   7
ATOM      7  C   UNL     1      -9.794 -18.184  22.628  1.00  0.00     0.041 C 
ATOM      8  O   UNL     1     -10.800 -17.841  21.954  1.00  0.00    -0.550 OA
ATOM      9  O   UNL     1      -9.002 -17.212  23.227  1.00  0.00    -0.550 OA
ENDBRANCH   6   7
ENDBRANCH   5   6
ENDBRANCH   4   5
ENDBRANCH   3   4
ENDBRANCH   2   3
ENDBRANCH   1   2
BRANCH   1  10
ATOM     10  C   UNL     1      -9.221 -22.842  20.054  1.00  0.00     0.000 C 
BRANCH  10  11
ATOM     11  C   UNL     1      -8.906 -22.073  18.756  1.00  0.00    -0.000 C 
BRANCH  11  12
ATOM     12  C   UNL     1      -9.800 -20.845  18.488  1.00  0.00    -0.000 C 
BRANCH  12  13
ATOM     13  C   UNL     1     -10.927 -21.076  17.466  1.00  0.00    -0.000 C 
BRANCH  13  14
ATOM     14  C   UNL     1     -11.125 -19.882  16.517  1.00  0.00    -0.000 C 
BRANCH  14  15
ATOM     15  C   UNL     1     -11.124 -20.299  15.039  1.00  0.00    -0.003 C 
ATOM     16  C   UNL     1      -9.780 -20.047  14.356  1.00  0.00     0.004 C 
ENDBRANCH  14  15
ENDBRANCH  13  14
ENDBRANCH  12  13
ENDBRANCH  11  12
ENDBRANCH  10  11
ENDBRANCH   1  10
TORSDOF 12
ENDMDL
MODEL 3
REMARK VINA RESULT:    -2.338      1.160      2.058
REMARK INTER + INTRA:          -5.375
REMARK INTER:                  -4.925
REMARK INTRA:                  -0.450
REMARK UNBOUND:                -1.398
REMARK SMILES CCCCCCCCCCCCCC(=O)[O-]
REMARK SMILES IDX 8 1 9 2 10 3 11 4 12 5 13 6 14 7 15 8 16 9 7 10 6 11 5 12
REMARK SMILES IDX 4 13 3 14 2 15 1 16
REMARK H PARENT
REMARK Flexibility Score: inf
ROOT
ATOM      1  C   UNL     1     -10.983 -20.097  18.568  1.00  0.00     0.000 C 
ENDROOT
BRANCH   1   2
ATOM      2  C   UNL     1     -10.665 -21.595  18.442  1.00  0.00     0.000 C 
BRANCH   2   3
ATOM      3  C   UNL     1      -9.455 -21.973  19.310  1.00  0.00     0.000 C 
BRANCH   3   4
ATOM      4  C   UNL     1      -8.553 -23.023  18.644  1.00  0.00     0.000 C 
BRANCH   4   5
ATOM      5  C   UNL     1      -7.169 -22.467  18.273  1.00  0.00     0.006 C 
BRANCH   5   6
ATOM      6  C   UNL     1      -6.642 -23.119  16.991  1.00  0.00     0.053 C 
BRANCH   6   7
ATOM      7  C   UNL     1      -5.559 -22.283  16.386  1.00  0.00     0.041 C 
ATOM      8  O   UNL     1      -5.848 -21.248  15.730  1.00  0.00    -0.550 OA
ATOM      9  O   UNL     1      -4.231 -22.673  16.506  1.00  0.00    -0.550 OA
ENDBRANCH   6   7
ENDBRANCH   5   6
ENDBRANCH   4   5
ENDBRANCH   3   4
ENDBRANCH   2   3
ENDBRANCH   1   2
BRANCH   1  10
ATOM     10  C   UNL     1     -11.109 -19.634  20.031  1.00  0.00     0.000 C 
BRANCH  10  11
ATOM     11  C   UNL     1     -10.121 -18.528  20.451  1.00  0.00    -0.000 C 
BRANCH  11  12
ATOM     12  C   UNL     1     -10.305 -17.995  21.887  1.00  0.00    -0.000 C 
BRANCH  12  13
ATOM     13  C   UNL     1     -10.400 -19.083  22.972  1.00  0.00    -0.000 C 
BRANCH  13  14
ATOM     14  C   UNL     1      -9.588 -20.342  22.626  1.00  0.00    -0.000 C 
BRANCH  14  15
ATOM     15  C   UNL     1     -10.060 -21.579  23.405  1.00  0.00    -0.003 C 
ATOM     16  C   UNL     1      -8.905 -22.493  23.815  1.00  0.00     0.004 C 
ENDBRANCH  14  15
ENDBRANCH  13  14
ENDBRANCH  12  13
ENDBRANCH  11  12
ENDBRANCH  10  11
ENDBRANCH   1  10
TORSDOF 12
ENDMDL
MODEL 4
REMARK VINA RESULT:    -2.131      2.999      6.449
REMARK INTER + INTRA:          -5.024
REMARK INTER:                  -4.267
REMARK INTRA:                  -0.757
REMARK UNBOUND:                -1.398
REMARK SMILES CCCCCCCCCCCCCC(=O)[O-]
REMARK SMILES IDX 8 1 9 2 10 3 11 4 12 5 13 6 14 7 15 8 16 9 7 10 6 11 5 12
REMARK SMILES IDX 4 13 3 14 2 15 1 16
REMARK H PARENT
REMARK Flexibility Score: inf
ROOT
ATOM      1  C   UNL     1      -7.777 -22.919  20.852  1.00  0.00     0.000 C 
ENDROOT
BRANCH   1   2
ATOM      2  C   UNL     1      -8.512 -23.080  22.191  1.00  0.00     0.000 C 
BRANCH   2   3
ATOM      3  C   UNL     1      -9.823 -22.280  22.196  1.00  0.00     0.000 C 
BRANCH   3   4
ATOM      4  C   UNL     1      -9.898 -21.275  23.356  1.00  0.00     0.000 C 
BRANCH   4   5
ATOM      5  C   UNL     1     -10.890 -20.133  23.088  1.00  0.00     0.006 C 
BRANCH   5   6
ATOM      6  C   UNL     1     -10.941 -19.790  21.597  1.00  0.00     0.053 C 
BRANCH   6   7
ATOM      7  C   UNL     1     -10.365 -18.430  21.352  1.00  0.00     0.041 C 
ATOM      8  O   UNL     1      -9.629 -17.888  22.218  1.00  0.00    -0.550 OA
ATOM      9  O   UNL     1     -10.682 -17.741  20.189  1.00  0.00    -0.550 OA
ENDBRANCH   6   7
ENDBRANCH   5   6
ENDBRANCH   4   5
ENDBRANCH   3   4
ENDBRANCH   2   3
ENDBRANCH   1   2
BRANCH   1  10
ATOM     10  C   UNL     1      -8.737 -22.789  19.655  1.00  0.00     0.000 C 
BRANCH  10  11
ATOM     11  C   UNL     1      -8.160 -22.043  18.436  1.00  0.00    -0.000 C 
BRANCH  11  12
ATOM     12  C   UNL     1      -8.029 -22.887  17.152  1.00  0.00    -0.000 C 
BRANCH  12  13
ATOM     13  C   UNL     1      -6.793 -22.567  16.291  1.00  0.00    -0.000 C 
BRANCH  13  14
ATOM     14  C   UNL     1      -5.493 -22.521  17.111  1.00  0.00    -0.000 C 
BRANCH  14  15
ATOM     15  C   UNL     1      -4.293 -22.036  16.283  1.00  0.00    -0.003 C 
ATOM     16  C   UNL     1      -3.217 -23.110  16.120  1.00  0.00     0.004 C 
ENDBRANCH  14  15
ENDBRANCH  13  14
ENDBRANCH  12  13
ENDBRANCH  11  12
ENDBRANCH  10  11
ENDBRANCH   1  10
TORSDOF 12
ENDMDL
MODEL 5
REMARK VINA RESULT:    -2.088      2.996      6.245
REMARK INTER + INTRA:          -4.950
REMARK INTER:                  -3.997
REMARK INTRA:                  -0.953
REMARK UNBOUND:                -1.398
REMARK SMILES CCCCCCCCCCCCCC(=O)[O-]
REMARK SMILES IDX 8 1 9 2 10 3 11 4 12 5 13 6 14 7 15 8 16 9 7 10 6 11 5 12
REMARK SMILES IDX 4 13 3 14 2 15 1 16
REMARK H PARENT
REMARK Flexibility Score: inf
ROOT
ATOM      1  C   UNL     1      -7.030 -22.170  18.558  1.00  0.00     0.000 C 
ENDROOT
BRANCH   1   2
ATOM      2  C   UNL     1      -6.881 -23.029  19.823  1.00  0.00     0.000 C 
BRANCH   2   3
ATOM      3  C   UNL     1      -8.214 -23.122  20.582  1.00  0.00     0.000 C 
BRANCH   3   4
ATOM      4  C   UNL     1      -8.174 -22.402  21.939  1.00  0.00     0.000 C 
BRANCH   4   5
ATOM      5  C   UNL     1      -9.565 -21.961  22.418  1.00  0.00     0.006 C 
BRANCH   5   6
ATOM      6  C   UNL     1     -10.328 -21.243  21.301  1.00  0.00     0.053 C 
BRANCH   6   7
ATOM      7  C   UNL     1     -10.240 -19.760  21.476  1.00  0.00     0.041 C 
ATOM      8  O   UNL     1     -10.418 -18.994  20.493  1.00  0.00    -0.550 OA
ATOM      9  O   UNL     1      -9.913 -19.225  22.715  1.00  0.00    -0.550 OA
ENDBRANCH   6   7
ENDBRANCH   5   6
ENDBRANCH   4   5
ENDBRANCH   3   4
ENDBRANCH   2   3
ENDBRANCH   1   2
BRANCH   1  10
ATOM     10  C   UNL     1      -7.491 -22.982  17.335  1.00  0.00     0.000 C 
BRANCH  10  11
ATOM     11  C   UNL     1      -9.020 -23.075  17.154  1.00  0.00    -0.000 C 
BRANCH  11  12
ATOM     12  C   UNL     1      -9.824 -21.906  17.756  1.00  0.00    -0.000 C 
BRANCH  12  13
ATOM     13  C   UNL     1     -11.113 -21.548  16.995  1.00  0.00    -0.000 C 
BRANCH  13  14
ATOM     14  C   UNL     1     -11.052 -20.158  16.340  1.00  0.00    -0.000 C 
BRANCH  14  15
ATOM     15  C   UNL     1     -11.123 -20.225  14.808  1.00  0.00    -0.003 C 
ATOM     16  C   UNL     1      -9.749 -20.112  14.148  1.00  0.00     0.004 C 
ENDBRANCH  14  15
ENDBRANCH  13  14
ENDBRANCH  12  13
ENDBRANCH  11  12
ENDBRANCH  10  11
ENDBRANCH   1  10
TORSDOF 12
ENDMDL
MODEL 6
REMARK VINA RESULT:    -1.873      3.203      6.524
REMARK INTER + INTRA:          -4.584
REMARK INTER:                  -3.603
REMARK INTRA:                  -0.981
REMARK UNBOUND:                -1.398
REMARK SMILES CCCCCCCCCCCCCC(=O)[O-]
REMARK SMILES IDX 8 1 9 2 10 3 11 4 12 5 13 6 14 7 15 8 16 9 7 10 6 11 5 12
REMARK SMILES IDX 4 13 3 14 2 15 1 16
REMARK H PARENT
REMARK Flexibility Score: inf
ROOT
ATOM      1  C   UNL     1      -8.284 -21.967  18.738  1.00  0.00     0.000 C 
ENDROOT
BRANCH   1   2
ATOM      2  C   UNL     1      -9.429 -22.914  19.128  1.00  0.00     0.000 C 
BRANCH   2   3
ATOM      3  C   UNL     1     -10.349 -22.260  20.170  1.00  0.00     0.000 C 
BRANCH   3   4
ATOM      4  C   UNL     1      -9.692 -22.151  21.554  1.00  0.00     0.000 C 
BRANCH   4   5
ATOM      5  C   UNL     1     -10.044 -20.841  22.276  1.00  0.00     0.006 C 
BRANCH   5   6
ATOM      6  C   UNL     1     -10.594 -19.803  21.293  1.00  0.00     0.053 C 
BRANCH   6   7
ATOM      7  C   UNL     1     -10.159 -18.426  21.687  1.00  0.00     0.041 C 
ATOM      8  O   UNL     1     -10.324 -17.460  20.898  1.00  0.00    -0.550 OA
ATOM      9  O   UNL     1      -9.527 -18.220  22.906  1.00  0.00    -0.550 OA
ENDBRANCH   6   7
ENDBRANCH   5   6
ENDBRANCH   4   5
ENDBRANCH   3   4
ENDBRANCH   2   3
ENDBRANCH   1   2
BRANCH   1  10
ATOM     10  C   UNL     1      -6.974 -22.712  18.421  1.00  0.00     0.000 C 
BRANCH  10  11
ATOM     11  C   UNL     1      -6.650 -22.848  16.920  1.00  0.00    -0.000 C 
BRANCH  11  12
ATOM     12  C   UNL     1      -7.036 -21.633  16.053  1.00  0.00    -0.000 C 
BRANCH  12  13
ATOM     13  C   UNL     1      -8.397 -21.751  15.343  1.00  0.00    -0.000 C 
BRANCH  13  14
ATOM     14  C   UNL     1      -8.817 -20.450  14.639  1.00  0.00    -0.000 C 
BRANCH  14  15
ATOM     15  C   UNL     1     -10.271 -20.061  14.940  1.00  0.00    -0.003 C 
ATOM     16  C   UNL     1     -10.732 -20.525  16.322  1.00  0.00     0.004 C 
ENDBRANCH  14  15
ENDBRANCH  13  14
ENDBRANCH  12  13
ENDBRANCH  11  12
ENDBRANCH  10  11
ENDBRANCH   1  10
TORSDOF 12
ENDMDL
MODEL 7
REMARK VINA RESULT:    -1.862      1.659      3.457
REMARK INTER + INTRA:          -4.566
REMARK INTER:                  -4.101
REMARK INTRA:                  -0.465
REMARK UNBOUND:                -1.398
REMARK SMILES CCCCCCCCCCCCCC(=O)[O-]
REMARK SMILES IDX 8 1 9 2 10 3 11 4 12 5 13 6 14 7 15 8 16 9 7 10 6 11 5 12
REMARK SMILES IDX 4 13 3 14 2 15 1 16
REMARK H PARENT
REMARK Flexibility Score: inf
ROOT
ATOM      1  C   UNL     1      -9.138 -21.635  19.445  1.00  0.00     0.000 C 
ENDROOT
BRANCH   1   2
ATOM      2  C   UNL     1      -9.968 -21.860  18.172  1.00  0.00     0.000 C 
BRANCH   2   3
ATOM      3  C   UNL     1      -9.056 -22.019  16.945  1.00  0.00     0.000 C 
BRANCH   3   4
ATOM      4  C   UNL     1      -7.740 -22.741  17.276  1.00  0.00     0.000 C 
BRANCH   4   5
ATOM      5  C   UNL     1      -6.655 -22.514  16.212  1.00  0.00     0.006 C 
BRANCH   5   6
ATOM      6  C   UNL     1      -5.266 -22.843  16.767  1.00  0.00     0.053 C 
BRANCH   6   7
ATOM      7  C   UNL     1      -4.206 -22.151  15.969  1.00  0.00     0.041 C 
ATOM      8  O   UNL     1      -4.500 -21.160  15.250  1.00  0.00    -0.550 OA
ATOM      9  O   UNL     1      -2.903 -22.631  15.981  1.00  0.00    -0.550 OA
ENDBRANCH   6   7
ENDBRANCH   5   6
ENDBRANCH   4   5
ENDBRANCH   3   4
ENDBRANCH   2   3
ENDBRANCH   1   2
BRANCH   1  10
ATOM     10  C   UNL     1      -9.508 -22.609  20.579  1.00  0.00     0.000 C 
BRANCH  10  11
ATOM     11  C   UNL     1     -10.829 -22.289  21.306  1.00  0.00    -0.000 C 
BRANCH  11  12
ATOM     12  C   UNL     1     -11.097 -20.790  21.550  1.00  0.00    -0.000 C 
BRANCH  12  13
ATOM     13  C   UNL     1     -10.607 -20.259  22.909  1.00  0.00    -0.000 C 
BRANCH  13  14
ATOM     14  C   UNL     1     -10.765 -18.735  23.045  1.00  0.00    -0.000 C 
BRANCH  14  15
ATOM     15  C   UNL     1      -9.802 -17.960  22.134  1.00  0.00    -0.003 C 
ATOM     16  C   UNL     1     -10.343 -17.789  20.714  1.00  0.00     0.004 C 
ENDBRANCH  14  15
ENDBRANCH  13  14
ENDBRANCH  12  13
ENDBRANCH  11  12
ENDBRANCH  10  11
ENDBRANCH   1  10
TORSDOF 12
ENDMDL
MODEL 8
REMARK VINA RESULT:    -1.710      3.345      6.464
REMARK INTER + INTRA:          -4.306
REMARK INTER:                  -3.442
REMARK INTRA:                  -0.864
REMARK UNBOUND:                -1.398
REMARK SMILES CCCCCCCCCCCCCC(=O)[O-]
REMARK SMILES IDX 8 1 9 2 10 3 11 4 12 5 13 6 14 7 15 8 16 9 7 10 6 11 5 12
REMARK SMILES IDX 4 13 3 14 2 15 1 16
REMARK H PARENT
REMARK Flexibility Score: inf
ROOT
ATOM      1  C   UNL     1      -6.414 -21.870  17.411  1.00  0.00     0.000 C 
ENDROOT
BRANCH   1   2
ATOM      2  C   UNL     1      -6.017 -23.048  18.315  1.00  0.00     0.000 C 
BRANCH   2   3
ATOM      3  C   UNL     1      -6.932 -23.125  19.547  1.00  0.00     0.000 C 
BRANCH   3   4
ATOM      4  C   UNL     1      -8.396 -22.790  19.219  1.00  0.00     0.000 C 
BRANCH   4   5
ATOM      5  C   UNL     1      -9.307 -22.839  20.455  1.00  0.00     0.006 C 
BRANCH   5   6
ATOM      6  C   UNL     1      -8.489 -23.065  21.730  1.00  0.00     0.053 C 
BRANCH   6   7
ATOM      7  C   UNL     1      -9.238 -22.568  22.927  1.00  0.00     0.041 C 
ATOM      8  O   UNL     1      -8.616 -22.238  23.970  1.00  0.00    -0.550 OA
ATOM      9  O   UNL     1     -10.625 -22.517  22.907  1.00  0.00    -0.550 OA
ENDBRANCH   6   7
ENDBRANCH   5   6
ENDBRANCH   4   5
ENDBRANCH   3   4
ENDBRANCH   2   3
ENDBRANCH   1   2
BRANCH   1  10
ATOM     10  C   UNL     1      -6.985 -22.324  16.056  1.00  0.00     0.000 C 
BRANCH  10  11
ATOM     11  C   UNL     1      -8.398 -21.795  15.734  1.00  0.00    -0.000 C 
BRANCH  11  12
ATOM     12  C   UNL     1      -8.451 -20.657  14.694  1.00  0.00    -0.000 C 
BRANCH  12  13
ATOM     13  C   UNL     1      -9.862 -20.123  14.392  1.00  0.00    -0.000 C 
BRANCH  13  14
ATOM     14  C   UNL     1     -10.909 -20.593  15.416  1.00  0.00    -0.000 C 
BRANCH  14  15
ATOM     15  C   UNL     1     -11.049 -19.626  16.601  1.00  0.00    -0.003 C 
ATOM     16  C   UNL     1     -11.097 -20.348  17.948  1.00  0.00     0.004 C 
ENDBRANCH  14  15
ENDBRANCH  13  14
ENDBRANCH  12  13
ENDBRANCH  11  12
ENDBRANCH  10  11
ENDBRANCH   1  10
TORSDOF 12
ENDMDL
