MODEL 1
REMARK VINA RESULT:    -3.641      0.000      0.000
REMARK INTER + INTRA:          -4.970
REMARK INTER:                  -4.705
REMARK INTRA:                  -0.264
REMARK UNBOUND:                -0.264
REMARK SMILES CCCCCCC(=O)[O-]
REMARK SMILES IDX 5 1 6 2 7 3 8 4 9 5 4 6 3 7 2 8 1 9
REMARK H PARENT
REMARK Flexibility Score: inf
ROOT
ATOM      1  C   UNL     1      -1.731  -2.155   0.693  1.00  0.00     0.006 C 
ENDROOT
BRANCH   1   2
ATOM      2  C   UNL     1      -2.590  -3.029   1.616  1.00  0.00     0.053 C 
BRANCH   2   3
ATOM      3  C   UNL     1      -3.951  -2.441   1.829  1.00  0.00     0.041 C 
ATOM      4  O   UNL     1      -4.082  -1.354   2.450  1.00  0.00    -0.550 OA
ATOM      5  O   UNL     1      -5.072  -3.078   1.312  1.00  0.00    -0.550 OA
ENDBRANCH   2   3
ENDBRANCH   1   2
BRANCH   1   6
ATOM      6  C   UNL     1      -0.263  -2.608   0.665  1.00  0.00     0.000 C 
BRANCH   6   7
ATOM      7  C   UNL     1      -0.077  -3.918   1.439  1.00  0.00    -0.000 C 
BRANCH   7   8
ATOM      8  C   UNL     1       0.604  -4.980   0.568  1.00  0.00    -0.003 C 
ATOM      9  C   UNL     1      -0.248  -5.323  -0.651  1.00  0.00     0.004 C 
ENDBRANCH   7   8
ENDBRANCH   6   7
ENDBRANCH   1   6
TORSDOF 5
ENDMDL
MODEL 2
REMARK VINA RESULT:    -3.639      1.017      1.831
REMARK INTER + INTRA:          -4.967
REMARK INTER:                  -4.761
REMARK INTRA:                  -0.206
REMARK UNBOUND:                -0.264
REMARK SMILES CCCCCCC(=O)[O-]
REMARK SMILES IDX 5 1 6 2 7 3 8 4 9 5 4 6 3 7 2 8 1 9
REMARK H PARENT
REMARK Flexibility Score: inf
ROOT
ATOM      1  C   UNL     1      -2.309  -3.689   0.977  1.00  0.00     0.006 C 
ENDROOT
BRANCH   1   2
ATOM      2  C   UNL     1      -3.196  -3.525   2.217  1.00  0.00     0.053 C 
BRANCH   2   3
ATOM      3  C   UNL     1      -4.286  -2.522   1.991  1.00  0.00     0.041 C 
ATOM      4  O   UNL     1      -5.271  -2.810   1.262  1.00  0.00    -0.550 OA
ATOM      5  O   UNL     1      -4.228  -1.281   2.612  1.00  0.00    -0.550 OA
ENDBRANCH   2   3
ENDBRANCH   1   2
BRANCH   1   6
ATOM      6  C   UNL     1      -1.511  -2.414   0.661  1.00  0.00     0.000 C 
BRANCH   6   7
ATOM      7  C   UNL     1      -0.002  -2.680   0.725  1.00  0.00    -0.000 C 
BRANCH   7   8
ATOM      8  C   UNL     1       0.290  -4.035   1.381  1.00  0.00    -0.003 C 
ATOM      9  C   UNL     1       1.787  -4.228   1.605  1.00  0.00     0.004 C 
ENDBRANCH   7   8
ENDBRANCH   6   7
ENDBRANCH   1   6
TORSDOF 5
ENDMDL
MODEL 3
REMARK VINA RESULT:    -3.621      0.883      1.361
REMARK INTER + INTRA:          -4.944
REMARK INTER:                  -4.707
REMARK INTRA:                  -0.237
REMARK UNBOUND:                -0.264
REMARK SMILES CCCCCCC(=O)[O-]
REMARK SMILES IDX 5 1 6 2 7 3 8 4 9 5 4 6 3 7 2 8 1 9
REMARK H PARENT
REMARK Flexibility Score: inf
ROOT
ATOM      1  C   UNL     1      -1.919  -2.061   1.105  1.00  0.00     0.006 C 
ENDROOT
BRANCH   1   2
ATOM      2  C   UNL     1      -2.966  -3.072   1.590  1.00  0.00     0.053 C 
BRANCH   2   3
ATOM      3  C   UNL     1      -4.286  -2.418   1.856  1.00  0.00     0.041 C 
ATOM      4  O   UNL     1      -4.355  -1.408   2.605  1.00  0.00    -0.550 OA
ATOM      5  O   UNL     1      -5.438  -2.904   1.251  1.00  0.00    -0.550 OA
ENDBRANCH   2   3
ENDBRANCH   1   2
BRANCH   1   6
ATOM      6  C   UNL     1      -0.729  -2.744   0.413  1.00  0.00     0.000 C 
BRANCH   6   7
ATOM      7  C   UNL     1      -1.000  -2.934  -1.085  1.00  0.00    -0.000 C 
BRANCH   7   8
ATOM      8  C   UNL     1      -1.165  -4.418  -1.431  1.00  0.00    -0.003 C 
ATOM      9  C   UNL     1      -0.229  -5.286  -0.596  1.00  0.00     0.004 C 
ENDBRANCH   7   8
ENDBRANCH   6   7
ENDBRANCH   1   6
TORSDOF 5
ENDMDL
MODEL 4
REMARK VINA RESULT:    -3.494      2.399      2.928
REMARK INTER + INTRA:          -4.780
REMARK INTER:                  -4.581
REMARK INTRA:                  -0.199
REMARK UNBOUND:                -0.264
REMARK SMILES CCCCCCC(=O)[O-]
REMARK SMILES IDX 5 1 6 2 7 3 8 4 9 5 4 6 3 7 2 8 1 9
REMARK H PARENT
REMARK Flexibility Score: inf
ROOT
ATOM      1  C   UNL     1      -3.752  -2.909   2.112  1.00  0.00     0.006 C 
ENDROOT
BRANCH   1   2
ATOM      2  C   UNL     1      -3.523  -4.418   2.267  1.00  0.00     0.053 C 
BRANCH   2   3
ATOM      3  C   UNL     1      -3.399  -4.815   3.706  1.00  0.00     0.041 C 
ATOM      4  O   UNL     1      -4.050  -4.201   4.592  1.00  0.00    -0.550 OA
ATOM      5  O   UNL     1      -2.589  -5.884   4.065  1.00  0.00    -0.550 OA
ENDBRANCH   2   3
ENDBRANCH   1   2
BRANCH   1   6
ATOM      6  C   UNL     1      -2.646  -2.236   1.284  1.00  0.00     0.000 C 
BRANCH   6   7
ATOM      7  C   UNL     1      -1.311  -2.971   1.451  1.00  0.00    -0.000 C 
BRANCH   7   8
ATOM      8  C   UNL     1      -0.331  -2.591   0.335  1.00  0.00    -0.003 C 
ATOM      9  C   UNL     1      -1.021  -2.580  -1.025  1.00  0.00     0.004 C 
ENDBRANCH   7   8
ENDBRANCH   6   7
ENDBRANCH   1   6
TORSDOF 5
ENDMDL
MODEL 5
REMARK VINA RESULT:    -3.434      2.528      3.365
REMARK INTER + INTRA:          -4.702
REMARK INTER:                  -4.391
REMARK INTRA:                  -0.311
REMARK UNBOUND:                -0.264
REMARK SMILES CCCCCCC(=O)[O-]
REMARK SMILES IDX 5 1 6 2 7 3 8 4 9 5 4 6 3 7 2 8 1 9
REMARK H PARENT
REMARK Flexibility Score: inf
ROOT
ATOM      1  C   UNL     1      -3.920  -4.157   1.533  1.00  0.00     0.006 C 
ENDROOT
BRANCH   1   2
ATOM      2  C   UNL     1      -4.558  -4.868   2.733  1.00  0.00     0.053 C 
BRANCH   2   3
ATOM      3  C   UNL     1      -3.643  -4.886   3.918  1.00  0.00     0.041 C 
ATOM      4  O   UNL     1      -3.999  -4.354   5.002  1.00  0.00    -0.550 OA
ATOM      5  O   UNL     1      -2.409  -5.519   3.834  1.00  0.00    -0.550 OA
ENDBRANCH   2   3
ENDBRANCH   1   2
BRANCH   1   6
ATOM      6  C   UNL     1      -3.725  -2.654   1.785  1.00  0.00     0.000 C 
BRANCH   6   7
ATOM      7  C   UNL     1      -2.416  -2.157   1.160  1.00  0.00    -0.000 C 
BRANCH   7   8
ATOM      8  C   UNL     1      -1.259  -3.112   1.474  1.00  0.00    -0.003 C 
ATOM      9  C   UNL     1       0.011  -2.703   0.735  1.00  0.00     0.004 C 
ENDBRANCH   7   8
ENDBRANCH   6   7
ENDBRANCH   1   6
TORSDOF 5
ENDMDL
MODEL 6
REMARK VINA RESULT:    -3.417      1.992      2.782
REMARK INTER + INTRA:          -4.680
REMARK INTER:                  -4.465
REMARK INTRA:                  -0.216
REMARK UNBOUND:                -0.264
REMARK SMILES CCCCCCC(=O)[O-]
REMARK SMILES IDX 5 1 6 2 7 3 8 4 9 5 4 6 3 7 2 8 1 9
REMARK H PARENT
REMARK Flexibility Score: inf
ROOT
ATOM      1  C   UNL     1      -4.288  -2.540   1.616  1.00  0.00     0.006 C 
ENDROOT
BRANCH   1   2
ATOM      2  C   UNL     1      -4.520  -4.010   1.989  1.00  0.00     0.053 C 
BRANCH   2   3
ATOM      3  C   UNL     1      -5.529  -4.657   1.091  1.00  0.00     0.041 C 
ATOM      4  O   UNL     1      -6.551  -4.022   0.723  1.00  0.00    -0.550 OA
ATOM      5  O   UNL     1      -5.323  -5.953   0.635  1.00  0.00    -0.550 OA
ENDBRANCH   2   3
ENDBRANCH   1   2
BRANCH   1   6
ATOM      6  C   UNL     1      -2.799  -2.217   1.422  1.00  0.00     0.000 C 
BRANCH   6   7
ATOM      7  C   UNL     1      -1.926  -3.435   1.748  1.00  0.00    -0.000 C 
BRANCH   7   8
ATOM      8  C   UNL     1      -0.508  -3.261   1.191  1.00  0.00    -0.003 C 
ATOM      9  C   UNL     1      -0.514  -2.413  -0.077  1.00  0.00     0.004 C 
ENDBRANCH   7   8
ENDBRANCH   6   7
ENDBRANCH   1   6
TORSDOF 5
ENDMDL
MODEL 7
REMARK VINA RESULT:    -3.293      2.804      4.405
REMARK INTER + INTRA:          -4.521
REMARK INTER:                  -4.299
REMARK INTRA:                  -0.222
REMARK UNBOUND:                -0.264
REMARK SMILES CCCCCCC(=O)[O-]
REMARK SMILES IDX 5 1 6 2 7 3 8 4 9 5 4 6 3 7 2 8 1 9
REMARK H PARENT
REMARK Flexibility Score: inf
ROOT
ATOM      1  C   UNL     1      -3.099  -2.138   1.536  1.00  0.00     0.006 C 
ENDROOT
BRANCH   1   2
ATOM      2  C   UNL     1      -1.902  -3.097   1.493  1.00  0.00     0.053 C 
BRANCH   2   3
ATOM      3  C   UNL     1      -0.870  -2.653   0.503  1.00  0.00     0.041 C 
ATOM      4  O   UNL     1       0.329  -2.508   0.859  1.00  0.00    -0.550 OA
ATOM      5  O   UNL     1      -1.228  -2.430  -0.820  1.00  0.00    -0.550 OA
ENDBRANCH   2   3
ENDBRANCH   1   2
BRANCH   1   6
ATOM      6  C   UNL     1      -4.441  -2.885   1.594  1.00  0.00     0.000 C 
BRANCH   6   7
ATOM      7  C   UNL     1      -4.228  -4.402   1.517  1.00  0.00    -0.000 C 
BRANCH   7   8
ATOM      8  C   UNL     1      -5.538  -5.125   1.181  1.00  0.00    -0.003 C 
ATOM      9  C   UNL     1      -6.585  -4.150   0.651  1.00  0.00     0.004 C 
ENDBRANCH   7   8
ENDBRANCH   6   7
ENDBRANCH   1   6
TORSDOF 5
ENDMDL
MODEL 8
REMARK VINA RESULT:    -3.275      3.129      4.743
REMARK INTER + INTRA:          -4.497
REMARK INTER:                  -4.273
REMARK INTRA:                  -0.224
REMARK UNBOUND:                -0.264
REMARK SMILES CCCCCCC(=O)[O-]
REMARK SMILES IDX 5 1 6 2 7 3 8 4 9 5 4 6 3 7 2 8 1 9
REMARK H PARENT
REMARK Flexibility Score: inf
ROOT
ATOM      1  C   UNL     1      -0.385  -2.667   0.282  1.00  0.00     0.006 C 
ENDROOT
BRANCH   1   2
ATOM      2  C   UNL     1       0.443  -3.616   1.157  1.00  0.00     0.053 C 
BRANCH   2   3
ATOM      3  C   UNL     1       0.635  -4.949   0.503  1.00  0.00     0.041 C 
ATOM      4  O   UNL     1       0.010  -5.233  -0.553  1.00  0.00    -0.550 OA
ATOM      5  O   UNL     1       1.528  -5.866   1.042  1.00  0.00    -0.550 OA
ENDBRANCH   2   3
ENDBRANCH   1   2
BRANCH   1   6
ATOM      6  C   UNL     1      -1.703  -2.255   0.956  1.00  0.00     0.000 C 
BRANCH   6   7
ATOM      7  C   UNL     1      -2.674  -3.440   1.033  1.00  0.00    -0.000 C 
BRANCH   7   8
ATOM      8  C   UNL     1      -3.636  -3.287   2.217  1.00  0.00    -0.003 C 
ATOM      9  C   UNL     1      -4.212  -1.876   2.280  1.00  0.00     0.004 C 
ENDBRANCH   7   8
ENDBRANCH   6   7
ENDBRANCH   1   6
TORSDOF 5
ENDMDL
MODEL 9
REMARK VINA RESULT:    -3.145      3.001      4.209
REMARK INTER + INTRA:          -4.328
REMARK INTER:                  -3.976
REMARK INTRA:                  -0.353
REMARK UNBOUND:                -0.264
REMARK SMILES CCCCCCC(=O)[O-]
REMARK SMILES IDX 5 1 6 2 7 3 8 4 9 5 4 6 3 7 2 8 1 9
REMARK H PARENT
REMARK Flexibility Score: inf
ROOT
ATOM      1  C   UNL     1      -1.391  -2.586   0.191  1.00  0.00     0.006 C 
ENDROOT
BRANCH   1   2
ATOM      2  C   UNL     1       0.038  -2.640   0.747  1.00  0.00     0.053 C 
BRANCH   2   3
ATOM      3  C   UNL     1       0.497  -4.049   0.961  1.00  0.00     0.041 C 
ATOM      4  O   UNL     1       1.484  -4.289   1.705  1.00  0.00    -0.550 OA
ATOM      5  O   UNL     1      -0.187  -5.101   0.365  1.00  0.00    -0.550 OA
ENDBRANCH   2   3
ENDBRANCH   1   2
BRANCH   1   6
ATOM      6  C   UNL     1      -2.426  -2.254   1.278  1.00  0.00     0.000 C 
BRANCH   6   7
ATOM      7  C   UNL     1      -3.502  -3.343   1.362  1.00  0.00    -0.000 C 
BRANCH   7   8
ATOM      8  C   UNL     1      -3.570  -3.941   2.772  1.00  0.00    -0.003 C 
ATOM      9  C   UNL     1      -2.577  -5.088   2.933  1.00  0.00     0.004 C 
ENDBRANCH   7   8
ENDBRANCH   6   7
ENDBRANCH   1   6
TORSDOF 5
ENDMDL
