MODEL 1
REMARK VINA RESULT:    -7.668      0.000      0.000
REMARK INTER + INTRA:         -11.180
REMARK INTER:                 -10.357
REMARK INTRA:                  -0.822
REMARK UNBOUND:                -0.822
REMARK SMILES O=c1c(-c2ccc(O)cc2)coc2c([C@@H]3O[C@H](CO)[C@@H](O)[C@H](O)[C@H]3O)c(O)ccc12
REMARK SMILES IDX 3 1 11 2 12 3 13 4 30 5 2 6 1 7 29 8 28 9 26 10 14 11 4 12
REMARK SMILES IDX 5 13 6 14 7 15 10 16 9 17 8 18 15 20 24 21 16 22 22 23 17 24
REMARK SMILES IDX 20 25 25 26 23 28 18 30 19 31 21 33 27 35
REMARK H PARENT 8 19 25 27 23 29 19 32 21 34 27 36
REMARK Flexibility Score: inf
ROOT
ATOM      1  C   UNL     1      13.660 -35.340 -10.961  1.00  0.00     0.065 A 
ATOM      2  C   UNL     1      12.442 -35.328 -11.655  1.00  0.00     0.208 A 
ATOM      3  O   UNL     1      12.338 -34.742 -12.840  1.00  0.00    -0.463 OA
ATOM      4  C   UNL     1      13.356 -34.134 -13.445  1.00  0.00     0.147 A 
ATOM      5  C   UNL     1      14.623 -34.098 -12.816  1.00  0.00     0.066 A 
ATOM      6  C   UNL     1      14.766 -34.704 -11.555  1.00  0.00     0.200 A 
ATOM      7  O   UNL     1      15.874 -34.662 -10.950  1.00  0.00    -0.288 OA
ATOM      8  C   UNL     1      15.698 -33.464 -13.458  1.00  0.00     0.020 A 
ATOM      9  C   UNL     1      15.523 -32.884 -14.712  1.00  0.00     0.047 A 
ATOM     10  C   UNL     1      14.274 -32.917 -15.347  1.00  0.00     0.125 A 
ATOM     11  C   UNL     1      13.171 -33.528 -14.711  1.00  0.00     0.069 A 
ENDROOT
BRANCH   1  12
ATOM     12  C   UNL     1      13.753 -36.008  -9.639  1.00  0.00    -0.011 A 
ATOM     13  C   UNL     1      13.879 -35.244  -8.466  1.00  0.00     0.013 A 
ATOM     14  C   UNL     1      13.958 -35.870  -7.218  1.00  0.00     0.047 A 
ATOM     15  C   UNL     1      13.904 -37.268  -7.127  1.00  0.00     0.115 A 
ATOM     16  C   UNL     1      13.693 -37.410  -9.538  1.00  0.00     0.013 A 
ATOM     17  C   UNL     1      13.770 -38.034  -8.289  1.00  0.00     0.047 A 
BRANCH  15  18
ATOM     18  O   UNL     1      13.980 -37.902  -5.890  1.00  0.00    -0.508 OA
ATOM     19  H   UNL     1      13.842 -38.902  -5.797  1.00  0.00     0.293 HD
ENDBRANCH  15  18
ENDBRANCH   1  12
BRANCH  11  20
ATOM     20  C   UNL     1      11.817 -33.584 -15.405  1.00  0.00     0.188 C 
ATOM     21  C   UNL     1      11.180 -32.176 -15.443  1.00  0.00     0.179 C 
ATOM     22  O   UNL     1      11.988 -34.100 -16.716  1.00  0.00    -0.362 OA
ATOM     23  C   UNL     1       9.836 -32.230 -16.193  1.00  0.00     0.177 C 
ATOM     24  C   UNL     1      10.738 -34.286 -17.359  1.00  0.00     0.176 C 
ATOM     25  C   UNL     1      10.026 -32.924 -17.553  1.00  0.00     0.177 C 
BRANCH  21  26
ATOM     26  O   UNL     1      10.972 -31.722 -14.129  1.00  0.00    -0.387 OA
ATOM     27  H   UNL     1      10.503 -30.850 -14.195  1.00  0.00     0.211 HD
ENDBRANCH  21  26
BRANCH  23  28
ATOM     28  O   UNL     1       9.346 -30.931 -16.403  1.00  0.00    -0.387 OA
ATOM     29  H   UNL     1       8.701 -30.743 -15.673  1.00  0.00     0.211 HD
ENDBRANCH  23  28
BRANCH  24  30
ATOM     30  C   UNL     1      10.978 -34.997 -18.698  1.00  0.00     0.191 C 
BRANCH  30  31
ATOM     31  O   UNL     1      10.580 -36.342 -18.631  1.00  0.00    -0.394 OA
ATOM     32  H   UNL     1      11.382 -36.891 -18.834  1.00  0.00     0.210 HD
ENDBRANCH  30  31
ENDBRANCH  24  30
BRANCH  25  33
ATOM     33  O   UNL     1       8.788 -33.079 -18.205  1.00  0.00    -0.388 OA
ATOM     34  H   UNL     1       8.081 -33.097 -17.507  1.00  0.00     0.211 HD
ENDBRANCH  25  33
ENDBRANCH  11  20
BRANCH  10  35
ATOM     35  O   UNL     1      14.134 -32.346 -16.611  1.00  0.00    -0.507 OA
ATOM     36  H   UNL     1      14.731 -31.589 -16.923  1.00  0.00     0.293 HD
ENDBRANCH  10  35
TORSDOF 9
ENDMDL
MODEL 2
REMARK VINA RESULT:    -7.654      6.456     10.382
REMARK INTER + INTRA:         -11.160
REMARK INTER:                 -10.404
REMARK INTRA:                  -0.756
REMARK UNBOUND:                -0.822
REMARK SMILES O=c1c(-c2ccc(O)cc2)coc2c([C@@H]3O[C@H](CO)[C@@H](O)[C@H](O)[C@H]3O)c(O)ccc12
REMARK SMILES IDX 3 1 11 2 12 3 13 4 30 5 2 6 1 7 29 8 28 9 26 10 14 11 4 12
REMARK SMILES IDX 5 13 6 14 7 15 10 16 9 17 8 18 15 20 24 21 16 22 22 23 17 24
REMARK SMILES IDX 20 25 25 26 23 28 18 30 19 31 21 33 27 35
REMARK H PARENT 8 19 25 27 23 29 19 32 21 34 27 36
REMARK Flexibility Score: inf
ROOT
ATOM      1  C   UNL     1      10.901 -30.387 -19.772  1.00  0.00     0.065 A 
ATOM      2  C   UNL     1      12.004 -29.935 -20.510  1.00  0.00     0.208 A 
ATOM      3  O   UNL     1      13.183 -30.535 -20.408  1.00  0.00    -0.463 OA
ATOM      4  C   UNL     1      13.403 -31.582 -19.618  1.00  0.00     0.147 A 
ATOM      5  C   UNL     1      12.345 -32.104 -18.837  1.00  0.00     0.066 A 
ATOM      6  C   UNL     1      11.083 -31.488 -18.915  1.00  0.00     0.200 A 
ATOM      7  O   UNL     1      10.125 -31.906 -18.207  1.00  0.00    -0.288 OA
ATOM      8  C   UNL     1      12.576 -33.214 -18.009  1.00  0.00     0.020 A 
ATOM      9  C   UNL     1      13.836 -33.806 -17.965  1.00  0.00     0.047 A 
ATOM     10  C   UNL     1      14.890 -33.301 -18.737  1.00  0.00     0.125 A 
ATOM     11  C   UNL     1      14.689 -32.171 -19.560  1.00  0.00     0.069 A 
ENDROOT
BRANCH   1  12
ATOM     12  C   UNL     1       9.590 -29.703 -19.907  1.00  0.00    -0.011 A 
ATOM     13  C   UNL     1       9.393 -28.429 -19.346  1.00  0.00     0.013 A 
ATOM     14  C   UNL     1       8.163 -27.779 -19.479  1.00  0.00     0.047 A 
ATOM     15  C   UNL     1       7.116 -28.391 -20.181  1.00  0.00     0.115 A 
ATOM     16  C   UNL     1       8.536 -30.308 -20.615  1.00  0.00     0.013 A 
ATOM     17  C   UNL     1       7.307 -29.655 -20.749  1.00  0.00     0.047 A 
BRANCH  15  18
ATOM     18  O   UNL     1       5.886 -27.752 -20.320  1.00  0.00    -0.508 OA
ATOM     19  H   UNL     1       5.130 -27.909 -19.664  1.00  0.00     0.293 HD
ENDBRANCH  15  18
ENDBRANCH   1  12
BRANCH  11  20
ATOM     20  C   UNL     1      15.827 -31.630 -20.416  1.00  0.00     0.188 C 
ATOM     21  C   UNL     1      16.511 -30.441 -19.702  1.00  0.00     0.179 C 
ATOM     22  O   UNL     1      16.755 -32.674 -20.666  1.00  0.00    -0.362 OA
ATOM     23  C   UNL     1      17.694 -29.935 -20.549  1.00  0.00     0.177 C 
ATOM     24  C   UNL     1      17.770 -32.251 -21.562  1.00  0.00     0.176 C 
ATOM     25  C   UNL     1      18.608 -31.114 -20.926  1.00  0.00     0.177 C 
BRANCH  21  26
ATOM     26  O   UNL     1      15.578 -29.405 -19.523  1.00  0.00    -0.387 OA
ATOM     27  H   UNL     1      16.075 -28.551 -19.601  1.00  0.00     0.211 HD
ENDBRANCH  21  26
BRANCH  23  28
ATOM     28  O   UNL     1      18.437 -28.989 -19.824  1.00  0.00    -0.387 OA
ATOM     29  H   UNL     1      17.989 -28.113 -19.947  1.00  0.00     0.211 HD
ENDBRANCH  23  28
BRANCH  24  30
ATOM     30  C   UNL     1      18.640 -33.463 -21.923  1.00  0.00     0.191 C 
BRANCH  30  31
ATOM     31  O   UNL     1      19.316 -33.253 -23.135  1.00  0.00    -0.394 OA
ATOM     32  H   UNL     1      20.286 -33.220 -22.923  1.00  0.00     0.210 HD
ENDBRANCH  30  31
ENDBRANCH  24  30
BRANCH  25  33
ATOM     33  O   UNL     1      19.633 -30.686 -21.790  1.00  0.00    -0.388 OA
ATOM     34  H   UNL     1      20.348 -31.376 -21.773  1.00  0.00     0.211 HD
ENDBRANCH  25  33
ENDBRANCH  11  20
BRANCH  10  35
ATOM     35  O   UNL     1      16.135 -33.928 -18.688  1.00  0.00    -0.507 OA
ATOM     36  H   UNL     1      16.999 -33.398 -18.711  1.00  0.00     0.293 HD
ENDBRANCH  10  35
TORSDOF 9
ENDMDL
MODEL 3
REMARK VINA RESULT:    -7.521      5.031      7.667
REMARK INTER + INTRA:         -10.981
REMARK INTER:                  -9.997
REMARK INTRA:                  -0.984
REMARK UNBOUND:                -0.822
REMARK SMILES O=c1c(-c2ccc(O)cc2)coc2c([C@@H]3O[C@H](CO)[C@@H](O)[C@H](O)[C@H]3O)c(O)ccc12
REMARK SMILES IDX 3 1 11 2 12 3 13 4 30 5 2 6 1 7 29 8 28 9 26 10 14 11 4 12
REMARK SMILES IDX 5 13 6 14 7 15 10 16 9 17 8 18 15 20 24 21 16 22 22 23 17 24
REMARK SMILES IDX 20 25 25 26 23 28 18 30 19 31 21 33 27 35
REMARK H PARENT 8 19 25 27 23 29 19 32 21 34 27 36
REMARK Flexibility Score: inf
ROOT
ATOM      1  C   UNL     1      10.578 -27.932 -13.314  1.00  0.00     0.065 A 
ATOM      2  C   UNL     1      11.303 -29.129 -13.396  1.00  0.00     0.208 A 
ATOM      3  O   UNL     1      11.035 -30.025 -14.337  1.00  0.00    -0.463 OA
ATOM      4  C   UNL     1      10.080 -29.861 -15.249  1.00  0.00     0.147 A 
ATOM      5  C   UNL     1       9.298 -28.682 -15.240  1.00  0.00     0.066 A 
ATOM      6  C   UNL     1       9.551 -27.714 -14.251  1.00  0.00     0.200 A 
ATOM      7  O   UNL     1       8.851 -26.666 -14.193  1.00  0.00    -0.288 OA
ATOM      8  C   UNL     1       8.297 -28.507 -16.207  1.00  0.00     0.020 A 
ATOM      9  C   UNL     1       8.081 -29.482 -17.179  1.00  0.00     0.047 A 
ATOM     10  C   UNL     1       8.851 -30.651 -17.201  1.00  0.00     0.125 A 
ATOM     11  C   UNL     1       9.850 -30.862 -16.224  1.00  0.00     0.069 A 
ENDROOT
BRANCH   1  12
ATOM     12  C   UNL     1      10.901 -26.942 -12.256  1.00  0.00    -0.011 A 
ATOM     13  C   UNL     1      10.175 -26.929 -11.052  1.00  0.00     0.013 A 
ATOM     14  C   UNL     1      10.483 -26.004 -10.050  1.00  0.00     0.047 A 
ATOM     15  C   UNL     1      11.524 -25.084 -10.237  1.00  0.00     0.115 A 
ATOM     16  C   UNL     1      11.948 -26.020 -12.433  1.00  0.00     0.013 A 
ATOM     17  C   UNL     1      12.255 -25.097 -11.429  1.00  0.00     0.047 A 
BRANCH  15  18
ATOM     18  O   UNL     1      11.840 -24.159  -9.245  1.00  0.00    -0.508 OA
ATOM     19  H   UNL     1      12.501 -23.408  -9.412  1.00  0.00     0.293 HD
ENDBRANCH  15  18
ENDBRANCH   1  12
BRANCH  11  20
ATOM     20  C   UNL     1      10.703 -32.122 -16.256  1.00  0.00     0.188 C 
ATOM     21  C   UNL     1      10.067 -33.218 -15.369  1.00  0.00     0.179 C 
ATOM     22  O   UNL     1      10.828 -32.564 -17.598  1.00  0.00    -0.362 OA
ATOM     23  C   UNL     1      10.907 -34.507 -15.449  1.00  0.00     0.177 C 
ATOM     24  C   UNL     1      11.716 -33.666 -17.693  1.00  0.00     0.176 C 
ATOM     25  C   UNL     1      11.147 -34.883 -16.921  1.00  0.00     0.177 C 
BRANCH  21  26
ATOM     26  O   UNL     1      10.013 -32.769 -14.038  1.00  0.00    -0.387 OA
ATOM     27  H   UNL     1      10.700 -33.275 -13.533  1.00  0.00     0.211 HD
ENDBRANCH  21  26
BRANCH  23  28
ATOM     28  O   UNL     1      10.237 -35.561 -14.808  1.00  0.00    -0.387 OA
ATOM     29  H   UNL     1       9.544 -35.889 -15.437  1.00  0.00     0.211 HD
ENDBRANCH  23  28
BRANCH  24  30
ATOM     30  C   UNL     1      11.939 -33.988 -19.177  1.00  0.00     0.191 C 
BRANCH  30  31
ATOM     31  O   UNL     1      11.240 -35.146 -19.551  1.00  0.00    -0.394 OA
ATOM     32  H   UNL     1      10.358 -34.851 -19.901  1.00  0.00     0.210 HD
ENDBRANCH  30  31
ENDBRANCH  24  30
BRANCH  25  33
ATOM     33  O   UNL     1      12.004 -35.996 -17.013  1.00  0.00    -0.388 OA
ATOM     34  H   UNL     1      12.905 -35.708 -16.709  1.00  0.00     0.211 HD
ENDBRANCH  25  33
ENDBRANCH  11  20
BRANCH  10  35
ATOM     35  O   UNL     1       8.627 -31.600 -18.198  1.00  0.00    -0.507 OA
ATOM     36  H   UNL     1       9.305 -32.324 -18.407  1.00  0.00     0.293 HD
ENDBRANCH  10  35
TORSDOF 9
ENDMDL
MODEL 4
REMARK VINA RESULT:    -7.412      8.374     11.645
REMARK INTER + INTRA:         -10.834
REMARK INTER:                  -9.876
REMARK INTRA:                  -0.958
REMARK UNBOUND:                -0.822
REMARK SMILES O=c1c(-c2ccc(O)cc2)coc2c([C@@H]3O[C@H](CO)[C@@H](O)[C@H](O)[C@H]3O)c(O)ccc12
REMARK SMILES IDX 3 1 11 2 12 3 13 4 30 5 2 6 1 7 29 8 28 9 26 10 14 11 4 12
REMARK SMILES IDX 5 13 6 14 7 15 10 16 9 17 8 18 15 20 24 21 16 22 22 23 17 24
REMARK SMILES IDX 20 25 25 26 23 28 18 30 19 31 21 33 27 35
REMARK H PARENT 8 19 25 27 23 29 19 32 21 34 27 36
REMARK Flexibility Score: inf
ROOT
ATOM      1  C   UNL     1       8.974 -28.268 -17.752  1.00  0.00     0.065 A 
ATOM      2  C   UNL     1       9.223 -28.496 -16.391  1.00  0.00     0.208 A 
ATOM      3  O   UNL     1       9.226 -27.495 -15.521  1.00  0.00    -0.463 OA
ATOM      4  C   UNL     1       9.001 -26.229 -15.865  1.00  0.00     0.147 A 
ATOM      5  C   UNL     1       8.741 -25.908 -17.218  1.00  0.00     0.066 A 
ATOM      6  C   UNL     1       8.737 -26.945 -18.168  1.00  0.00     0.200 A 
ATOM      7  O   UNL     1       8.541 -26.690 -19.389  1.00  0.00    -0.288 OA
ATOM      8  C   UNL     1       8.496 -24.574 -17.579  1.00  0.00     0.020 A 
ATOM      9  C   UNL     1       8.496 -23.573 -16.610  1.00  0.00     0.047 A 
ATOM     10  C   UNL     1       8.748 -23.880 -15.266  1.00  0.00     0.125 A 
ATOM     11  C   UNL     1       9.021 -25.211 -14.882  1.00  0.00     0.069 A 
ENDROOT
BRANCH   1  12
ATOM     12  C   UNL     1       8.969 -29.406 -18.705  1.00  0.00    -0.011 A 
ATOM     13  C   UNL     1       7.769 -30.070 -19.011  1.00  0.00     0.013 A 
ATOM     14  C   UNL     1       7.760 -31.137 -19.914  1.00  0.00     0.047 A 
ATOM     15  C   UNL     1       8.951 -31.549 -20.528  1.00  0.00     0.115 A 
ATOM     16  C   UNL     1      10.159 -29.822 -19.330  1.00  0.00     0.013 A 
ATOM     17  C   UNL     1      10.147 -30.888 -20.234  1.00  0.00     0.047 A 
BRANCH  15  18
ATOM     18  O   UNL     1       8.954 -32.610 -21.430  1.00  0.00    -0.508 OA
ATOM     19  H   UNL     1       8.301 -32.649 -22.205  1.00  0.00     0.293 HD
ENDBRANCH  15  18
ENDBRANCH   1  12
BRANCH  11  20
ATOM     20  C   UNL     1       9.277 -25.553 -13.420  1.00  0.00     0.188 C 
ATOM     21  C   UNL     1      10.742 -25.232 -13.047  1.00  0.00     0.179 C 
ATOM     22  O   UNL     1       8.373 -24.819 -12.608  1.00  0.00    -0.362 OA
ATOM     23  C   UNL     1      10.978 -25.529 -11.554  1.00  0.00     0.177 C 
ATOM     24  C   UNL     1       8.490 -25.196 -11.246  1.00  0.00     0.176 C 
ATOM     25  C   UNL     1       9.897 -24.835 -10.707  1.00  0.00     0.177 C 
BRANCH  21  26
ATOM     26  O   UNL     1      11.606 -26.018 -13.829  1.00  0.00    -0.387 OA
ATOM     27  H   UNL     1      11.102 -26.830 -14.091  1.00  0.00     0.211 HD
ENDBRANCH  21  26
BRANCH  23  28
ATOM     28  O   UNL     1      12.242 -25.060 -11.161  1.00  0.00    -0.387 OA
ATOM     29  H   UNL     1      12.879 -25.811 -11.280  1.00  0.00     0.211 HD
ENDBRANCH  23  28
BRANCH  24  30
ATOM     30  C   UNL     1       7.380 -24.496 -10.448  1.00  0.00     0.191 C 
BRANCH  30  31
ATOM     31  O   UNL     1       6.180 -24.468 -11.175  1.00  0.00    -0.394 OA
ATOM     32  H   UNL     1       5.795 -25.383 -11.133  1.00  0.00     0.210 HD
ENDBRANCH  30  31
ENDBRANCH  24  30
BRANCH  25  33
ATOM     33  O   UNL     1      10.033 -25.186  -9.350  1.00  0.00    -0.388 OA
ATOM     34  H   UNL     1       9.551 -24.503  -8.813  1.00  0.00     0.211 HD
ENDBRANCH  25  33
ENDBRANCH  11  20
BRANCH  10  35
ATOM     35  O   UNL     1       8.722 -22.860 -14.315  1.00  0.00    -0.507 OA
ATOM     36  H   UNL     1       9.551 -22.595 -13.795  1.00  0.00     0.293 HD
ENDBRANCH  10  35
TORSDOF 9
ENDMDL
MODEL 5
REMARK VINA RESULT:    -7.402      6.120      9.712
REMARK INTER + INTRA:         -10.820
REMARK INTER:                 -10.023
REMARK INTRA:                  -0.797
REMARK UNBOUND:                -0.822
REMARK SMILES O=c1c(-c2ccc(O)cc2)coc2c([C@@H]3O[C@H](CO)[C@@H](O)[C@H](O)[C@H]3O)c(O)ccc12
REMARK SMILES IDX 3 1 11 2 12 3 13 4 30 5 2 6 1 7 29 8 28 9 26 10 14 11 4 12
REMARK SMILES IDX 5 13 6 14 7 15 10 16 9 17 8 18 15 20 24 21 16 22 22 23 17 24
REMARK SMILES IDX 20 25 25 26 23 28 18 30 19 31 21 33 27 35
REMARK H PARENT 8 19 25 27 23 29 19 32 21 34 27 36
REMARK Flexibility Score: inf
ROOT
ATOM      1  C   UNL     1      10.000 -30.999 -16.480  1.00  0.00     0.065 A 
ATOM      2  C   UNL     1      10.843 -30.560 -15.450  1.00  0.00     0.208 A 
ATOM      3  O   UNL     1      10.575 -29.448 -14.776  1.00  0.00    -0.463 OA
ATOM      4  C   UNL     1       9.514 -28.684 -15.024  1.00  0.00     0.147 A 
ATOM      5  C   UNL     1       8.610 -29.052 -16.048  1.00  0.00     0.066 A 
ATOM      6  C   UNL     1       8.868 -30.222 -16.786  1.00  0.00     0.200 A 
ATOM      7  O   UNL     1       8.100 -30.562 -17.728  1.00  0.00    -0.288 OA
ATOM      8  C   UNL     1       7.487 -28.250 -16.302  1.00  0.00     0.020 A 
ATOM      9  C   UNL     1       7.256 -27.104 -15.544  1.00  0.00     0.047 A 
ATOM     10  C   UNL     1       8.142 -26.732 -14.524  1.00  0.00     0.125 A 
ATOM     11  C   UNL     1       9.292 -27.510 -14.264  1.00  0.00     0.069 A 
ENDROOT
BRANCH   1  12
ATOM     12  C   UNL     1      10.318 -32.249 -17.215  1.00  0.00    -0.011 A 
ATOM     13  C   UNL     1      10.475 -32.231 -18.611  1.00  0.00     0.013 A 
ATOM     14  C   UNL     1      10.783 -33.405 -19.305  1.00  0.00     0.047 A 
ATOM     15  C   UNL     1      10.945 -34.611 -18.609  1.00  0.00     0.115 A 
ATOM     16  C   UNL     1      10.488 -33.463 -16.523  1.00  0.00     0.013 A 
ATOM     17  C   UNL     1      10.798 -34.635 -17.219  1.00  0.00     0.047 A 
BRANCH  15  18
ATOM     18  O   UNL     1      11.253 -35.787 -19.289  1.00  0.00    -0.508 OA
ATOM     19  H   UNL     1      11.246 -35.831 -20.302  1.00  0.00     0.293 HD
ENDBRANCH  15  18
ENDBRANCH   1  12
BRANCH  11  20
ATOM     20  C   UNL     1      10.247 -27.121 -13.144  1.00  0.00     0.188 C 
ATOM     21  C   UNL     1      11.314 -26.134 -13.674  1.00  0.00     0.179 C 
ATOM     22  O   UNL     1       9.505 -26.544 -12.081  1.00  0.00    -0.362 OA
ATOM     23  C   UNL     1      12.243 -25.703 -12.524  1.00  0.00     0.177 C 
ATOM     24  C   UNL     1      10.337 -26.277 -10.964  1.00  0.00     0.176 C 
ATOM     25  C   UNL     1      11.404 -25.216 -11.330  1.00  0.00     0.177 C 
BRANCH  21  26
ATOM     26  O   UNL     1      12.067 -26.758 -14.684  1.00  0.00    -0.387 OA
ATOM     27  H   UNL     1      11.990 -27.736 -14.540  1.00  0.00     0.211 HD
ENDBRANCH  21  26
BRANCH  23  28
ATOM     28  O   UNL     1      13.088 -24.665 -12.948  1.00  0.00    -0.387 OA
ATOM     29  H   UNL     1      12.549 -24.075 -13.536  1.00  0.00     0.211 HD
ENDBRANCH  23  28
BRANCH  24  30
ATOM     30  C   UNL     1       9.454 -25.816  -9.796  1.00  0.00     0.191 C 
BRANCH  30  31
ATOM     31  O   UNL     1       9.108 -24.462  -9.932  1.00  0.00    -0.394 OA
ATOM     32  H   UNL     1       8.118 -24.422 -10.001  1.00  0.00     0.210 HD
ENDBRANCH  30  31
ENDBRANCH  24  30
BRANCH  25  33
ATOM     33  O   UNL     1      12.234 -24.921 -10.231  1.00  0.00    -0.388 OA
ATOM     34  H   UNL     1      13.049 -24.474 -10.581  1.00  0.00     0.211 HD
ENDBRANCH  25  33
ENDBRANCH  11  20
BRANCH  10  35
ATOM     35  O   UNL     1       7.875 -25.591 -13.768  1.00  0.00    -0.507 OA
ATOM     36  H   UNL     1       6.977 -25.123 -13.810  1.00  0.00     0.293 HD
ENDBRANCH  10  35
TORSDOF 9
ENDMDL
MODEL 6
REMARK VINA RESULT:    -7.382      6.609      8.857
REMARK INTER + INTRA:         -10.794
REMARK INTER:                  -9.661
REMARK INTRA:                  -1.133
REMARK UNBOUND:                -0.822
REMARK SMILES O=c1c(-c2ccc(O)cc2)coc2c([C@@H]3O[C@H](CO)[C@@H](O)[C@H](O)[C@H]3O)c(O)ccc12
REMARK SMILES IDX 3 1 11 2 12 3 13 4 30 5 2 6 1 7 29 8 28 9 26 10 14 11 4 12
REMARK SMILES IDX 5 13 6 14 7 15 10 16 9 17 8 18 15 20 24 21 16 22 22 23 17 24
REMARK SMILES IDX 20 25 25 26 23 28 18 30 19 31 21 33 27 35
REMARK H PARENT 8 19 25 27 23 29 19 32 21 34 27 36
REMARK Flexibility Score: inf
ROOT
ATOM      1  C   UNL     1      16.459 -28.098 -17.630  1.00  0.00     0.065 A 
ATOM      2  C   UNL     1      15.172 -28.542 -17.296  1.00  0.00     0.208 A 
ATOM      3  O   UNL     1      14.646 -29.610 -17.882  1.00  0.00    -0.463 OA
ATOM      4  C   UNL     1      15.283 -30.321 -18.809  1.00  0.00     0.147 A 
ATOM      5  C   UNL     1      16.587 -29.944 -19.206  1.00  0.00     0.066 A 
ATOM      6  C   UNL     1      17.172 -28.812 -18.610  1.00  0.00     0.200 A 
ATOM      7  O   UNL     1      18.321 -28.427 -18.965  1.00  0.00    -0.288 OA
ATOM      8  C   UNL     1      17.262 -30.699 -20.178  1.00  0.00     0.020 A 
ATOM      9  C   UNL     1      16.657 -31.821 -20.740  1.00  0.00     0.047 A 
ATOM     10  C   UNL     1      15.368 -32.208 -20.351  1.00  0.00     0.125 A 
ATOM     11  C   UNL     1      14.659 -31.450 -19.392  1.00  0.00     0.069 A 
ENDROOT
BRANCH   1  12
ATOM     12  C   UNL     1      17.027 -26.904 -16.956  1.00  0.00    -0.011 A 
ATOM     13  C   UNL     1      16.911 -25.633 -17.546  1.00  0.00     0.013 A 
ATOM     14  C   UNL     1      17.437 -24.506 -16.909  1.00  0.00     0.047 A 
ATOM     15  C   UNL     1      18.082 -24.633 -15.672  1.00  0.00     0.115 A 
ATOM     16  C   UNL     1      17.671 -27.022 -15.710  1.00  0.00     0.013 A 
ATOM     17  C   UNL     1      18.195 -25.893 -15.075  1.00  0.00     0.047 A 
BRANCH  15  18
ATOM     18  O   UNL     1      18.610 -23.517 -15.028  1.00  0.00    -0.508 OA
ATOM     19  H   UNL     1      19.533 -23.161 -15.253  1.00  0.00     0.293 HD
ENDBRANCH  15  18
ENDBRANCH   1  12
BRANCH  11  20
ATOM     20  C   UNL     1      13.265 -31.877 -18.951  1.00  0.00     0.188 C 
ATOM     21  C   UNL     1      12.206 -31.339 -19.941  1.00  0.00     0.179 C 
ATOM     22  O   UNL     1      13.216 -33.293 -18.875  1.00  0.00    -0.362 OA
ATOM     23  C   UNL     1      10.805 -31.820 -19.519  1.00  0.00     0.177 C 
ATOM     24  C   UNL     1      11.975 -33.734 -18.351  1.00  0.00     0.176 C 
ATOM     25  C   UNL     1      10.819 -33.343 -19.306  1.00  0.00     0.177 C 
BRANCH  21  26
ATOM     26  O   UNL     1      12.243 -29.934 -19.947  1.00  0.00    -0.387 OA
ATOM     27  H   UNL     1      11.326 -29.619 -19.741  1.00  0.00     0.211 HD
ENDBRANCH  21  26
BRANCH  23  28
ATOM     28  O   UNL     1       9.865 -31.502 -20.513  1.00  0.00    -0.387 OA
ATOM     29  H   UNL     1       9.213 -30.876 -20.106  1.00  0.00     0.211 HD
ENDBRANCH  23  28
BRANCH  24  30
ATOM     30  C   UNL     1      12.045 -35.252 -18.137  1.00  0.00     0.191 C 
BRANCH  30  31
ATOM     31  O   UNL     1      11.444 -35.939 -19.203  1.00  0.00    -0.394 OA
ATOM     32  H   UNL     1      12.142 -36.522 -19.602  1.00  0.00     0.210 HD
ENDBRANCH  30  31
ENDBRANCH  24  30
BRANCH  25  33
ATOM     33  O   UNL     1       9.575 -33.784 -18.814  1.00  0.00    -0.388 OA
ATOM     34  H   UNL     1       8.868 -33.398 -19.396  1.00  0.00     0.211 HD
ENDBRANCH  25  33
ENDBRANCH  11  20
BRANCH  10  35
ATOM     35  O   UNL     1      14.795 -33.347 -20.915  1.00  0.00    -0.507 OA
ATOM     36  H   UNL     1      15.275 -33.890 -21.624  1.00  0.00     0.293 HD
ENDBRANCH  10  35
TORSDOF 9
ENDMDL
MODEL 7
REMARK VINA RESULT:    -7.333      4.175      7.148
REMARK INTER + INTRA:         -10.727
REMARK INTER:                  -9.591
REMARK INTRA:                  -1.136
REMARK UNBOUND:                -0.822
REMARK SMILES O=c1c(-c2ccc(O)cc2)coc2c([C@@H]3O[C@H](CO)[C@@H](O)[C@H](O)[C@H]3O)c(O)ccc12
REMARK SMILES IDX 3 1 11 2 12 3 13 4 30 5 2 6 1 7 29 8 28 9 26 10 14 11 4 12
REMARK SMILES IDX 5 13 6 14 7 15 10 16 9 17 8 18 15 20 24 21 16 22 22 23 17 24
REMARK SMILES IDX 20 25 25 26 23 28 18 30 19 31 21 33 27 35
REMARK H PARENT 8 19 25 27 23 29 19 32 21 34 27 36
REMARK Flexibility Score: inf
ROOT
ATOM      1  C   UNL     1      10.919 -28.767 -12.953  1.00  0.00     0.065 A 
ATOM      2  C   UNL     1      11.232 -28.977 -14.304  1.00  0.00     0.208 A 
ATOM      3  O   UNL     1      11.319 -30.205 -14.801  1.00  0.00    -0.463 OA
ATOM      4  C   UNL     1      11.122 -31.301 -14.073  1.00  0.00     0.147 A 
ATOM      5  C   UNL     1      10.802 -31.182 -12.700  1.00  0.00     0.066 A 
ATOM      6  C   UNL     1      10.709 -29.896 -12.139  1.00  0.00     0.200 A 
ATOM      7  O   UNL     1      10.458 -29.753 -10.911  1.00  0.00    -0.288 OA
ATOM      8  C   UNL     1      10.586 -32.339 -11.936  1.00  0.00     0.020 A 
ATOM      9  C   UNL     1      10.675 -33.598 -12.527  1.00  0.00     0.047 A 
ATOM     10  C   UNL     1      10.987 -33.728 -13.886  1.00  0.00     0.125 A 
ATOM     11  C   UNL     1      11.232 -32.580 -14.671  1.00  0.00     0.069 A 
ENDROOT
BRANCH   1  12
ATOM     12  C   UNL     1      10.822 -27.384 -12.423  1.00  0.00    -0.011 A 
ATOM     13  C   UNL     1       9.626 -26.658 -12.551  1.00  0.00     0.013 A 
ATOM     14  C   UNL     1       9.529 -25.358 -12.045  1.00  0.00     0.047 A 
ATOM     15  C   UNL     1      10.625 -24.772 -11.398  1.00  0.00     0.115 A 
ATOM     16  C   UNL     1      11.916 -26.791 -11.766  1.00  0.00     0.013 A 
ATOM     17  C   UNL     1      11.816 -25.492 -11.259  1.00  0.00     0.047 A 
BRANCH  15  18
ATOM     18  O   UNL     1      10.540 -23.478 -10.888  1.00  0.00    -0.508 OA
ATOM     19  H   UNL     1      10.140 -22.720 -11.430  1.00  0.00     0.293 HD
ENDBRANCH  15  18
ENDBRANCH   1  12
BRANCH  11  20
ATOM     20  C   UNL     1      11.552 -32.715 -16.154  1.00  0.00     0.188 C 
ATOM     21  C   UNL     1      13.059 -33.002 -16.348  1.00  0.00     0.179 C 
ATOM     22  O   UNL     1      10.762 -33.757 -16.706  1.00  0.00    -0.362 OA
ATOM     23  C   UNL     1      13.365 -33.191 -17.846  1.00  0.00     0.177 C 
ATOM     24  C   UNL     1      10.935 -33.839 -18.111  1.00  0.00     0.176 C 
ATOM     25  C   UNL     1      12.397 -34.223 -18.450  1.00  0.00     0.177 C 
BRANCH  21  26
ATOM     26  O   UNL     1      13.808 -31.925 -15.843  1.00  0.00    -0.387 OA
ATOM     27  H   UNL     1      13.753 -31.195 -16.512  1.00  0.00     0.211 HD
ENDBRANCH  21  26
BRANCH  23  28
ATOM     28  O   UNL     1      14.684 -33.642 -18.016  1.00  0.00    -0.387 OA
ATOM     29  H   UNL     1      15.053 -33.168 -18.806  1.00  0.00     0.211 HD
ENDBRANCH  23  28
BRANCH  24  30
ATOM     30  C   UNL     1       9.936 -34.863 -18.667  1.00  0.00     0.191 C 
BRANCH  30  31
ATOM     31  O   UNL     1      10.498 -36.149 -18.699  1.00  0.00    -0.394 OA
ATOM     32  H   UNL     1       9.753 -36.786 -18.858  1.00  0.00     0.210 HD
ENDBRANCH  30  31
ENDBRANCH  24  30
BRANCH  25  33
ATOM     33  O   UNL     1      12.592 -34.327 -19.840  1.00  0.00    -0.388 OA
ATOM     34  H   UNL     1      13.552 -34.148 -20.024  1.00  0.00     0.211 HD
ENDBRANCH  25  33
ENDBRANCH  11  20
BRANCH  10  35
ATOM     35  O   UNL     1      11.049 -35.000 -14.455  1.00  0.00    -0.507 OA
ATOM     36  H   UNL     1      10.345 -35.327 -15.106  1.00  0.00     0.293 HD
ENDBRANCH  10  35
TORSDOF 9
ENDMDL
MODEL 8
REMARK VINA RESULT:    -7.258      3.958      8.775
REMARK INTER + INTRA:         -10.627
REMARK INTER:                  -9.720
REMARK INTRA:                  -0.907
REMARK UNBOUND:                -0.822
REMARK SMILES O=c1c(-c2ccc(O)cc2)coc2c([C@@H]3O[C@H](CO)[C@@H](O)[C@H](O)[C@H]3O)c(O)ccc12
REMARK SMILES IDX 3 1 11 2 12 3 13 4 30 5 2 6 1 7 29 8 28 9 26 10 14 11 4 12
REMARK SMILES IDX 5 13 6 14 7 15 10 16 9 17 8 18 15 20 24 21 16 22 22 23 17 24
REMARK SMILES IDX 20 25 25 26 23 28 18 30 19 31 21 33 27 35
REMARK H PARENT 8 19 25 27 23 29 19 32 21 34 27 36
REMARK Flexibility Score: inf
ROOT
ATOM      1  C   UNL     1      15.373 -32.652 -19.335  1.00  0.00     0.065 A 
ATOM      2  C   UNL     1      15.419 -32.380 -17.960  1.00  0.00     0.208 A 
ATOM      3  O   UNL     1      14.397 -32.682 -17.170  1.00  0.00    -0.463 OA
ATOM      4  C   UNL     1      13.277 -33.249 -17.612  1.00  0.00     0.147 A 
ATOM      5  C   UNL     1      13.144 -33.558 -18.986  1.00  0.00     0.066 A 
ATOM      6  C   UNL     1      14.207 -33.245 -19.853  1.00  0.00     0.200 A 
ATOM      7  O   UNL     1      14.109 -33.476 -21.090  1.00  0.00    -0.288 OA
ATOM      8  C   UNL     1      11.966 -34.164 -19.449  1.00  0.00     0.020 A 
ATOM      9  C   UNL     1      10.938 -34.471 -18.561  1.00  0.00     0.047 A 
ATOM     10  C   UNL     1      11.060 -34.174 -17.197  1.00  0.00     0.125 A 
ATOM     11  C   UNL     1      12.226 -33.542 -16.710  1.00  0.00     0.069 A 
ENDROOT
BRANCH   1  12
ATOM     12  C   UNL     1      16.532 -32.310 -20.196  1.00  0.00    -0.011 A 
ATOM     13  C   UNL     1      17.013 -30.990 -20.247  1.00  0.00     0.013 A 
ATOM     14  C   UNL     1      18.110 -30.667 -21.051  1.00  0.00     0.047 A 
ATOM     15  C   UNL     1      18.744 -31.661 -21.809  1.00  0.00     0.115 A 
ATOM     16  C   UNL     1      17.178 -33.303 -20.956  1.00  0.00     0.013 A 
ATOM     17  C   UNL     1      18.276 -32.977 -21.757  1.00  0.00     0.047 A 
BRANCH  15  18
ATOM     18  O   UNL     1      19.838 -31.350 -22.613  1.00  0.00    -0.508 OA
ATOM     19  H   UNL     1      20.450 -30.571 -22.399  1.00  0.00     0.293 HD
ENDBRANCH  15  18
ENDBRANCH   1  12
BRANCH  11  20
ATOM     20  C   UNL     1      12.372 -33.235 -15.226  1.00  0.00     0.188 C 
ATOM     21  C   UNL     1      11.719 -31.872 -14.898  1.00  0.00     0.179 C 
ATOM     22  O   UNL     1      11.772 -34.279 -14.475  1.00  0.00    -0.362 OA
ATOM     23  C   UNL     1      11.822 -31.594 -13.387  1.00  0.00     0.177 C 
ATOM     24  C   UNL     1      11.990 -34.099 -13.085  1.00  0.00     0.176 C 
ATOM     25  C   UNL     1      11.295 -32.804 -12.596  1.00  0.00     0.177 C 
BRANCH  21  26
ATOM     26  O   UNL     1      12.374 -30.856 -15.614  1.00  0.00    -0.387 OA
ATOM     27  H   UNL     1      12.528 -31.200 -16.531  1.00  0.00     0.211 HD
ENDBRANCH  21  26
BRANCH  23  28
ATOM     28  O   UNL     1      11.065 -30.459 -13.051  1.00  0.00    -0.387 OA
ATOM     29  H   UNL     1      10.394 -30.747 -12.380  1.00  0.00     0.211 HD
ENDBRANCH  23  28
BRANCH  24  30
ATOM     30  C   UNL     1      11.468 -35.338 -12.344  1.00  0.00     0.191 C 
BRANCH  30  31
ATOM     31  O   UNL     1      10.151 -35.142 -11.901  1.00  0.00    -0.394 OA
ATOM     32  H   UNL     1      10.163 -35.223 -10.912  1.00  0.00     0.210 HD
ENDBRANCH  30  31
ENDBRANCH  24  30
BRANCH  25  33
ATOM     33  O   UNL     1      11.484 -32.610 -11.215  1.00  0.00    -0.388 OA
ATOM     34  H   UNL     1      11.607 -31.636 -11.061  1.00  0.00     0.211 HD
ENDBRANCH  25  33
ENDBRANCH  11  20
BRANCH  10  35
ATOM     35  O   UNL     1      10.023 -34.511 -16.328  1.00  0.00    -0.507 OA
ATOM     36  H   UNL     1       9.384 -35.271 -16.530  1.00  0.00     0.293 HD
ENDBRANCH  10  35
TORSDOF 9
ENDMDL
MODEL 9
REMARK VINA RESULT:    -7.214      5.620      8.858
REMARK INTER + INTRA:         -10.567
REMARK INTER:                  -9.833
REMARK INTRA:                  -0.735
REMARK UNBOUND:                -0.822
REMARK SMILES O=c1c(-c2ccc(O)cc2)coc2c([C@@H]3O[C@H](CO)[C@@H](O)[C@H](O)[C@H]3O)c(O)ccc12
REMARK SMILES IDX 3 1 11 2 12 3 13 4 30 5 2 6 1 7 29 8 28 9 26 10 14 11 4 12
REMARK SMILES IDX 5 13 6 14 7 15 10 16 9 17 8 18 15 20 24 21 16 22 22 23 17 24
REMARK SMILES IDX 20 25 25 26 23 28 18 30 19 31 21 33 27 35
REMARK H PARENT 8 19 25 27 23 29 19 32 21 34 27 36
REMARK Flexibility Score: inf
ROOT
ATOM      1  C   UNL     1      15.098 -32.380 -19.804  1.00  0.00     0.065 A 
ATOM      2  C   UNL     1      14.146 -31.474 -20.293  1.00  0.00     0.208 A 
ATOM      3  O   UNL     1      12.959 -31.353 -19.714  1.00  0.00    -0.463 OA
ATOM      4  C   UNL     1      12.590 -32.066 -18.652  1.00  0.00     0.147 A 
ATOM      5  C   UNL     1      13.489 -33.004 -18.092  1.00  0.00     0.066 A 
ATOM      6  C   UNL     1      14.754 -33.162 -18.686  1.00  0.00     0.200 A 
ATOM      7  O   UNL     1      15.568 -34.014 -18.234  1.00  0.00    -0.288 OA
ATOM      8  C   UNL     1      13.102 -33.749 -16.967  1.00  0.00     0.020 A 
ATOM      9  C   UNL     1      11.845 -33.558 -16.397  1.00  0.00     0.047 A 
ATOM     10  C   UNL     1      10.948 -32.629 -16.940  1.00  0.00     0.125 A 
ATOM     11  C   UNL     1      11.305 -31.884 -18.086  1.00  0.00     0.069 A 
ENDROOT
BRANCH   1  12
ATOM     12  C   UNL     1      16.422 -32.492 -20.466  1.00  0.00    -0.011 A 
ATOM     13  C   UNL     1      17.161 -31.337 -20.774  1.00  0.00     0.013 A 
ATOM     14  C   UNL     1      18.412 -31.440 -21.390  1.00  0.00     0.047 A 
ATOM     15  C   UNL     1      18.942 -32.699 -21.701  1.00  0.00     0.115 A 
ATOM     16  C   UNL     1      16.964 -33.753 -20.776  1.00  0.00     0.013 A 
ATOM     17  C   UNL     1      18.216 -33.853 -21.390  1.00  0.00     0.047 A 
BRANCH  15  18
ATOM     18  O   UNL     1      20.187 -32.814 -22.314  1.00  0.00    -0.508 OA
ATOM     19  H   UNL     1      21.002 -33.136 -21.803  1.00  0.00     0.293 HD
ENDBRANCH  15  18
ENDBRANCH   1  12
BRANCH  11  20
ATOM     20  C   UNL     1      10.341 -30.859 -18.668  1.00  0.00     0.188 C 
ATOM     21  C   UNL     1       9.363 -31.545 -19.649  1.00  0.00     0.179 C 
ATOM     22  O   UNL     1       9.639 -30.228 -17.608  1.00  0.00    -0.362 OA
ATOM     23  C   UNL     1       8.358 -30.512 -20.192  1.00  0.00     0.177 C 
ATOM     24  C   UNL     1       8.818 -29.179 -18.093  1.00  0.00     0.176 C 
ATOM     25  C   UNL     1       7.716 -29.745 -19.023  1.00  0.00     0.177 C 
BRANCH  21  26
ATOM     26  O   UNL     1      10.087 -32.108 -20.714  1.00  0.00    -0.387 OA
ATOM     27  H   UNL     1      10.693 -32.789 -20.325  1.00  0.00     0.211 HD
ENDBRANCH  21  26
BRANCH  23  28
ATOM     28  O   UNL     1       7.350 -31.158 -20.927  1.00  0.00    -0.387 OA
ATOM     29  H   UNL     1       6.719 -31.550 -20.270  1.00  0.00     0.211 HD
ENDBRANCH  23  28
BRANCH  24  30
ATOM     30  C   UNL     1       8.220 -28.432 -16.893  1.00  0.00     0.191 C 
BRANCH  30  31
ATOM     31  O   UNL     1       6.988 -28.989 -16.517  1.00  0.00    -0.394 OA
ATOM     32  H   UNL     1       7.141 -29.960 -16.373  1.00  0.00     0.210 HD
ENDBRANCH  30  31
ENDBRANCH  24  30
BRANCH  25  33
ATOM     33  O   UNL     1       6.877 -28.723 -19.506  1.00  0.00    -0.388 OA
ATOM     34  H   UNL     1       7.068 -27.902 -18.979  1.00  0.00     0.211 HD
ENDBRANCH  25  33
ENDBRANCH  11  20
BRANCH  10  35
ATOM     35  O   UNL     1       9.705 -32.445 -16.336  1.00  0.00    -0.507 OA
ATOM     36  H   UNL     1       8.891 -32.978 -16.619  1.00  0.00     0.293 HD
ENDBRANCH  10  35
TORSDOF 9
ENDMDL
