MODEL 1
REMARK VINA RESULT:    -4.884      0.000      0.000
REMARK INTER + INTRA:         -10.317
REMARK INTER:                  -8.025
REMARK INTRA:                  -2.292
REMARK UNBOUND:                -2.292
REMARK SMILES COc1ccc([C@@H]2CC(=O)c3c(O)cc(O[C@H]4O[C@@H](CO[C@H]5O[C@H](C)[C@H](O)[C@H](O)[C@@H]5O)[C@@H](O)[C@H](O)[C@H]4O)cc3O2)cc1O
REMARK SMILES IDX 19 1 32 2 34 3 36 4 17 5 18 6 20 7 21 8 22 9 25 10 24 11
REMARK SMILES IDX 26 12 23 13 28 14 30 15 27 16 29 18 31 20 33 22 35 24 16 26
REMARK SMILES IDX 15 27 14 28 38 29 12 30 39 31 11 32 40 33 9 34 7 35 10 36
REMARK SMILES IDX 8 37 13 38 6 40 41 41 5 42 42 43 4 44 3 45 43 46 2 48 1 49
REMARK SMILES IDX 37 50
REMARK H PARENT 27 17 29 19 31 21 33 23 35 25 13 39 43 47 37 51
REMARK Flexibility Score: inf
ROOT
ATOM      1  C   UNL     1     -17.733  13.425 -18.462  1.00  0.00     0.180 C 
ATOM      2  C   UNL     1     -16.259  13.017 -18.647  1.00  0.00     0.177 C 
ATOM      3  C   UNL     1     -15.659  13.803 -19.843  1.00  0.00     0.180 C 
ATOM      4  C   UNL     1     -16.559  13.675 -21.081  1.00  0.00     0.214 C 
ATOM      5  C   UNL     1     -18.028  14.000 -20.696  1.00  0.00     0.339 C 
ATOM      6  O   UNL     1     -18.473  13.155 -19.647  1.00  0.00    -0.332 OA
ENDROOT
BRANCH   1   7
ATOM      7  C   UNL     1     -18.384  12.781 -17.215  1.00  0.00     0.198 C 
BRANCH   7   8
ATOM      8  O   UNL     1     -19.516  11.974 -17.507  1.00  0.00    -0.347 OA
BRANCH   8   9
ATOM      9  C   UNL     1     -20.791  12.544 -17.206  1.00  0.00     0.281 C 
ATOM     10  C   UNL     1     -22.664  12.037 -14.603  1.00  0.00     0.041 C 
ATOM     11  C   UNL     1     -22.034  13.248 -15.298  1.00  0.00     0.150 C 
ATOM     12  C   UNL     1     -22.991  13.967 -16.293  1.00  0.00     0.174 C 
ATOM     13  O   UNL     1     -20.756  12.911 -15.837  1.00  0.00    -0.344 OA
ATOM     14  C   UNL     1     -22.140  14.749 -17.302  1.00  0.00     0.179 C 
ATOM     15  C   UNL     1     -21.176  13.803 -18.061  1.00  0.00     0.202 C 
BRANCH  12  16
ATOM     16  O   UNL     1     -23.826  13.052 -16.968  1.00  0.00    -0.388 OA
ATOM     17  H   UNL     1     -23.267  12.274 -17.229  1.00  0.00     0.211 HD
ENDBRANCH  12  16
BRANCH  14  18
ATOM     18  O   UNL     1     -22.968  15.438 -18.206  1.00  0.00    -0.387 OA
ATOM     19  H   UNL     1     -23.904  15.240 -17.949  1.00  0.00     0.211 HD
ENDBRANCH  14  18
BRANCH  15  20
ATOM     20  O   UNL     1     -21.737  13.423 -19.299  1.00  0.00    -0.385 OA
ATOM     21  H   UNL     1     -22.632  13.854 -19.380  1.00  0.00     0.211 HD
ENDBRANCH  15  20
ENDBRANCH   8   9
ENDBRANCH   7   8
ENDBRANCH   1   7
BRANCH   2  22
ATOM     22  O   UNL     1     -16.174  11.635 -18.871  1.00  0.00    -0.387 OA
ATOM     23  H   UNL     1     -15.208  11.413 -18.921  1.00  0.00     0.211 HD
ENDBRANCH   2  22
BRANCH   3  24
ATOM     24  O   UNL     1     -15.520  15.164 -19.508  1.00  0.00    -0.387 OA
ATOM     25  H   UNL     1     -14.831  15.214 -18.795  1.00  0.00     0.211 HD
ENDBRANCH   3  24
BRANCH   5  26
ATOM     26  O   UNL     1     -18.925  13.922 -21.811  1.00  0.00    -0.462 OA
BRANCH  26  27
ATOM     27  C   UNL     1     -20.116  14.641 -21.941  1.00  0.00     0.130 A 
ATOM     28  C   UNL     1     -21.011  14.298 -22.955  1.00  0.00     0.093 A 
ATOM     29  C   UNL     1     -20.401  15.713 -21.091  1.00  0.00     0.094 A 
ATOM     30  C   UNL     1     -22.242  14.958 -23.075  1.00  0.00     0.133 A 
ATOM     31  C   UNL     1     -21.614  16.401 -21.216  1.00  0.00     0.138 A 
ATOM     32  C   UNL     1     -22.555  16.007 -22.188  1.00  0.00     0.102 A 
ATOM     33  O   UNL     1     -21.896  17.479 -20.369  1.00  0.00    -0.484 OA
ATOM     34  C   UNL     1     -23.864  16.698 -22.206  1.00  0.00     0.174 C 
ATOM     35  C   UNL     1     -22.967  18.391 -20.636  1.00  0.00     0.211 C 
ATOM     36  O   UNL     1     -24.702  16.483 -23.118  1.00  0.00    -0.294 OA
ATOM     37  C   UNL     1     -24.218  17.630 -21.085  1.00  0.00     0.131 C 
BRANCH  30  38
ATOM     38  O   UNL     1     -23.146  14.561 -24.058  1.00  0.00    -0.507 OA
ATOM     39  H   UNL     1     -22.947  13.764 -24.662  1.00  0.00     0.293 HD
ENDBRANCH  30  38
BRANCH  35  40
ATOM     40  C   UNL     1     -23.281  19.234 -19.425  1.00  0.00    -0.003 A 
ATOM     41  C   UNL     1     -24.063  20.396 -19.531  1.00  0.00     0.057 A 
ATOM     42  C   UNL     1     -22.696  18.917 -18.189  1.00  0.00     0.011 A 
ATOM     43  C   UNL     1     -24.309  21.194 -18.409  1.00  0.00     0.158 A 
ATOM     44  C   UNL     1     -22.919  19.721 -17.072  1.00  0.00     0.051 A 
ATOM     45  C   UNL     1     -23.724  20.870 -17.170  1.00  0.00     0.160 A 
BRANCH  43  46
ATOM     46  O   UNL     1     -25.123  22.318 -18.545  1.00  0.00    -0.504 OA
ATOM     47  H   UNL     1     -25.346  22.719 -19.454  1.00  0.00     0.293 HD
ENDBRANCH  43  46
BRANCH  45  48
ATOM     48  O   UNL     1     -23.958  21.709 -16.066  1.00  0.00    -0.493 OA
ATOM     49  C   UNL     1     -24.734  21.339 -14.931  1.00  0.00     0.278 C 
ENDBRANCH  45  48
ENDBRANCH  35  40
ENDBRANCH  26  27
ENDBRANCH   5  26
BRANCH   4  50
ATOM     50  O   UNL     1     -16.462  12.363 -21.582  1.00  0.00    -0.384 OA
ATOM     51  H   UNL     1     -17.376  12.091 -21.854  1.00  0.00     0.211 HD
ENDBRANCH   4  50
TORSDOF 15
ENDMDL
MODEL 2
REMARK VINA RESULT:    -4.707      9.257     14.491
REMARK INTER + INTRA:         -10.026
REMARK INTER:                  -7.929
REMARK INTRA:                  -2.097
REMARK UNBOUND:                -2.292
REMARK SMILES COc1ccc([C@@H]2CC(=O)c3c(O)cc(O[C@H]4O[C@@H](CO[C@H]5O[C@H](C)[C@H](O)[C@H](O)[C@@H]5O)[C@@H](O)[C@H](O)[C@H]4O)cc3O2)cc1O
REMARK SMILES IDX 19 1 32 2 34 3 36 4 17 5 18 6 20 7 21 8 22 9 25 10 24 11
REMARK SMILES IDX 26 12 23 13 28 14 30 15 27 16 29 18 31 20 33 22 35 24 16 26
REMARK SMILES IDX 15 27 14 28 38 29 12 30 39 31 11 32 40 33 9 34 7 35 10 36
REMARK SMILES IDX 8 37 13 38 6 40 41 41 5 42 42 43 4 44 3 45 43 46 2 48 1 49
REMARK SMILES IDX 37 50
REMARK H PARENT 27 17 29 19 31 21 33 23 35 25 13 39 43 47 37 51
REMARK Flexibility Score: inf
ROOT
ATOM      1  C   UNL     1     -18.439  29.242 -17.772  1.00  0.00     0.180 C 
ATOM      2  C   UNL     1     -18.610  29.539 -16.269  1.00  0.00     0.177 C 
ATOM      3  C   UNL     1     -19.854  28.779 -15.738  1.00  0.00     0.180 C 
ATOM      4  C   UNL     1     -21.076  29.052 -16.627  1.00  0.00     0.214 C 
ATOM      5  C   UNL     1     -20.701  28.826 -18.117  1.00  0.00     0.339 C 
ATOM      6  O   UNL     1     -19.601  29.641 -18.489  1.00  0.00    -0.332 OA
ENDROOT
BRANCH   1   7
ATOM      7  C   UNL     1     -17.152  29.863 -18.365  1.00  0.00     0.198 C 
BRANCH   7   8
ATOM      8  O   UNL     1     -17.387  30.759 -19.443  1.00  0.00    -0.347 OA
BRANCH   8   9
ATOM      9  C   UNL     1     -17.083  30.267 -20.750  1.00  0.00     0.281 C 
ATOM     10  C   UNL     1     -14.485  30.903 -22.589  1.00  0.00     0.041 C 
ATOM     11  C   UNL     1     -15.170  29.653 -22.032  1.00  0.00     0.150 C 
ATOM     12  C   UNL     1     -16.161  28.984 -23.030  1.00  0.00     0.174 C 
ATOM     13  O   UNL     1     -15.712  29.909 -20.736  1.00  0.00    -0.344 OA
ATOM     14  C   UNL     1     -17.164  28.145 -22.226  1.00  0.00     0.179 C 
ATOM     15  C   UNL     1     -17.929  29.027 -21.208  1.00  0.00     0.202 C 
BRANCH  12  16
ATOM     16  O   UNL     1     -16.843  29.942 -23.809  1.00  0.00    -0.388 OA
ATOM     17  H   UNL     1     -16.812  29.637 -24.753  1.00  0.00     0.211 HD
ENDBRANCH  12  16
BRANCH  14  18
ATOM     18  O   UNL     1     -18.063  27.500 -23.094  1.00  0.00    -0.387 OA
ATOM     19  H   UNL     1     -18.949  27.923 -22.958  1.00  0.00     0.211 HD
ENDBRANCH  14  18
BRANCH  15  20
ATOM     20  O   UNL     1     -19.170  29.431 -21.746  1.00  0.00    -0.385 OA
ATOM     21  H   UNL     1     -19.345  28.891 -22.564  1.00  0.00     0.211 HD
ENDBRANCH  15  20
ENDBRANCH   8   9
ENDBRANCH   7   8
ENDBRANCH   1   7
BRANCH   2  22
ATOM     22  O   UNL     1     -18.753  30.921 -16.073  1.00  0.00    -0.387 OA
ATOM     23  H   UNL     1     -18.313  31.364 -16.844  1.00  0.00     0.211 HD
ENDBRANCH   2  22
BRANCH   3  24
ATOM     24  O   UNL     1     -19.600  27.394 -15.711  1.00  0.00    -0.387 OA
ATOM     25  H   UNL     1     -20.469  26.940 -15.873  1.00  0.00     0.211 HD
ENDBRANCH   3  24
BRANCH   5  26
ATOM     26  O   UNL     1     -21.804  29.042 -19.007  1.00  0.00    -0.462 OA
BRANCH  26  27
ATOM     27  C   UNL     1     -22.017  28.361 -20.208  1.00  0.00     0.130 A 
ATOM     28  C   UNL     1     -23.135  28.678 -20.981  1.00  0.00     0.093 A 
ATOM     29  C   UNL     1     -21.146  27.351 -20.623  1.00  0.00     0.094 A 
ATOM     30  C   UNL     1     -23.346  28.058 -22.220  1.00  0.00     0.133 A 
ATOM     31  C   UNL     1     -21.359  26.701 -21.844  1.00  0.00     0.138 A 
ATOM     32  C   UNL     1     -22.442  27.074 -22.665  1.00  0.00     0.102 A 
ATOM     33  O   UNL     1     -20.489  25.684 -22.256  1.00  0.00    -0.484 OA
ATOM     34  C   UNL     1     -22.558  26.431 -23.993  1.00  0.00     0.174 C 
ATOM     35  C   UNL     1     -20.817  24.798 -23.332  1.00  0.00     0.211 C 
ATOM     36  O   UNL     1     -23.562  26.624 -24.725  1.00  0.00    -0.294 OA
ATOM     37  C   UNL     1     -21.432  25.577 -24.498  1.00  0.00     0.131 C 
BRANCH  30  38
ATOM     38  O   UNL     1     -24.437  28.431 -23.003  1.00  0.00    -0.507 OA
ATOM     39  H   UNL     1     -24.891  29.334 -22.872  1.00  0.00     0.293 HD
ENDBRANCH  30  38
BRANCH  35  40
ATOM     40  C   UNL     1     -19.601  24.038 -23.802  1.00  0.00    -0.003 A 
ATOM     41  C   UNL     1     -19.325  22.744 -23.330  1.00  0.00     0.057 A 
ATOM     42  C   UNL     1     -18.670  24.669 -24.642  1.00  0.00     0.011 A 
ATOM     43  C   UNL     1     -18.171  22.068 -23.738  1.00  0.00     0.158 A 
ATOM     44  C   UNL     1     -17.507  24.009 -25.033  1.00  0.00     0.051 A 
ATOM     45  C   UNL     1     -17.242  22.704 -24.583  1.00  0.00     0.160 A 
BRANCH  43  46
ATOM     46  O   UNL     1     -17.952  20.770 -23.279  1.00  0.00    -0.504 OA
ATOM     47  H   UNL     1     -17.046  20.465 -22.929  1.00  0.00     0.293 HD
ENDBRANCH  43  46
BRANCH  45  48
ATOM     48  O   UNL     1     -16.073  22.015 -24.950  1.00  0.00    -0.493 OA
ATOM     49  C   UNL     1     -14.757  22.422 -24.588  1.00  0.00     0.278 C 
ENDBRANCH  45  48
ENDBRANCH  35  40
ENDBRANCH  26  27
ENDBRANCH   5  26
BRANCH   4  50
ATOM     50  O   UNL     1     -21.500  30.379 -16.424  1.00  0.00    -0.384 OA
ATOM     51  H   UNL     1     -21.210  30.898 -17.218  1.00  0.00     0.211 HD
ENDBRANCH   4  50
TORSDOF 15
ENDMDL
MODEL 3
REMARK VINA RESULT:    -4.623      1.949      7.548
REMARK INTER + INTRA:          -9.888
REMARK INTER:                  -7.367
REMARK INTRA:                  -2.521
REMARK UNBOUND:                -2.292
REMARK SMILES COc1ccc([C@@H]2CC(=O)c3c(O)cc(O[C@H]4O[C@@H](CO[C@H]5O[C@H](C)[C@H](O)[C@H](O)[C@@H]5O)[C@@H](O)[C@H](O)[C@H]4O)cc3O2)cc1O
REMARK SMILES IDX 19 1 32 2 34 3 36 4 17 5 18 6 20 7 21 8 22 9 25 10 24 11
REMARK SMILES IDX 26 12 23 13 28 14 30 15 27 16 29 18 31 20 33 22 35 24 16 26
REMARK SMILES IDX 15 27 14 28 38 29 12 30 39 31 11 32 40 33 9 34 7 35 10 36
REMARK SMILES IDX 8 37 13 38 6 40 41 41 5 42 42 43 4 44 3 45 43 46 2 48 1 49
REMARK SMILES IDX 37 50
REMARK H PARENT 27 17 29 19 31 21 33 23 35 25 13 39 43 47 37 51
REMARK Flexibility Score: inf
ROOT
ATOM      1  C   UNL     1     -23.794  17.378 -16.341  1.00  0.00     0.180 C 
ATOM      2  C   UNL     1     -23.399  18.406 -15.263  1.00  0.00     0.177 C 
ATOM      3  C   UNL     1     -23.584  19.837 -15.833  1.00  0.00     0.180 C 
ATOM      4  C   UNL     1     -22.881  19.975 -17.192  1.00  0.00     0.214 C 
ATOM      5  C   UNL     1     -23.293  18.795 -18.116  1.00  0.00     0.339 C 
ATOM      6  O   UNL     1     -22.994  17.550 -17.505  1.00  0.00    -0.332 OA
ENDROOT
BRANCH   1   7
ATOM      7  C   UNL     1     -23.755  15.920 -15.824  1.00  0.00     0.198 C 
BRANCH   7   8
ATOM      8  O   UNL     1     -22.523  15.554 -15.217  1.00  0.00    -0.347 OA
BRANCH   8   9
ATOM      9  C   UNL     1     -21.780  14.524 -15.871  1.00  0.00     0.281 C 
ATOM     10  C   UNL     1     -20.960  11.597 -14.732  1.00  0.00     0.041 C 
ATOM     11  C   UNL     1     -21.708  12.143 -15.951  1.00  0.00     0.150 C 
ATOM     12  C   UNL     1     -20.814  12.298 -17.217  1.00  0.00     0.174 C 
ATOM     13  O   UNL     1     -22.456  13.307 -15.604  1.00  0.00    -0.344 OA
ATOM     14  C   UNL     1     -21.466  13.331 -18.145  1.00  0.00     0.179 C 
ATOM     15  C   UNL     1     -21.632  14.693 -17.425  1.00  0.00     0.202 C 
BRANCH  12  16
ATOM     16  O   UNL     1     -19.504  12.702 -16.884  1.00  0.00    -0.388 OA
ATOM     17  H   UNL     1     -19.243  13.422 -17.516  1.00  0.00     0.211 HD
ENDBRANCH  12  16
BRANCH  14  18
ATOM     18  O   UNL     1     -20.703  13.483 -19.316  1.00  0.00    -0.387 OA
ATOM     19  H   UNL     1     -19.991  12.794 -19.288  1.00  0.00     0.211 HD
ENDBRANCH  14  18
BRANCH  15  20
ATOM     20  O   UNL     1     -20.554  15.548 -17.740  1.00  0.00    -0.385 OA
ATOM     21  H   UNL     1     -20.891  16.261 -18.349  1.00  0.00     0.211 HD
ENDBRANCH  15  20
ENDBRANCH   8   9
ENDBRANCH   7   8
ENDBRANCH   1   7
BRANCH   2  22
ATOM     22  O   UNL     1     -22.066  18.196 -14.875  1.00  0.00    -0.387 OA
ATOM     23  H   UNL     1     -21.951  17.216 -14.772  1.00  0.00     0.211 HD
ENDBRANCH   2  22
BRANCH   3  24
ATOM     24  O   UNL     1     -24.954  20.124 -15.987  1.00  0.00    -0.387 OA
ATOM     25  H   UNL     1     -25.444  19.516 -15.372  1.00  0.00     0.211 HD
ENDBRANCH   3  24
BRANCH   5  26
ATOM     26  O   UNL     1     -22.690  18.870 -19.414  1.00  0.00    -0.462 OA
BRANCH  26  27
ATOM     27  C   UNL     1     -22.709  17.853 -20.371  1.00  0.00     0.130 A 
ATOM     28  C   UNL     1     -23.891  17.594 -21.066  1.00  0.00     0.093 A 
ATOM     29  C   UNL     1     -21.572  17.077 -20.614  1.00  0.00     0.094 A 
ATOM     30  C   UNL     1     -23.928  16.622 -22.075  1.00  0.00     0.133 A 
ATOM     31  C   UNL     1     -21.601  16.082 -21.599  1.00  0.00     0.138 A 
ATOM     32  C   UNL     1     -22.770  15.872 -22.358  1.00  0.00     0.102 A 
ATOM     33  O   UNL     1     -20.465  15.302 -21.837  1.00  0.00    -0.484 OA
ATOM     34  C   UNL     1     -22.713  14.883 -23.459  1.00  0.00     0.174 C 
ATOM     35  C   UNL     1     -20.522  14.097 -22.610  1.00  0.00     0.211 C 
ATOM     36  O   UNL     1     -23.746  14.557 -24.096  1.00  0.00    -0.294 OA
ATOM     37  C   UNL     1     -21.387  14.303 -23.857  1.00  0.00     0.131 C 
BRANCH  30  38
ATOM     38  O   UNL     1     -25.103  16.420 -22.797  1.00  0.00    -0.507 OA
ATOM     39  H   UNL     1     -25.621  17.206 -23.186  1.00  0.00     0.293 HD
ENDBRANCH  30  38
BRANCH  35  40
ATOM     40  C   UNL     1     -19.142  13.638 -23.009  1.00  0.00    -0.003 A 
ATOM     41  C   UNL     1     -18.034  13.855 -22.173  1.00  0.00     0.057 A 
ATOM     42  C   UNL     1     -18.937  13.082 -24.281  1.00  0.00     0.011 A 
ATOM     43  C   UNL     1     -16.752  13.466 -22.574  1.00  0.00     0.158 A 
ATOM     44  C   UNL     1     -17.658  12.713 -24.696  1.00  0.00     0.051 A 
ATOM     45  C   UNL     1     -16.551  12.905 -23.850  1.00  0.00     0.160 A 
BRANCH  43  46
ATOM     46  O   UNL     1     -15.683  13.661 -21.701  1.00  0.00    -0.504 OA
ATOM     47  H   UNL     1     -15.700  14.372 -20.973  1.00  0.00     0.293 HD
ENDBRANCH  43  46
BRANCH  45  48
ATOM     48  O   UNL     1     -15.247  12.555 -24.242  1.00  0.00    -0.493 OA
ATOM     49  C   UNL     1     -14.748  11.221 -24.263  1.00  0.00     0.278 C 
ENDBRANCH  45  48
ENDBRANCH  35  40
ENDBRANCH  26  27
ENDBRANCH   5  26
BRANCH   4  50
ATOM     50  O   UNL     1     -21.488  19.975 -16.988  1.00  0.00    -0.384 OA
ATOM     51  H   UNL     1     -21.072  20.219 -17.854  1.00  0.00     0.211 HD
ENDBRANCH   4  50
TORSDOF 15
ENDMDL
MODEL 4
REMARK VINA RESULT:    -4.562      3.512      7.308
REMARK INTER + INTRA:          -9.788
REMARK INTER:                  -7.465
REMARK INTRA:                  -2.322
REMARK UNBOUND:                -2.292
REMARK SMILES COc1ccc([C@@H]2CC(=O)c3c(O)cc(O[C@H]4O[C@@H](CO[C@H]5O[C@H](C)[C@H](O)[C@H](O)[C@@H]5O)[C@@H](O)[C@H](O)[C@H]4O)cc3O2)cc1O
REMARK SMILES IDX 19 1 32 2 34 3 36 4 17 5 18 6 20 7 21 8 22 9 25 10 24 11
REMARK SMILES IDX 26 12 23 13 28 14 30 15 27 16 29 18 31 20 33 22 35 24 16 26
REMARK SMILES IDX 15 27 14 28 38 29 12 30 39 31 11 32 40 33 9 34 7 35 10 36
REMARK SMILES IDX 8 37 13 38 6 40 41 41 5 42 42 43 4 44 3 45 43 46 2 48 1 49
REMARK SMILES IDX 37 50
REMARK H PARENT 27 17 29 19 31 21 33 23 35 25 13 39 43 47 37 51
REMARK Flexibility Score: inf
ROOT
ATOM      1  C   UNL     1     -16.081  16.805 -23.865  1.00  0.00     0.180 C 
ATOM      2  C   UNL     1     -16.315  18.217 -24.435  1.00  0.00     0.177 C 
ATOM      3  C   UNL     1     -15.277  19.193 -23.819  1.00  0.00     0.180 C 
ATOM      4  C   UNL     1     -15.261  19.073 -22.288  1.00  0.00     0.214 C 
ATOM      5  C   UNL     1     -15.143  17.578 -21.881  1.00  0.00     0.339 C 
ATOM      6  O   UNL     1     -16.199  16.818 -22.447  1.00  0.00    -0.332 OA
ENDROOT
BRANCH   1   7
ATOM      7  C   UNL     1     -16.994  15.736 -24.512  1.00  0.00     0.198 C 
BRANCH   7   8
ATOM      8  O   UNL     1     -17.539  14.806 -23.586  1.00  0.00    -0.347 OA
BRANCH   8   9
ATOM      9  C   UNL     1     -18.962  14.800 -23.462  1.00  0.00     0.281 C 
ATOM     10  C   UNL     1     -21.123  13.038 -25.125  1.00  0.00     0.041 C 
ATOM     11  C   UNL     1     -20.770  13.258 -23.652  1.00  0.00     0.150 C 
ATOM     12  C   UNL     1     -21.649  14.335 -22.951  1.00  0.00     0.174 C 
ATOM     13  O   UNL     1     -19.363  13.441 -23.493  1.00  0.00    -0.344 OA
ATOM     14  C   UNL     1     -20.883  14.865 -21.731  1.00  0.00     0.179 C 
ATOM     15  C   UNL     1     -19.520  15.466 -22.155  1.00  0.00     0.202 C 
BRANCH  12  16
ATOM     16  O   UNL     1     -21.968  15.396 -23.823  1.00  0.00    -0.388 OA
ATOM     17  H   UNL     1     -22.696  15.923 -23.399  1.00  0.00     0.211 HD
ENDBRANCH  12  16
BRANCH  14  18
ATOM     18  O   UNL     1     -21.655  15.823 -21.051  1.00  0.00    -0.387 OA
ATOM     19  H   UNL     1     -21.136  16.099 -20.254  1.00  0.00     0.211 HD
ENDBRANCH  14  18
BRANCH  15  20
ATOM     20  O   UNL     1     -19.628  16.865 -22.307  1.00  0.00    -0.385 OA
ATOM     21  H   UNL     1     -19.061  17.139 -23.079  1.00  0.00     0.211 HD
ENDBRANCH  15  20
ENDBRANCH   8   9
ENDBRANCH   7   8
ENDBRANCH   1   7
BRANCH   2  22
ATOM     22  O   UNL     1     -17.622  18.636 -24.141  1.00  0.00    -0.387 OA
ATOM     23  H   UNL     1     -18.027  17.927 -23.577  1.00  0.00     0.211 HD
ENDBRANCH   2  22
BRANCH   3  24
ATOM     24  O   UNL     1     -13.991  18.912 -24.320  1.00  0.00    -0.387 OA
ATOM     25  H   UNL     1     -13.342  19.284 -23.667  1.00  0.00     0.211 HD
ENDBRANCH   3  24
BRANCH   5  26
ATOM     26  O   UNL     1     -15.101  17.390 -20.461  1.00  0.00    -0.462 OA
BRANCH  26  27
ATOM     27  C   UNL     1     -15.448  16.213 -19.793  1.00  0.00     0.130 A 
ATOM     28  C   UNL     1     -14.443  15.318 -19.424  1.00  0.00     0.093 A 
ATOM     29  C   UNL     1     -16.785  15.911 -19.522  1.00  0.00     0.094 A 
ATOM     30  C   UNL     1     -14.750  14.159 -18.698  1.00  0.00     0.133 A 
ATOM     31  C   UNL     1     -17.111  14.742 -18.824  1.00  0.00     0.138 A 
ATOM     32  C   UNL     1     -16.092  13.876 -18.379  1.00  0.00     0.102 A 
ATOM     33  O   UNL     1     -18.451  14.438 -18.558  1.00  0.00    -0.484 OA
ATOM     34  C   UNL     1     -16.484  12.712 -17.553  1.00  0.00     0.174 C 
ATOM     35  C   UNL     1     -18.858  13.137 -18.118  1.00  0.00     0.211 C 
ATOM     36  O   UNL     1     -15.646  11.834 -17.225  1.00  0.00    -0.294 OA
ATOM     37  C   UNL     1     -17.894  12.608 -17.051  1.00  0.00     0.131 C 
BRANCH  30  38
ATOM     38  O   UNL     1     -13.724  13.308 -18.289  1.00  0.00    -0.507 OA
ATOM     39  H   UNL     1     -12.826  13.680 -17.982  1.00  0.00     0.293 HD
ENDBRANCH  30  38
BRANCH  35  40
ATOM     40  C   UNL     1     -20.266  13.161 -17.576  1.00  0.00    -0.003 A 
ATOM     41  C   UNL     1     -21.118  14.252 -17.813  1.00  0.00     0.057 A 
ATOM     42  C   UNL     1     -20.700  12.128 -16.729  1.00  0.00     0.011 A 
ATOM     43  C   UNL     1     -22.405  14.282 -17.267  1.00  0.00     0.158 A 
ATOM     44  C   UNL     1     -21.974  12.164 -16.163  1.00  0.00     0.051 A 
ATOM     45  C   UNL     1     -22.838  13.243 -16.422  1.00  0.00     0.160 A 
BRANCH  43  46
ATOM     46  O   UNL     1     -23.237  15.363 -17.558  1.00  0.00    -0.504 OA
ATOM     47  H   UNL     1     -22.934  16.327 -17.436  1.00  0.00     0.293 HD
ENDBRANCH  43  46
BRANCH  45  48
ATOM     48  O   UNL     1     -24.124  13.315 -15.857  1.00  0.00    -0.493 OA
ATOM     49  C   UNL     1     -24.403  13.855 -14.568  1.00  0.00     0.278 C 
ENDBRANCH  45  48
ENDBRANCH  35  40
ENDBRANCH  26  27
ENDBRANCH   5  26
BRANCH   4  50
ATOM     50  O   UNL     1     -16.448  19.628 -21.774  1.00  0.00    -0.384 OA
ATOM     51  H   UNL     1     -17.195  19.253 -22.306  1.00  0.00     0.211 HD
ENDBRANCH   4  50
TORSDOF 15
ENDMDL
MODEL 5
REMARK VINA RESULT:    -4.553      2.214      3.559
REMARK INTER + INTRA:          -9.772
REMARK INTER:                  -7.239
REMARK INTRA:                  -2.533
REMARK UNBOUND:                -2.292
REMARK SMILES COc1ccc([C@@H]2CC(=O)c3c(O)cc(O[C@H]4O[C@@H](CO[C@H]5O[C@H](C)[C@H](O)[C@H](O)[C@@H]5O)[C@@H](O)[C@H](O)[C@H]4O)cc3O2)cc1O
REMARK SMILES IDX 19 1 32 2 34 3 36 4 17 5 18 6 20 7 21 8 22 9 25 10 24 11
REMARK SMILES IDX 26 12 23 13 28 14 30 15 27 16 29 18 31 20 33 22 35 24 16 26
REMARK SMILES IDX 15 27 14 28 38 29 12 30 39 31 11 32 40 33 9 34 7 35 10 36
REMARK SMILES IDX 8 37 13 38 6 40 41 41 5 42 42 43 4 44 3 45 43 46 2 48 1 49
REMARK SMILES IDX 37 50
REMARK H PARENT 27 17 29 19 31 21 33 23 35 25 13 39 43 47 37 51
REMARK Flexibility Score: inf
ROOT
ATOM      1  C   UNL     1     -14.905  13.512 -18.059  1.00  0.00     0.180 C 
ATOM      2  C   UNL     1     -14.337  12.080 -18.027  1.00  0.00     0.177 C 
ATOM      3  C   UNL     1     -13.261  11.935 -19.136  1.00  0.00     0.180 C 
ATOM      4  C   UNL     1     -13.807  12.419 -20.487  1.00  0.00     0.214 C 
ATOM      5  C   UNL     1     -14.453  13.821 -20.319  1.00  0.00     0.339 C 
ATOM      6  O   UNL     1     -15.473  13.791 -19.333  1.00  0.00    -0.332 OA
ENDROOT
BRANCH   1   7
ATOM      7  C   UNL     1     -15.904  13.788 -16.909  1.00  0.00     0.198 C 
BRANCH   7   8
ATOM      8  O   UNL     1     -16.483  12.616 -16.352  1.00  0.00    -0.347 OA
BRANCH   8   9
ATOM      9  C   UNL     1     -17.853  12.375 -16.677  1.00  0.00     0.281 C 
ATOM     10  C   UNL     1     -20.213  11.250 -14.753  1.00  0.00     0.041 C 
ATOM     11  C   UNL     1     -19.990  12.487 -15.626  1.00  0.00     0.150 C 
ATOM     12  C   UNL     1     -20.602  12.367 -17.053  1.00  0.00     0.174 C 
ATOM     13  O   UNL     1     -18.619  12.883 -15.598  1.00  0.00    -0.344 OA
ATOM     14  C   UNL     1     -19.867  13.345 -17.978  1.00  0.00     0.179 C 
ATOM     15  C   UNL     1     -18.349  13.040 -18.010  1.00  0.00     0.202 C 
BRANCH  12  16
ATOM     16  O   UNL     1     -20.500  11.053 -17.555  1.00  0.00    -0.388 OA
ATOM     17  H   UNL     1     -20.626  11.098 -18.539  1.00  0.00     0.211 HD
ENDBRANCH  12  16
BRANCH  14  18
ATOM     18  O   UNL     1     -20.409  13.289 -19.274  1.00  0.00    -0.387 OA
ATOM     19  H   UNL     1     -20.175  14.141 -19.723  1.00  0.00     0.211 HD
ENDBRANCH  14  18
BRANCH  15  20
ATOM     20  O   UNL     1     -18.035  12.234 -19.125  1.00  0.00    -0.385 OA
ATOM     21  H   UNL     1     -17.136  11.832 -18.975  1.00  0.00     0.211 HD
ENDBRANCH  15  20
ENDBRANCH   8   9
ENDBRANCH   7   8
ENDBRANCH   1   7
BRANCH   2  22
ATOM     22  O   UNL     1     -15.375  11.154 -18.220  1.00  0.00    -0.387 OA
ATOM     23  H   UNL     1     -15.251  10.443 -17.540  1.00  0.00     0.211 HD
ENDBRANCH   2  22
BRANCH   3  24
ATOM     24  O   UNL     1     -12.117  12.684 -18.801  1.00  0.00    -0.387 OA
ATOM     25  H   UNL     1     -12.317  13.629 -19.032  1.00  0.00     0.211 HD
ENDBRANCH   3  24
BRANCH   5  26
ATOM     26  O   UNL     1     -14.967  14.348 -21.549  1.00  0.00    -0.462 OA
BRANCH  26  27
ATOM     27  C   UNL     1     -16.295  14.261 -21.971  1.00  0.00     0.130 A 
ATOM     28  C   UNL     1     -16.619  13.414 -23.032  1.00  0.00     0.093 A 
ATOM     29  C   UNL     1     -17.291  15.033 -21.366  1.00  0.00     0.094 A 
ATOM     30  C   UNL     1     -17.951  13.258 -23.440  1.00  0.00     0.133 A 
ATOM     31  C   UNL     1     -18.622  14.910 -21.782  1.00  0.00     0.138 A 
ATOM     32  C   UNL     1     -18.964  13.997 -22.799  1.00  0.00     0.102 A 
ATOM     33  O   UNL     1     -19.618  15.688 -21.179  1.00  0.00    -0.484 OA
ATOM     34  C   UNL     1     -20.398  13.827 -23.125  1.00  0.00     0.174 C 
ATOM     35  C   UNL     1     -20.924  15.820 -21.751  1.00  0.00     0.211 C 
ATOM     36  O   UNL     1     -20.766  13.124 -24.100  1.00  0.00    -0.294 OA
ATOM     37  C   UNL     1     -21.432  14.461 -22.242  1.00  0.00     0.131 C 
BRANCH  30  38
ATOM     38  O   UNL     1     -18.258  12.363 -24.464  1.00  0.00    -0.507 OA
ATOM     39  H   UNL     1     -19.210  12.023 -24.594  1.00  0.00     0.293 HD
ENDBRANCH  30  38
BRANCH  35  40
ATOM     40  C   UNL     1     -21.897  16.408 -20.759  1.00  0.00    -0.003 A 
ATOM     41  C   UNL     1     -23.074  17.044 -21.185  1.00  0.00     0.057 A 
ATOM     42  C   UNL     1     -21.573  16.420 -19.394  1.00  0.00     0.011 A 
ATOM     43  C   UNL     1     -23.946  17.625 -20.259  1.00  0.00     0.158 A 
ATOM     44  C   UNL     1     -22.425  17.018 -18.467  1.00  0.00     0.051 A 
ATOM     45  C   UNL     1     -23.619  17.631 -18.890  1.00  0.00     0.160 A 
BRANCH  43  46
ATOM     46  O   UNL     1     -25.125  18.211 -20.717  1.00  0.00    -0.504 OA
ATOM     47  H   UNL     1     -25.393  19.160 -20.463  1.00  0.00     0.293 HD
ENDBRANCH  43  46
BRANCH  45  48
ATOM     48  O   UNL     1     -24.494  18.254 -17.983  1.00  0.00    -0.493 OA
ATOM     49  C   UNL     1     -24.492  18.019 -16.578  1.00  0.00     0.278 C 
ENDBRANCH  45  48
ENDBRANCH  35  40
ENDBRANCH  26  27
ENDBRANCH   5  26
BRANCH   4  50
ATOM     50  O   UNL     1     -14.759  11.493 -20.954  1.00  0.00    -0.384 OA
ATOM     51  H   UNL     1     -15.651  11.897 -20.802  1.00  0.00     0.211 HD
ENDBRANCH   4  50
TORSDOF 15
ENDMDL
MODEL 6
REMARK VINA RESULT:    -4.542      1.619      2.370
REMARK INTER + INTRA:          -9.755
REMARK INTER:                  -7.118
REMARK INTRA:                  -2.637
REMARK UNBOUND:                -2.292
REMARK SMILES COc1ccc([C@@H]2CC(=O)c3c(O)cc(O[C@H]4O[C@@H](CO[C@H]5O[C@H](C)[C@H](O)[C@H](O)[C@@H]5O)[C@@H](O)[C@H](O)[C@H]4O)cc3O2)cc1O
REMARK SMILES IDX 19 1 32 2 34 3 36 4 17 5 18 6 20 7 21 8 22 9 25 10 24 11
REMARK SMILES IDX 26 12 23 13 28 14 30 15 27 16 29 18 31 20 33 22 35 24 16 26
REMARK SMILES IDX 15 27 14 28 38 29 12 30 39 31 11 32 40 33 9 34 7 35 10 36
REMARK SMILES IDX 8 37 13 38 6 40 41 41 5 42 42 43 4 44 3 45 43 46 2 48 1 49
REMARK SMILES IDX 37 50
REMARK H PARENT 27 17 29 19 31 21 33 23 35 25 13 39 43 47 37 51
REMARK Flexibility Score: inf
ROOT
ATOM      1  C   UNL     1     -18.100  14.275 -17.805  1.00  0.00     0.180 C 
ATOM      2  C   UNL     1     -17.635  12.920 -18.372  1.00  0.00     0.177 C 
ATOM      3  C   UNL     1     -16.679  13.170 -19.569  1.00  0.00     0.180 C 
ATOM      4  C   UNL     1     -17.312  14.145 -20.573  1.00  0.00     0.214 C 
ATOM      5  C   UNL     1     -17.838  15.400 -19.824  1.00  0.00     0.339 C 
ATOM      6  O   UNL     1     -18.762  15.031 -18.812  1.00  0.00    -0.332 OA
ENDROOT
BRANCH   1   7
ATOM      7  C   UNL     1     -18.966  14.128 -16.530  1.00  0.00     0.198 C 
BRANCH   7   8
ATOM      8  O   UNL     1     -20.089  13.273 -16.690  1.00  0.00    -0.347 OA
BRANCH   8   9
ATOM      9  C   UNL     1     -21.363  13.841 -16.383  1.00  0.00     0.281 C 
ATOM     10  C   UNL     1     -22.291  16.945 -16.600  1.00  0.00     0.041 C 
ATOM     11  C   UNL     1     -22.773  15.602 -17.156  1.00  0.00     0.150 C 
ATOM     12  C   UNL     1     -23.907  14.946 -16.315  1.00  0.00     0.174 C 
ATOM     13  O   UNL     1     -21.665  14.745 -17.433  1.00  0.00    -0.344 OA
ATOM     14  C   UNL     1     -23.909  13.438 -16.598  1.00  0.00     0.179 C 
ATOM     15  C   UNL     1     -22.538  12.809 -16.246  1.00  0.00     0.202 C 
BRANCH  12  16
ATOM     16  O   UNL     1     -23.736  15.181 -14.935  1.00  0.00    -0.388 OA
ATOM     17  H   UNL     1     -24.152  16.058 -14.726  1.00  0.00     0.211 HD
ENDBRANCH  12  16
BRANCH  14  18
ATOM     18  O   UNL     1     -24.940  12.809 -15.878  1.00  0.00    -0.387 OA
ATOM     19  H   UNL     1     -25.540  12.386 -16.543  1.00  0.00     0.211 HD
ENDBRANCH  14  18
BRANCH  15  20
ATOM     20  O   UNL     1     -22.574  12.252 -14.950  1.00  0.00    -0.385 OA
ATOM     21  H   UNL     1     -22.871  11.304 -15.027  1.00  0.00     0.211 HD
ENDBRANCH  15  20
ENDBRANCH   8   9
ENDBRANCH   7   8
ENDBRANCH   1   7
BRANCH   2  22
ATOM     22  O   UNL     1     -18.749  12.168 -18.778  1.00  0.00    -0.387 OA
ATOM     23  H   UNL     1     -18.529  11.794 -19.670  1.00  0.00     0.211 HD
ENDBRANCH   2  22
BRANCH   3  24
ATOM     24  O   UNL     1     -15.459  13.702 -19.111  1.00  0.00    -0.387 OA
ATOM     25  H   UNL     1     -15.272  14.507 -19.663  1.00  0.00     0.211 HD
ENDBRANCH   3  24
BRANCH   5  26
ATOM     26  O   UNL     1     -18.425  16.367 -20.704  1.00  0.00    -0.462 OA
BRANCH  26  27
ATOM     27  C   UNL     1     -19.776  16.720 -20.729  1.00  0.00     0.130 A 
ATOM     28  C   UNL     1     -20.661  15.970 -21.504  1.00  0.00     0.093 A 
ATOM     29  C   UNL     1     -20.240  17.829 -20.016  1.00  0.00     0.094 A 
ATOM     30  C   UNL     1     -22.033  16.259 -21.504  1.00  0.00     0.133 A 
ATOM     31  C   UNL     1     -21.603  18.148 -20.028  1.00  0.00     0.138 A 
ATOM     32  C   UNL     1     -22.512  17.345 -20.746  1.00  0.00     0.102 A 
ATOM     33  O   UNL     1     -22.067  19.262 -19.319  1.00  0.00    -0.484 OA
ATOM     34  C   UNL     1     -23.954  17.663 -20.638  1.00  0.00     0.174 C 
ATOM     35  C   UNL     1     -23.376  19.801 -19.529  1.00  0.00     0.211 C 
ATOM     36  O   UNL     1     -24.808  17.068 -21.343  1.00  0.00    -0.294 OA
ATOM     37  C   UNL     1     -24.409  18.675 -19.628  1.00  0.00     0.131 C 
BRANCH  30  38
ATOM     38  O   UNL     1     -22.907  15.460 -22.240  1.00  0.00    -0.507 OA
ATOM     39  H   UNL     1     -22.961  15.540 -23.254  1.00  0.00     0.293 HD
ENDBRANCH  30  38
BRANCH  35  40
ATOM     40  C   UNL     1     -23.757  20.756 -18.424  1.00  0.00    -0.003 A 
ATOM     41  C   UNL     1     -23.524  22.136 -18.543  1.00  0.00     0.057 A 
ATOM     42  C   UNL     1     -24.252  20.251 -17.211  1.00  0.00     0.011 A 
ATOM     43  C   UNL     1     -23.839  23.005 -17.494  1.00  0.00     0.158 A 
ATOM     44  C   UNL     1     -24.546  21.109 -16.153  1.00  0.00     0.051 A 
ATOM     45  C   UNL     1     -24.339  22.495 -16.281  1.00  0.00     0.160 A 
BRANCH  43  46
ATOM     46  O   UNL     1     -23.632  24.373 -17.664  1.00  0.00    -0.504 OA
ATOM     47  H   UNL     1     -23.657  24.814 -18.581  1.00  0.00     0.293 HD
ENDBRANCH  43  46
BRANCH  45  48
ATOM     48  O   UNL     1     -24.614  23.386 -15.229  1.00  0.00    -0.493 OA
ATOM     49  C   UNL     1     -23.794  23.539 -14.074  1.00  0.00     0.278 C 
ENDBRANCH  45  48
ENDBRANCH  35  40
ENDBRANCH  26  27
ENDBRANCH   5  26
BRANCH   4  50
ATOM     50  O   UNL     1     -18.367  13.494 -21.240  1.00  0.00    -0.384 OA
ATOM     51  H   UNL     1     -18.362  13.823 -22.175  1.00  0.00     0.211 HD
ENDBRANCH   4  50
TORSDOF 15
ENDMDL
MODEL 7
REMARK VINA RESULT:    -4.529      8.989     13.678
REMARK INTER + INTRA:          -9.734
REMARK INTER:                  -7.077
REMARK INTRA:                  -2.657
REMARK UNBOUND:                -2.292
REMARK SMILES COc1ccc([C@@H]2CC(=O)c3c(O)cc(O[C@H]4O[C@@H](CO[C@H]5O[C@H](C)[C@H](O)[C@H](O)[C@@H]5O)[C@@H](O)[C@H](O)[C@H]4O)cc3O2)cc1O
REMARK SMILES IDX 19 1 32 2 34 3 36 4 17 5 18 6 20 7 21 8 22 9 25 10 24 11
REMARK SMILES IDX 26 12 23 13 28 14 30 15 27 16 29 18 31 20 33 22 35 24 16 26
REMARK SMILES IDX 15 27 14 28 38 29 12 30 39 31 11 32 40 33 9 34 7 35 10 36
REMARK SMILES IDX 8 37 13 38 6 40 41 41 5 42 42 43 4 44 3 45 43 46 2 48 1 49
REMARK SMILES IDX 37 50
REMARK H PARENT 27 17 29 19 31 21 33 23 35 25 13 39 43 47 37 51
REMARK Flexibility Score: inf
ROOT
ATOM      1  C   UNL     1     -22.180  28.294 -20.133  1.00  0.00     0.180 C 
ATOM      2  C   UNL     1     -22.795  27.643 -18.880  1.00  0.00     0.177 C 
ATOM      3  C   UNL     1     -22.024  28.129 -17.623  1.00  0.00     0.180 C 
ATOM      4  C   UNL     1     -20.511  27.945 -17.810  1.00  0.00     0.214 C 
ATOM      5  C   UNL     1     -20.075  28.547 -19.175  1.00  0.00     0.339 C 
ATOM      6  O   UNL     1     -20.801  27.956 -20.241  1.00  0.00    -0.332 OA
ENDROOT
BRANCH   1   7
ATOM      7  C   UNL     1     -22.959  27.961 -21.428  1.00  0.00     0.198 C 
BRANCH   7   8
ATOM      8  O   UNL     1     -22.128  27.638 -22.535  1.00  0.00    -0.347 OA
BRANCH   8   9
ATOM      9  C   UNL     1     -22.080  26.260 -22.907  1.00  0.00     0.281 C 
ATOM     10  C   UNL     1     -23.877  24.703 -25.117  1.00  0.00     0.041 C 
ATOM     11  C   UNL     1     -22.385  24.917 -24.853  1.00  0.00     0.150 C 
ATOM     12  C   UNL     1     -21.717  23.759 -24.054  1.00  0.00     0.174 C 
ATOM     13  O   UNL     1     -22.149  26.221 -24.322  1.00  0.00    -0.344 OA
ATOM     14  C   UNL     1     -20.452  24.305 -23.378  1.00  0.00     0.179 C 
ATOM     15  C   UNL     1     -20.795  25.488 -22.438  1.00  0.00     0.202 C 
BRANCH  12  16
ATOM     16  O   UNL     1     -22.591  23.222 -23.086  1.00  0.00    -0.388 OA
ATOM     17  H   UNL     1     -23.172  22.559 -23.543  1.00  0.00     0.211 HD
ENDBRANCH  12  16
BRANCH  14  18
ATOM     18  O   UNL     1     -19.802  23.282 -22.666  1.00  0.00    -0.387 OA
ATOM     19  H   UNL     1     -20.023  22.429 -23.118  1.00  0.00     0.211 HD
ENDBRANCH  14  18
BRANCH  15  20
ATOM     20  O   UNL     1     -20.934  25.033 -21.110  1.00  0.00    -0.385 OA
ATOM     21  H   UNL     1     -21.615  25.602 -20.656  1.00  0.00     0.211 HD
ENDBRANCH  15  20
ENDBRANCH   8   9
ENDBRANCH   7   8
ENDBRANCH   1   7
BRANCH   2  22
ATOM     22  O   UNL     1     -22.728  26.245 -18.991  1.00  0.00    -0.387 OA
ATOM     23  H   UNL     1     -23.537  25.961 -19.490  1.00  0.00     0.211 HD
ENDBRANCH   2  22
BRANCH   3  24
ATOM     24  O   UNL     1     -22.301  29.489 -17.382  1.00  0.00    -0.387 OA
ATOM     25  H   UNL     1     -23.269  29.550 -17.168  1.00  0.00     0.211 HD
ENDBRANCH   3  24
BRANCH   5  26
ATOM     26  O   UNL     1     -18.666  28.430 -19.409  1.00  0.00    -0.462 OA
BRANCH  26  27
ATOM     27  C   UNL     1     -18.067  28.266 -20.660  1.00  0.00     0.130 A 
ATOM     28  C   UNL     1     -17.667  29.396 -21.376  1.00  0.00     0.093 A 
ATOM     29  C   UNL     1     -17.896  26.994 -21.211  1.00  0.00     0.094 A 
ATOM     30  C   UNL     1     -17.008  29.264 -22.607  1.00  0.00     0.133 A 
ATOM     31  C   UNL     1     -17.266  26.847 -22.453  1.00  0.00     0.138 A 
ATOM     32  C   UNL     1     -16.789  27.980 -23.142  1.00  0.00     0.102 A 
ATOM     33  O   UNL     1     -17.100  25.573 -23.007  1.00  0.00    -0.484 OA
ATOM     34  C   UNL     1     -16.035  27.761 -24.397  1.00  0.00     0.174 C 
ATOM     35  C   UNL     1     -16.737  25.386 -24.379  1.00  0.00     0.211 C 
ATOM     36  O   UNL     1     -15.686  28.725 -25.125  1.00  0.00    -0.294 OA
ATOM     37  C   UNL     1     -15.631  26.367 -24.778  1.00  0.00     0.131 C 
BRANCH  30  38
ATOM     38  O   UNL     1     -16.565  30.403 -23.278  1.00  0.00    -0.507 OA
ATOM     39  H   UNL     1     -15.669  30.410 -23.763  1.00  0.00     0.293 HD
ENDBRANCH  30  38
BRANCH  35  40
ATOM     40  C   UNL     1     -16.289  23.968 -24.637  1.00  0.00    -0.003 A 
ATOM     41  C   UNL     1     -17.218  22.923 -24.761  1.00  0.00     0.057 A 
ATOM     42  C   UNL     1     -14.918  23.666 -24.645  1.00  0.00     0.011 A 
ATOM     43  C   UNL     1     -16.788  21.606 -24.953  1.00  0.00     0.158 A 
ATOM     44  C   UNL     1     -14.483  22.352 -24.813  1.00  0.00     0.051 A 
ATOM     45  C   UNL     1     -15.412  21.308 -24.965  1.00  0.00     0.160 A 
BRANCH  43  46
ATOM     46  O   UNL     1     -17.741  20.601 -25.113  1.00  0.00    -0.504 OA
ATOM     47  H   UNL     1     -18.141  20.104 -24.320  1.00  0.00     0.293 HD
ENDBRANCH  43  46
BRANCH  45  48
ATOM     48  O   UNL     1     -15.007  19.971 -25.125  1.00  0.00    -0.493 OA
ATOM     49  C   UNL     1     -14.152  19.280 -24.218  1.00  0.00     0.278 C 
ENDBRANCH  45  48
ENDBRANCH  35  40
ENDBRANCH  26  27
ENDBRANCH   5  26
BRANCH   4  50
ATOM     50  O   UNL     1     -20.208  26.571 -17.761  1.00  0.00    -0.384 OA
ATOM     51  H   UNL     1     -19.768  26.343 -18.620  1.00  0.00     0.211 HD
ENDBRANCH   4  50
TORSDOF 15
ENDMDL
MODEL 8
REMARK VINA RESULT:    -4.496      2.873      6.730
REMARK INTER + INTRA:          -9.679
REMARK INTER:                  -6.986
REMARK INTRA:                  -2.693
REMARK UNBOUND:                -2.292
REMARK SMILES COc1ccc([C@@H]2CC(=O)c3c(O)cc(O[C@H]4O[C@@H](CO[C@H]5O[C@H](C)[C@H](O)[C@H](O)[C@@H]5O)[C@@H](O)[C@H](O)[C@H]4O)cc3O2)cc1O
REMARK SMILES IDX 19 1 32 2 34 3 36 4 17 5 18 6 20 7 21 8 22 9 25 10 24 11
REMARK SMILES IDX 26 12 23 13 28 14 30 15 27 16 29 18 31 20 33 22 35 24 16 26
REMARK SMILES IDX 15 27 14 28 38 29 12 30 39 31 11 32 40 33 9 34 7 35 10 36
REMARK SMILES IDX 8 37 13 38 6 40 41 41 5 42 42 43 4 44 3 45 43 46 2 48 1 49
REMARK SMILES IDX 37 50
REMARK H PARENT 27 17 29 19 31 21 33 23 35 25 13 39 43 47 37 51
REMARK Flexibility Score: inf
ROOT
ATOM      1  C   UNL     1     -16.287  14.620 -22.271  1.00  0.00     0.180 C 
ATOM      2  C   UNL     1     -15.540  13.988 -23.461  1.00  0.00     0.177 C 
ATOM      3  C   UNL     1     -15.365  12.467 -23.202  1.00  0.00     0.180 C 
ATOM      4  C   UNL     1     -14.761  12.220 -21.812  1.00  0.00     0.214 C 
ATOM      5  C   UNL     1     -15.554  13.024 -20.746  1.00  0.00     0.339 C 
ATOM      6  O   UNL     1     -15.565  14.407 -21.063  1.00  0.00    -0.332 OA
ENDROOT
BRANCH   1   7
ATOM      7  C   UNL     1     -16.614  16.116 -22.492  1.00  0.00     0.198 C 
BRANCH   7   8
ATOM      8  O   UNL     1     -17.994  16.381 -22.704  1.00  0.00    -0.347 OA
BRANCH   8   9
ATOM      9  C   UNL     1     -18.910  15.630 -21.905  1.00  0.00     0.281 C 
ATOM     10  C   UNL     1     -19.787  16.148 -18.822  1.00  0.00     0.041 C 
ATOM     11  C   UNL     1     -20.500  16.010 -20.170  1.00  0.00     0.150 C 
ATOM     12  C   UNL     1     -21.027  14.573 -20.456  1.00  0.00     0.174 C 
ATOM     13  O   UNL     1     -19.712  16.576 -21.217  1.00  0.00    -0.344 OA
ATOM     14  C   UNL     1     -21.190  14.412 -21.973  1.00  0.00     0.179 C 
ATOM     15  C   UNL     1     -19.845  14.653 -22.702  1.00  0.00     0.202 C 
BRANCH  12  16
ATOM     16  O   UNL     1     -20.152  13.587 -19.954  1.00  0.00    -0.388 OA
ATOM     17  H   UNL     1     -20.501  13.299 -19.070  1.00  0.00     0.211 HD
ENDBRANCH  12  16
BRANCH  14  18
ATOM     18  O   UNL     1     -21.692  13.133 -22.275  1.00  0.00    -0.387 OA
ATOM     19  H   UNL     1     -20.926  12.507 -22.239  1.00  0.00     0.211 HD
ENDBRANCH  14  18
BRANCH  15  20
ATOM     20  O   UNL     1     -19.197  13.425 -22.953  1.00  0.00    -0.385 OA
ATOM     21  H   UNL     1     -18.612  13.540 -23.751  1.00  0.00     0.211 HD
ENDBRANCH  15  20
ENDBRANCH   8   9
ENDBRANCH   7   8
ENDBRANCH   1   7
BRANCH   2  22
ATOM     22  O   UNL     1     -14.292  14.609 -23.620  1.00  0.00    -0.387 OA
ATOM     23  H   UNL     1     -14.040  14.972 -22.732  1.00  0.00     0.211 HD
ENDBRANCH   2  22
BRANCH   3  24
ATOM     24  O   UNL     1     -16.610  11.815 -23.291  1.00  0.00    -0.387 OA
ATOM     25  H   UNL     1     -16.507  11.092 -23.963  1.00  0.00     0.211 HD
ENDBRANCH   3  24
BRANCH   5  26
ATOM     26  O   UNL     1     -15.057  12.824 -19.416  1.00  0.00    -0.462 OA
BRANCH  26  27
ATOM     27  C   UNL     1     -15.844  12.554 -18.294  1.00  0.00     0.130 A 
ATOM     28  C   UNL     1     -15.278  11.876 -17.213  1.00  0.00     0.093 A 
ATOM     29  C   UNL     1     -17.191  12.926 -18.257  1.00  0.00     0.094 A 
ATOM     30  C   UNL     1     -16.021  11.644 -16.047  1.00  0.00     0.133 A 
ATOM     31  C   UNL     1     -17.955  12.675 -17.111  1.00  0.00     0.138 A 
ATOM     32  C   UNL     1     -17.365  12.061 -15.987  1.00  0.00     0.102 A 
ATOM     33  O   UNL     1     -19.305  13.042 -17.077  1.00  0.00    -0.484 OA
ATOM     34  C   UNL     1     -18.187  11.918 -14.765  1.00  0.00     0.174 C 
ATOM     35  C   UNL     1     -20.196  12.555 -16.067  1.00  0.00     0.211 C 
ATOM     36  O   UNL     1     -17.768  11.275 -13.769  1.00  0.00    -0.294 OA
ATOM     37  C   UNL     1     -19.522  12.600 -14.693  1.00  0.00     0.131 C 
BRANCH  30  38
ATOM     38  O   UNL     1     -15.419  11.016 -14.958  1.00  0.00    -0.507 OA
ATOM     39  H   UNL     1     -15.854  11.035 -14.037  1.00  0.00     0.293 HD
ENDBRANCH  30  38
BRANCH  35  40
ATOM     40  C   UNL     1     -21.478  13.350 -16.041  1.00  0.00    -0.003 A 
ATOM     41  C   UNL     1     -22.719  12.736 -16.275  1.00  0.00     0.057 A 
ATOM     42  C   UNL     1     -21.425  14.744 -15.888  1.00  0.00     0.011 A 
ATOM     43  C   UNL     1     -23.895  13.492 -16.294  1.00  0.00     0.158 A 
ATOM     44  C   UNL     1     -22.592  15.507 -15.929  1.00  0.00     0.051 A 
ATOM     45  C   UNL     1     -23.839  14.890 -16.136  1.00  0.00     0.160 A 
BRANCH  43  46
ATOM     46  O   UNL     1     -25.113  12.842 -16.489  1.00  0.00    -0.504 OA
ATOM     47  H   UNL     1     -25.604  12.867 -17.380  1.00  0.00     0.293 HD
ENDBRANCH  43  46
BRANCH  45  48
ATOM     48  O   UNL     1     -25.032  15.631 -16.194  1.00  0.00    -0.493 OA
ATOM     49  C   UNL     1     -25.125  16.962 -16.693  1.00  0.00     0.278 C 
ENDBRANCH  45  48
ENDBRANCH  35  40
ENDBRANCH  26  27
ENDBRANCH   5  26
BRANCH   4  50
ATOM     50  O   UNL     1     -13.411  12.618 -21.824  1.00  0.00    -0.384 OA
ATOM     51  H   UNL     1     -13.076  12.471 -22.745  1.00  0.00     0.211 HD
ENDBRANCH   4  50
TORSDOF 15
ENDMDL
MODEL 9
REMARK VINA RESULT:    -4.437      2.323      5.871
REMARK INTER + INTRA:          -9.583
REMARK INTER:                  -7.312
REMARK INTRA:                  -2.271
REMARK UNBOUND:                -2.292
REMARK SMILES COc1ccc([C@@H]2CC(=O)c3c(O)cc(O[C@H]4O[C@@H](CO[C@H]5O[C@H](C)[C@H](O)[C@H](O)[C@@H]5O)[C@@H](O)[C@H](O)[C@H]4O)cc3O2)cc1O
REMARK SMILES IDX 19 1 32 2 34 3 36 4 17 5 18 6 20 7 21 8 22 9 25 10 24 11
REMARK SMILES IDX 26 12 23 13 28 14 30 15 27 16 29 18 31 20 33 22 35 24 16 26
REMARK SMILES IDX 15 27 14 28 38 29 12 30 39 31 11 32 40 33 9 34 7 35 10 36
REMARK SMILES IDX 8 37 13 38 6 40 41 41 5 42 42 43 4 44 3 45 43 46 2 48 1 49
REMARK SMILES IDX 37 50
REMARK H PARENT 27 17 29 19 31 21 33 23 35 25 13 39 43 47 37 51
REMARK Flexibility Score: inf
ROOT
ATOM      1  C   UNL     1     -19.617  13.971 -16.920  1.00  0.00     0.180 C 
ATOM      2  C   UNL     1     -19.115  12.630 -16.352  1.00  0.00     0.177 C 
ATOM      3  C   UNL     1     -20.175  11.530 -16.630  1.00  0.00     0.180 C 
ATOM      4  C   UNL     1     -21.565  11.988 -16.163  1.00  0.00     0.214 C 
ATOM      5  C   UNL     1     -21.865  13.406 -16.721  1.00  0.00     0.339 C 
ATOM      6  O   UNL     1     -20.860  14.326 -16.324  1.00  0.00    -0.332 OA
ENDROOT
BRANCH   1   7
ATOM      7  C   UNL     1     -18.572  15.106 -16.795  1.00  0.00     0.198 C 
BRANCH   7   8
ATOM      8  O   UNL     1     -17.912  15.418 -18.014  1.00  0.00    -0.347 OA
BRANCH   8   9
ATOM      9  C   UNL     1     -18.611  15.083 -19.214  1.00  0.00     0.281 C 
ATOM     10  C   UNL     1     -21.210  16.535 -20.506  1.00  0.00     0.041 C 
ATOM     11  C   UNL     1     -19.793  16.184 -20.966  1.00  0.00     0.150 C 
ATOM     12  C   UNL     1     -19.703  14.843 -21.753  1.00  0.00     0.174 C 
ATOM     13  O   UNL     1     -18.868  16.304 -19.885  1.00  0.00    -0.344 OA
ATOM     14  C   UNL     1     -18.261  14.326 -21.663  1.00  0.00     0.179 C 
ATOM     15  C   UNL     1     -17.841  14.120 -20.186  1.00  0.00     0.202 C 
BRANCH  12  16
ATOM     16  O   UNL     1     -20.598  13.879 -21.245  1.00  0.00    -0.388 OA
ATOM     17  H   UNL     1     -20.854  14.162 -20.328  1.00  0.00     0.211 HD
ENDBRANCH  12  16
BRANCH  14  18
ATOM     18  O   UNL     1     -18.129  13.127 -22.385  1.00  0.00    -0.387 OA
ATOM     19  H   UNL     1     -17.191  13.083 -22.701  1.00  0.00     0.211 HD
ENDBRANCH  14  18
BRANCH  15  20
ATOM     20  O   UNL     1     -18.020  12.771 -19.810  1.00  0.00    -0.385 OA
ATOM     21  H   UNL     1     -18.989  12.553 -19.887  1.00  0.00     0.211 HD
ENDBRANCH  15  20
ENDBRANCH   8   9
ENDBRANCH   7   8
ENDBRANCH   1   7
BRANCH   2  22
ATOM     22  O   UNL     1     -18.883  12.756 -14.973  1.00  0.00    -0.387 OA
ATOM     23  H   UNL     1     -18.836  13.728 -14.781  1.00  0.00     0.211 HD
ENDBRANCH   2  22
BRANCH   3  24
ATOM     24  O   UNL     1     -20.220  11.238 -18.007  1.00  0.00    -0.387 OA
ATOM     25  H   UNL     1     -20.861  10.488 -18.119  1.00  0.00     0.211 HD
ENDBRANCH   3  24
BRANCH   5  26
ATOM     26  O   UNL     1     -23.159  13.890 -16.342  1.00  0.00    -0.462 OA
BRANCH  26  27
ATOM     27  C   UNL     1     -23.553  15.230 -16.349  1.00  0.00     0.130 A 
ATOM     28  C   UNL     1     -24.128  15.777 -15.200  1.00  0.00     0.093 A 
ATOM     29  C   UNL     1     -23.407  16.014 -17.497  1.00  0.00     0.094 A 
ATOM     30  C   UNL     1     -24.477  17.133 -15.153  1.00  0.00     0.133 A 
ATOM     31  C   UNL     1     -23.779  17.363 -17.475  1.00  0.00     0.138 A 
ATOM     32  C   UNL     1     -24.285  17.939 -16.292  1.00  0.00     0.102 A 
ATOM     33  O   UNL     1     -23.638  18.146 -18.627  1.00  0.00    -0.484 OA
ATOM     34  C   UNL     1     -24.560  19.394 -16.292  1.00  0.00     0.174 C 
ATOM     35  C   UNL     1     -24.263  19.428 -18.751  1.00  0.00     0.211 C 
ATOM     36  O   UNL     1     -25.125  19.950 -15.317  1.00  0.00    -0.294 OA
ATOM     37  C   UNL     1     -24.106  20.228 -17.454  1.00  0.00     0.131 C 
BRANCH  30  38
ATOM     38  O   UNL     1     -24.996  17.672 -13.977  1.00  0.00    -0.507 OA
ATOM     39  H   UNL     1     -25.617  18.480 -14.000  1.00  0.00     0.293 HD
ENDBRANCH  30  38
BRANCH  35  40
ATOM     40  C   UNL     1     -23.688  20.205 -19.910  1.00  0.00    -0.003 A 
ATOM     41  C   UNL     1     -23.961  19.839 -21.238  1.00  0.00     0.057 A 
ATOM     42  C   UNL     1     -22.778  21.245 -19.664  1.00  0.00     0.011 A 
ATOM     43  C   UNL     1     -23.386  20.539 -22.303  1.00  0.00     0.158 A 
ATOM     44  C   UNL     1     -22.182  21.931 -20.721  1.00  0.00     0.051 A 
ATOM     45  C   UNL     1     -22.476  21.584 -22.052  1.00  0.00     0.160 A 
BRANCH  43  46
ATOM     46  O   UNL     1     -23.713  20.172 -23.608  1.00  0.00    -0.504 OA
ATOM     47  H   UNL     1     -23.006  20.045 -24.328  1.00  0.00     0.293 HD
ENDBRANCH  43  46
BRANCH  45  48
ATOM     48  O   UNL     1     -21.884  22.248 -23.140  1.00  0.00    -0.493 OA
ATOM     49  C   UNL     1     -20.699  21.809 -23.797  1.00  0.00     0.278 C 
ENDBRANCH  45  48
ENDBRANCH  35  40
ENDBRANCH  26  27
ENDBRANCH   5  26
BRANCH   4  50
ATOM     50  O   UNL     1     -21.593  11.998 -14.755  1.00  0.00    -0.384 OA
ATOM     51  H   UNL     1     -22.191  11.259 -14.474  1.00  0.00     0.211 HD
ENDBRANCH   4  50
TORSDOF 15
ENDMDL
