MODEL 1
REMARK VINA RESULT:    -4.466      0.000      0.000
REMARK INTER + INTRA:          -4.466
REMARK INTER:                  -4.466
REMARK INTRA:                   0.000
REMARK UNBOUND:                 0.000
REMARK SMILES CC1=CC(=O)[C@H]2C[C@@H]1C2(C)C
REMARK SMILES IDX 1 1 2 2 3 3 4 4 5 5 6 6 7 7 8 8 9 9 10 10 11 11
REMARK H PARENT
REMARK Flexibility Score: inf
ROOT
ATOM      1  C   UNL     1     155.869 164.998 197.178  1.00  0.00     0.040 C 
ATOM      2  C   UNL     1     157.318 165.293 197.401  1.00  0.00    -0.066 C 
ATOM      3  C   UNL     1     158.292 164.580 196.769  1.00  0.00     0.047 C 
ATOM      4  C   UNL     1     159.706 164.950 197.099  1.00  0.00     0.159 C 
ATOM      5  O   UNL     1     160.692 164.339 196.611  1.00  0.00    -0.295 OA
ATOM      6  C   UNL     1     159.866 166.120 198.071  1.00  0.00     0.067 C 
ATOM      7  C   UNL     1     158.875 167.183 197.549  1.00  0.00     0.021 C 
ATOM      8  C   UNL     1     157.782 166.428 198.339  1.00  0.00     0.022 C 
ATOM      9  C   UNL     1     158.907 165.898 199.275  1.00  0.00    -0.019 C 
ATOM     10  C   UNL     1     159.202 166.866 200.450  1.00  0.00     0.012 C 
ATOM     11  C   UNL     1     158.767 164.461 199.852  1.00  0.00     0.012 C 
ENDROOT
TORSDOF 0
ENDMDL
MODEL 2
REMARK VINA RESULT:    -4.318      1.603      3.508
REMARK INTER + INTRA:          -4.318
REMARK INTER:                  -4.318
REMARK INTRA:                   0.000
REMARK UNBOUND:                 0.000
REMARK SMILES CC1=CC(=O)[C@H]2C[C@@H]1C2(C)C
REMARK SMILES IDX 1 1 2 2 3 3 4 4 5 5 6 6 7 7 8 8 9 9 10 10 11 11
REMARK H PARENT
REMARK Flexibility Score: inf
ROOT
ATOM      1  C   UNL     1     158.883 167.896 197.868  1.00  0.00     0.040 C 
ATOM      2  C   UNL     1     158.378 166.511 198.123  1.00  0.00    -0.066 C 
ATOM      3  C   UNL     1     158.860 165.759 199.151  1.00  0.00     0.047 C 
ATOM      4  C   UNL     1     158.296 164.377 199.283  1.00  0.00     0.159 C 
ATOM      5  O   UNL     1     158.689 163.572 200.168  1.00  0.00    -0.295 OA
ATOM      6  C   UNL     1     157.212 164.012 198.268  1.00  0.00     0.067 C 
ATOM      7  C   UNL     1     156.281 165.244 198.250  1.00  0.00     0.021 C 
ATOM      8  C   UNL     1     157.276 165.874 197.249  1.00  0.00     0.022 C 
ATOM      9  C   UNL     1     157.701 164.431 196.851  1.00  0.00    -0.019 C 
ATOM     10  C   UNL     1     156.812 163.844 195.725  1.00  0.00     0.012 C 
ATOM     11  C   UNL     1     159.189 164.178 196.479  1.00  0.00     0.012 C 
ENDROOT
TORSDOF 0
ENDMDL
MODEL 3
REMARK VINA RESULT:    -4.190      1.806      3.029
REMARK INTER + INTRA:          -4.190
REMARK INTER:                  -4.190
REMARK INTRA:                   0.000
REMARK UNBOUND:                 0.000
REMARK SMILES CC1=CC(=O)[C@H]2C[C@@H]1C2(C)C
REMARK SMILES IDX 1 1 2 2 3 3 4 4 5 5 6 6 7 7 8 8 9 9 10 10 11 11
REMARK H PARENT
REMARK Flexibility Score: inf
ROOT
ATOM      1  C   UNL     1     160.225 163.860 196.359  1.00  0.00     0.040 C 
ATOM      2  C   UNL     1     159.054 164.395 197.120  1.00  0.00    -0.066 C 
ATOM      3  C   UNL     1     157.811 164.446 196.564  1.00  0.00     0.047 C 
ATOM      4  C   UNL     1     156.727 165.033 197.416  1.00  0.00     0.159 C 
ATOM      5  O   UNL     1     155.546 165.172 197.001  1.00  0.00    -0.295 OA
ATOM      6  C   UNL     1     157.155 165.452 198.823  1.00  0.00     0.067 C 
ATOM      7  C   UNL     1     157.999 164.263 199.331  1.00  0.00     0.021 C 
ATOM      8  C   UNL     1     159.189 164.896 198.574  1.00  0.00     0.022 C 
ATOM      9  C   UNL     1     158.473 166.271 198.716  1.00  0.00    -0.019 C 
ATOM     10  C   UNL     1     158.830 166.987 200.043  1.00  0.00     0.012 C 
ATOM     11  C   UNL     1     158.613 167.296 197.556  1.00  0.00     0.012 C 
ENDROOT
TORSDOF 0
ENDMDL
MODEL 4
REMARK VINA RESULT:    -4.170      1.947      3.248
REMARK INTER + INTRA:          -4.170
REMARK INTER:                  -4.170
REMARK INTRA:                   0.000
REMARK UNBOUND:                 0.000
REMARK SMILES CC1=CC(=O)[C@H]2C[C@@H]1C2(C)C
REMARK SMILES IDX 1 1 2 2 3 3 4 4 5 5 6 6 7 7 8 8 9 9 10 10 11 11
REMARK H PARENT
REMARK Flexibility Score: inf
ROOT
ATOM      1  C   UNL     1     155.824 164.730 196.833  1.00  0.00     0.040 C 
ATOM      2  C   UNL     1     156.916 164.653 197.853  1.00  0.00    -0.066 C 
ATOM      3  C   UNL     1     157.292 165.747 198.573  1.00  0.00     0.047 C 
ATOM      4  C   UNL     1     158.419 165.550 199.541  1.00  0.00     0.159 C 
ATOM      5  O   UNL     1     158.883 166.492 200.234  1.00  0.00    -0.295 OA
ATOM      6  C   UNL     1     158.967 164.124 199.625  1.00  0.00     0.067 C 
ATOM      7  C   UNL     1     157.704 163.238 199.695  1.00  0.00     0.021 C 
ATOM      8  C   UNL     1     157.657 163.333 198.153  1.00  0.00     0.022 C 
ATOM      9  C   UNL     1     159.191 163.594 198.180  1.00  0.00    -0.019 C 
ATOM     10  C   UNL     1     160.014 162.281 198.156  1.00  0.00     0.012 C 
ATOM     11  C   UNL     1     159.790 164.564 197.123  1.00  0.00     0.012 C 
ENDROOT
TORSDOF 0
ENDMDL
MODEL 5
REMARK VINA RESULT:    -4.071      1.872      2.976
REMARK INTER + INTRA:          -4.071
REMARK INTER:                  -4.071
REMARK INTRA:                   0.000
REMARK UNBOUND:                 0.000
REMARK SMILES CC1=CC(=O)[C@H]2C[C@@H]1C2(C)C
REMARK SMILES IDX 1 1 2 2 3 3 4 4 5 5 6 6 7 7 8 8 9 9 10 10 11 11
REMARK H PARENT
REMARK Flexibility Score: inf
ROOT
ATOM      1  C   UNL     1     158.183 162.800 200.045  1.00  0.00     0.040 C 
ATOM      2  C   UNL     1     157.749 163.569 198.837  1.00  0.00    -0.066 C 
ATOM      3  C   UNL     1     157.424 162.938 197.675  1.00  0.00     0.047 C 
ATOM      4  C   UNL     1     157.036 163.820 196.527  1.00  0.00     0.159 C 
ATOM      5  O   UNL     1     156.752 163.360 195.391  1.00  0.00    -0.295 OA
ATOM      6  C   UNL     1     157.011 165.319 196.833  1.00  0.00     0.067 C 
ATOM      7  C   UNL     1     156.272 165.415 198.186  1.00  0.00     0.021 C 
ATOM      8  C   UNL     1     157.633 165.108 198.853  1.00  0.00     0.022 C 
ATOM      9  C   UNL     1     158.321 165.692 197.585  1.00  0.00    -0.019 C 
ATOM     10  C   UNL     1     158.529 167.225 197.680  1.00  0.00     0.012 C 
ATOM     11  C   UNL     1     159.654 165.048 197.109  1.00  0.00     0.012 C 
ENDROOT
TORSDOF 0
ENDMDL
MODEL 6
REMARK VINA RESULT:    -3.965      8.621      9.952
REMARK INTER + INTRA:          -3.965
REMARK INTER:                  -3.965
REMARK INTRA:                   0.000
REMARK UNBOUND:                 0.000
REMARK SMILES CC1=CC(=O)[C@H]2C[C@@H]1C2(C)C
REMARK SMILES IDX 1 1 2 2 3 3 4 4 5 5 6 6 7 7 8 8 9 9 10 10 11 11
REMARK H PARENT
REMARK Flexibility Score: inf
ROOT
ATOM      1  C   UNL     1     150.999 161.507 202.742  1.00  0.00     0.040 C 
ATOM      2  C   UNL     1     151.438 160.471 201.755  1.00  0.00    -0.066 C 
ATOM      3  C   UNL     1     150.551 159.883 200.905  1.00  0.00     0.047 C 
ATOM      4  C   UNL     1     151.107 158.837 199.986  1.00  0.00     0.159 C 
ATOM      5  O   UNL     1     150.383 158.195 199.182  1.00  0.00    -0.295 OA
ATOM      6  C   UNL     1     152.615 158.607 200.094  1.00  0.00     0.067 C 
ATOM      7  C   UNL     1     153.214 160.029 200.123  1.00  0.00     0.021 C 
ATOM      8  C   UNL     1     152.913 160.032 201.639  1.00  0.00     0.022 C 
ATOM      9  C   UNL     1     152.989 158.479 201.599  1.00  0.00    -0.019 C 
ATOM     10  C   UNL     1     154.433 157.953 201.805  1.00  0.00     0.012 C 
ATOM     11  C   UNL     1     152.040 157.672 202.529  1.00  0.00     0.012 C 
ENDROOT
TORSDOF 0
ENDMDL
MODEL 7
REMARK VINA RESULT:    -3.957      1.946      3.367
REMARK INTER + INTRA:          -3.957
REMARK INTER:                  -3.957
REMARK INTRA:                   0.000
REMARK UNBOUND:                 0.000
REMARK SMILES CC1=CC(=O)[C@H]2C[C@@H]1C2(C)C
REMARK SMILES IDX 1 1 2 2 3 3 4 4 5 5 6 6 7 7 8 8 9 9 10 10 11 11
REMARK H PARENT
REMARK Flexibility Score: inf
ROOT
ATOM      1  C   UNL     1     160.593 164.099 196.414  1.00  0.00     0.040 C 
ATOM      2  C   UNL     1     159.533 164.489 197.396  1.00  0.00    -0.066 C 
ATOM      3  C   UNL     1     159.660 165.604 198.169  1.00  0.00     0.047 C 
ATOM      4  C   UNL     1     158.546 165.870 199.137  1.00  0.00     0.159 C 
ATOM      5  O   UNL     1     158.565 166.846 199.932  1.00  0.00    -0.295 OA
ATOM      6  C   UNL     1     157.387 164.873 199.091  1.00  0.00     0.067 C 
ATOM      7  C   UNL     1     157.097 164.701 197.584  1.00  0.00     0.021 C 
ATOM      8  C   UNL     1     158.242 163.662 197.570  1.00  0.00     0.022 C 
ATOM      9  C   UNL     1     157.975 163.433 199.086  1.00  0.00    -0.019 C 
ATOM     10  C   UNL     1     156.890 162.354 199.337  1.00  0.00     0.012 C 
ATOM     11  C   UNL     1     159.188 163.127 200.009  1.00  0.00     0.012 C 
ENDROOT
TORSDOF 0
ENDMDL
MODEL 8
REMARK VINA RESULT:    -3.874      8.507     10.162
REMARK INTER + INTRA:          -3.874
REMARK INTER:                  -3.874
REMARK INTRA:                   0.000
REMARK UNBOUND:                 0.000
REMARK SMILES CC1=CC(=O)[C@H]2C[C@@H]1C2(C)C
REMARK SMILES IDX 1 1 2 2 3 3 4 4 5 5 6 6 7 7 8 8 9 9 10 10 11 11
REMARK H PARENT
REMARK Flexibility Score: inf
ROOT
ATOM      1  C   UNL     1     150.999 161.584 202.750  1.00  0.00     0.040 C 
ATOM      2  C   UNL     1     151.180 160.389 201.868  1.00  0.00    -0.066 C 
ATOM      3  C   UNL     1     151.481 159.165 202.385  1.00  0.00     0.047 C 
ATOM      4  C   UNL     1     151.669 158.054 201.397  1.00  0.00     0.159 C 
ATOM      5  O   UNL     1     151.988 156.889 201.748  1.00  0.00    -0.295 OA
ATOM      6  C   UNL     1     151.445 158.437 199.933  1.00  0.00     0.067 C 
ATOM      7  C   UNL     1     150.141 159.262 199.953  1.00  0.00     0.021 C 
ATOM      8  C   UNL     1     151.016 160.477 200.336  1.00  0.00     0.022 C 
ATOM      9  C   UNL     1     152.212 159.760 199.645  1.00  0.00    -0.019 C 
ATOM     10  C   UNL     1     152.294 160.075 198.130  1.00  0.00     0.012 C 
ATOM     11  C   UNL     1     153.630 159.939 200.257  1.00  0.00     0.012 C 
ENDROOT
TORSDOF 0
ENDMDL
MODEL 9
REMARK VINA RESULT:    -3.810      2.052      3.347
REMARK INTER + INTRA:          -3.810
REMARK INTER:                  -3.810
REMARK INTRA:                   0.000
REMARK UNBOUND:                 0.000
REMARK SMILES CC1=CC(=O)[C@H]2C[C@@H]1C2(C)C
REMARK SMILES IDX 1 1 2 2 3 3 4 4 5 5 6 6 7 7 8 8 9 9 10 10 11 11
REMARK H PARENT
REMARK Flexibility Score: inf
ROOT
ATOM      1  C   UNL     1     158.844 166.854 199.767  1.00  0.00     0.040 C 
ATOM      2  C   UNL     1     158.404 165.778 198.825  1.00  0.00    -0.066 C 
ATOM      3  C   UNL     1     157.146 165.766 198.302  1.00  0.00     0.047 C 
ATOM      4  C   UNL     1     156.816 164.618 197.396  1.00  0.00     0.159 C 
ATOM      5  O   UNL     1     155.676 164.473 196.883  1.00  0.00    -0.295 OA
ATOM      6  C   UNL     1     157.961 163.636 197.140  1.00  0.00     0.067 C 
ATOM      7  C   UNL     1     159.178 164.541 196.854  1.00  0.00     0.021 C 
ATOM      8  C   UNL     1     159.354 164.644 198.386  1.00  0.00     0.022 C 
ATOM      9  C   UNL     1     158.618 163.278 198.504  1.00  0.00    -0.019 C 
ATOM     10  C   UNL     1     159.588 162.073 198.392  1.00  0.00     0.012 C 
ATOM     11  C   UNL     1     157.693 163.045 199.731  1.00  0.00     0.012 C 
ENDROOT
TORSDOF 0
ENDMDL
