MODEL 1
REMARK VINA RESULT:    -5.369      0.000      0.000
REMARK INTER + INTRA:         -12.170
REMARK INTER:                 -10.078
REMARK INTRA:                  -2.092
REMARK UNBOUND:                -2.092
REMARK SMILES O=C([O-])CCCCCCCCCCCCCCC(=O)[O-]
REMARK SMILES IDX 10 1 9 2 8 3 7 4 6 5 5 6 4 7 2 8 1 9 3 10 11 11 12 12 13 13
REMARK SMILES IDX 14 14 15 15 16 16 17 17 18 18 19 19 20 20
REMARK H PARENT
REMARK Flexibility Score: inf
ROOT
ATOM      1  C   UNL     1      48.940  53.015  26.154  1.00  0.00     0.000 C 
ENDROOT
BRANCH   1   2
ATOM      2  C   UNL     1      47.428  53.285  26.205  1.00  0.00     0.000 C 
BRANCH   2   3
ATOM      3  C   UNL     1      46.597  52.096  25.694  1.00  0.00     0.000 C 
BRANCH   3   4
ATOM      4  C   UNL     1      46.308  52.183  24.186  1.00  0.00     0.000 C 
BRANCH   4   5
ATOM      5  C   UNL     1      46.740  50.920  23.425  1.00  0.00     0.000 C 
BRANCH   5   6
ATOM      6  C   UNL     1      47.493  49.953  24.350  1.00  0.00     0.006 C 
BRANCH   6   7
ATOM      7  C   UNL     1      48.691  49.295  23.653  1.00  0.00     0.053 C 
BRANCH   7   8
ATOM      8  C   UNL     1      49.005  47.952  24.236  1.00  0.00     0.041 C 
ATOM      9  O   UNL     1      50.199  47.563  24.323  1.00  0.00    -0.550 OA
ATOM     10  O   UNL     1      47.981  47.144  24.714  1.00  0.00    -0.550 OA
ENDBRANCH   7   8
ENDBRANCH   6   7
ENDBRANCH   5   6
ENDBRANCH   4   5
ENDBRANCH   3   4
ENDBRANCH   2   3
ENDBRANCH   1   2
BRANCH   1  11
ATOM     11  C   UNL     1      49.607  53.605  24.903  1.00  0.00     0.000 C 
BRANCH  11  12
ATOM     12  C   UNL     1      49.910  52.511  23.873  1.00  0.00     0.000 C 
BRANCH  12  13
ATOM     13  C   UNL     1      49.731  53.036  22.441  1.00  0.00     0.000 C 
BRANCH  13  14
ATOM     14  C   UNL     1      50.115  52.001  21.368  1.00  0.00     0.000 C 
BRANCH  14  15
ATOM     15  C   UNL     1      51.517  51.387  21.529  1.00  0.00     0.000 C 
BRANCH  15  16
ATOM     16  C   UNL     1      52.643  52.344  21.109  1.00  0.00     0.006 C 
BRANCH  16  17
ATOM     17  C   UNL     1      53.735  52.409  22.181  1.00  0.00     0.053 C 
BRANCH  17  18
ATOM     18  C   UNL     1      53.309  53.291  23.311  1.00  0.00     0.041 C 
ATOM     19  O   UNL     1      52.978  54.486  23.092  1.00  0.00    -0.550 OA
ATOM     20  O   UNL     1      53.229  52.779  24.600  1.00  0.00    -0.550 OA
ENDBRANCH  17  18
ENDBRANCH  16  17
ENDBRANCH  15  16
ENDBRANCH  14  15
ENDBRANCH  13  14
ENDBRANCH  12  13
ENDBRANCH  11  12
ENDBRANCH   1  11
TORSDOF 15
ENDMDL
MODEL 2
REMARK VINA RESULT:    -5.291      2.338      5.477
REMARK INTER + INTRA:         -12.023
REMARK INTER:                 -10.661
REMARK INTRA:                  -1.362
REMARK UNBOUND:                -2.092
REMARK SMILES O=C([O-])CCCCCCCCCCCCCCC(=O)[O-]
REMARK SMILES IDX 10 1 9 2 8 3 7 4 6 5 5 6 4 7 2 8 1 9 3 10 11 11 12 12 13 13
REMARK SMILES IDX 14 14 15 15 16 16 17 17 18 18 19 19 20 20
REMARK H PARENT
REMARK Flexibility Score: inf
ROOT
ATOM      1  C   UNL     1      52.770  54.378  22.891  1.00  0.00     0.000 C 
ENDROOT
BRANCH   1   2
ATOM      2  C   UNL     1      51.793  54.063  21.747  1.00  0.00     0.000 C 
BRANCH   2   3
ATOM      3  C   UNL     1      52.399  53.120  20.695  1.00  0.00     0.000 C 
BRANCH   3   4
ATOM      4  C   UNL     1      52.285  51.638  21.094  1.00  0.00     0.000 C 
BRANCH   4   5
ATOM      5  C   UNL     1      50.829  51.155  21.174  1.00  0.00     0.000 C 
BRANCH   5   6
ATOM      6  C   UNL     1      50.737  49.815  21.919  1.00  0.00     0.006 C 
BRANCH   6   7
ATOM      7  C   UNL     1      49.492  49.730  22.812  1.00  0.00     0.053 C 
BRANCH   7   8
ATOM      8  C   UNL     1      49.513  48.512  23.681  1.00  0.00     0.041 C 
ATOM      9  O   UNL     1      50.565  47.829  23.791  1.00  0.00    -0.550 OA
ATOM     10  O   UNL     1      48.379  48.150  24.398  1.00  0.00    -0.550 OA
ENDBRANCH   7   8
ENDBRANCH   6   7
ENDBRANCH   5   6
ENDBRANCH   4   5
ENDBRANCH   3   4
ENDBRANCH   2   3
ENDBRANCH   1   2
BRANCH   1  11
ATOM     11  C   UNL     1      52.286  53.851  24.249  1.00  0.00     0.000 C 
BRANCH  11  12
ATOM     12  C   UNL     1      50.931  53.145  24.114  1.00  0.00     0.000 C 
BRANCH  12  13
ATOM     13  C   UNL     1      49.885  53.774  25.045  1.00  0.00     0.000 C 
BRANCH  13  14
ATOM     14  C   UNL     1      48.900  52.744  25.626  1.00  0.00     0.000 C 
BRANCH  14  15
ATOM     15  C   UNL     1      47.930  53.297  26.685  1.00  0.00     0.000 C 
BRANCH  15  16
ATOM     16  C   UNL     1      46.474  52.872  26.447  1.00  0.00     0.006 C 
BRANCH  16  17
ATOM     17  C   UNL     1      46.168  52.776  24.949  1.00  0.00     0.053 C 
BRANCH  17  18
ATOM     18  C   UNL     1      46.108  51.345  24.517  1.00  0.00     0.041 C 
ATOM     19  O   UNL     1      46.168  51.048  23.296  1.00  0.00    -0.550 OA
ATOM     20  O   UNL     1      46.035  50.335  25.469  1.00  0.00    -0.550 OA
ENDBRANCH  17  18
ENDBRANCH  16  17
ENDBRANCH  15  16
ENDBRANCH  14  15
ENDBRANCH  13  14
ENDBRANCH  12  13
ENDBRANCH  11  12
ENDBRANCH   1  11
TORSDOF 15
ENDMDL
MODEL 3
REMARK VINA RESULT:    -5.287      2.334      4.461
REMARK INTER + INTRA:         -12.014
REMARK INTER:                 -10.407
REMARK INTRA:                  -1.607
REMARK UNBOUND:                -2.092
REMARK SMILES O=C([O-])CCCCCCCCCCCCCCC(=O)[O-]
REMARK SMILES IDX 10 1 9 2 8 3 7 4 6 5 5 6 4 7 2 8 1 9 3 10 11 11 12 12 13 13
REMARK SMILES IDX 14 14 15 15 16 16 17 17 18 18 19 19 20 20
REMARK H PARENT
REMARK Flexibility Score: inf
ROOT
ATOM      1  C   UNL     1      52.903  54.153  23.547  1.00  0.00     0.000 C 
ENDROOT
BRANCH   1   2
ATOM      2  C   UNL     1      51.710  54.375  24.491  1.00  0.00     0.000 C 
BRANCH   2   3
ATOM      3  C   UNL     1      50.752  53.172  24.525  1.00  0.00     0.000 C 
BRANCH   3   4
ATOM      4  C   UNL     1      49.303  53.580  24.838  1.00  0.00     0.000 C 
BRANCH   4   5
ATOM      5  C   UNL     1      48.718  52.820  26.038  1.00  0.00     0.000 C 
BRANCH   5   6
ATOM      6  C   UNL     1      47.268  53.251  26.307  1.00  0.00     0.006 C 
BRANCH   6   7
ATOM      7  C   UNL     1      46.328  52.880  25.153  1.00  0.00     0.053 C 
BRANCH   7   8
ATOM      8  C   UNL     1      46.301  51.403  24.910  1.00  0.00     0.041 C 
ATOM      9  O   UNL     1      46.608  50.941  23.779  1.00  0.00    -0.550 OA
ATOM     10  O   UNL     1      45.970  50.534  25.942  1.00  0.00    -0.550 OA
ENDBRANCH   7   8
ENDBRANCH   6   7
ENDBRANCH   5   6
ENDBRANCH   4   5
ENDBRANCH   3   4
ENDBRANCH   2   3
ENDBRANCH   1   2
BRANCH   1  11
ATOM     11  C   UNL     1      52.665  54.727  22.143  1.00  0.00     0.000 C 
BRANCH  11  12
ATOM     12  C   UNL     1      51.960  53.706  21.242  1.00  0.00     0.000 C 
BRANCH  12  13
ATOM     13  C   UNL     1      52.807  52.436  21.080  1.00  0.00     0.000 C 
BRANCH  13  14
ATOM     14  C   UNL     1      51.978  51.142  21.178  1.00  0.00     0.000 C 
BRANCH  14  15
ATOM     15  C   UNL     1      50.459  51.353  21.309  1.00  0.00     0.000 C 
BRANCH  15  16
ATOM     16  C   UNL     1      49.836  50.538  22.452  1.00  0.00     0.006 C 
BRANCH  16  17
ATOM     17  C   UNL     1      50.235  49.062  22.354  1.00  0.00     0.053 C 
BRANCH  17  18
ATOM     18  C   UNL     1      49.995  48.367  23.657  1.00  0.00     0.041 C 
ATOM     19  O   UNL     1      50.917  47.705  24.201  1.00  0.00    -0.550 OA
ATOM     20  O   UNL     1      48.768  48.493  24.296  1.00  0.00    -0.550 OA
ENDBRANCH  17  18
ENDBRANCH  16  17
ENDBRANCH  15  16
ENDBRANCH  14  15
ENDBRANCH  13  14
ENDBRANCH  12  13
ENDBRANCH  11  12
ENDBRANCH   1  11
TORSDOF 15
ENDMDL
MODEL 4
REMARK VINA RESULT:    -5.269      1.055      5.492
REMARK INTER + INTRA:         -11.981
REMARK INTER:                 -10.190
REMARK INTRA:                  -1.791
REMARK UNBOUND:                -2.092
REMARK SMILES O=C([O-])CCCCCCCCCCCCCCC(=O)[O-]
REMARK SMILES IDX 10 1 9 2 8 3 7 4 6 5 5 6 4 7 2 8 1 9 3 10 11 11 12 12 13 13
REMARK SMILES IDX 14 14 15 15 16 16 17 17 18 18 19 19 20 20
REMARK H PARENT
REMARK Flexibility Score: inf
ROOT
ATOM      1  C   UNL     1      48.858  52.855  26.084  1.00  0.00     0.000 C 
ENDROOT
BRANCH   1   2
ATOM      2  C   UNL     1      49.537  53.443  24.837  1.00  0.00     0.000 C 
BRANCH   2   3
ATOM      3  C   UNL     1      49.872  52.372  23.785  1.00  0.00     0.000 C 
BRANCH   3   4
ATOM      4  C   UNL     1      49.837  52.922  22.349  1.00  0.00     0.000 C 
BRANCH   4   5
ATOM      5  C   UNL     1      50.921  52.307  21.451  1.00  0.00     0.000 C 
BRANCH   5   6
ATOM      6  C   UNL     1      52.155  53.218  21.378  1.00  0.00     0.006 C 
BRANCH   6   7
ATOM      7  C   UNL     1      53.298  52.720  22.272  1.00  0.00     0.053 C 
BRANCH   7   8
ATOM      8  C   UNL     1      53.328  53.434  23.588  1.00  0.00     0.041 C 
ATOM      9  O   UNL     1      53.758  52.849  24.617  1.00  0.00    -0.550 OA
ATOM     10  O   UNL     1      52.913  54.757  23.671  1.00  0.00    -0.550 OA
ENDBRANCH   7   8
ENDBRANCH   6   7
ENDBRANCH   5   6
ENDBRANCH   4   5
ENDBRANCH   3   4
ENDBRANCH   2   3
ENDBRANCH   1   2
BRANCH   1  11
ATOM     11  C   UNL     1      47.503  53.510  26.388  1.00  0.00     0.000 C 
BRANCH  11  12
ATOM     12  C   UNL     1      46.481  53.195  25.290  1.00  0.00     0.000 C 
BRANCH  12  13
ATOM     13  C   UNL     1      45.949  51.760  25.426  1.00  0.00     0.000 C 
BRANCH  13  14
ATOM     14  C   UNL     1      46.468  50.820  24.323  1.00  0.00     0.000 C 
BRANCH  14  15
ATOM     15  C   UNL     1      47.452  49.737  24.802  1.00  0.00     0.000 C 
BRANCH  15  16
ATOM     16  C   UNL     1      48.361  49.214  23.681  1.00  0.00     0.006 C 
BRANCH  16  17
ATOM     17  C   UNL     1      49.168  47.999  24.150  1.00  0.00     0.053 C 
BRANCH  17  18
ATOM     18  C   UNL     1      50.555  48.044  23.592  1.00  0.00     0.041 C 
ATOM     19  O   UNL     1      51.445  47.276  24.043  1.00  0.00    -0.550 OA
ATOM     20  O   UNL     1      50.853  48.900  22.539  1.00  0.00    -0.550 OA
ENDBRANCH  17  18
ENDBRANCH  16  17
ENDBRANCH  15  16
ENDBRANCH  14  15
ENDBRANCH  13  14
ENDBRANCH  12  13
ENDBRANCH  11  12
ENDBRANCH   1  11
TORSDOF 15
ENDMDL
MODEL 5
REMARK VINA RESULT:    -5.165      1.636      5.451
REMARK INTER + INTRA:         -11.786
REMARK INTER:                 -10.227
REMARK INTRA:                  -1.559
REMARK UNBOUND:                -2.092
REMARK SMILES O=C([O-])CCCCCCCCCCCCCCC(=O)[O-]
REMARK SMILES IDX 10 1 9 2 8 3 7 4 6 5 5 6 4 7 2 8 1 9 3 10 11 11 12 12 13 13
REMARK SMILES IDX 14 14 15 15 16 16 17 17 18 18 19 19 20 20
REMARK H PARENT
REMARK Flexibility Score: inf
ROOT
ATOM      1  C   UNL     1      48.505  52.871  26.331  1.00  0.00     0.000 C 
ENDROOT
BRANCH   1   2
ATOM      2  C   UNL     1      48.955  53.625  25.069  1.00  0.00     0.000 C 
BRANCH   2   3
ATOM      3  C   UNL     1      50.288  53.099  24.510  1.00  0.00     0.000 C 
BRANCH   3   4
ATOM      4  C   UNL     1      51.383  54.179  24.478  1.00  0.00     0.000 C 
BRANCH   4   5
ATOM      5  C   UNL     1      52.773  53.606  24.165  1.00  0.00     0.000 C 
BRANCH   5   6
ATOM      6  C   UNL     1      53.317  54.176  22.847  1.00  0.00     0.006 C 
BRANCH   6   7
ATOM      7  C   UNL     1      52.294  54.082  21.708  1.00  0.00     0.053 C 
BRANCH   7   8
ATOM      8  C   UNL     1      52.133  52.676  21.217  1.00  0.00     0.041 C 
ATOM      9  O   UNL     1      53.139  52.016  20.846  1.00  0.00    -0.550 OA
ATOM     10  O   UNL     1      50.877  52.084  21.203  1.00  0.00    -0.550 OA
ENDBRANCH   7   8
ENDBRANCH   6   7
ENDBRANCH   5   6
ENDBRANCH   4   5
ENDBRANCH   3   4
ENDBRANCH   2   3
ENDBRANCH   1   2
BRANCH   1  11
ATOM     11  C   UNL     1      47.037  53.138  26.691  1.00  0.00     0.000 C 
BRANCH  11  12
ATOM     12  C   UNL     1      46.097  52.587  25.612  1.00  0.00     0.000 C 
BRANCH  12  13
ATOM     13  C   UNL     1      46.559  51.204  25.132  1.00  0.00     0.000 C 
BRANCH  13  14
ATOM     14  C   UNL     1      46.619  51.088  23.598  1.00  0.00     0.000 C 
BRANCH  14  15
ATOM     15  C   UNL     1      47.966  50.603  23.034  1.00  0.00     0.000 C 
BRANCH  15  16
ATOM     16  C   UNL     1      48.625  49.522  23.902  1.00  0.00     0.006 C 
BRANCH  16  17
ATOM     17  C   UNL     1      49.954  49.063  23.293  1.00  0.00     0.053 C 
BRANCH  17  18
ATOM     18  C   UNL     1      50.388  47.765  23.898  1.00  0.00     0.041 C 
ATOM     19  O   UNL     1      51.508  47.272  23.603  1.00  0.00    -0.550 OA
ATOM     20  O   UNL     1      49.576  47.126  24.826  1.00  0.00    -0.550 OA
ENDBRANCH  17  18
ENDBRANCH  16  17
ENDBRANCH  15  16
ENDBRANCH  14  15
ENDBRANCH  13  14
ENDBRANCH  12  13
ENDBRANCH  11  12
ENDBRANCH   1  11
TORSDOF 15
ENDMDL
MODEL 6
REMARK VINA RESULT:    -5.136      2.418      4.374
REMARK INTER + INTRA:         -11.731
REMARK INTER:                  -9.635
REMARK INTRA:                  -2.096
REMARK UNBOUND:                -2.092
REMARK SMILES O=C([O-])CCCCCCCCCCCCCCC(=O)[O-]
REMARK SMILES IDX 10 1 9 2 8 3 7 4 6 5 5 6 4 7 2 8 1 9 3 10 11 11 12 12 13 13
REMARK SMILES IDX 14 14 15 15 16 16 17 17 18 18 19 19 20 20
REMARK H PARENT
REMARK Flexibility Score: inf
ROOT
ATOM      1  C   UNL     1      46.169  51.675  23.396  1.00  0.00     0.000 C 
ENDROOT
BRANCH   1   2
ATOM      2  C   UNL     1      47.474  50.947  23.035  1.00  0.00     0.000 C 
BRANCH   2   3
ATOM      3  C   UNL     1      48.000  50.071  24.184  1.00  0.00     0.000 C 
BRANCH   3   4
ATOM      4  C   UNL     1      49.121  49.119  23.737  1.00  0.00     0.000 C 
BRANCH   4   5
ATOM      5  C   UNL     1      49.535  49.335  22.273  1.00  0.00     0.000 C 
BRANCH   5   6
ATOM      6  C   UNL     1      50.857  50.111  22.185  1.00  0.00     0.006 C 
BRANCH   6   7
ATOM      7  C   UNL     1      50.968  50.927  20.892  1.00  0.00     0.053 C 
BRANCH   7   8
ATOM      8  C   UNL     1      51.894  52.093  21.046  1.00  0.00     0.041 C 
ATOM      9  O   UNL     1      53.138  51.909  21.123  1.00  0.00    -0.550 OA
ATOM     10  O   UNL     1      51.387  53.387  21.071  1.00  0.00    -0.550 OA
ENDBRANCH   7   8
ENDBRANCH   6   7
ENDBRANCH   5   6
ENDBRANCH   4   5
ENDBRANCH   3   4
ENDBRANCH   2   3
ENDBRANCH   1   2
BRANCH   1  11
ATOM     11  C   UNL     1      45.967  51.816  24.912  1.00  0.00     0.000 C 
BRANCH  11  12
ATOM     12  C   UNL     1      46.453  53.184  25.406  1.00  0.00     0.000 C 
BRANCH  12  13
ATOM     13  C   UNL     1      47.349  53.037  26.644  1.00  0.00     0.000 C 
BRANCH  13  14
ATOM     14  C   UNL     1      48.851  53.083  26.308  1.00  0.00     0.000 C 
BRANCH  14  15
ATOM     15  C   UNL     1      49.184  53.546  24.878  1.00  0.00     0.000 C 
BRANCH  15  16
ATOM     16  C   UNL     1      50.561  53.068  24.397  1.00  0.00     0.006 C 
BRANCH  16  17
ATOM     17  C   UNL     1      51.601  54.188  24.509  1.00  0.00     0.053 C 
BRANCH  17  18
ATOM     18  C   UNL     1      52.971  53.662  24.217  1.00  0.00     0.041 C 
ATOM     19  O   UNL     1      53.401  52.646  24.823  1.00  0.00    -0.550 OA
ATOM     20  O   UNL     1      53.753  54.265  23.240  1.00  0.00    -0.550 OA
ENDBRANCH  17  18
ENDBRANCH  16  17
ENDBRANCH  15  16
ENDBRANCH  14  15
ENDBRANCH  13  14
ENDBRANCH  12  13
ENDBRANCH  11  12
ENDBRANCH   1  11
TORSDOF 15
ENDMDL
MODEL 7
REMARK VINA RESULT:    -5.101      1.461      2.773
REMARK INTER + INTRA:         -11.666
REMARK INTER:                  -9.770
REMARK INTRA:                  -1.896
REMARK UNBOUND:                -2.092
REMARK SMILES O=C([O-])CCCCCCCCCCCCCCC(=O)[O-]
REMARK SMILES IDX 10 1 9 2 8 3 7 4 6 5 5 6 4 7 2 8 1 9 3 10 11 11 12 12 13 13
REMARK SMILES IDX 14 14 15 15 16 16 17 17 18 18 19 19 20 20
REMARK H PARENT
REMARK Flexibility Score: inf
ROOT
ATOM      1  C   UNL     1      46.005  51.715  26.255  1.00  0.00     0.000 C 
ENDROOT
BRANCH   1   2
ATOM      2  C   UNL     1      45.937  50.691  25.110  1.00  0.00     0.000 C 
BRANCH   2   3
ATOM      3  C   UNL     1      47.302  50.463  24.440  1.00  0.00     0.000 C 
BRANCH   3   4
ATOM      4  C   UNL     1      47.344  50.982  22.993  1.00  0.00     0.000 C 
BRANCH   4   5
ATOM      5  C   UNL     1      48.713  50.775  22.327  1.00  0.00     0.000 C 
BRANCH   5   6
ATOM      6  C   UNL     1      49.723  50.187  23.322  1.00  0.00     0.006 C 
BRANCH   6   7
ATOM      7  C   UNL     1      50.397  48.918  22.786  1.00  0.00     0.053 C 
BRANCH   7   8
ATOM      8  C   UNL     1      50.447  47.835  23.819  1.00  0.00     0.041 C 
ATOM      9  O   UNL     1      49.426  47.564  24.504  1.00  0.00    -0.550 OA
ATOM     10  O   UNL     1      51.613  47.101  24.001  1.00  0.00    -0.550 OA
ENDBRANCH   7   8
ENDBRANCH   6   7
ENDBRANCH   5   6
ENDBRANCH   4   5
ENDBRANCH   3   4
ENDBRANCH   2   3
ENDBRANCH   1   2
BRANCH   1  11
ATOM     11  C   UNL     1      46.750  52.999  25.861  1.00  0.00     0.000 C 
BRANCH  11  12
ATOM     12  C   UNL     1      47.922  53.269  26.813  1.00  0.00     0.000 C 
BRANCH  12  13
ATOM     13  C   UNL     1      49.266  52.980  26.129  1.00  0.00     0.000 C 
BRANCH  13  14
ATOM     14  C   UNL     1      49.314  53.464  24.668  1.00  0.00     0.000 C 
BRANCH  14  15
ATOM     15  C   UNL     1      50.729  53.624  24.083  1.00  0.00     0.000 C 
BRANCH  15  16
ATOM     16  C   UNL     1      50.729  53.835  22.562  1.00  0.00     0.006 C 
BRANCH  16  17
ATOM     17  C   UNL     1      52.147  54.097  22.045  1.00  0.00     0.053 C 
BRANCH  17  18
ATOM     18  C   UNL     1      52.975  52.854  22.135  1.00  0.00     0.041 C 
ATOM     19  O   UNL     1      53.935  52.790  22.947  1.00  0.00    -0.550 OA
ATOM     20  O   UNL     1      52.655  51.748  21.357  1.00  0.00    -0.550 OA
ENDBRANCH  17  18
ENDBRANCH  16  17
ENDBRANCH  15  16
ENDBRANCH  14  15
ENDBRANCH  13  14
ENDBRANCH  12  13
ENDBRANCH  11  12
ENDBRANCH   1  11
TORSDOF 15
ENDMDL
MODEL 8
REMARK VINA RESULT:    -5.066      2.388      4.439
REMARK INTER + INTRA:         -11.600
REMARK INTER:                  -9.558
REMARK INTRA:                  -2.042
REMARK UNBOUND:                -2.092
REMARK SMILES O=C([O-])CCCCCCCCCCCCCCC(=O)[O-]
REMARK SMILES IDX 10 1 9 2 8 3 7 4 6 5 5 6 4 7 2 8 1 9 3 10 11 11 12 12 13 13
REMARK SMILES IDX 14 14 15 15 16 16 17 17 18 18 19 19 20 20
REMARK H PARENT
REMARK Flexibility Score: inf
ROOT
ATOM      1  C   UNL     1      50.847  53.787  24.279  1.00  0.00     0.000 C 
ENDROOT
BRANCH   1   2
ATOM      2  C   UNL     1      49.637  52.848  24.408  1.00  0.00     0.000 C 
BRANCH   2   3
ATOM      3  C   UNL     1      48.863  52.697  23.088  1.00  0.00     0.000 C 
BRANCH   3   4
ATOM      4  C   UNL     1      47.599  51.833  23.240  1.00  0.00     0.000 C 
BRANCH   4   5
ATOM      5  C   UNL     1      47.551  51.082  24.579  1.00  0.00     0.000 C 
BRANCH   5   6
ATOM      6  C   UNL     1      46.118  51.034  25.129  1.00  0.00     0.006 C 
BRANCH   6   7
ATOM      7  C   UNL     1      45.988  51.756  26.476  1.00  0.00     0.053 C 
BRANCH   7   8
ATOM      8  C   UNL     1      46.670  53.089  26.461  1.00  0.00     0.041 C 
ATOM      9  O   UNL     1      46.190  54.040  25.790  1.00  0.00    -0.550 OA
ATOM     10  O   UNL     1      47.819  53.291  27.216  1.00  0.00    -0.550 OA
ENDBRANCH   7   8
ENDBRANCH   6   7
ENDBRANCH   5   6
ENDBRANCH   4   5
ENDBRANCH   3   4
ENDBRANCH   2   3
ENDBRANCH   1   2
BRANCH   1  11
ATOM     11  C   UNL     1      52.155  53.036  23.989  1.00  0.00     0.000 C 
BRANCH  11  12
ATOM     12  C   UNL     1      52.728  53.437  22.625  1.00  0.00     0.000 C 
BRANCH  12  13
ATOM     13  C   UNL     1      52.791  52.230  21.677  1.00  0.00     0.000 C 
BRANCH  13  14
ATOM     14  C   UNL     1      51.555  52.115  20.767  1.00  0.00     0.000 C 
BRANCH  14  15
ATOM     15  C   UNL     1      50.822  50.763  20.834  1.00  0.00     0.000 C 
BRANCH  15  16
ATOM     16  C   UNL     1      51.030  50.033  22.169  1.00  0.00     0.006 C 
BRANCH  16  17
ATOM     17  C   UNL     1      49.842  49.120  22.486  1.00  0.00     0.053 C 
BRANCH  17  18
ATOM     18  C   UNL     1      50.208  48.134  23.550  1.00  0.00     0.041 C 
ATOM     19  O   UNL     1      49.413  47.900  24.498  1.00  0.00    -0.550 OA
ATOM     20  O   UNL     1      51.406  47.437  23.468  1.00  0.00    -0.550 OA
ENDBRANCH  17  18
ENDBRANCH  16  17
ENDBRANCH  15  16
ENDBRANCH  14  15
ENDBRANCH  13  14
ENDBRANCH  12  13
ENDBRANCH  11  12
ENDBRANCH   1  11
TORSDOF 15
ENDMDL
MODEL 9
REMARK VINA RESULT:    -4.978      2.534      4.202
REMARK INTER + INTRA:         -11.436
REMARK INTER:                  -9.353
REMARK INTRA:                  -2.082
REMARK UNBOUND:                -2.092
REMARK SMILES O=C([O-])CCCCCCCCCCCCCCC(=O)[O-]
REMARK SMILES IDX 10 1 9 2 8 3 7 4 6 5 5 6 4 7 2 8 1 9 3 10 11 11 12 12 13 13
REMARK SMILES IDX 14 14 15 15 16 16 17 17 18 18 19 19 20 20
REMARK H PARENT
REMARK Flexibility Score: inf
ROOT
ATOM      1  C   UNL     1      50.263  49.235  22.219  1.00  0.00     0.000 C 
ENDROOT
BRANCH   1   2
ATOM      2  C   UNL     1      49.983  48.909  23.695  1.00  0.00     0.000 C 
BRANCH   2   3
ATOM      3  C   UNL     1      48.487  48.702  23.981  1.00  0.00     0.000 C 
BRANCH   3   4
ATOM      4  C   UNL     1      47.803  49.975  24.507  1.00  0.00     0.000 C 
BRANCH   4   5
ATOM      5  C   UNL     1      46.982  50.698  23.429  1.00  0.00     0.000 C 
BRANCH   5   6
ATOM      6  C   UNL     1      46.264  51.922  24.015  1.00  0.00     0.006 C 
BRANCH   6   7
ATOM      7  C   UNL     1      46.310  51.944  25.548  1.00  0.00     0.053 C 
BRANCH   7   8
ATOM      8  C   UNL     1      46.917  53.210  26.069  1.00  0.00     0.041 C 
ATOM      9  O   UNL     1      46.251  54.279  26.067  1.00  0.00    -0.550 OA
ATOM     10  O   UNL     1      48.205  53.201  26.589  1.00  0.00    -0.550 OA
ENDBRANCH   7   8
ENDBRANCH   6   7
ENDBRANCH   5   6
ENDBRANCH   4   5
ENDBRANCH   3   4
ENDBRANCH   2   3
ENDBRANCH   1   2
BRANCH   1  11
ATOM     11  C   UNL     1      50.848  50.640  22.021  1.00  0.00     0.000 C 
BRANCH  11  12
ATOM     12  C   UNL     1      49.785  51.608  21.488  1.00  0.00     0.000 C 
BRANCH  12  13
ATOM     13  C   UNL     1      49.672  52.850  22.384  1.00  0.00     0.000 C 
BRANCH  13  14
ATOM     14  C   UNL     1      50.274  52.639  23.785  1.00  0.00     0.000 C 
BRANCH  14  15
ATOM     15  C   UNL     1      51.378  53.638  24.176  1.00  0.00     0.000 C 
BRANCH  15  16
ATOM     16  C   UNL     1      52.570  53.623  23.209  1.00  0.00     0.006 C 
BRANCH  16  17
ATOM     17  C   UNL     1      52.747  54.987  22.534  1.00  0.00     0.053 C 
BRANCH  17  18
ATOM     18  C   UNL     1      52.424  54.895  21.076  1.00  0.00     0.041 C 
ATOM     19  O   UNL     1      52.268  53.772  20.531  1.00  0.00    -0.550 OA
ATOM     20  O   UNL     1      52.244  56.054  20.331  1.00  0.00    -0.550 OA
ENDBRANCH  17  18
ENDBRANCH  16  17
ENDBRANCH  15  16
ENDBRANCH  14  15
ENDBRANCH  13  14
ENDBRANCH  12  13
ENDBRANCH  11  12
ENDBRANCH   1  11
TORSDOF 15
ENDMDL
