MODEL 1
REMARK VINA RESULT:    -6.790      0.000      0.000
REMARK INTER + INTRA:         -11.238
REMARK INTER:                 -10.164
REMARK INTRA:                  -1.074
REMARK UNBOUND:                -1.074
REMARK SMILES O=c1c(O[C@H]2O[C@@H](CO)[C@@H](O)[C@H](O)[C@H]2O)c(-c2cc(O)c(O)c(O)c2)oc2cc(O)cc(O)c12
REMARK SMILES IDX 4 1 3 2 16 3 26 4 2 5 27 6 1 7 34 8 28 9 32 10 29 11 31 12
REMARK SMILES IDX 17 13 18 14 19 15 25 16 21 17 23 18 20 19 22 21 24 23 33 25
REMARK SMILES IDX 30 27 5 29 14 30 6 31 12 32 7 33 10 34 15 35 13 37 8 39 9 40
REMARK SMILES IDX 11 42
REMARK H PARENT 20 20 22 22 24 24 33 26 30 28 15 36 13 38 9 41 11 43
REMARK Flexibility Score: inf
ROOT
ATOM      1  O   UNL     1     -37.849   5.542  81.612  1.00  0.00    -0.454 OA
ENDROOT
BRANCH   1   2
ATOM      2  C   UNL     1     -38.622   4.940  80.603  1.00  0.00     0.214 A 
ATOM      3  C   UNL     1     -38.083   4.854  79.302  1.00  0.00     0.181 A 
ATOM      4  O   UNL     1     -38.802   4.333  78.314  1.00  0.00    -0.452 OA
ATOM      5  C   UNL     1     -39.920   4.430  80.824  1.00  0.00     0.239 A 
ATOM      6  C   UNL     1     -40.026   3.852  78.477  1.00  0.00     0.146 A 
ATOM      7  O   UNL     1     -40.424   4.458  81.978  1.00  0.00    -0.285 OA
ATOM      8  C   UNL     1     -40.645   3.875  79.747  1.00  0.00     0.111 A 
ATOM      9  C   UNL     1     -40.699   3.318  77.373  1.00  0.00     0.094 A 
ATOM     10  C   UNL     1     -41.953   3.347  79.885  1.00  0.00     0.134 A 
ATOM     11  C   UNL     1     -41.990   2.800  77.515  1.00  0.00     0.123 A 
ATOM     12  C   UNL     1     -42.611   2.815  78.766  1.00  0.00     0.093 A 
BRANCH   3  13
ATOM     13  C   UNL     1     -36.739   5.381  78.981  1.00  0.00     0.029 A 
ATOM     14  C   UNL     1     -36.562   6.684  78.490  1.00  0.00     0.062 A 
ATOM     15  C   UNL     1     -35.287   7.172  78.183  1.00  0.00     0.162 A 
ATOM     16  C   UNL     1     -35.612   4.579  79.205  1.00  0.00     0.062 A 
ATOM     17  C   UNL     1     -34.156   6.345  78.386  1.00  0.00     0.200 A 
ATOM     18  C   UNL     1     -34.329   5.053  78.903  1.00  0.00     0.162 A 
BRANCH  15  19
ATOM     19  O   UNL     1     -35.192   8.475  77.688  1.00  0.00    -0.504 OA
ATOM     20  H   UNL     1     -34.651   8.732  76.876  1.00  0.00     0.293 HD
ENDBRANCH  15  19
BRANCH  17  21
ATOM     21  O   UNL     1     -32.857   6.767  78.093  1.00  0.00    -0.502 OA
ATOM     22  H   UNL     1     -32.478   6.828  77.159  1.00  0.00     0.293 HD
ENDBRANCH  17  21
BRANCH  18  23
ATOM     23  O   UNL     1     -33.215   4.242  79.114  1.00  0.00    -0.504 OA
ATOM     24  H   UNL     1     -32.933   3.959  80.045  1.00  0.00     0.293 HD
ENDBRANCH  18  23
ENDBRANCH   3  13
BRANCH  10  25
ATOM     25  O   UNL     1     -42.603   3.349  81.120  1.00  0.00    -0.507 OA
ATOM     26  H   UNL     1     -43.187   2.575  81.416  1.00  0.00     0.293 HD
ENDBRANCH  10  25
BRANCH  11  27
ATOM     27  O   UNL     1     -42.665   2.267  76.420  1.00  0.00    -0.508 OA
ATOM     28  H   UNL     1     -42.185   1.712  75.721  1.00  0.00     0.293 HD
ENDBRANCH  11  27
ENDBRANCH   1   2
BRANCH   1  29
ATOM     29  C   UNL     1     -38.294   5.888  82.928  1.00  0.00     0.339 C 
ATOM     30  C   UNL     1     -38.401   7.413  83.067  1.00  0.00     0.214 C 
ATOM     31  O   UNL     1     -37.475   5.311  83.938  1.00  0.00    -0.332 OA
ATOM     32  C   UNL     1     -37.006   8.047  83.042  1.00  0.00     0.180 C 
ATOM     33  C   UNL     1     -36.156   5.842  83.998  1.00  0.00     0.179 C 
ATOM     34  C   UNL     1     -36.137   7.387  84.125  1.00  0.00     0.177 C 
BRANCH  30  35
ATOM     35  O   UNL     1     -39.182   7.921  82.014  1.00  0.00    -0.384 OA
ATOM     36  H   UNL     1     -40.129   7.871  82.307  1.00  0.00     0.211 HD
ENDBRANCH  30  35
BRANCH  32  37
ATOM     37  O   UNL     1     -37.121   9.424  83.297  1.00  0.00    -0.387 OA
ATOM     38  H   UNL     1     -36.238   9.832  83.098  1.00  0.00     0.211 HD
ENDBRANCH  32  37
BRANCH  33  39
ATOM     39  C   UNL     1     -35.253   5.278  82.881  1.00  0.00     0.191 C 
BRANCH  39  40
ATOM     40  O   UNL     1     -35.515   3.914  82.693  1.00  0.00    -0.394 OA
ATOM     41  H   UNL     1     -35.950   3.836  81.804  1.00  0.00     0.210 HD
ENDBRANCH  39  40
ENDBRANCH  33  39
BRANCH  34  42
ATOM     42  O   UNL     1     -34.817   7.863  84.049  1.00  0.00    -0.387 OA
ATOM     43  H   UNL     1     -34.224   7.128  84.353  1.00  0.00     0.211 HD
ENDBRANCH  34  42
ENDBRANCH   1  29
TORSDOF 13
ENDMDL
MODEL 2
REMARK VINA RESULT:    -6.684      0.113      1.452
REMARK INTER + INTRA:         -11.080
REMARK INTER:                 -10.019
REMARK INTRA:                  -1.061
REMARK UNBOUND:                -1.074
REMARK SMILES O=c1c(O[C@H]2O[C@@H](CO)[C@@H](O)[C@H](O)[C@H]2O)c(-c2cc(O)c(O)c(O)c2)oc2cc(O)cc(O)c12
REMARK SMILES IDX 4 1 3 2 16 3 26 4 2 5 27 6 1 7 34 8 28 9 32 10 29 11 31 12
REMARK SMILES IDX 17 13 18 14 19 15 25 16 21 17 23 18 20 19 22 21 24 23 33 25
REMARK SMILES IDX 30 27 5 29 14 30 6 31 12 32 7 33 10 34 15 35 13 37 8 39 9 40
REMARK SMILES IDX 11 42
REMARK H PARENT 20 20 22 22 24 24 33 26 30 28 15 36 13 38 9 41 11 43
REMARK Flexibility Score: inf
ROOT
ATOM      1  O   UNL     1     -37.750   5.424  81.668  1.00  0.00    -0.454 OA
ENDROOT
BRANCH   1   2
ATOM      2  C   UNL     1     -38.544   4.866  80.650  1.00  0.00     0.214 A 
ATOM      3  C   UNL     1     -38.016   4.801  79.344  1.00  0.00     0.181 A 
ATOM      4  O   UNL     1     -38.753   4.322  78.348  1.00  0.00    -0.452 OA
ATOM      5  C   UNL     1     -39.852   4.382  80.867  1.00  0.00     0.239 A 
ATOM      6  C   UNL     1     -39.988   3.866  78.508  1.00  0.00     0.146 A 
ATOM      7  O   UNL     1     -40.346   4.393  82.026  1.00  0.00    -0.285 OA
ATOM      8  C   UNL     1     -40.597   3.872  79.783  1.00  0.00     0.111 A 
ATOM      9  C   UNL     1     -40.681   3.377  77.396  1.00  0.00     0.094 A 
ATOM     10  C   UNL     1     -41.917   3.372  79.917  1.00  0.00     0.134 A 
ATOM     11  C   UNL     1     -41.982   2.886  77.535  1.00  0.00     0.123 A 
ATOM     12  C   UNL     1     -42.594   2.884  78.790  1.00  0.00     0.093 A 
BRANCH   3  13
ATOM     13  C   UNL     1     -36.661   5.304  79.025  1.00  0.00     0.029 A 
ATOM     14  C   UNL     1     -35.520   4.516  79.240  1.00  0.00     0.062 A 
ATOM     15  C   UNL     1     -34.242   5.001  78.941  1.00  0.00     0.162 A 
ATOM     16  C   UNL     1     -36.513   6.578  78.461  1.00  0.00     0.062 A 
ATOM     17  C   UNL     1     -34.099   6.301  78.397  1.00  0.00     0.200 A 
ATOM     18  C   UNL     1     -35.241   7.078  78.156  1.00  0.00     0.162 A 
BRANCH  15  19
ATOM     19  O   UNL     1     -33.153   4.164  79.193  1.00  0.00    -0.504 OA
ATOM     20  H   UNL     1     -33.227   3.260  79.637  1.00  0.00     0.293 HD
ENDBRANCH  15  19
BRANCH  17  21
ATOM     21  O   UNL     1     -32.853   6.849  78.084  1.00  0.00    -0.502 OA
ATOM     22  H   UNL     1     -32.719   7.785  77.730  1.00  0.00     0.293 HD
ENDBRANCH  17  21
BRANCH  18  23
ATOM     23  O   UNL     1     -35.102   8.353  77.610  1.00  0.00    -0.504 OA
ATOM     24  H   UNL     1     -35.663   9.133  77.934  1.00  0.00     0.293 HD
ENDBRANCH  18  23
ENDBRANCH   3  13
BRANCH  10  25
ATOM     25  O   UNL     1     -42.558   3.357  81.156  1.00  0.00    -0.507 OA
ATOM     26  H   UNL     1     -42.715   4.208  81.685  1.00  0.00     0.293 HD
ENDBRANCH  10  25
BRANCH  11  27
ATOM     27  O   UNL     1     -42.677   2.396  76.431  1.00  0.00    -0.508 OA
ATOM     28  H   UNL     1     -42.221   1.828  75.727  1.00  0.00     0.293 HD
ENDBRANCH  11  27
ENDBRANCH   1   2
BRANCH   1  29
ATOM     29  C   UNL     1     -38.193   5.809  82.973  1.00  0.00     0.339 C 
ATOM     30  C   UNL     1     -38.304   7.338  83.065  1.00  0.00     0.214 C 
ATOM     31  O   UNL     1     -37.369   5.267  83.999  1.00  0.00    -0.332 OA
ATOM     32  C   UNL     1     -36.911   7.975  83.018  1.00  0.00     0.180 C 
ATOM     33  C   UNL     1     -36.052   5.804  84.040  1.00  0.00     0.179 C 
ATOM     34  C   UNL     1     -36.038   7.352  84.118  1.00  0.00     0.177 C 
BRANCH  30  35
ATOM     35  O   UNL     1     -39.089   7.810  81.999  1.00  0.00    -0.384 OA
ATOM     36  H   UNL     1     -38.959   7.181  81.243  1.00  0.00     0.211 HD
ENDBRANCH  30  35
BRANCH  32  37
ATOM     37  O   UNL     1     -37.031   9.359  83.229  1.00  0.00    -0.387 OA
ATOM     38  H   UNL     1     -37.098   9.498  84.210  1.00  0.00     0.211 HD
ENDBRANCH  32  37
BRANCH  33  39
ATOM     39  C   UNL     1     -35.150   5.209  82.938  1.00  0.00     0.191 C 
BRANCH  39  40
ATOM     40  O   UNL     1     -35.400   3.837  82.800  1.00  0.00    -0.394 OA
ATOM     41  H   UNL     1     -36.296   3.678  83.196  1.00  0.00     0.210 HD
ENDBRANCH  39  40
ENDBRANCH  33  39
BRANCH  34  42
ATOM     42  O   UNL     1     -34.719   7.830  84.024  1.00  0.00    -0.387 OA
ATOM     43  H   UNL     1     -34.352   7.855  84.945  1.00  0.00     0.211 HD
ENDBRANCH  34  42
ENDBRANCH   1  29
TORSDOF 13
ENDMDL
MODEL 3
REMARK VINA RESULT:    -6.420      2.067      6.378
REMARK INTER + INTRA:         -10.684
REMARK INTER:                  -9.852
REMARK INTRA:                  -0.832
REMARK UNBOUND:                -1.074
REMARK SMILES O=c1c(O[C@H]2O[C@@H](CO)[C@@H](O)[C@H](O)[C@H]2O)c(-c2cc(O)c(O)c(O)c2)oc2cc(O)cc(O)c12
REMARK SMILES IDX 4 1 3 2 16 3 26 4 2 5 27 6 1 7 34 8 28 9 32 10 29 11 31 12
REMARK SMILES IDX 17 13 18 14 19 15 25 16 21 17 23 18 20 19 22 21 24 23 33 25
REMARK SMILES IDX 30 27 5 29 14 30 6 31 12 32 7 33 10 34 15 35 13 37 8 39 9 40
REMARK SMILES IDX 11 42
REMARK H PARENT 20 20 22 22 24 24 33 26 30 28 15 36 13 38 9 41 11 43
REMARK Flexibility Score: inf
ROOT
ATOM      1  O   UNL     1     -38.257   5.481  81.593  1.00  0.00    -0.454 OA
ENDROOT
BRANCH   1   2
ATOM      2  C   UNL     1     -37.540   6.199  80.619  1.00  0.00     0.214 A 
ATOM      3  C   UNL     1     -37.690   5.833  79.265  1.00  0.00     0.181 A 
ATOM      4  O   UNL     1     -36.995   6.459  78.322  1.00  0.00    -0.452 OA
ATOM      5  C   UNL     1     -36.662   7.260  80.931  1.00  0.00     0.239 A 
ATOM      6  C   UNL     1     -36.155   7.454  78.574  1.00  0.00     0.146 A 
ATOM      7  O   UNL     1     -36.526   7.638  82.125  1.00  0.00    -0.285 OA
ATOM      8  C   UNL     1     -35.950   7.905  79.897  1.00  0.00     0.111 A 
ATOM      9  C   UNL     1     -35.472   8.052  77.510  1.00  0.00     0.094 A 
ATOM     10  C   UNL     1     -35.048   8.974  80.128  1.00  0.00     0.134 A 
ATOM     11  C   UNL     1     -34.583   9.105  77.744  1.00  0.00     0.123 A 
ATOM     12  C   UNL     1     -34.375   9.562  79.047  1.00  0.00     0.093 A 
BRANCH   3  13
ATOM     13  C   UNL     1     -38.574   4.720  78.853  1.00  0.00     0.029 A 
ATOM     14  C   UNL     1     -38.054   3.467  78.496  1.00  0.00     0.062 A 
ATOM     15  C   UNL     1     -38.897   2.422  78.103  1.00  0.00     0.162 A 
ATOM     16  C   UNL     1     -39.963   4.907  78.854  1.00  0.00     0.062 A 
ATOM     17  C   UNL     1     -40.298   2.627  78.080  1.00  0.00     0.200 A 
ATOM     18  C   UNL     1     -40.820   3.871  78.463  1.00  0.00     0.162 A 
BRANCH  15  19
ATOM     19  O   UNL     1     -38.305   1.207  77.751  1.00  0.00    -0.504 OA
ATOM     20  H   UNL     1     -38.117   0.460  78.404  1.00  0.00     0.293 HD
ENDBRANCH  15  19
BRANCH  17  21
ATOM     21  O   UNL     1     -41.195   1.630  77.689  1.00  0.00    -0.502 OA
ATOM     22  H   UNL     1     -41.912   1.247  78.288  1.00  0.00     0.293 HD
ENDBRANCH  17  21
BRANCH  18  23
ATOM     23  O   UNL     1     -42.200   4.070  78.451  1.00  0.00    -0.504 OA
ATOM     24  H   UNL     1     -42.841   3.364  78.792  1.00  0.00     0.293 HD
ENDBRANCH  18  23
ENDBRANCH   3  13
BRANCH  10  25
ATOM     25  O   UNL     1     -34.816   9.453  81.418  1.00  0.00    -0.507 OA
ATOM     26  H   UNL     1     -33.928   9.313  81.886  1.00  0.00     0.293 HD
ENDBRANCH  10  25
BRANCH  11  27
ATOM     27  O   UNL     1     -33.901   9.706  76.688  1.00  0.00    -0.508 OA
ATOM     28  H   UNL     1     -34.361  10.358  76.064  1.00  0.00     0.293 HD
ENDBRANCH  11  27
ENDBRANCH   1   2
BRANCH   1  29
ATOM     29  C   UNL     1     -38.118   5.606  83.011  1.00  0.00     0.339 C 
ATOM     30  C   UNL     1     -37.127   4.560  83.541  1.00  0.00     0.214 C 
ATOM     31  O   UNL     1     -39.373   5.545  83.679  1.00  0.00    -0.332 OA
ATOM     32  C   UNL     1     -37.723   3.154  83.418  1.00  0.00     0.180 C 
ATOM     33  C   UNL     1     -40.005   4.271  83.626  1.00  0.00     0.179 C 
ATOM     34  C   UNL     1     -39.087   3.125  84.125  1.00  0.00     0.177 C 
BRANCH  30  35
ATOM     35  O   UNL     1     -35.929   4.644  82.809  1.00  0.00    -0.384 OA
ATOM     36  H   UNL     1     -35.271   4.057  83.264  1.00  0.00     0.211 HD
ENDBRANCH  30  35
BRANCH  32  37
ATOM     37  O   UNL     1     -36.853   2.231  84.023  1.00  0.00    -0.387 OA
ATOM     38  H   UNL     1     -36.107   2.075  83.386  1.00  0.00     0.211 HD
ENDBRANCH  32  37
BRANCH  33  39
ATOM     39  C   UNL     1     -40.669   4.011  82.257  1.00  0.00     0.191 C 
BRANCH  39  40
ATOM     40  O   UNL     1     -41.700   3.071  82.392  1.00  0.00    -0.394 OA
ATOM     41  H   UNL     1     -41.416   2.272  81.876  1.00  0.00     0.210 HD
ENDBRANCH  39  40
ENDBRANCH  33  39
BRANCH  34  42
ATOM     42  O   UNL     1     -39.714   1.882  83.928  1.00  0.00    -0.387 OA
ATOM     43  H   UNL     1     -39.670   1.394  84.790  1.00  0.00     0.211 HD
ENDBRANCH  34  42
ENDBRANCH   1  29
TORSDOF 13
ENDMDL
MODEL 4
REMARK VINA RESULT:    -6.271      2.670      7.105
REMARK INTER + INTRA:         -10.462
REMARK INTER:                  -9.131
REMARK INTRA:                  -1.331
REMARK UNBOUND:                -1.074
REMARK SMILES O=c1c(O[C@H]2O[C@@H](CO)[C@@H](O)[C@H](O)[C@H]2O)c(-c2cc(O)c(O)c(O)c2)oc2cc(O)cc(O)c12
REMARK SMILES IDX 4 1 3 2 16 3 26 4 2 5 27 6 1 7 34 8 28 9 32 10 29 11 31 12
REMARK SMILES IDX 17 13 18 14 19 15 25 16 21 17 23 18 20 19 22 21 24 23 33 25
REMARK SMILES IDX 30 27 5 29 14 30 6 31 12 32 7 33 10 34 15 35 13 37 8 39 9 40
REMARK SMILES IDX 11 42
REMARK H PARENT 20 20 22 22 24 24 33 26 30 28 15 36 13 38 9 41 11 43
REMARK Flexibility Score: inf
ROOT
ATOM      1  O   UNL     1     -38.628   7.047  79.088  1.00  0.00    -0.454 OA
ENDROOT
BRANCH   1   2
ATOM      2  C   UNL     1     -37.729   6.261  79.831  1.00  0.00     0.214 A 
ATOM      3  C   UNL     1     -38.124   4.959  80.205  1.00  0.00     0.181 A 
ATOM      4  O   UNL     1     -37.320   4.204  80.946  1.00  0.00    -0.452 OA
ATOM      5  C   UNL     1     -36.456   6.716  80.237  1.00  0.00     0.239 A 
ATOM      6  C   UNL     1     -36.121   4.597  81.354  1.00  0.00     0.146 A 
ATOM      7  O   UNL     1     -36.055   7.860  79.895  1.00  0.00    -0.285 OA
ATOM      8  C   UNL     1     -35.629   5.877  81.015  1.00  0.00     0.111 A 
ATOM      9  C   UNL     1     -35.347   3.725  82.127  1.00  0.00     0.094 A 
ATOM     10  C   UNL     1     -34.341   6.262  81.464  1.00  0.00     0.134 A 
ATOM     11  C   UNL     1     -34.078   4.110  82.569  1.00  0.00     0.123 A 
ATOM     12  C   UNL     1     -33.580   5.373  82.237  1.00  0.00     0.093 A 
BRANCH   3  13
ATOM     13  C   UNL     1     -39.448   4.411  79.839  1.00  0.00     0.029 A 
ATOM     14  C   UNL     1     -39.715   3.952  78.540  1.00  0.00     0.062 A 
ATOM     15  C   UNL     1     -40.972   3.439  78.201  1.00  0.00     0.162 A 
ATOM     16  C   UNL     1     -40.448   4.312  80.815  1.00  0.00     0.062 A 
ATOM     17  C   UNL     1     -41.985   3.368  79.187  1.00  0.00     0.200 A 
ATOM     18  C   UNL     1     -41.711   3.801  80.492  1.00  0.00     0.162 A 
BRANCH  15  19
ATOM     19  O   UNL     1     -41.166   3.012  76.885  1.00  0.00    -0.504 OA
ATOM     20  H   UNL     1     -40.662   2.249  76.458  1.00  0.00     0.293 HD
ENDBRANCH  15  19
BRANCH  17  21
ATOM     21  O   UNL     1     -43.264   2.876  78.913  1.00  0.00    -0.502 OA
ATOM     22  H   UNL     1     -43.779   2.263  79.529  1.00  0.00     0.293 HD
ENDBRANCH  17  21
BRANCH  18  23
ATOM     23  O   UNL     1     -42.705   3.721  81.466  1.00  0.00    -0.504 OA
ATOM     24  H   UNL     1     -43.121   4.553  81.869  1.00  0.00     0.293 HD
ENDBRANCH  18  23
ENDBRANCH   3  13
BRANCH  10  25
ATOM     25  O   UNL     1     -33.815   7.516  81.152  1.00  0.00    -0.507 OA
ATOM     26  H   UNL     1     -33.711   8.240  81.854  1.00  0.00     0.293 HD
ENDBRANCH  10  25
BRANCH  11  27
ATOM     27  O   UNL     1     -33.302   3.246  83.338  1.00  0.00    -0.508 OA
ATOM     28  H   UNL     1     -32.403   2.911  83.013  1.00  0.00     0.293 HD
ENDBRANCH  11  27
ENDBRANCH   1   2
BRANCH   1  29
ATOM     29  C   UNL     1     -39.195   8.297  79.493  1.00  0.00     0.339 C 
ATOM     30  C   UNL     1     -40.622   8.434  78.943  1.00  0.00     0.214 C 
ATOM     31  O   UNL     1     -38.371   9.400  79.131  1.00  0.00    -0.332 OA
ATOM     32  C   UNL     1     -40.591   8.594  77.419  1.00  0.00     0.180 C 
ATOM     33  C   UNL     1     -38.285   9.634  77.730  1.00  0.00     0.179 C 
ATOM     34  C   UNL     1     -39.675   9.774  77.059  1.00  0.00     0.177 C 
BRANCH  30  35
ATOM     35  O   UNL     1     -41.365   7.294  79.295  1.00  0.00    -0.384 OA
ATOM     36  H   UNL     1     -42.301   7.592  79.439  1.00  0.00     0.211 HD
ENDBRANCH  30  35
BRANCH  32  37
ATOM     37  O   UNL     1     -41.895   8.843  76.956  1.00  0.00    -0.387 OA
ATOM     38  H   UNL     1     -42.406   9.223  77.718  1.00  0.00     0.211 HD
ENDBRANCH  32  37
BRANCH  33  39
ATOM     39  C   UNL     1     -37.334   8.636  77.035  1.00  0.00     0.191 C 
BRANCH  39  40
ATOM     40  O   UNL     1     -36.000   8.994  77.276  1.00  0.00    -0.394 OA
ATOM     41  H   UNL     1     -36.029   9.871  77.740  1.00  0.00     0.210 HD
ENDBRANCH  39  40
ENDBRANCH  33  39
BRANCH  34  42
ATOM     42  O   UNL     1     -39.531   9.872  75.664  1.00  0.00    -0.387 OA
ATOM     43  H   UNL     1     -38.563   9.978  75.477  1.00  0.00     0.211 HD
ENDBRANCH  34  42
ENDBRANCH   1  29
TORSDOF 13
ENDMDL
MODEL 5
REMARK VINA RESULT:    -6.210      2.703      5.053
REMARK INTER + INTRA:         -10.370
REMARK INTER:                  -9.257
REMARK INTRA:                  -1.113
REMARK UNBOUND:                -1.074
REMARK SMILES O=c1c(O[C@H]2O[C@@H](CO)[C@@H](O)[C@H](O)[C@H]2O)c(-c2cc(O)c(O)c(O)c2)oc2cc(O)cc(O)c12
REMARK SMILES IDX 4 1 3 2 16 3 26 4 2 5 27 6 1 7 34 8 28 9 32 10 29 11 31 12
REMARK SMILES IDX 17 13 18 14 19 15 25 16 21 17 23 18 20 19 22 21 24 23 33 25
REMARK SMILES IDX 30 27 5 29 14 30 6 31 12 32 7 33 10 34 15 35 13 37 8 39 9 40
REMARK SMILES IDX 11 42
REMARK H PARENT 20 20 22 22 24 24 33 26 30 28 15 36 13 38 9 41 11 43
REMARK Flexibility Score: inf
ROOT
ATOM      1  O   UNL     1     -36.873   6.362  79.641  1.00  0.00    -0.454 OA
ENDROOT
BRANCH   1   2
ATOM      2  C   UNL     1     -37.904   5.602  80.222  1.00  0.00     0.214 A 
ATOM      3  C   UNL     1     -39.233   5.851  79.819  1.00  0.00     0.181 A 
ATOM      4  O   UNL     1     -40.237   5.185  80.378  1.00  0.00    -0.452 OA
ATOM      5  C   UNL     1     -37.677   4.613  81.204  1.00  0.00     0.239 A 
ATOM      6  C   UNL     1     -40.067   4.255  81.309  1.00  0.00     0.146 A 
ATOM      7  O   UNL     1     -36.503   4.340  81.567  1.00  0.00    -0.285 OA
ATOM      8  C   UNL     1     -38.773   3.922  81.765  1.00  0.00     0.111 A 
ATOM      9  C   UNL     1     -41.190   3.606  81.833  1.00  0.00     0.094 A 
ATOM     10  C   UNL     1     -38.629   2.920  82.757  1.00  0.00     0.134 A 
ATOM     11  C   UNL     1     -41.042   2.620  82.812  1.00  0.00     0.123 A 
ATOM     12  C   UNL     1     -39.767   2.280  83.269  1.00  0.00     0.093 A 
BRANCH   3  13
ATOM     13  C   UNL     1     -39.560   6.883  78.810  1.00  0.00     0.029 A 
ATOM     14  C   UNL     1     -39.174   6.743  77.468  1.00  0.00     0.062 A 
ATOM     15  C   UNL     1     -39.484   7.726  76.523  1.00  0.00     0.162 A 
ATOM     16  C   UNL     1     -40.305   8.007  79.191  1.00  0.00     0.062 A 
ATOM     17  C   UNL     1     -40.212   8.872  76.922  1.00  0.00     0.200 A 
ATOM     18  C   UNL     1     -40.623   9.000  78.256  1.00  0.00     0.162 A 
BRANCH  15  19
ATOM     19  O   UNL     1     -39.056   7.522  75.209  1.00  0.00    -0.504 OA
ATOM     20  H   UNL     1     -39.023   8.246  74.506  1.00  0.00     0.293 HD
ENDBRANCH  15  19
BRANCH  17  21
ATOM     21  O   UNL     1     -40.547   9.895  76.031  1.00  0.00    -0.502 OA
ATOM     22  H   UNL     1     -40.994  10.759  76.302  1.00  0.00     0.293 HD
ENDBRANCH  17  21
BRANCH  18  23
ATOM     23  O   UNL     1     -41.350  10.123  78.648  1.00  0.00    -0.504 OA
ATOM     24  H   UNL     1     -41.170  11.037  78.249  1.00  0.00     0.293 HD
ENDBRANCH  18  23
ENDBRANCH   3  13
BRANCH  10  25
ATOM     25  O   UNL     1     -37.370   2.558  83.237  1.00  0.00    -0.507 OA
ATOM     26  H   UNL     1     -37.087   2.752  84.191  1.00  0.00     0.293 HD
ENDBRANCH  10  25
BRANCH  11  27
ATOM     27  O   UNL     1     -42.156   1.969  83.337  1.00  0.00    -0.508 OA
ATOM     28  H   UNL     1     -43.084   2.372  83.275  1.00  0.00     0.293 HD
ENDBRANCH  11  27
ENDBRANCH   1   2
BRANCH   1  29
ATOM     29  C   UNL     1     -36.113   7.390  80.283  1.00  0.00     0.339 C 
ATOM     30  C   UNL     1     -35.742   8.485  79.271  1.00  0.00     0.214 C 
ATOM     31  O   UNL     1     -34.972   6.872  80.957  1.00  0.00    -0.332 OA
ATOM     32  C   UNL     1     -34.728   7.947  78.256  1.00  0.00     0.180 C 
ATOM     33  C   UNL     1     -33.966   6.353  80.094  1.00  0.00     0.179 C 
ATOM     34  C   UNL     1     -33.521   7.371  79.013  1.00  0.00     0.177 C 
BRANCH  30  35
ATOM     35  O   UNL     1     -36.905   8.918  78.610  1.00  0.00    -0.384 OA
ATOM     36  H   UNL     1     -36.814   9.897  78.477  1.00  0.00     0.211 HD
ENDBRANCH  30  35
BRANCH  32  37
ATOM     37  O   UNL     1     -34.311   8.998  77.422  1.00  0.00    -0.387 OA
ATOM     38  H   UNL     1     -33.913   8.585  76.611  1.00  0.00     0.211 HD
ENDBRANCH  32  37
BRANCH  33  39
ATOM     39  C   UNL     1     -34.336   4.957  79.548  1.00  0.00     0.191 C 
BRANCH  39  40
ATOM     40  O   UNL     1     -33.187   4.302  79.083  1.00  0.00    -0.394 OA
ATOM     41  H   UNL     1     -33.474   3.759  78.304  1.00  0.00     0.210 HD
ENDBRANCH  39  40
ENDBRANCH  33  39
BRANCH  34  42
ATOM     42  O   UNL     1     -32.626   6.763  78.115  1.00  0.00    -0.387 OA
ATOM     43  H   UNL     1     -33.026   6.836  77.210  1.00  0.00     0.211 HD
ENDBRANCH  34  42
ENDBRANCH   1  29
TORSDOF 13
ENDMDL
MODEL 6
REMARK VINA RESULT:    -6.133      1.995      5.195
REMARK INTER + INTRA:         -10.255
REMARK INTER:                  -8.823
REMARK INTRA:                  -1.432
REMARK UNBOUND:                -1.074
REMARK SMILES O=c1c(O[C@H]2O[C@@H](CO)[C@@H](O)[C@H](O)[C@H]2O)c(-c2cc(O)c(O)c(O)c2)oc2cc(O)cc(O)c12
REMARK SMILES IDX 4 1 3 2 16 3 26 4 2 5 27 6 1 7 34 8 28 9 32 10 29 11 31 12
REMARK SMILES IDX 17 13 18 14 19 15 25 16 21 17 23 18 20 19 22 21 24 23 33 25
REMARK SMILES IDX 30 27 5 29 14 30 6 31 12 32 7 33 10 34 15 35 13 37 8 39 9 40
REMARK SMILES IDX 11 42
REMARK H PARENT 20 20 22 22 24 24 33 26 30 28 15 36 13 38 9 41 11 43
REMARK Flexibility Score: inf
ROOT
ATOM      1  O   UNL     1     -36.471   6.136  79.696  1.00  0.00    -0.454 OA
ENDROOT
BRANCH   1   2
ATOM      2  C   UNL     1     -37.473   5.515  80.464  1.00  0.00     0.214 A 
ATOM      3  C   UNL     1     -37.181   5.167  81.799  1.00  0.00     0.181 A 
ATOM      4  O   UNL     1     -38.087   4.539  82.540  1.00  0.00    -0.452 OA
ATOM      5  C   UNL     1     -38.755   5.207  79.958  1.00  0.00     0.239 A 
ATOM      6  C   UNL     1     -39.298   4.224  82.100  1.00  0.00     0.146 A 
ATOM      7  O   UNL     1     -39.065   5.530  78.781  1.00  0.00    -0.285 OA
ATOM      8  C   UNL     1     -39.691   4.547  80.783  1.00  0.00     0.111 A 
ATOM      9  C   UNL     1     -40.183   3.566  82.961  1.00  0.00     0.094 A 
ATOM     10  C   UNL     1     -40.995   4.200  80.349  1.00  0.00     0.134 A 
ATOM     11  C   UNL     1     -41.467   3.225  82.527  1.00  0.00     0.123 A 
ATOM     12  C   UNL     1     -41.869   3.542  81.227  1.00  0.00     0.093 A 
BRANCH   3  13
ATOM     13  C   UNL     1     -35.857   5.437  82.402  1.00  0.00     0.029 A 
ATOM     14  C   UNL     1     -35.006   4.392  82.793  1.00  0.00     0.062 A 
ATOM     15  C   UNL     1     -33.757   4.656  83.367  1.00  0.00     0.162 A 
ATOM     16  C   UNL     1     -35.424   6.761  82.552  1.00  0.00     0.062 A 
ATOM     17  C   UNL     1     -33.339   5.997  83.541  1.00  0.00     0.200 A 
ATOM     18  C   UNL     1     -34.177   7.042  83.125  1.00  0.00     0.162 A 
BRANCH  15  19
ATOM     19  O   UNL     1     -32.971   3.565  83.742  1.00  0.00    -0.504 OA
ATOM     20  H   UNL     1     -32.161   3.249  83.229  1.00  0.00     0.293 HD
ENDBRANCH  15  19
BRANCH  17  21
ATOM     21  O   UNL     1     -32.110   6.331  84.115  1.00  0.00    -0.502 OA
ATOM     22  H   UNL     1     -31.566   7.143  83.858  1.00  0.00     0.293 HD
ENDBRANCH  17  21
BRANCH  18  23
ATOM     23  O   UNL     1     -33.761   8.363  83.285  1.00  0.00    -0.504 OA
ATOM     24  H   UNL     1     -34.384   9.074  83.650  1.00  0.00     0.293 HD
ENDBRANCH  18  23
ENDBRANCH   3  13
BRANCH  10  25
ATOM     25  O   UNL     1     -41.427   4.500  79.056  1.00  0.00    -0.507 OA
ATOM     26  H   UNL     1     -41.869   3.803  78.467  1.00  0.00     0.293 HD
ENDBRANCH  10  25
BRANCH  11  27
ATOM     27  O   UNL     1     -42.354   2.571  83.379  1.00  0.00    -0.508 OA
ATOM     28  H   UNL     1     -43.350   2.751  83.347  1.00  0.00     0.293 HD
ENDBRANCH  11  27
ENDBRANCH   1   2
BRANCH   1  29
ATOM     29  C   UNL     1     -35.949   5.670  78.448  1.00  0.00     0.339 C 
ATOM     30  C   UNL     1     -34.423   5.521  78.536  1.00  0.00     0.214 C 
ATOM     31  O   UNL     1     -36.348   6.494  77.360  1.00  0.00    -0.332 OA
ATOM     32  C   UNL     1     -33.761   6.899  78.645  1.00  0.00     0.180 C 
ATOM     33  C   UNL     1     -35.777   7.798  77.371  1.00  0.00     0.179 C 
ATOM     34  C   UNL     1     -34.230   7.774  77.473  1.00  0.00     0.177 C 
BRANCH  30  35
ATOM     35  O   UNL     1     -34.097   4.737  79.656  1.00  0.00    -0.384 OA
ATOM     36  H   UNL     1     -34.752   3.992  79.688  1.00  0.00     0.211 HD
ENDBRANCH  30  35
BRANCH  32  37
ATOM     37  O   UNL     1     -32.365   6.744  78.597  1.00  0.00    -0.387 OA
ATOM     38  H   UNL     1     -32.162   6.188  77.800  1.00  0.00     0.211 HD
ENDBRANCH  32  37
BRANCH  33  39
ATOM     39  C   UNL     1     -36.473   8.726  78.389  1.00  0.00     0.191 C 
BRANCH  39  40
ATOM     40  O   UNL     1     -37.846   8.445  78.437  1.00  0.00    -0.394 OA
ATOM     41  H   UNL     1     -37.959   7.550  78.022  1.00  0.00     0.210 HD
ENDBRANCH  39  40
ENDBRANCH  33  39
BRANCH  34  42
ATOM     42  O   UNL     1     -33.734   9.082  77.611  1.00  0.00    -0.387 OA
ATOM     43  H   UNL     1     -33.728   9.489  76.706  1.00  0.00     0.211 HD
ENDBRANCH  34  42
ENDBRANCH   1  29
TORSDOF 13
ENDMDL
MODEL 7
REMARK VINA RESULT:    -5.999      2.608      6.928
REMARK INTER + INTRA:         -10.055
REMARK INTER:                  -9.503
REMARK INTRA:                  -0.552
REMARK UNBOUND:                -1.074
REMARK SMILES O=c1c(O[C@H]2O[C@@H](CO)[C@@H](O)[C@H](O)[C@H]2O)c(-c2cc(O)c(O)c(O)c2)oc2cc(O)cc(O)c12
REMARK SMILES IDX 4 1 3 2 16 3 26 4 2 5 27 6 1 7 34 8 28 9 32 10 29 11 31 12
REMARK SMILES IDX 17 13 18 14 19 15 25 16 21 17 23 18 20 19 22 21 24 23 33 25
REMARK SMILES IDX 30 27 5 29 14 30 6 31 12 32 7 33 10 34 15 35 13 37 8 39 9 40
REMARK SMILES IDX 11 42
REMARK H PARENT 20 20 22 22 24 24 33 26 30 28 15 36 13 38 9 41 11 43
REMARK Flexibility Score: inf
ROOT
ATOM      1  O   UNL     1     -37.910   6.995  79.322  1.00  0.00    -0.454 OA
ENDROOT
BRANCH   1   2
ATOM      2  C   UNL     1     -36.993   6.309  80.139  1.00  0.00     0.214 A 
ATOM      3  C   UNL     1     -37.112   4.909  80.257  1.00  0.00     0.181 A 
ATOM      4  O   UNL     1     -36.294   4.233  81.056  1.00  0.00    -0.452 OA
ATOM      5  C   UNL     1     -35.969   6.956  80.864  1.00  0.00     0.239 A 
ATOM      6  C   UNL     1     -35.325   4.803  81.759  1.00  0.00     0.146 A 
ATOM      7  O   UNL     1     -35.810   8.201  80.760  1.00  0.00    -0.285 OA
ATOM      8  C   UNL     1     -35.114   6.199  81.694  1.00  0.00     0.111 A 
ATOM      9  C   UNL     1     -34.512   4.003  82.568  1.00  0.00     0.094 A 
ATOM     10  C   UNL     1     -34.066   6.773  82.455  1.00  0.00     0.134 A 
ATOM     11  C   UNL     1     -33.480   4.575  83.318  1.00  0.00     0.123 A 
ATOM     12  C   UNL     1     -33.260   5.953  83.259  1.00  0.00     0.093 A 
BRANCH   3  13
ATOM     13  C   UNL     1     -38.170   4.155  79.548  1.00  0.00     0.029 A 
ATOM     14  C   UNL     1     -39.500   4.600  79.533  1.00  0.00     0.062 A 
ATOM     15  C   UNL     1     -40.494   3.878  78.864  1.00  0.00     0.162 A 
ATOM     16  C   UNL     1     -37.832   2.991  78.843  1.00  0.00     0.062 A 
ATOM     17  C   UNL     1     -40.150   2.688  78.178  1.00  0.00     0.200 A 
ATOM     18  C   UNL     1     -38.816   2.257  78.169  1.00  0.00     0.162 A 
BRANCH  15  19
ATOM     19  O   UNL     1     -41.798   4.378  78.903  1.00  0.00    -0.504 OA
ATOM     20  H   UNL     1     -42.038   5.305  79.222  1.00  0.00     0.293 HD
ENDBRANCH  15  19
BRANCH  17  21
ATOM     21  O   UNL     1     -41.095   1.916  77.497  1.00  0.00    -0.502 OA
ATOM     22  H   UNL     1     -41.777   2.292  76.854  1.00  0.00     0.293 HD
ENDBRANCH  17  21
BRANCH  18  23
ATOM     23  O   UNL     1     -38.475   1.092  77.485  1.00  0.00    -0.504 OA
ATOM     24  H   UNL     1     -38.947   0.213  77.663  1.00  0.00     0.293 HD
ENDBRANCH  18  23
ENDBRANCH   3  13
BRANCH  10  25
ATOM     25  O   UNL     1     -33.820   8.146  82.421  1.00  0.00    -0.507 OA
ATOM     26  H   UNL     1     -34.053   8.709  81.611  1.00  0.00     0.293 HD
ENDBRANCH  10  25
BRANCH  11  27
ATOM     27  O   UNL     1     -32.666   3.784  84.125  1.00  0.00    -0.508 OA
ATOM     28  H   UNL     1     -31.691   4.011  84.278  1.00  0.00     0.293 HD
ENDBRANCH  11  27
ENDBRANCH   1   2
BRANCH   1  29
ATOM     29  C   UNL     1     -38.181   8.399  79.346  1.00  0.00     0.339 C 
ATOM     30  C   UNL     1     -39.679   8.645  79.583  1.00  0.00     0.214 C 
ATOM     31  O   UNL     1     -37.706   9.057  78.178  1.00  0.00    -0.332 OA
ATOM     32  C   UNL     1     -40.488   8.201  78.360  1.00  0.00     0.180 C 
ATOM     33  C   UNL     1     -38.404   8.713  76.986  1.00  0.00     0.179 C 
ATOM     34  C   UNL     1     -39.937   8.906  77.111  1.00  0.00     0.177 C 
BRANCH  30  35
ATOM     35  O   UNL     1     -40.091   7.931  80.722  1.00  0.00    -0.384 OA
ATOM     36  H   UNL     1     -40.000   8.545  81.496  1.00  0.00     0.211 HD
ENDBRANCH  30  35
BRANCH  32  37
ATOM     37  O   UNL     1     -41.837   8.550  78.550  1.00  0.00    -0.387 OA
ATOM     38  H   UNL     1     -42.012   9.348  77.985  1.00  0.00     0.211 HD
ENDBRANCH  32  37
BRANCH  33  39
ATOM     39  C   UNL     1     -37.973   7.334  76.441  1.00  0.00     0.191 C 
BRANCH  39  40
ATOM     40  O   UNL     1     -39.002   6.400  76.626  1.00  0.00    -0.394 OA
ATOM     41  H   UNL     1     -39.581   6.765  77.344  1.00  0.00     0.210 HD
ENDBRANCH  39  40
ENDBRANCH  33  39
BRANCH  34  42
ATOM     42  O   UNL     1     -40.581   8.430  75.956  1.00  0.00    -0.387 OA
ATOM     43  H   UNL     1     -39.906   8.420  75.229  1.00  0.00     0.211 HD
ENDBRANCH  34  42
ENDBRANCH   1  29
TORSDOF 13
ENDMDL
MODEL 8
REMARK VINA RESULT:    -5.851      2.623      5.978
REMARK INTER + INTRA:          -9.833
REMARK INTER:                  -8.721
REMARK INTRA:                  -1.112
REMARK UNBOUND:                -1.074
REMARK SMILES O=c1c(O[C@H]2O[C@@H](CO)[C@@H](O)[C@H](O)[C@H]2O)c(-c2cc(O)c(O)c(O)c2)oc2cc(O)cc(O)c12
REMARK SMILES IDX 4 1 3 2 16 3 26 4 2 5 27 6 1 7 34 8 28 9 32 10 29 11 31 12
REMARK SMILES IDX 17 13 18 14 19 15 25 16 21 17 23 18 20 19 22 21 24 23 33 25
REMARK SMILES IDX 30 27 5 29 14 30 6 31 12 32 7 33 10 34 15 35 13 37 8 39 9 40
REMARK SMILES IDX 11 42
REMARK H PARENT 20 20 22 22 24 24 33 26 30 28 15 36 13 38 9 41 11 43
REMARK Flexibility Score: inf
ROOT
ATOM      1  O   UNL     1     -37.031   6.156  80.311  1.00  0.00    -0.454 OA
ENDROOT
BRANCH   1   2
ATOM      2  C   UNL     1     -37.827   6.837  79.373  1.00  0.00     0.214 A 
ATOM      3  C   UNL     1     -39.200   6.520  79.299  1.00  0.00     0.181 A 
ATOM      4  O   UNL     1     -39.974   7.109  78.394  1.00  0.00    -0.452 OA
ATOM      5  C   UNL     1     -37.318   7.811  78.488  1.00  0.00     0.239 A 
ATOM      6  C   UNL     1     -39.533   8.022  77.540  1.00  0.00     0.146 A 
ATOM      7  O   UNL     1     -36.104   8.145  78.545  1.00  0.00    -0.285 OA
ATOM      8  C   UNL     1     -38.178   8.420  77.548  1.00  0.00     0.111 A 
ATOM      9  C   UNL     1     -40.430   8.588  76.628  1.00  0.00     0.094 A 
ATOM     10  C   UNL     1     -37.743   9.402  76.624  1.00  0.00     0.134 A 
ATOM     11  C   UNL     1     -39.995   9.556  75.718  1.00  0.00     0.123 A 
ATOM     12  C   UNL     1     -38.657   9.960  75.719  1.00  0.00     0.093 A 
BRANCH   3  13
ATOM     13  C   UNL     1     -39.812   5.497  80.176  1.00  0.00     0.029 A 
ATOM     14  C   UNL     1     -40.672   4.514  79.663  1.00  0.00     0.062 A 
ATOM     15  C   UNL     1     -41.249   3.554  80.501  1.00  0.00     0.162 A 
ATOM     16  C   UNL     1     -39.498   5.483  81.541  1.00  0.00     0.062 A 
ATOM     17  C   UNL     1     -40.950   3.563  81.884  1.00  0.00     0.200 A 
ATOM     18  C   UNL     1     -40.068   4.528  82.393  1.00  0.00     0.162 A 
BRANCH  15  19
ATOM     19  O   UNL     1     -42.105   2.615  79.919  1.00  0.00    -0.504 OA
ATOM     20  H   UNL     1     -42.555   2.738  79.024  1.00  0.00     0.293 HD
ENDBRANCH  15  19
BRANCH  17  21
ATOM     21  O   UNL     1     -41.498   2.639  82.776  1.00  0.00    -0.502 OA
ATOM     22  H   UNL     1     -42.387   2.759  83.241  1.00  0.00     0.293 HD
ENDBRANCH  17  21
BRANCH  18  23
ATOM     23  O   UNL     1     -39.764   4.531  83.753  1.00  0.00    -0.504 OA
ATOM     24  H   UNL     1     -40.234   5.152  84.401  1.00  0.00     0.293 HD
ENDBRANCH  18  23
ENDBRANCH   3  13
BRANCH  10  25
ATOM     25  O   UNL     1     -36.414   9.827  76.597  1.00  0.00    -0.507 OA
ATOM     26  H   UNL     1     -35.840   9.837  77.433  1.00  0.00     0.293 HD
ENDBRANCH  10  25
BRANCH  11  27
ATOM     27  O   UNL     1     -40.883  10.124  74.808  1.00  0.00    -0.508 OA
ATOM     28  H   UNL     1     -40.664  10.184  73.821  1.00  0.00     0.293 HD
ENDBRANCH  11  27
ENDBRANCH   1   2
BRANCH   1  29
ATOM     29  C   UNL     1     -35.819   5.446  80.038  1.00  0.00     0.339 C 
ATOM     30  C   UNL     1     -35.808   4.107  80.790  1.00  0.00     0.214 C 
ATOM     31  O   UNL     1     -34.665   6.229  80.317  1.00  0.00    -0.332 OA
ATOM     32  C   UNL     1     -35.684   4.348  82.299  1.00  0.00     0.180 C 
ATOM     33  C   UNL     1     -34.460   6.501  81.699  1.00  0.00     0.179 C 
ATOM     34  C   UNL     1     -34.446   5.217  82.567  1.00  0.00     0.177 C 
BRANCH  30  35
ATOM     35  O   UNL     1     -36.994   3.407  80.507  1.00  0.00    -0.384 OA
ATOM     36  H   UNL     1     -37.594   3.528  81.288  1.00  0.00     0.211 HD
ENDBRANCH  30  35
BRANCH  32  37
ATOM     37  O   UNL     1     -35.550   3.111  82.952  1.00  0.00    -0.387 OA
ATOM     38  H   UNL     1     -36.246   3.080  83.660  1.00  0.00     0.211 HD
ENDBRANCH  32  37
BRANCH  33  39
ATOM     39  C   UNL     1     -35.397   7.615  82.214  1.00  0.00     0.191 C 
BRANCH  39  40
ATOM     40  O   UNL     1     -35.564   8.598  81.229  1.00  0.00    -0.394 OA
ATOM     41  H   UNL     1     -35.756   8.114  80.384  1.00  0.00     0.210 HD
ENDBRANCH  39  40
ENDBRANCH  33  39
BRANCH  34  42
ATOM     42  O   UNL     1     -34.372   5.555  83.929  1.00  0.00    -0.387 OA
ATOM     43  H   UNL     1     -35.277   5.852  84.206  1.00  0.00     0.211 HD
ENDBRANCH  34  42
ENDBRANCH   1  29
TORSDOF 13
ENDMDL
MODEL 9
REMARK VINA RESULT:    -5.820      2.745      6.807
REMARK INTER + INTRA:          -9.786
REMARK INTER:                  -8.254
REMARK INTRA:                  -1.532
REMARK UNBOUND:                -1.074
REMARK SMILES O=c1c(O[C@H]2O[C@@H](CO)[C@@H](O)[C@H](O)[C@H]2O)c(-c2cc(O)c(O)c(O)c2)oc2cc(O)cc(O)c12
REMARK SMILES IDX 4 1 3 2 16 3 26 4 2 5 27 6 1 7 34 8 28 9 32 10 29 11 31 12
REMARK SMILES IDX 17 13 18 14 19 15 25 16 21 17 23 18 20 19 22 21 24 23 33 25
REMARK SMILES IDX 30 27 5 29 14 30 6 31 12 32 7 33 10 34 15 35 13 37 8 39 9 40
REMARK SMILES IDX 11 42
REMARK H PARENT 20 20 22 22 24 24 33 26 30 28 15 36 13 38 9 41 11 43
REMARK Flexibility Score: inf
ROOT
ATOM      1  O   UNL     1     -38.588   5.526  80.435  1.00  0.00    -0.454 OA
ENDROOT
BRANCH   1   2
ATOM      2  C   UNL     1     -37.401   6.267  80.576  1.00  0.00     0.214 A 
ATOM      3  C   UNL     1     -37.226   7.416  79.777  1.00  0.00     0.181 A 
ATOM      4  O   UNL     1     -36.098   8.116  79.850  1.00  0.00    -0.452 OA
ATOM      5  C   UNL     1     -36.366   5.908  81.467  1.00  0.00     0.239 A 
ATOM      6  C   UNL     1     -35.100   7.807  80.666  1.00  0.00     0.146 A 
ATOM      7  O   UNL     1     -36.499   4.907  82.220  1.00  0.00    -0.285 OA
ATOM      8  C   UNL     1     -35.189   6.685  81.519  1.00  0.00     0.111 A 
ATOM      9  C   UNL     1     -33.955   8.611  80.672  1.00  0.00     0.094 A 
ATOM     10  C   UNL     1     -34.104   6.389  82.382  1.00  0.00     0.134 A 
ATOM     11  C   UNL     1     -32.888   8.313  81.525  1.00  0.00     0.123 A 
ATOM     12  C   UNL     1     -32.965   7.207  82.375  1.00  0.00     0.093 A 
BRANCH   3  13
ATOM     13  C   UNL     1     -38.251   7.852  78.804  1.00  0.00     0.029 A 
ATOM     14  C   UNL     1     -39.370   8.599  79.205  1.00  0.00     0.062 A 
ATOM     15  C   UNL     1     -40.337   9.003  78.279  1.00  0.00     0.162 A 
ATOM     16  C   UNL     1     -38.087   7.548  77.446  1.00  0.00     0.062 A 
ATOM     17  C   UNL     1     -40.178   8.667  76.913  1.00  0.00     0.200 A 
ATOM     18  C   UNL     1     -39.047   7.944  76.506  1.00  0.00     0.162 A 
BRANCH  15  19
ATOM     19  O   UNL     1     -41.428   9.733  78.755  1.00  0.00    -0.504 OA
ATOM     20  H   UNL     1     -41.366  10.433  79.480  1.00  0.00     0.293 HD
ENDBRANCH  15  19
BRANCH  17  21
ATOM     21  O   UNL     1     -41.110   9.031  75.938  1.00  0.00    -0.502 OA
ATOM     22  H   UNL     1     -42.078   8.742  75.944  1.00  0.00     0.293 HD
ENDBRANCH  17  21
BRANCH  18  23
ATOM     23  O   UNL     1     -38.884   7.623  75.160  1.00  0.00    -0.504 OA
ATOM     24  H   UNL     1     -39.611   7.152  74.635  1.00  0.00     0.293 HD
ENDBRANCH  18  23
ENDBRANCH   3  13
BRANCH  10  25
ATOM     25  O   UNL     1     -34.148   5.291  83.243  1.00  0.00    -0.507 OA
ATOM     26  H   UNL     1     -34.887   5.179  83.927  1.00  0.00     0.293 HD
ENDBRANCH  10  25
BRANCH  11  27
ATOM     27  O   UNL     1     -31.745   9.109  81.536  1.00  0.00    -0.508 OA
ATOM     28  H   UNL     1     -30.935   8.882  80.972  1.00  0.00     0.293 HD
ENDBRANCH  11  27
ENDBRANCH   1   2
BRANCH   1  29
ATOM     29  C   UNL     1     -38.686   4.139  80.099  1.00  0.00     0.339 C 
ATOM     30  C   UNL     1     -39.759   3.929  79.020  1.00  0.00     0.214 C 
ATOM     31  O   UNL     1     -38.908   3.325  81.244  1.00  0.00    -0.332 OA
ATOM     32  C   UNL     1     -41.152   4.200  79.599  1.00  0.00     0.180 C 
ATOM     33  C   UNL     1     -40.184   3.501  81.851  1.00  0.00     0.179 C 
ATOM     34  C   UNL     1     -41.353   3.328  80.848  1.00  0.00     0.177 C 
BRANCH  30  35
ATOM     35  O   UNL     1     -39.507   4.794  77.941  1.00  0.00    -0.384 OA
ATOM     36  H   UNL     1     -38.524   4.806  77.804  1.00  0.00     0.211 HD
ENDBRANCH  30  35
BRANCH  32  37
ATOM     37  O   UNL     1     -42.122   3.881  78.633  1.00  0.00    -0.387 OA
ATOM     38  H   UNL     1     -41.815   3.054  78.176  1.00  0.00     0.211 HD
ENDBRANCH  32  37
BRANCH  33  39
ATOM     39  C   UNL     1     -40.249   4.790  82.697  1.00  0.00     0.191 C 
BRANCH  39  40
ATOM     40  O   UNL     1     -39.095   4.909  83.484  1.00  0.00    -0.394 OA
ATOM     41  H   UNL     1     -39.398   4.857  84.428  1.00  0.00     0.210 HD
ENDBRANCH  39  40
ENDBRANCH  33  39
BRANCH  34  42
ATOM     42  O   UNL     1     -42.574   3.640  81.471  1.00  0.00    -0.387 OA
ATOM     43  H   UNL     1     -42.537   4.599  81.722  1.00  0.00     0.211 HD
ENDBRANCH  34  42
ENDBRANCH   1  29
TORSDOF 13
ENDMDL
