MODEL 1
REMARK VINA RESULT:    -3.451      0.000      0.000
REMARK INTER + INTRA:          -4.473
REMARK INTER:                  -4.158
REMARK INTRA:                  -0.316
REMARK UNBOUND:                -0.316
REMARK SMILES Oc1cc(O)c2c(c1)O[C@H](c1ccc(O)c(O)c1)[C@H](O)C2
REMARK SMILES IDX 21 1 19 2 10 3 9 4 7 5 8 6 2 7 3 8 4 9 6 10 20 11 11 13
REMARK SMILES IDX 18 14 12 15 16 16 13 17 14 18 17 19 15 21 5 23 1 25
REMARK H PARENT 20 12 17 20 15 22 5 24 1 26
REMARK Flexibility Score: inf
ROOT
ATOM      1  C   UNL     1      12.554 -17.933   8.944  1.00  0.00     0.079 C 
ATOM      2  C   UNL     1      11.139 -18.540   8.602  1.00  0.00     0.164 C 
ATOM      3  C   UNL     1      10.165 -17.456   7.994  1.00  0.00     0.232 C 
ATOM      4  O   UNL     1      10.553 -16.181   8.559  1.00  0.00    -0.482 OA
ATOM      5  C   UNL     1      11.824 -15.742   8.178  1.00  0.00     0.131 A 
ATOM      6  C   UNL     1      11.947 -14.481   7.609  1.00  0.00     0.093 A 
ATOM      7  C   UNL     1      13.108 -14.218   6.907  1.00  0.00     0.122 A 
ATOM      8  C   UNL     1      14.231 -15.091   7.010  1.00  0.00     0.092 A 
ATOM      9  C   UNL     1      14.135 -16.299   7.719  1.00  0.00     0.126 A 
ATOM     10  C   UNL     1      12.858 -16.671   8.155  1.00  0.00     0.039 A 
ENDROOT
BRANCH   2  11
ATOM     11  O   UNL     1      10.572 -19.125   9.756  1.00  0.00    -0.389 OA
ATOM     12  H   UNL     1      11.290 -19.555  10.298  1.00  0.00     0.211 HD
ENDBRANCH   2  11
BRANCH   3  13
ATOM     13  C   UNL     1       8.681 -17.704   8.200  1.00  0.00    -0.001 A 
ATOM     14  C   UNL     1       7.989 -17.090   9.268  1.00  0.00     0.057 A 
ATOM     15  C   UNL     1       7.803 -18.283   7.204  1.00  0.00     0.012 A 
ATOM     16  C   UNL     1       6.654 -16.716   8.989  1.00  0.00     0.157 A 
ATOM     17  C   UNL     1       6.396 -18.390   7.508  1.00  0.00     0.050 A 
ATOM     18  C   UNL     1       5.872 -17.848   8.708  1.00  0.00     0.157 A 
BRANCH  16  19
ATOM     19  O   UNL     1       6.370 -15.421   8.491  1.00  0.00    -0.504 OA
ATOM     20  H   UNL     1       6.323 -15.514   7.479  1.00  0.00     0.293 HD
ENDBRANCH  16  19
BRANCH  18  21
ATOM     21  O   UNL     1       5.508 -18.774   9.725  1.00  0.00    -0.504 OA
ATOM     22  H   UNL     1       5.809 -19.729   9.548  1.00  0.00     0.293 HD
ENDBRANCH  18  21
ENDBRANCH   3  13
BRANCH   9  23
ATOM     23  O   UNL     1      15.246 -17.157   7.858  1.00  0.00    -0.507 OA
ATOM     24  H   UNL     1      15.703 -17.263   8.770  1.00  0.00     0.293 HD
ENDBRANCH   9  23
BRANCH   7  25
ATOM     25  O   UNL     1      13.027 -13.276   5.887  1.00  0.00    -0.508 OA
ATOM     26  H   UNL     1      12.582 -12.382   6.034  1.00  0.00     0.293 HD
ENDBRANCH   7  25
TORSDOF 6
ENDMDL
MODEL 2
REMARK VINA RESULT:    -3.078      1.929      6.962
REMARK INTER + INTRA:          -4.024
REMARK INTER:                  -3.751
REMARK INTRA:                  -0.272
REMARK UNBOUND:                -0.316
REMARK SMILES Oc1cc(O)c2c(c1)O[C@H](c1ccc(O)c(O)c1)[C@H](O)C2
REMARK SMILES IDX 21 1 19 2 10 3 9 4 7 5 8 6 2 7 3 8 4 9 6 10 20 11 11 13
REMARK SMILES IDX 18 14 12 15 16 16 13 17 14 18 17 19 15 21 5 23 1 25
REMARK H PARENT 20 12 17 20 15 22 5 24 1 26
REMARK Flexibility Score: inf
ROOT
ATOM      1  C   UNL     1       7.052 -18.057   6.393  1.00  0.00     0.079 C 
ATOM      2  C   UNL     1       8.580 -18.405   6.211  1.00  0.00     0.164 C 
ATOM      3  C   UNL     1       9.352 -18.404   7.588  1.00  0.00     0.232 C 
ATOM      4  O   UNL     1       8.679 -17.451   8.444  1.00  0.00    -0.482 OA
ATOM      5  C   UNL     1       7.372 -17.807   8.792  1.00  0.00     0.131 A 
ATOM      6  C   UNL     1       7.035 -17.855  10.139  1.00  0.00     0.093 A 
ATOM      7  C   UNL     1       5.893 -18.557  10.475  1.00  0.00     0.122 A 
ATOM      8  C   UNL     1       4.965 -18.957   9.469  1.00  0.00     0.092 A 
ATOM      9  C   UNL     1       5.256 -18.764   8.109  1.00  0.00     0.126 A 
ATOM     10  C   UNL     1       6.551 -18.331   7.801  1.00  0.00     0.039 A 
ENDROOT
BRANCH   2  11
ATOM     11  O   UNL     1       9.177 -17.499   5.306  1.00  0.00    -0.389 OA
ATOM     12  H   UNL     1       9.860 -17.976   4.759  1.00  0.00     0.211 HD
ENDBRANCH   2  11
BRANCH   3  13
ATOM     13  C   UNL     1      10.839 -18.103   7.517  1.00  0.00    -0.001 A 
ATOM     14  C   UNL     1      11.315 -16.782   7.663  1.00  0.00     0.057 A 
ATOM     15  C   UNL     1      11.881 -19.104   7.624  1.00  0.00     0.012 A 
ATOM     16  C   UNL     1      12.553 -16.654   8.336  1.00  0.00     0.157 A 
ATOM     17  C   UNL     1      13.256 -18.666   7.617  1.00  0.00     0.050 A 
ATOM     18  C   UNL     1      13.576 -17.286   7.611  1.00  0.00     0.157 A 
BRANCH  16  19
ATOM     19  O   UNL     1      12.581 -16.471   9.739  1.00  0.00    -0.504 OA
ATOM     20  H   UNL     1      12.650 -17.403  10.142  1.00  0.00     0.293 HD
ENDBRANCH  16  19
BRANCH  18  21
ATOM     21  O   UNL     1      14.068 -16.747   6.390  1.00  0.00    -0.504 OA
ATOM     22  H   UNL     1      14.290 -17.445   5.684  1.00  0.00     0.293 HD
ENDBRANCH  18  21
ENDBRANCH   3  13
BRANCH   9  23
ATOM     23  O   UNL     1       4.335 -19.124   7.104  1.00  0.00    -0.507 OA
ATOM     24  H   UNL     1       4.369 -18.667   6.187  1.00  0.00     0.293 HD
ENDBRANCH   9  23
BRANCH   7  25
ATOM     25  O   UNL     1       5.848 -19.111  11.751  1.00  0.00    -0.508 OA
ATOM     26  H   UNL     1       5.074 -18.932  12.372  1.00  0.00     0.293 HD
ENDBRANCH   7  25
TORSDOF 6
ENDMDL
MODEL 3
REMARK VINA RESULT:    -2.771      1.365      6.464
REMARK INTER + INTRA:          -3.654
REMARK INTER:                  -3.828
REMARK INTRA:                   0.174
REMARK UNBOUND:                -0.316
REMARK SMILES Oc1cc(O)c2c(c1)O[C@H](c1ccc(O)c(O)c1)[C@H](O)C2
REMARK SMILES IDX 21 1 19 2 10 3 9 4 7 5 8 6 2 7 3 8 4 9 6 10 20 11 11 13
REMARK SMILES IDX 18 14 12 15 16 16 13 17 14 18 17 19 15 21 5 23 1 25
REMARK H PARENT 20 12 17 20 15 22 5 24 1 26
REMARK Flexibility Score: inf
ROOT
ATOM      1  C   UNL     1       9.086 -18.927   8.841  1.00  0.00     0.079 C 
ATOM      2  C   UNL     1      10.539 -18.315   8.923  1.00  0.00     0.164 C 
ATOM      3  C   UNL     1      10.582 -16.828   8.392  1.00  0.00     0.232 C 
ATOM      4  O   UNL     1       9.545 -16.712   7.388  1.00  0.00    -0.482 OA
ATOM      5  C   UNL     1       8.244 -16.856   7.880  1.00  0.00     0.131 A 
ATOM      6  C   UNL     1       7.322 -15.850   7.619  1.00  0.00     0.093 A 
ATOM      7  C   UNL     1       6.188 -15.817   8.408  1.00  0.00     0.122 A 
ATOM      8  C   UNL     1       5.853 -16.924   9.243  1.00  0.00     0.092 A 
ATOM      9  C   UNL     1       6.734 -18.009   9.381  1.00  0.00     0.126 A 
ATOM     10  C   UNL     1       8.003 -17.863   8.807  1.00  0.00     0.039 A 
ENDROOT
BRANCH   2  11
ATOM     11  O   UNL     1      11.445 -19.125   8.205  1.00  0.00    -0.389 OA
ATOM     12  H   UNL     1      10.943 -19.694   7.558  1.00  0.00     0.211 HD
ENDBRANCH   2  11
BRANCH   3  13
ATOM     13  C   UNL     1      11.916 -16.357   7.841  1.00  0.00    -0.001 A 
ATOM     14  C   UNL     1      12.716 -15.449   8.568  1.00  0.00     0.057 A 
ATOM     15  C   UNL     1      12.622 -16.998   6.750  1.00  0.00     0.012 A 
ATOM     16  C   UNL     1      14.112 -15.648   8.458  1.00  0.00     0.157 A 
ATOM     17  C   UNL     1      13.921 -16.489   6.380  1.00  0.00     0.050 A 
ATOM     18  C   UNL     1      14.535 -15.457   7.132  1.00  0.00     0.157 A 
BRANCH  16  19
ATOM     19  O   UNL     1      14.786 -16.478   9.385  1.00  0.00    -0.504 OA
ATOM     20  H   UNL     1      14.102 -17.164   9.697  1.00  0.00     0.293 HD
ENDBRANCH  16  19
BRANCH  18  21
ATOM     21  O   UNL     1      14.568 -14.164   6.539  1.00  0.00    -0.504 OA
ATOM     22  H   UNL     1      14.298 -13.410   7.164  1.00  0.00     0.293 HD
ENDBRANCH  18  21
ENDBRANCH   3  13
BRANCH   9  23
ATOM     23  O   UNL     1       6.402 -19.125  10.176  1.00  0.00    -0.507 OA
ATOM     24  H   UNL     1       5.557 -19.669   9.972  1.00  0.00     0.293 HD
ENDBRANCH   9  23
BRANCH   7  25
ATOM     25  O   UNL     1       5.581 -14.578   8.586  1.00  0.00    -0.508 OA
ATOM     26  H   UNL     1       5.151 -14.090   7.815  1.00  0.00     0.293 HD
ENDBRANCH   7  25
TORSDOF 6
ENDMDL
MODEL 4
REMARK VINA RESULT:    -2.624      1.942      6.617
REMARK INTER + INTRA:          -3.477
REMARK INTER:                  -3.440
REMARK INTRA:                  -0.037
REMARK UNBOUND:                -0.316
REMARK SMILES Oc1cc(O)c2c(c1)O[C@H](c1ccc(O)c(O)c1)[C@H](O)C2
REMARK SMILES IDX 21 1 19 2 10 3 9 4 7 5 8 6 2 7 3 8 4 9 6 10 20 11 11 13
REMARK SMILES IDX 18 14 12 15 16 16 13 17 14 18 17 19 15 21 5 23 1 25
REMARK H PARENT 20 12 17 20 15 22 5 24 1 26
REMARK Flexibility Score: inf
ROOT
ATOM      1  C   UNL     1       9.064 -17.786   9.239  1.00  0.00     0.079 C 
ATOM      2  C   UNL     1      10.180 -16.688   9.041  1.00  0.00     0.164 C 
ATOM      3  C   UNL     1      10.763 -16.701   7.573  1.00  0.00     0.232 C 
ATOM      4  O   UNL     1      10.657 -18.061   7.092  1.00  0.00    -0.482 OA
ATOM      5  C   UNL     1       9.345 -18.520   6.936  1.00  0.00     0.131 A 
ATOM      6  C   UNL     1       8.965 -19.034   5.703  1.00  0.00     0.093 A 
ATOM      7  C   UNL     1       7.610 -19.124   5.451  1.00  0.00     0.122 A 
ATOM      8  C   UNL     1       6.664 -18.970   6.507  1.00  0.00     0.092 A 
ATOM      9  C   UNL     1       7.082 -18.592   7.793  1.00  0.00     0.126 A 
ATOM     10  C   UNL     1       8.423 -18.214   7.930  1.00  0.00     0.039 A 
ENDROOT
BRANCH   2  11
ATOM     11  O   UNL     1      11.212 -16.873   9.987  1.00  0.00    -0.389 OA
ATOM     12  H   UNL     1      11.766 -17.661   9.726  1.00  0.00     0.211 HD
ENDBRANCH   2  11
BRANCH   3  13
ATOM     13  C   UNL     1      12.184 -16.186   7.418  1.00  0.00    -0.001 A 
ATOM     14  C   UNL     1      12.654 -15.117   8.212  1.00  0.00     0.057 A 
ATOM     15  C   UNL     1      13.241 -16.900   6.732  1.00  0.00     0.012 A 
ATOM     16  C   UNL     1      14.014 -15.198   8.593  1.00  0.00     0.157 A 
ATOM     17  C   UNL     1      14.565 -16.327   6.727  1.00  0.00     0.050 A 
ATOM     18  C   UNL     1      14.847 -15.150   7.464  1.00  0.00     0.157 A 
BRANCH  16  19
ATOM     19  O   UNL     1      14.373 -15.829   9.809  1.00  0.00    -0.504 OA
ATOM     20  H   UNL     1      14.774 -15.100  10.395  1.00  0.00     0.293 HD
ENDBRANCH  16  19
BRANCH  18  21
ATOM     21  O   UNL     1      15.022 -13.952   6.716  1.00  0.00    -0.504 OA
ATOM     22  H   UNL     1      14.466 -13.905   5.866  1.00  0.00     0.293 HD
ENDBRANCH  18  21
ENDBRANCH   3  13
BRANCH   9  23
ATOM     23  O   UNL     1       6.163 -18.468   8.855  1.00  0.00    -0.507 OA
ATOM     24  H   UNL     1       6.186 -17.640   9.461  1.00  0.00     0.293 HD
ENDBRANCH   9  23
BRANCH   7  25
ATOM     25  O   UNL     1       7.212 -19.059   4.119  1.00  0.00    -0.508 OA
ATOM     26  H   UNL     1       7.039 -19.896   3.583  1.00  0.00     0.293 HD
ENDBRANCH   7  25
TORSDOF 6
ENDMDL
MODEL 5
REMARK VINA RESULT:    -2.398      2.199      3.099
REMARK INTER + INTRA:          -3.204
REMARK INTER:                  -2.957
REMARK INTRA:                  -0.248
REMARK UNBOUND:                -0.316
REMARK SMILES Oc1cc(O)c2c(c1)O[C@H](c1ccc(O)c(O)c1)[C@H](O)C2
REMARK SMILES IDX 21 1 19 2 10 3 9 4 7 5 8 6 2 7 3 8 4 9 6 10 20 11 11 13
REMARK SMILES IDX 18 14 12 15 16 16 13 17 14 18 17 19 15 21 5 23 1 25
REMARK H PARENT 20 12 17 20 15 22 5 24 1 26
REMARK Flexibility Score: inf
ROOT
ATOM      1  C   UNL     1      10.381 -18.569   5.827  1.00  0.00     0.079 C 
ATOM      2  C   UNL     1       8.899 -18.114   6.123  1.00  0.00     0.164 C 
ATOM      3  C   UNL     1       8.689 -17.747   7.645  1.00  0.00     0.232 C 
ATOM      4  O   UNL     1       9.615 -18.561   8.403  1.00  0.00    -0.482 OA
ATOM      5  C   UNL     1      10.963 -18.275   8.171  1.00  0.00     0.131 A 
ATOM      6  C   UNL     1      11.775 -17.978   9.259  1.00  0.00     0.093 A 
ATOM      7  C   UNL     1      12.972 -17.341   8.995  1.00  0.00     0.122 A 
ATOM      8  C   UNL     1      13.470 -17.258   7.661  1.00  0.00     0.092 A 
ATOM      9  C   UNL     1      12.694 -17.702   6.578  1.00  0.00     0.126 A 
ATOM     10  C   UNL     1      11.369 -18.057   6.860  1.00  0.00     0.039 A 
ENDROOT
BRANCH   2  11
ATOM     11  O   UNL     1       7.995 -19.124   5.728  1.00  0.00    -0.389 OA
ATOM     12  H   UNL     1       7.789 -19.711   6.507  1.00  0.00     0.211 HD
ENDBRANCH   2  11
BRANCH   3  13
ATOM     13  C   UNL     1       7.276 -17.903   8.179  1.00  0.00    -0.001 A 
ATOM     14  C   UNL     1       6.852 -19.124   8.748  1.00  0.00     0.057 A 
ATOM     15  C   UNL     1       6.380 -16.799   8.453  1.00  0.00     0.012 A 
ATOM     16  C   UNL     1       5.954 -19.006   9.834  1.00  0.00     0.157 A 
ATOM     17  C   UNL     1       5.090 -17.090   9.032  1.00  0.00     0.050 A 
ATOM     18  C   UNL     1       4.752 -18.410   9.419  1.00  0.00     0.157 A 
BRANCH  16  19
ATOM     19  O   UNL     1       6.448 -18.937  11.159  1.00  0.00    -0.504 OA
ATOM     20  H   UNL     1       7.384 -19.334  11.130  1.00  0.00     0.293 HD
ENDBRANCH  16  19
BRANCH  18  21
ATOM     21  O   UNL     1       3.823 -19.102   8.592  1.00  0.00    -0.504 OA
ATOM     22  H   UNL     1       3.209 -18.496   8.055  1.00  0.00     0.293 HD
ENDBRANCH  18  21
ENDBRANCH   3  13
BRANCH   9  23
ATOM     23  O   UNL     1      13.186 -17.657   5.257  1.00  0.00    -0.507 OA
ATOM     24  H   UNL     1      14.024 -18.190   5.002  1.00  0.00     0.293 HD
ENDBRANCH   9  23
BRANCH   7  25
ATOM     25  O   UNL     1      13.494 -16.538  10.004  1.00  0.00    -0.508 OA
ATOM     26  H   UNL     1      12.890 -16.033  10.636  1.00  0.00     0.293 HD
ENDBRANCH   7  25
TORSDOF 6
ENDMDL
MODEL 6
REMARK VINA RESULT:    -1.271      1.744      6.720
REMARK INTER + INTRA:          -1.847
REMARK INTER:                  -1.534
REMARK INTRA:                  -0.313
REMARK UNBOUND:                -0.316
REMARK SMILES Oc1cc(O)c2c(c1)O[C@H](c1ccc(O)c(O)c1)[C@H](O)C2
REMARK SMILES IDX 21 1 19 2 10 3 9 4 7 5 8 6 2 7 3 8 4 9 6 10 20 11 11 13
REMARK SMILES IDX 18 14 12 15 16 16 13 17 14 18 17 19 15 21 5 23 1 25
REMARK H PARENT 20 12 17 20 15 22 5 24 1 26
REMARK Flexibility Score: inf
ROOT
ATOM      1  C   UNL     1       8.659 -15.394   9.074  1.00  0.00     0.079 C 
ATOM      2  C   UNL     1       9.974 -15.646   8.237  1.00  0.00     0.164 C 
ATOM      3  C   UNL     1      10.001 -17.094   7.607  1.00  0.00     0.232 C 
ATOM      4  O   UNL     1       9.249 -17.952   8.496  1.00  0.00    -0.482 OA
ATOM      5  C   UNL     1       7.887 -17.648   8.580  1.00  0.00     0.131 A 
ATOM      6  C   UNL     1       6.966 -18.657   8.326  1.00  0.00     0.093 A 
ATOM      7  C   UNL     1       5.671 -18.268   8.042  1.00  0.00     0.122 A 
ATOM      8  C   UNL     1       5.246 -16.928   8.282  1.00  0.00     0.092 A 
ATOM      9  C   UNL     1       6.167 -15.947   8.684  1.00  0.00     0.126 A 
ATOM     10  C   UNL     1       7.519 -16.310   8.665  1.00  0.00     0.039 A 
ENDROOT
BRANCH   2  11
ATOM     11  O   UNL     1      11.110 -15.437   9.049  1.00  0.00    -0.389 OA
ATOM     12  H   UNL     1      11.924 -15.384   8.476  1.00  0.00     0.211 HD
ENDBRANCH   2  11
BRANCH   3  13
ATOM     13  C   UNL     1      11.378 -17.676   7.338  1.00  0.00    -0.001 A 
ATOM     14  C   UNL     1      12.287 -17.012   6.485  1.00  0.00     0.057 A 
ATOM     15  C   UNL     1      11.993 -18.720   8.131  1.00  0.00     0.012 A 
ATOM     16  C   UNL     1      13.648 -17.109   6.856  1.00  0.00     0.157 A 
ATOM     17  C   UNL     1      13.340 -19.124   7.808  1.00  0.00     0.050 A 
ATOM     18  C   UNL     1      14.079 -18.444   6.808  1.00  0.00     0.157 A 
BRANCH  16  19
ATOM     19  O   UNL     1      14.226 -16.127   7.697  1.00  0.00    -0.504 OA
ATOM     20  H   UNL     1      14.604 -15.414   7.077  1.00  0.00     0.293 HD
ENDBRANCH  16  19
BRANCH  18  21
ATOM     21  O   UNL     1      14.262 -19.124   5.572  1.00  0.00    -0.504 OA
ATOM     22  H   UNL     1      13.399 -19.323   5.072  1.00  0.00     0.293 HD
ENDBRANCH  18  21
ENDBRANCH   3  13
BRANCH   9  23
ATOM     23  O   UNL     1       5.757 -14.626   8.957  1.00  0.00    -0.507 OA
ATOM     24  H   UNL     1       6.213 -14.089   9.703  1.00  0.00     0.293 HD
ENDBRANCH   9  23
BRANCH   7  25
ATOM     25  O   UNL     1       4.917 -19.125   7.246  1.00  0.00    -0.508 OA
ATOM     26  H   UNL     1       4.089 -19.578   7.602  1.00  0.00     0.293 HD
ENDBRANCH   7  25
TORSDOF 6
ENDMDL
MODEL 7
REMARK VINA RESULT:    -1.128      1.425      2.687
REMARK INTER + INTRA:          -1.675
REMARK INTER:                  -1.493
REMARK INTRA:                  -0.182
REMARK UNBOUND:                -0.316
REMARK SMILES Oc1cc(O)c2c(c1)O[C@H](c1ccc(O)c(O)c1)[C@H](O)C2
REMARK SMILES IDX 21 1 19 2 10 3 9 4 7 5 8 6 2 7 3 8 4 9 6 10 20 11 11 13
REMARK SMILES IDX 18 14 12 15 16 16 13 17 14 18 17 19 15 21 5 23 1 25
REMARK H PARENT 20 12 17 20 15 22 5 24 1 26
REMARK Flexibility Score: inf
ROOT
ATOM      1  C   UNL     1      11.646 -14.945   7.151  1.00  0.00     0.079 C 
ATOM      2  C   UNL     1      10.402 -15.392   8.014  1.00  0.00     0.164 C 
ATOM      3  C   UNL     1      10.358 -16.958   8.216  1.00  0.00     0.232 C 
ATOM      4  O   UNL     1      10.982 -17.548   7.051  1.00  0.00    -0.482 OA
ATOM      5  C   UNL     1      12.345 -17.264   6.917  1.00  0.00     0.131 A 
ATOM      6  C   UNL     1      13.233 -18.324   6.784  1.00  0.00     0.093 A 
ATOM      7  C   UNL     1      14.566 -18.061   7.032  1.00  0.00     0.122 A 
ATOM      8  C   UNL     1      15.034 -16.718   7.133  1.00  0.00     0.092 A 
ATOM      9  C   UNL     1      14.132 -15.643   7.116  1.00  0.00     0.126 A 
ATOM     10  C   UNL     1      12.770 -15.965   7.171  1.00  0.00     0.039 A 
ENDROOT
BRANCH   2  11
ATOM     11  O   UNL     1       9.209 -14.936   7.412  1.00  0.00    -0.389 OA
ATOM     12  H   UNL     1       9.381 -14.075   6.940  1.00  0.00     0.211 HD
ENDBRANCH   2  11
BRANCH   3  13
ATOM     13  C   UNL     1       8.984 -17.560   8.451  1.00  0.00    -0.001 A 
ATOM     14  C   UNL     1       8.075 -16.953   9.344  1.00  0.00     0.057 A 
ATOM     15  C   UNL     1       8.371 -18.556   7.596  1.00  0.00     0.012 A 
ATOM     16  C   UNL     1       6.713 -17.032   8.970  1.00  0.00     0.157 A 
ATOM     17  C   UNL     1       7.026 -18.983   7.896  1.00  0.00     0.050 A 
ATOM     18  C   UNL     1       6.286 -18.369   8.937  1.00  0.00     0.157 A 
BRANCH  16  19
ATOM     19  O   UNL     1       6.131 -16.002   8.192  1.00  0.00    -0.504 OA
ATOM     20  H   UNL     1       5.199 -16.329   7.946  1.00  0.00     0.293 HD
ENDBRANCH  16  19
BRANCH  18  21
ATOM     21  O   UNL     1       6.108 -19.125  10.129  1.00  0.00    -0.504 OA
ATOM     22  H   UNL     1       6.447 -20.082  10.072  1.00  0.00     0.293 HD
ENDBRANCH  18  21
ENDBRANCH   3  13
BRANCH   9  23
ATOM     23  O   UNL     1      14.581 -14.308   7.182  1.00  0.00    -0.507 OA
ATOM     24  H   UNL     1      15.469 -14.086   7.646  1.00  0.00     0.293 HD
ENDBRANCH   9  23
BRANCH   7  25
ATOM     25  O   UNL     1      15.345 -19.125   7.478  1.00  0.00    -0.508 OA
ATOM     26  H   UNL     1      16.175 -19.411   6.980  1.00  0.00     0.293 HD
ENDBRANCH   7  25
TORSDOF 6
ENDMDL
