MODEL 1
REMARK VINA RESULT:    -0.244      0.000      0.000
REMARK INTER + INTRA:          -0.618
REMARK INTER:                  -0.294
REMARK INTRA:                  -0.324
REMARK UNBOUND:                -0.324
REMARK SMILES O=c1c(O)c(-c2ccc(O)c(O)c2)oc2cc(O)cc(O)c12
REMARK SMILES IDX 5 1 3 2 2 3 1 4 22 5 20 6 19 7 17 8 16 9 15 10 14 11 6 12
REMARK SMILES IDX 7 13 8 14 9 15 13 16 11 17 10 18 12 20 4 22 21 24 18 26
REMARK H PARENT 10 19 12 21 4 23 21 25 18 27
REMARK Flexibility Score: inf
ROOT
ATOM      1  C   UNL     1      24.758  29.164  47.628  1.00  0.00     0.180 A 
ATOM      2  C   UNL     1      25.907  28.391  47.389  1.00  0.00     0.208 A 
ATOM      3  C   UNL     1      25.764  27.016  47.146  1.00  0.00     0.238 A 
ATOM      4  O   UNL     1      26.792  26.339  46.878  1.00  0.00    -0.285 OA
ATOM      5  C   UNL     1      24.477  26.427  47.162  1.00  0.00     0.111 A 
ATOM      6  C   UNL     1      24.219  25.037  46.969  1.00  0.00     0.134 A 
ATOM      7  C   UNL     1      22.896  24.586  46.875  1.00  0.00     0.093 A 
ATOM      8  C   UNL     1      21.822  25.466  47.034  1.00  0.00     0.123 A 
ATOM      9  C   UNL     1      22.064  26.815  47.282  1.00  0.00     0.094 A 
ATOM     10  C   UNL     1      23.372  27.300  47.344  1.00  0.00     0.146 A 
ATOM     11  O   UNL     1      23.558  28.595  47.572  1.00  0.00    -0.452 OA
ENDROOT
BRANCH   1  12
ATOM     12  C   UNL     1      24.829  30.614  47.917  1.00  0.00     0.025 A 
ATOM     13  C   UNL     1      24.793  31.569  46.886  1.00  0.00     0.016 A 
ATOM     14  C   UNL     1      24.887  32.931  47.179  1.00  0.00     0.051 A 
ATOM     15  C   UNL     1      25.031  33.361  48.505  1.00  0.00     0.157 A 
ATOM     16  C   UNL     1      24.996  31.049  49.242  1.00  0.00     0.062 A 
ATOM     17  C   UNL     1      25.089  32.413  49.541  1.00  0.00     0.158 A 
BRANCH  15  18
ATOM     18  O   UNL     1      25.122  34.721  48.795  1.00  0.00    -0.504 OA
ATOM     19  H   UNL     1      24.753  35.424  48.166  1.00  0.00     0.293 HD
ENDBRANCH  15  18
BRANCH  17  20
ATOM     20  O   UNL     1      25.238  32.807  50.870  1.00  0.00    -0.504 OA
ATOM     21  H   UNL     1      25.395  33.773  51.130  1.00  0.00     0.293 HD
ENDBRANCH  17  20
ENDBRANCH   1  12
BRANCH   2  22
ATOM     22  O   UNL     1      27.166  28.996  47.356  1.00  0.00    -0.502 OA
ATOM     23  H   UNL     1      27.301  29.981  47.543  1.00  0.00     0.293 HD
ENDBRANCH   2  22
BRANCH   6  24
ATOM     24  O   UNL     1      25.217  24.061  46.891  1.00  0.00    -0.507 OA
ATOM     25  H   UNL     1      26.103  24.106  47.372  1.00  0.00     0.293 HD
ENDBRANCH   6  24
BRANCH   8  26
ATOM     26  O   UNL     1      20.509  25.007  46.954  1.00  0.00    -0.508 OA
ATOM     27  H   UNL     1      19.854  25.391  46.282  1.00  0.00     0.293 HD
ENDBRANCH   8  26
TORSDOF 6
ENDMDL
MODEL 2
REMARK VINA RESULT:    -0.221      2.311      2.381
REMARK INTER + INTRA:          -0.591
REMARK INTER:                  -0.272
REMARK INTRA:                  -0.319
REMARK UNBOUND:                -0.324
REMARK SMILES O=c1c(O)c(-c2ccc(O)c(O)c2)oc2cc(O)cc(O)c12
REMARK SMILES IDX 5 1 3 2 2 3 1 4 22 5 20 6 19 7 17 8 16 9 15 10 14 11 6 12
REMARK SMILES IDX 7 13 8 14 9 15 13 16 11 17 10 18 12 20 4 22 21 24 18 26
REMARK H PARENT 10 19 12 21 4 23 21 25 18 27
REMARK Flexibility Score: inf
ROOT
ATOM      1  C   UNL     1      22.738  29.196  47.654  1.00  0.00     0.180 A 
ATOM      2  C   UNL     1      24.113  28.981  47.463  1.00  0.00     0.208 A 
ATOM      3  C   UNL     1      24.572  27.674  47.235  1.00  0.00     0.238 A 
ATOM      4  O   UNL     1      25.799  27.495  47.010  1.00  0.00    -0.285 OA
ATOM      5  C   UNL     1      23.654  26.597  47.216  1.00  0.00     0.111 A 
ATOM      6  C   UNL     1      24.013  25.228  47.033  1.00  0.00     0.134 A 
ATOM      7  C   UNL     1      23.008  24.261  46.901  1.00  0.00     0.093 A 
ATOM      8  C   UNL     1      21.658  24.606  47.012  1.00  0.00     0.123 A 
ATOM      9  C   UNL     1      21.300  25.931  47.250  1.00  0.00     0.094 A 
ATOM     10  C   UNL     1      22.278  26.923  47.349  1.00  0.00     0.146 A 
ATOM     11  O   UNL     1      21.893  28.175  47.565  1.00  0.00    -0.452 OA
ENDROOT
BRANCH   1  12
ATOM     12  C   UNL     1      22.181  30.541  47.925  1.00  0.00     0.025 A 
ATOM     13  C   UNL     1      21.719  31.366  46.885  1.00  0.00     0.016 A 
ATOM     14  C   UNL     1      21.220  32.641  47.162  1.00  0.00     0.051 A 
ATOM     15  C   UNL     1      21.187  33.117  48.479  1.00  0.00     0.157 A 
ATOM     16  C   UNL     1      22.165  31.031  49.242  1.00  0.00     0.062 A 
ATOM     17  C   UNL     1      21.665  32.307  49.523  1.00  0.00     0.158 A 
BRANCH  15  18
ATOM     18  O   UNL     1      20.686  34.388  48.752  1.00  0.00    -0.504 OA
ATOM     19  H   UNL     1      21.159  35.021  49.387  1.00  0.00     0.293 HD
ENDBRANCH  15  18
BRANCH  17  20
ATOM     20  O   UNL     1      21.651  32.754  50.844  1.00  0.00    -0.504 OA
ATOM     21  H   UNL     1      22.325  32.430  51.528  1.00  0.00     0.293 HD
ENDBRANCH  17  20
ENDBRANCH   1  12
BRANCH   2  22
ATOM     22  O   UNL     1      25.001  30.060  47.464  1.00  0.00    -0.502 OA
ATOM     23  H   UNL     1      25.670  30.214  48.208  1.00  0.00     0.293 HD
ENDBRANCH   2  22
BRANCH   6  24
ATOM     24  O   UNL     1      25.332  24.765  47.001  1.00  0.00    -0.507 OA
ATOM     25  H   UNL     1      25.847  24.441  47.806  1.00  0.00     0.293 HD
ENDBRANCH   6  24
BRANCH   8  26
ATOM     26  O   UNL     1      20.665  23.637  46.895  1.00  0.00    -0.508 OA
ATOM     27  H   UNL     1      20.566  23.079  46.055  1.00  0.00     0.293 HD
ENDBRANCH   8  26
TORSDOF 6
ENDMDL
MODEL 3
REMARK VINA RESULT:    -0.215      2.929      6.843
REMARK INTER + INTRA:          -0.583
REMARK INTER:                  -0.249
REMARK INTRA:                  -0.334
REMARK UNBOUND:                -0.324
REMARK SMILES O=c1c(O)c(-c2ccc(O)c(O)c2)oc2cc(O)cc(O)c12
REMARK SMILES IDX 5 1 3 2 2 3 1 4 22 5 20 6 19 7 17 8 16 9 15 10 14 11 6 12
REMARK SMILES IDX 7 13 8 14 9 15 13 16 11 17 10 18 12 20 4 22 21 24 18 26
REMARK H PARENT 10 19 12 21 4 23 21 25 18 27
REMARK Flexibility Score: inf
ROOT
ATOM      1  C   UNL     1      25.581  25.968  48.130  1.00  0.00     0.180 A 
ATOM      2  C   UNL     1      24.296  25.458  47.877  1.00  0.00     0.208 A 
ATOM      3  C   UNL     1      23.273  26.344  47.505  1.00  0.00     0.238 A 
ATOM      4  O   UNL     1      22.138  25.874  47.227  1.00  0.00    -0.285 OA
ATOM      5  C   UNL     1      23.542  27.730  47.404  1.00  0.00     0.111 A 
ATOM      6  C   UNL     1      22.571  28.722  47.074  1.00  0.00     0.134 A 
ATOM      7  C   UNL     1      22.978  30.048  46.875  1.00  0.00     0.093 A 
ATOM      8  C   UNL     1      24.310  30.428  47.060  1.00  0.00     0.123 A 
ATOM      9  C   UNL     1      25.254  29.476  47.441  1.00  0.00     0.094 A 
ATOM     10  C   UNL     1      24.885  28.140  47.610  1.00  0.00     0.146 A 
ATOM     11  O   UNL     1      25.819  27.264  47.963  1.00  0.00    -0.452 OA
ENDROOT
BRANCH   1  12
ATOM     12  C   UNL     1      26.705  25.101  48.551  1.00  0.00     0.025 A 
ATOM     13  C   UNL     1      26.942  24.817  49.907  1.00  0.00     0.016 A 
ATOM     14  C   UNL     1      28.023  24.016  50.284  1.00  0.00     0.051 A 
ATOM     15  C   UNL     1      28.890  23.496  49.313  1.00  0.00     0.157 A 
ATOM     16  C   UNL     1      27.589  24.595  47.584  1.00  0.00     0.062 A 
ATOM     17  C   UNL     1      28.672  23.791  47.957  1.00  0.00     0.158 A 
BRANCH  15  18
ATOM     18  O   UNL     1      29.966  22.695  49.692  1.00  0.00    -0.504 OA
ATOM     19  H   UNL     1      30.342  21.985  49.075  1.00  0.00     0.293 HD
ENDBRANCH  15  18
BRANCH  17  20
ATOM     20  O   UNL     1      29.520  23.295  46.967  1.00  0.00    -0.504 OA
ATOM     21  H   UNL     1      29.166  22.894  46.106  1.00  0.00     0.293 HD
ENDBRANCH  17  20
ENDBRANCH   1  12
BRANCH   2  22
ATOM     22  O   UNL     1      24.057  24.083  47.961  1.00  0.00    -0.502 OA
ATOM     23  H   UNL     1      23.254  23.644  47.528  1.00  0.00     0.293 HD
ENDBRANCH   2  22
BRANCH   6  24
ATOM     24  O   UNL     1      21.202  28.466  46.957  1.00  0.00    -0.507 OA
ATOM     25  H   UNL     1      20.472  29.069  47.305  1.00  0.00     0.293 HD
ENDBRANCH   6  24
BRANCH   8  26
ATOM     26  O   UNL     1      24.704  31.751  46.875  1.00  0.00    -0.508 OA
ATOM     27  H   UNL     1      25.597  31.983  46.456  1.00  0.00     0.293 HD
ENDBRANCH   8  26
TORSDOF 6
ENDMDL
MODEL 4
REMARK VINA RESULT:    -0.214      3.098      5.585
REMARK INTER + INTRA:          -0.581
REMARK INTER:                  -0.246
REMARK INTRA:                  -0.335
REMARK UNBOUND:                -0.324
REMARK SMILES O=c1c(O)c(-c2ccc(O)c(O)c2)oc2cc(O)cc(O)c12
REMARK SMILES IDX 5 1 3 2 2 3 1 4 22 5 20 6 19 7 17 8 16 9 15 10 14 11 6 12
REMARK SMILES IDX 7 13 8 14 9 15 13 16 11 17 10 18 12 20 4 22 21 24 18 26
REMARK H PARENT 10 19 12 21 4 23 21 25 18 27
REMARK Flexibility Score: inf
ROOT
ATOM      1  C   UNL     1      25.450  26.203  47.798  1.00  0.00     0.180 A 
ATOM      2  C   UNL     1      25.056  27.550  47.871  1.00  0.00     0.208 A 
ATOM      3  C   UNL     1      23.705  27.876  47.675  1.00  0.00     0.238 A 
ATOM      4  O   UNL     1      23.350  29.079  47.796  1.00  0.00    -0.285 OA
ATOM      5  C   UNL     1      22.766  26.855  47.393  1.00  0.00     0.111 A 
ATOM      6  C   UNL     1      21.380  27.076  47.137  1.00  0.00     0.134 A 
ATOM      7  C   UNL     1      20.520  25.980  46.998  1.00  0.00     0.093 A 
ATOM      8  C   UNL     1      21.008  24.671  47.040  1.00  0.00     0.123 A 
ATOM      9  C   UNL     1      22.370  24.446  47.230  1.00  0.00     0.094 A 
ATOM     10  C   UNL     1      23.246  25.519  47.408  1.00  0.00     0.146 A 
ATOM     11  O   UNL     1      24.535  25.260  47.597  1.00  0.00    -0.452 OA
ENDROOT
BRANCH   1  12
ATOM     12  C   UNL     1      26.859  25.783  47.968  1.00  0.00     0.025 A 
ATOM     13  C   UNL     1      27.740  25.716  46.875  1.00  0.00     0.016 A 
ATOM     14  C   UNL     1      29.060  25.294  47.056  1.00  0.00     0.051 A 
ATOM     15  C   UNL     1      29.516  24.920  48.327  1.00  0.00     0.157 A 
ATOM     16  C   UNL     1      27.314  25.387  49.237  1.00  0.00     0.062 A 
ATOM     17  C   UNL     1      28.636  24.965  49.421  1.00  0.00     0.158 A 
BRANCH  15  18
ATOM     18  O   UNL     1      30.833  24.501  48.504  1.00  0.00    -0.504 OA
ATOM     19  H   UNL     1      31.258  23.813  47.894  1.00  0.00     0.293 HD
ENDBRANCH  15  18
BRANCH  17  20
ATOM     20  O   UNL     1      29.056  24.593  50.698  1.00  0.00    -0.504 OA
ATOM     21  H   UNL     1      30.007  24.300  50.888  1.00  0.00     0.293 HD
ENDBRANCH  17  20
ENDBRANCH   1  12
BRANCH   2  22
ATOM     22  O   UNL     1      25.995  28.541  48.173  1.00  0.00    -0.502 OA
ATOM     23  H   UNL     1      26.819  28.357  48.731  1.00  0.00     0.293 HD
ENDBRANCH   2  22
BRANCH   6  24
ATOM     24  O   UNL     1      20.807  28.342  46.985  1.00  0.00    -0.507 OA
ATOM     25  H   UNL     1      20.902  28.921  46.165  1.00  0.00     0.293 HD
ENDBRANCH   6  24
BRANCH   8  26
ATOM     26  O   UNL     1      20.149  23.586  46.886  1.00  0.00    -0.508 OA
ATOM     27  H   UNL     1      19.789  23.321  45.976  1.00  0.00     0.293 HD
ENDBRANCH   8  26
TORSDOF 6
ENDMDL
MODEL 5
REMARK VINA RESULT:    -0.208      2.603      2.941
REMARK INTER + INTRA:          -0.574
REMARK INTER:                  -0.254
REMARK INTRA:                  -0.320
REMARK UNBOUND:                -0.324
REMARK SMILES O=c1c(O)c(-c2ccc(O)c(O)c2)oc2cc(O)cc(O)c12
REMARK SMILES IDX 5 1 3 2 2 3 1 4 22 5 20 6 19 7 17 8 16 9 15 10 14 11 6 12
REMARK SMILES IDX 7 13 8 14 9 15 13 16 11 17 10 18 12 20 4 22 21 24 18 26
REMARK H PARENT 10 19 12 21 4 23 21 25 18 27
REMARK Flexibility Score: inf
ROOT
ATOM      1  C   UNL     1      24.111  27.671  47.722  1.00  0.00     0.180 A 
ATOM      2  C   UNL     1      25.470  27.824  47.396  1.00  0.00     0.208 A 
ATOM      3  C   UNL     1      26.262  26.678  47.223  1.00  0.00     0.238 A 
ATOM      4  O   UNL     1      27.465  26.822  46.878  1.00  0.00    -0.285 OA
ATOM      5  C   UNL     1      25.691  25.394  47.392  1.00  0.00     0.111 A 
ATOM      6  C   UNL     1      26.410  24.166  47.280  1.00  0.00     0.134 A 
ATOM      7  C   UNL     1      25.715  22.951  47.339  1.00  0.00     0.093 A 
ATOM      8  C   UNL     1      24.338  22.920  47.572  1.00  0.00     0.123 A 
ATOM      9  C   UNL     1      23.637  24.112  47.742  1.00  0.00     0.094 A 
ATOM     10  C   UNL     1      24.297  25.340  47.652  1.00  0.00     0.146 A 
ATOM     11  O   UNL     1      23.589  26.453  47.809  1.00  0.00    -0.452 OA
ENDROOT
BRANCH   1  12
ATOM     12  C   UNL     1      23.218  28.831  47.945  1.00  0.00     0.025 A 
ATOM     13  C   UNL     1      22.556  29.461  46.878  1.00  0.00     0.016 A 
ATOM     14  C   UNL     1      21.737  30.569  47.109  1.00  0.00     0.051 A 
ATOM     15  C   UNL     1      21.578  31.073  48.407  1.00  0.00     0.157 A 
ATOM     16  C   UNL     1      23.072  29.352  49.241  1.00  0.00     0.062 A 
ATOM     17  C   UNL     1      22.252  30.461  49.477  1.00  0.00     0.158 A 
BRANCH  15  18
ATOM     18  O   UNL     1      20.759  32.177  48.635  1.00  0.00    -0.504 OA
ATOM     19  H   UNL     1      20.111  32.206  49.414  1.00  0.00     0.293 HD
ENDBRANCH  15  18
BRANCH  17  20
ATOM     20  O   UNL     1      22.120  30.941  50.780  1.00  0.00    -0.504 OA
ATOM     21  H   UNL     1      21.721  31.850  50.981  1.00  0.00     0.293 HD
ENDBRANCH  17  20
ENDBRANCH   1  12
BRANCH   2  22
ATOM     22  O   UNL     1      26.009  29.101  47.212  1.00  0.00    -0.502 OA
ATOM     23  H   UNL     1      26.050  29.548  46.305  1.00  0.00     0.293 HD
ENDBRANCH   2  22
BRANCH   6  24
ATOM     24  O   UNL     1      27.798  24.085  47.139  1.00  0.00    -0.507 OA
ATOM     25  H   UNL     1      28.373  23.349  47.519  1.00  0.00     0.293 HD
ENDBRANCH   6  24
BRANCH   8  26
ATOM     26  O   UNL     1      23.657  21.707  47.644  1.00  0.00    -0.508 OA
ATOM     27  H   UNL     1      23.613  21.175  48.506  1.00  0.00     0.293 HD
ENDBRANCH   8  26
TORSDOF 6
ENDMDL
MODEL 6
REMARK VINA RESULT:    -0.198      2.878      5.495
REMARK INTER + INTRA:          -0.562
REMARK INTER:                  -0.228
REMARK INTRA:                  -0.335
REMARK UNBOUND:                -0.324
REMARK SMILES O=c1c(O)c(-c2ccc(O)c(O)c2)oc2cc(O)cc(O)c12
REMARK SMILES IDX 5 1 3 2 2 3 1 4 22 5 20 6 19 7 17 8 16 9 15 10 14 11 6 12
REMARK SMILES IDX 7 13 8 14 9 15 13 16 11 17 10 18 12 20 4 22 21 24 18 26
REMARK H PARENT 10 19 12 21 4 23 21 25 18 27
REMARK Flexibility Score: inf
ROOT
ATOM      1  C   UNL     1      24.848  26.773  48.120  1.00  0.00     0.180 A 
ATOM      2  C   UNL     1      24.034  25.665  47.828  1.00  0.00     0.208 A 
ATOM      3  C   UNL     1      22.697  25.881  47.459  1.00  0.00     0.238 A 
ATOM      4  O   UNL     1      21.989  24.888  47.146  1.00  0.00    -0.285 OA
ATOM      5  C   UNL     1      22.185  27.200  47.402  1.00  0.00     0.111 A 
ATOM      6  C   UNL     1      20.836  27.533  47.079  1.00  0.00     0.134 A 
ATOM      7  C   UNL     1      20.473  28.877  46.925  1.00  0.00     0.093 A 
ATOM      8  C   UNL     1      21.397  29.902  47.147  1.00  0.00     0.123 A 
ATOM      9  C   UNL     1      22.702  29.588  47.521  1.00  0.00     0.094 A 
ATOM     10  C   UNL     1      23.102  28.256  47.647  1.00  0.00     0.146 A 
ATOM     11  O   UNL     1      24.359  28.001  47.994  1.00  0.00    -0.452 OA
ENDROOT
BRANCH   1  12
ATOM     12  C   UNL     1      26.260  26.625  48.540  1.00  0.00     0.025 A 
ATOM     13  C   UNL     1      26.609  26.464  49.892  1.00  0.00     0.016 A 
ATOM     14  C   UNL     1      27.950  26.350  50.268  1.00  0.00     0.051 A 
ATOM     15  C   UNL     1      28.963  26.408  49.302  1.00  0.00     0.157 A 
ATOM     16  C   UNL     1      27.280  26.703  47.578  1.00  0.00     0.062 A 
ATOM     17  C   UNL     1      28.624  26.588  47.950  1.00  0.00     0.158 A 
BRANCH  15  18
ATOM     18  O   UNL     1      30.299  26.291  49.680  1.00  0.00    -0.504 OA
ATOM     19  H   UNL     1      31.013  25.996  49.025  1.00  0.00     0.293 HD
ENDBRANCH  15  18
BRANCH  17  20
ATOM     20  O   UNL     1      29.609  26.657  46.965  1.00  0.00    -0.504 OA
ATOM     21  H   UNL     1      30.532  27.029  47.152  1.00  0.00     0.293 HD
ENDBRANCH  17  20
ENDBRANCH   1  12
BRANCH   2  22
ATOM     22  O   UNL     1      24.565  24.373  47.869  1.00  0.00    -0.502 OA
ATOM     23  H   UNL     1      25.107  23.983  47.108  1.00  0.00     0.293 HD
ENDBRANCH   2  22
BRANCH   6  24
ATOM     24  O   UNL     1      19.815  26.590  46.928  1.00  0.00    -0.507 OA
ATOM     25  H   UNL     1      19.888  25.746  46.380  1.00  0.00     0.293 HD
ENDBRANCH   6  24
BRANCH   8  26
ATOM     26  O   UNL     1      21.025  31.237  47.007  1.00  0.00    -0.508 OA
ATOM     27  H   UNL     1      20.274  31.638  47.557  1.00  0.00     0.293 HD
ENDBRANCH   8  26
TORSDOF 6
ENDMDL
MODEL 7
REMARK VINA RESULT:    -0.164      3.210      5.138
REMARK INTER + INTRA:          -0.521
REMARK INTER:                  -0.197
REMARK INTRA:                  -0.324
REMARK UNBOUND:                -0.324
REMARK SMILES O=c1c(O)c(-c2ccc(O)c(O)c2)oc2cc(O)cc(O)c12
REMARK SMILES IDX 5 1 3 2 2 3 1 4 22 5 20 6 19 7 17 8 16 9 15 10 14 11 6 12
REMARK SMILES IDX 7 13 8 14 9 15 13 16 11 17 10 18 12 20 4 22 21 24 18 26
REMARK H PARENT 10 19 12 21 4 23 21 25 18 27
REMARK Flexibility Score: inf
ROOT
ATOM      1  C   UNL     1      27.100  26.437  48.271  1.00  0.00     0.180 A 
ATOM      2  C   UNL     1      26.700  25.091  48.209  1.00  0.00     0.208 A 
ATOM      3  C   UNL     1      25.357  24.791  47.931  1.00  0.00     0.238 A 
ATOM      4  O   UNL     1      25.018  23.584  47.823  1.00  0.00    -0.285 OA
ATOM      5  C   UNL     1      24.427  25.840  47.733  1.00  0.00     0.111 A 
ATOM      6  C   UNL     1      23.034  25.652  47.485  1.00  0.00     0.134 A 
ATOM      7  C   UNL     1      22.232  26.758  47.175  1.00  0.00     0.093 A 
ATOM      8  C   UNL     1      22.760  28.052  47.169  1.00  0.00     0.123 A 
ATOM      9  C   UNL     1      24.106  28.251  47.469  1.00  0.00     0.094 A 
ATOM     10  C   UNL     1      24.939  27.164  47.746  1.00  0.00     0.146 A 
ATOM     11  O   UNL     1      26.218  27.398  48.016  1.00  0.00    -0.452 OA
ENDROOT
BRANCH   1  12
ATOM     12  C   UNL     1      28.492  26.833  48.584  1.00  0.00     0.025 A 
ATOM     13  C   UNL     1      29.454  26.990  47.571  1.00  0.00     0.016 A 
ATOM     14  C   UNL     1      30.768  27.340  47.893  1.00  0.00     0.051 A 
ATOM     15  C   UNL     1      31.144  27.526  49.230  1.00  0.00     0.157 A 
ATOM     16  C   UNL     1      28.878  27.000  49.924  1.00  0.00     0.062 A 
ATOM     17  C   UNL     1      30.193  27.352  50.249  1.00  0.00     0.158 A 
BRANCH  15  18
ATOM     18  O   UNL     1      32.454  27.878  49.546  1.00  0.00    -0.504 OA
ATOM     19  H   UNL     1      32.661  28.600  50.227  1.00  0.00     0.293 HD
ENDBRANCH  15  18
BRANCH  17  20
ATOM     20  O   UNL     1      30.536  27.523  51.590  1.00  0.00    -0.504 OA
ATOM     21  H   UNL     1      31.481  27.377  51.927  1.00  0.00     0.293 HD
ENDBRANCH  17  20
ENDBRANCH   1  12
BRANCH   2  22
ATOM     22  O   UNL     1      27.639  24.071  48.386  1.00  0.00    -0.502 OA
ATOM     23  H   UNL     1      27.959  23.489  47.622  1.00  0.00     0.293 HD
ENDBRANCH   2  22
BRANCH   6  24
ATOM     24  O   UNL     1      22.390  24.414  47.556  1.00  0.00    -0.507 OA
ATOM     25  H   UNL     1      22.099  23.870  46.758  1.00  0.00     0.293 HD
ENDBRANCH   6  24
BRANCH   8  26
ATOM     26  O   UNL     1      21.953  29.148  46.875  1.00  0.00    -0.508 OA
ATOM     27  H   UNL     1      21.034  29.033  46.463  1.00  0.00     0.293 HD
ENDBRANCH   8  26
TORSDOF 6
ENDMDL
MODEL 8
REMARK VINA RESULT:    -0.154      2.051      7.093
REMARK INTER + INTRA:          -0.509
REMARK INTER:                  -0.186
REMARK INTRA:                  -0.323
REMARK UNBOUND:                -0.324
REMARK SMILES O=c1c(O)c(-c2ccc(O)c(O)c2)oc2cc(O)cc(O)c12
REMARK SMILES IDX 5 1 3 2 2 3 1 4 22 5 20 6 19 7 17 8 16 9 15 10 14 11 6 12
REMARK SMILES IDX 7 13 8 14 9 15 13 16 11 17 10 18 12 20 4 22 21 24 18 26
REMARK H PARENT 10 19 12 21 4 23 21 25 18 27
REMARK Flexibility Score: inf
ROOT
ATOM      1  C   UNL     1      24.118  28.272  47.913  1.00  0.00     0.180 A 
ATOM      2  C   UNL     1      23.268  29.275  47.417  1.00  0.00     0.208 A 
ATOM      3  C   UNL     1      23.707  30.609  47.435  1.00  0.00     0.238 A 
ATOM      4  O   UNL     1      22.963  31.496  46.939  1.00  0.00    -0.285 OA
ATOM      5  C   UNL     1      24.982  30.925  47.962  1.00  0.00     0.111 A 
ATOM      6  C   UNL     1      25.512  32.246  48.066  1.00  0.00     0.134 A 
ATOM      7  C   UNL     1      26.836  32.429  48.483  1.00  0.00     0.093 A 
ATOM      8  C   UNL     1      27.628  31.342  48.862  1.00  0.00     0.123 A 
ATOM      9  C   UNL     1      27.100  30.053  48.821  1.00  0.00     0.094 A 
ATOM     10  C   UNL     1      25.795  29.836  48.374  1.00  0.00     0.146 A 
ATOM     11  O   UNL     1      25.335  28.591  48.340  1.00  0.00    -0.452 OA
ENDROOT
BRANCH   1  12
ATOM     12  C   UNL     1      23.717  26.847  47.951  1.00  0.00     0.025 A 
ATOM     13  C   UNL     1      23.984  25.982  46.876  1.00  0.00     0.016 A 
ATOM     14  C   UNL     1      23.575  24.647  46.924  1.00  0.00     0.051 A 
ATOM     15  C   UNL     1      22.881  24.159  48.039  1.00  0.00     0.157 A 
ATOM     16  C   UNL     1      23.003  26.359  49.058  1.00  0.00     0.062 A 
ATOM     17  C   UNL     1      22.592  25.022  49.109  1.00  0.00     0.158 A 
BRANCH  15  18
ATOM     18  O   UNL     1      22.476  22.827  48.085  1.00  0.00    -0.504 OA
ATOM     19  H   UNL     1      23.102  22.091  48.392  1.00  0.00     0.293 HD
ENDBRANCH  15  18
BRANCH  17  20
ATOM     20  O   UNL     1      21.897  24.570  50.231  1.00  0.00    -0.504 OA
ATOM     21  H   UNL     1      21.081  25.052  50.589  1.00  0.00     0.293 HD
ENDBRANCH  17  20
ENDBRANCH   1  12
BRANCH   2  22
ATOM     22  O   UNL     1      22.022  28.940  46.881  1.00  0.00    -0.502 OA
ATOM     23  H   UNL     1      21.786  29.100  45.910  1.00  0.00     0.293 HD
ENDBRANCH   2  22
BRANCH   6  24
ATOM     24  O   UNL     1      24.776  33.404  47.800  1.00  0.00    -0.507 OA
ATOM     25  H   UNL     1      24.189  33.540  46.990  1.00  0.00     0.293 HD
ENDBRANCH   6  24
BRANCH   8  26
ATOM     26  O   UNL     1      28.940  31.533  49.291  1.00  0.00    -0.508 OA
ATOM     27  H   UNL     1      29.212  31.365  50.252  1.00  0.00     0.293 HD
ENDBRANCH   8  26
TORSDOF 6
ENDMDL
MODEL 9
REMARK VINA RESULT:    -0.147      1.627      2.430
REMARK INTER + INTRA:          -0.501
REMARK INTER:                  -0.166
REMARK INTRA:                  -0.335
REMARK UNBOUND:                -0.324
REMARK SMILES O=c1c(O)c(-c2ccc(O)c(O)c2)oc2cc(O)cc(O)c12
REMARK SMILES IDX 5 1 3 2 2 3 1 4 22 5 20 6 19 7 17 8 16 9 15 10 14 11 6 12
REMARK SMILES IDX 7 13 8 14 9 15 13 16 11 17 10 18 12 20 4 22 21 24 18 26
REMARK H PARENT 10 19 12 21 4 23 21 25 18 27
REMARK Flexibility Score: inf
ROOT
ATOM      1  C   UNL     1      25.708  29.768  49.347  1.00  0.00     0.180 A 
ATOM      2  C   UNL     1      26.860  29.066  48.954  1.00  0.00     0.208 A 
ATOM      3  C   UNL     1      26.717  27.868  48.237  1.00  0.00     0.238 A 
ATOM      4  O   UNL     1      27.753  27.273  47.841  1.00  0.00    -0.285 OA
ATOM      5  C   UNL     1      25.423  27.377  47.936  1.00  0.00     0.111 A 
ATOM      6  C   UNL     1      25.160  26.153  47.250  1.00  0.00     0.134 A 
ATOM      7  C   UNL     1      23.845  25.831  46.892  1.00  0.00     0.093 A 
ATOM      8  C   UNL     1      22.777  26.658  47.253  1.00  0.00     0.123 A 
ATOM      9  C   UNL     1      23.019  27.825  47.974  1.00  0.00     0.094 A 
ATOM     10  C   UNL     1      24.323  28.190  48.314  1.00  0.00     0.146 A 
ATOM     11  O   UNL     1      24.510  29.317  48.993  1.00  0.00    -0.452 OA
ENDROOT
BRANCH   1  12
ATOM     12  C   UNL     1      25.777  31.025  50.127  1.00  0.00     0.025 A 
ATOM     13  C   UNL     1      25.805  31.014  51.532  1.00  0.00     0.016 A 
ATOM     14  C   UNL     1      25.847  32.214  52.247  1.00  0.00     0.051 A 
ATOM     15  C   UNL     1      25.848  33.441  51.571  1.00  0.00     0.157 A 
ATOM     16  C   UNL     1      25.757  32.258  49.454  1.00  0.00     0.062 A 
ATOM     17  C   UNL     1      25.800  33.461  50.167  1.00  0.00     0.158 A 
BRANCH  15  18
ATOM     18  O   UNL     1      25.892  34.635  52.288  1.00  0.00    -0.504 OA
ATOM     19  H   UNL     1      25.700  34.666  53.282  1.00  0.00     0.293 HD
ENDBRANCH  15  18
BRANCH  17  20
ATOM     20  O   UNL     1      25.793  34.666  49.464  1.00  0.00    -0.504 OA
ATOM     21  H   UNL     1      25.975  35.554  49.917  1.00  0.00     0.293 HD
ENDBRANCH  17  20
ENDBRANCH   1  12
BRANCH   2  22
ATOM     22  O   UNL     1      28.128  29.579  49.242  1.00  0.00    -0.502 OA
ATOM     23  H   UNL     1      28.404  29.854  50.177  1.00  0.00     0.293 HD
ENDBRANCH   2  22
BRANCH   6  24
ATOM     24  O   UNL     1      26.143  25.214  46.925  1.00  0.00    -0.507 OA
ATOM     25  H   UNL     1      27.126  25.317  47.129  1.00  0.00     0.293 HD
ENDBRANCH   6  24
BRANCH   8  26
ATOM     26  O   UNL     1      21.471  26.323  46.906  1.00  0.00    -0.508 OA
ATOM     27  H   UNL     1      20.807  27.026  46.602  1.00  0.00     0.293 HD
ENDBRANCH   8  26
TORSDOF 6
ENDMDL
