MODEL 1
REMARK VINA RESULT:    -7.255      0.000      0.000
REMARK INTER + INTRA:          -8.982
REMARK INTER:                  -8.952
REMARK INTRA:                  -0.030
REMARK UNBOUND:                -0.030
REMARK SMILES Oc1cc(O)c2cc(O)c(-c3cc(O)c(O)c(O)c3)[o+]c2c1.[Cl-]
REMARK SMILES IDX 10 1 20 2 21 3 22 4 2 5 3 6 4 7 6 8 7 9 8 10 11 11 12 12
REMARK SMILES IDX 13 13 19 14 15 15 17 16 14 17 16 19 18 21 9 23 1 25 5 27
REMARK H PARENT 14 18 16 20 18 22 9 24 1 26 5 28
REMARK Flexibility Score: inf
ROOT
ATOM      1  C   UNL     1       7.422  28.987 -13.482  1.00  0.00     0.402 A 
ATOM      2  O   UNL     1       7.817  29.947 -12.650  1.00  0.00    -0.202 OA
ATOM      3  C   UNL     1       7.663  31.242 -12.905  1.00  0.00     0.368 A 
ATOM      4  C   UNL     1       8.114  32.177 -11.969  1.00  0.00     0.162 A 
ATOM      5  C   UNL     1       7.969  33.544 -12.211  1.00  0.00     0.128 A 
ATOM      6  C   UNL     1       7.371  33.982 -13.398  1.00  0.00     0.093 A 
ATOM      7  C   UNL     1       6.912  33.065 -14.352  1.00  0.00     0.136 A 
ATOM      8  C   UNL     1       7.054  31.675 -14.107  1.00  0.00     0.125 A 
ATOM      9  C   UNL     1       6.612  30.684 -15.000  1.00  0.00     0.078 A 
ATOM     10  C   UNL     1       6.783  29.332 -14.689  1.00  0.00     0.223 A 
ENDROOT
BRANCH   1  11
ATOM     11  C   UNL     1       7.658  27.579 -13.090  1.00  0.00     0.091 A 
ATOM     12  C   UNL     1       6.634  26.618 -13.161  1.00  0.00     0.068 A 
ATOM     13  C   UNL     1       6.883  25.285 -12.807  1.00  0.00     0.162 A 
ATOM     14  C   UNL     1       8.943  27.180 -12.690  1.00  0.00     0.068 A 
ATOM     15  C   UNL     1       8.167  24.900 -12.387  1.00  0.00     0.200 A 
ATOM     16  C   UNL     1       9.196  25.848 -12.334  1.00  0.00     0.162 A 
BRANCH  13  17
ATOM     17  O   UNL     1       5.860  24.341 -12.876  1.00  0.00    -0.504 OA
ATOM     18  H   UNL     1       5.456  24.058 -13.762  1.00  0.00     0.293 HD
ENDBRANCH  13  17
BRANCH  15  19
ATOM     19  O   UNL     1       8.438  23.580 -12.025  1.00  0.00    -0.502 OA
ATOM     20  H   UNL     1       9.377  23.257 -11.829  1.00  0.00     0.293 HD
ENDBRANCH  15  19
BRANCH  16  21
ATOM     21  O   UNL     1      10.471  25.460 -11.924  1.00  0.00    -0.504 OA
ATOM     22  H   UNL     1      11.095  24.955 -12.542  1.00  0.00     0.293 HD
ENDBRANCH  16  21
ENDBRANCH   1  11
BRANCH  10  23
ATOM     23  O   UNL     1       6.299  28.348 -15.551  1.00  0.00    -0.500 OA
ATOM     24  H   UNL     1       6.819  28.058 -16.372  1.00  0.00     0.294 HD
ENDBRANCH  10  23
BRANCH   5  25
ATOM     25  O   UNL     1       8.425  34.460 -11.265  1.00  0.00    -0.507 OA
ATOM     26  H   UNL     1       8.341  34.281 -10.272  1.00  0.00     0.293 HD
ENDBRANCH   5  25
BRANCH   7  27
ATOM     27  O   UNL     1       6.328  33.582 -15.512  1.00  0.00    -0.507 OA
ATOM     28  H   UNL     1       6.004  33.021 -16.286  1.00  0.00     0.293 HD
ENDBRANCH   7  27
TORSDOF 7
ENDMDL
MODEL 2
REMARK VINA RESULT:    -7.226      0.090      1.791
REMARK INTER + INTRA:          -8.946
REMARK INTER:                  -8.919
REMARK INTRA:                  -0.027
REMARK UNBOUND:                -0.030
REMARK SMILES Oc1cc(O)c2cc(O)c(-c3cc(O)c(O)c(O)c3)[o+]c2c1.[Cl-]
REMARK SMILES IDX 10 1 20 2 21 3 22 4 2 5 3 6 4 7 6 8 7 9 8 10 11 11 12 12
REMARK SMILES IDX 13 13 19 14 15 15 17 16 14 17 16 19 18 21 9 23 1 25 5 27
REMARK H PARENT 14 18 16 20 18 22 9 24 1 26 5 28
REMARK Flexibility Score: inf
ROOT
ATOM      1  C   UNL     1       7.395  28.971 -13.523  1.00  0.00     0.402 A 
ATOM      2  O   UNL     1       7.777  29.931 -12.684  1.00  0.00    -0.202 OA
ATOM      3  C   UNL     1       7.587  31.225 -12.922  1.00  0.00     0.368 A 
ATOM      4  C   UNL     1       8.026  32.160 -11.981  1.00  0.00     0.162 A 
ATOM      5  C   UNL     1       7.843  33.525 -12.206  1.00  0.00     0.128 A 
ATOM      6  C   UNL     1       7.218  33.961 -13.380  1.00  0.00     0.093 A 
ATOM      7  C   UNL     1       6.770  33.044 -14.338  1.00  0.00     0.136 A 
ATOM      8  C   UNL     1       6.951  31.655 -14.112  1.00  0.00     0.125 A 
ATOM      9  C   UNL     1       6.522  30.663 -15.010  1.00  0.00     0.078 A 
ATOM     10  C   UNL     1       6.732  29.313 -14.717  1.00  0.00     0.223 A 
ENDROOT
BRANCH   1  11
ATOM     11  C   UNL     1       7.672  27.565 -13.150  1.00  0.00     0.091 A 
ATOM     12  C   UNL     1       8.946  27.159 -12.717  1.00  0.00     0.068 A 
ATOM     13  C   UNL     1       9.181  25.828 -12.346  1.00  0.00     0.162 A 
ATOM     14  C   UNL     1       6.628  26.626 -13.175  1.00  0.00     0.068 A 
ATOM     15  C   UNL     1       8.136  24.891 -12.396  1.00  0.00     0.200 A 
ATOM     16  C   UNL     1       6.859  25.294 -12.806  1.00  0.00     0.162 A 
BRANCH  13  17
ATOM     17  O   UNL     1      10.451  25.434 -11.924  1.00  0.00    -0.504 OA
ATOM     18  H   UNL     1      10.771  25.599 -10.977  1.00  0.00     0.293 HD
ENDBRANCH  13  17
BRANCH  15  19
ATOM     19  O   UNL     1       8.347  23.560 -12.036  1.00  0.00    -0.502 OA
ATOM     20  H   UNL     1       7.664  22.836 -12.223  1.00  0.00     0.293 HD
ENDBRANCH  15  19
BRANCH  16  21
ATOM     21  O   UNL     1       5.821  24.363 -12.846  1.00  0.00    -0.504 OA
ATOM     22  H   UNL     1       5.936  23.425 -12.479  1.00  0.00     0.293 HD
ENDBRANCH  16  21
ENDBRANCH   1  11
BRANCH  10  23
ATOM     23  O   UNL     1       6.262  28.326 -15.584  1.00  0.00    -0.500 OA
ATOM     24  H   UNL     1       6.010  27.403 -15.253  1.00  0.00     0.294 HD
ENDBRANCH  10  23
BRANCH   5  25
ATOM     25  O   UNL     1       8.288  34.442 -11.256  1.00  0.00    -0.507 OA
ATOM     26  H   UNL     1       9.260  34.486 -10.977  1.00  0.00     0.293 HD
ENDBRANCH   5  25
BRANCH   7  27
ATOM     27  O   UNL     1       6.158  33.558 -15.485  1.00  0.00    -0.507 OA
ATOM     28  H   UNL     1       6.433  33.330 -16.429  1.00  0.00     0.293 HD
ENDBRANCH   7  27
TORSDOF 7
ENDMDL
MODEL 3
REMARK VINA RESULT:    -7.181      1.914      7.127
REMARK INTER + INTRA:          -8.890
REMARK INTER:                  -8.516
REMARK INTRA:                  -0.374
REMARK UNBOUND:                -0.030
REMARK SMILES Oc1cc(O)c2cc(O)c(-c3cc(O)c(O)c(O)c3)[o+]c2c1.[Cl-]
REMARK SMILES IDX 10 1 20 2 21 3 22 4 2 5 3 6 4 7 6 8 7 9 8 10 11 11 12 12
REMARK SMILES IDX 13 13 19 14 15 15 17 16 14 17 16 19 18 21 9 23 1 25 5 27
REMARK H PARENT 14 18 16 20 18 22 9 24 1 26 5 28
REMARK Flexibility Score: inf
ROOT
ATOM      1  C   UNL     1       7.536  29.567 -14.009  1.00  0.00     0.402 A 
ATOM      2  O   UNL     1       6.982  28.396 -13.705  1.00  0.00    -0.202 OA
ATOM      3  C   UNL     1       7.655  27.393 -13.149  1.00  0.00     0.368 A 
ATOM      4  C   UNL     1       6.985  26.199 -12.869  1.00  0.00     0.162 A 
ATOM      5  C   UNL     1       7.666  25.128 -12.290  1.00  0.00     0.128 A 
ATOM      6  C   UNL     1       9.027  25.249 -11.988  1.00  0.00     0.093 A 
ATOM      7  C   UNL     1       9.721  26.434 -12.259  1.00  0.00     0.136 A 
ATOM      8  C   UNL     1       9.031  27.527 -12.846  1.00  0.00     0.125 A 
ATOM      9  C   UNL     1       9.641  28.758 -13.140  1.00  0.00     0.078 A 
ATOM     10  C   UNL     1       8.895  29.791 -13.715  1.00  0.00     0.223 A 
ENDROOT
BRANCH   1  11
ATOM     11  C   UNL     1       6.684  30.604 -14.635  1.00  0.00     0.091 A 
ATOM     12  C   UNL     1       5.911  31.483 -13.857  1.00  0.00     0.068 A 
ATOM     13  C   UNL     1       5.129  32.473 -14.467  1.00  0.00     0.162 A 
ATOM     14  C   UNL     1       6.689  30.751 -16.031  1.00  0.00     0.068 A 
ATOM     15  C   UNL     1       5.123  32.598 -15.866  1.00  0.00     0.200 A 
ATOM     16  C   UNL     1       5.907  31.738 -16.646  1.00  0.00     0.162 A 
BRANCH  13  17
ATOM     17  O   UNL     1       4.360  33.336 -13.687  1.00  0.00    -0.504 OA
ATOM     18  H   UNL     1       4.065  33.086 -12.750  1.00  0.00     0.293 HD
ENDBRANCH  13  17
BRANCH  15  19
ATOM     19  O   UNL     1       4.349  33.572 -16.496  1.00  0.00    -0.502 OA
ATOM     20  H   UNL     1       4.145  34.463 -16.061  1.00  0.00     0.293 HD
ENDBRANCH  15  19
BRANCH  16  21
ATOM     21  O   UNL     1       5.905  31.871 -18.034  1.00  0.00    -0.504 OA
ATOM     22  H   UNL     1       6.289  31.152 -18.636  1.00  0.00     0.293 HD
ENDBRANCH  16  21
ENDBRANCH   1  11
BRANCH  10  23
ATOM     23  O   UNL     1       9.488  31.029 -13.962  1.00  0.00    -0.500 OA
ATOM     24  H   UNL     1       9.679  31.686 -13.214  1.00  0.00     0.294 HD
ENDBRANCH  10  23
BRANCH   5  25
ATOM     25  O   UNL     1       6.981  23.946 -12.017  1.00  0.00    -0.507 OA
ATOM     26  H   UNL     1       6.230  23.619 -12.614  1.00  0.00     0.293 HD
ENDBRANCH   5  25
BRANCH   7  27
ATOM     27  O   UNL     1      11.079  26.475 -11.930  1.00  0.00    -0.507 OA
ATOM     28  H   UNL     1      11.563  27.300 -11.606  1.00  0.00     0.293 HD
ENDBRANCH   7  27
TORSDOF 7
ENDMDL
MODEL 4
REMARK VINA RESULT:    -7.166      1.658      2.806
REMARK INTER + INTRA:          -8.872
REMARK INTER:                  -8.588
REMARK INTRA:                  -0.284
REMARK UNBOUND:                -0.030
REMARK SMILES Oc1cc(O)c2cc(O)c(-c3cc(O)c(O)c(O)c3)[o+]c2c1.[Cl-]
REMARK SMILES IDX 10 1 20 2 21 3 22 4 2 5 3 6 4 7 6 8 7 9 8 10 11 11 12 12
REMARK SMILES IDX 13 13 19 14 15 15 17 16 14 17 16 19 18 21 9 23 1 25 5 27
REMARK H PARENT 14 18 16 20 18 22 9 24 1 26 5 28
REMARK Flexibility Score: inf
ROOT
ATOM      1  C   UNL     1       8.344  28.567 -13.418  1.00  0.00     0.402 A 
ATOM      2  O   UNL     1       7.294  29.027 -14.093  1.00  0.00    -0.202 OA
ATOM      3  C   UNL     1       6.969  30.315 -14.145  1.00  0.00     0.368 A 
ATOM      4  C   UNL     1       5.844  30.702 -14.879  1.00  0.00     0.162 A 
ATOM      5  C   UNL     1       5.476  32.046 -14.950  1.00  0.00     0.128 A 
ATOM      6  C   UNL     1       6.235  33.012 -14.281  1.00  0.00     0.093 A 
ATOM      7  C   UNL     1       7.366  32.651 -13.539  1.00  0.00     0.136 A 
ATOM      8  C   UNL     1       7.745  31.285 -13.468  1.00  0.00     0.125 A 
ATOM      9  C   UNL     1       8.870  30.832 -12.759  1.00  0.00     0.078 A 
ATOM     10  C   UNL     1       9.184  29.470 -12.738  1.00  0.00     0.223 A 
ENDROOT
BRANCH   1  11
ATOM     11  C   UNL     1       8.598  27.108 -13.427  1.00  0.00     0.091 A 
ATOM     12  C   UNL     1       7.761  26.215 -12.737  1.00  0.00     0.068 A 
ATOM     13  C   UNL     1       8.005  24.835 -12.777  1.00  0.00     0.162 A 
ATOM     14  C   UNL     1       9.664  26.598 -14.185  1.00  0.00     0.068 A 
ATOM     15  C   UNL     1       9.087  24.337 -13.520  1.00  0.00     0.200 A 
ATOM     16  C   UNL     1       9.913  25.220 -14.227  1.00  0.00     0.162 A 
BRANCH  13  17
ATOM     17  O   UNL     1       7.171  23.958 -12.084  1.00  0.00    -0.504 OA
ATOM     18  H   UNL     1       6.917  24.119 -11.116  1.00  0.00     0.293 HD
ENDBRANCH  13  17
BRANCH  15  19
ATOM     19  O   UNL     1       9.352  22.968 -13.571  1.00  0.00    -0.502 OA
ATOM     20  H   UNL     1      10.246  22.603 -13.879  1.00  0.00     0.293 HD
ENDBRANCH  15  19
BRANCH  16  21
ATOM     21  O   UNL     1      10.981  24.720 -14.971  1.00  0.00    -0.504 OA
ATOM     22  H   UNL     1      11.583  25.330 -15.511  1.00  0.00     0.293 HD
ENDBRANCH  16  21
ENDBRANCH   1  11
BRANCH  10  23
ATOM     23  O   UNL     1      10.329  29.025 -12.076  1.00  0.00    -0.500 OA
ATOM     24  H   UNL     1      10.479  29.210 -11.091  1.00  0.00     0.294 HD
ENDBRANCH  10  23
BRANCH   5  25
ATOM     25  O   UNL     1       4.351  32.411 -15.687  1.00  0.00    -0.507 OA
ATOM     26  H   UNL     1       4.202  32.071 -16.629  1.00  0.00     0.293 HD
ENDBRANCH   5  25
BRANCH   7  27
ATOM     27  O   UNL     1       8.070  33.674 -12.898  1.00  0.00    -0.507 OA
ATOM     28  H   UNL     1       7.639  34.473 -12.456  1.00  0.00     0.293 HD
ENDBRANCH   7  27
TORSDOF 7
ENDMDL
MODEL 5
REMARK VINA RESULT:    -7.138      1.657      3.168
REMARK INTER + INTRA:          -8.837
REMARK INTER:                  -8.544
REMARK INTRA:                  -0.293
REMARK UNBOUND:                -0.030
REMARK SMILES Oc1cc(O)c2cc(O)c(-c3cc(O)c(O)c(O)c3)[o+]c2c1.[Cl-]
REMARK SMILES IDX 10 1 20 2 21 3 22 4 2 5 3 6 4 7 6 8 7 9 8 10 11 11 12 12
REMARK SMILES IDX 13 13 19 14 15 15 17 16 14 17 16 19 18 21 9 23 1 25 5 27
REMARK H PARENT 14 18 16 20 18 22 9 24 1 26 5 28
REMARK Flexibility Score: inf
ROOT
ATOM      1  C   UNL     1       8.334  28.551 -13.467  1.00  0.00     0.402 A 
ATOM      2  O   UNL     1       7.297  29.028 -14.151  1.00  0.00    -0.202 OA
ATOM      3  C   UNL     1       6.967  30.315 -14.171  1.00  0.00     0.368 A 
ATOM      4  C   UNL     1       5.857  30.719 -14.918  1.00  0.00     0.162 A 
ATOM      5  C   UNL     1       5.484  32.063 -14.954  1.00  0.00     0.128 A 
ATOM      6  C   UNL     1       6.223  33.012 -14.238  1.00  0.00     0.093 A 
ATOM      7  C   UNL     1       7.338  32.632 -13.482  1.00  0.00     0.136 A 
ATOM      8  C   UNL     1       7.723  31.266 -13.445  1.00  0.00     0.125 A 
ATOM      9  C   UNL     1       8.834  30.796 -12.725  1.00  0.00     0.078 A 
ATOM     10  C   UNL     1       9.154  29.435 -12.739  1.00  0.00     0.223 A 
ENDROOT
BRANCH   1  11
ATOM     11  C   UNL     1       8.596  27.094 -13.516  1.00  0.00     0.091 A 
ATOM     12  C   UNL     1       9.687  26.570 -14.230  1.00  0.00     0.068 A 
ATOM     13  C   UNL     1       9.931  25.190 -14.246  1.00  0.00     0.162 A 
ATOM     14  C   UNL     1       7.771  26.220 -12.791  1.00  0.00     0.068 A 
ATOM     15  C   UNL     1       9.087  24.321 -13.535  1.00  0.00     0.200 A 
ATOM     16  C   UNL     1       8.010  24.839 -12.804  1.00  0.00     0.162 A 
BRANCH  13  17
ATOM     17  O   UNL     1      11.013  24.680 -14.962  1.00  0.00    -0.504 OA
ATOM     18  H   UNL     1      11.149  24.893 -15.944  1.00  0.00     0.293 HD
ENDBRANCH  13  17
BRANCH  15  19
ATOM     19  O   UNL     1       9.307  22.944 -13.539  1.00  0.00    -0.502 OA
ATOM     20  H   UNL     1       8.617  22.289 -13.886  1.00  0.00     0.293 HD
ENDBRANCH  15  19
BRANCH  16  21
ATOM     21  O   UNL     1       7.180  23.974 -12.093  1.00  0.00    -0.504 OA
ATOM     22  H   UNL     1       6.828  23.119 -12.505  1.00  0.00     0.293 HD
ENDBRANCH  16  21
ENDBRANCH   1  11
BRANCH  10  23
ATOM     23  O   UNL     1      10.285  28.975 -12.066  1.00  0.00    -0.500 OA
ATOM     24  H   UNL     1      11.220  29.245 -12.349  1.00  0.00     0.294 HD
ENDBRANCH  10  23
BRANCH   5  25
ATOM     25  O   UNL     1       4.375  32.447 -15.705  1.00  0.00    -0.507 OA
ATOM     26  H   UNL     1       3.671  33.072 -15.329  1.00  0.00     0.293 HD
ENDBRANCH   5  25
BRANCH   7  27
ATOM     27  O   UNL     1       8.022  33.638 -12.793  1.00  0.00    -0.507 OA
ATOM     28  H   UNL     1       8.413  33.532 -11.868  1.00  0.00     0.293 HD
ENDBRANCH   7  27
TORSDOF 7
ENDMDL
MODEL 6
REMARK VINA RESULT:    -6.977     10.270     13.098
REMARK INTER + INTRA:          -8.639
REMARK INTER:                  -8.266
REMARK INTRA:                  -0.374
REMARK UNBOUND:                -0.030
REMARK SMILES Oc1cc(O)c2cc(O)c(-c3cc(O)c(O)c(O)c3)[o+]c2c1.[Cl-]
REMARK SMILES IDX 10 1 20 2 21 3 22 4 2 5 3 6 4 7 6 8 7 9 8 10 11 11 12 12
REMARK SMILES IDX 13 13 19 14 15 15 17 16 14 17 16 19 18 21 9 23 1 25 5 27
REMARK H PARENT 14 18 16 20 18 22 9 24 1 26 5 28
REMARK Flexibility Score: inf
ROOT
ATOM      1  C   UNL     1      -1.571  34.082 -18.029  1.00  0.00     0.402 A 
ATOM      2  O   UNL     1      -2.586  34.845 -17.633  1.00  0.00    -0.202 OA
ATOM      3  C   UNL     1      -3.752  34.353 -17.224  1.00  0.00     0.368 A 
ATOM      4  C   UNL     1      -4.761  35.236 -16.829  1.00  0.00     0.162 A 
ATOM      5  C   UNL     1      -5.995  34.748 -16.399  1.00  0.00     0.128 A 
ATOM      6  C   UNL     1      -6.226  33.369 -16.363  1.00  0.00     0.093 A 
ATOM      7  C   UNL     1      -5.232  32.463 -16.754  1.00  0.00     0.136 A 
ATOM      8  C   UNL     1      -3.974  32.955 -17.189  1.00  0.00     0.125 A 
ATOM      9  C   UNL     1      -2.914  32.122 -17.586  1.00  0.00     0.078 A 
ATOM     10  C   UNL     1      -1.701  32.680 -17.999  1.00  0.00     0.223 A 
ENDROOT
BRANCH   1  11
ATOM     11  C   UNL     1      -0.325  34.748 -18.471  1.00  0.00     0.091 A 
ATOM     12  C   UNL     1       0.669  35.128 -17.553  1.00  0.00     0.068 A 
ATOM     13  C   UNL     1       1.851  35.737 -17.994  1.00  0.00     0.162 A 
ATOM     14  C   UNL     1      -0.104  34.958 -19.842  1.00  0.00     0.068 A 
ATOM     15  C   UNL     1       2.053  35.963 -19.365  1.00  0.00     0.200 A 
ATOM     16  C   UNL     1       1.076  35.569 -20.288  1.00  0.00     0.162 A 
BRANCH  13  17
ATOM     17  O   UNL     1       2.828  36.115 -17.073  1.00  0.00    -0.504 OA
ATOM     18  H   UNL     1       3.093  37.085 -16.947  1.00  0.00     0.293 HD
ENDBRANCH  13  17
BRANCH  15  19
ATOM     19  O   UNL     1       3.220  36.572 -19.827  1.00  0.00    -0.502 OA
ATOM     20  H   UNL     1       3.670  36.289 -20.690  1.00  0.00     0.293 HD
ENDBRANCH  15  19
BRANCH  16  21
ATOM     21  O   UNL     1       1.285  35.787 -21.649  1.00  0.00    -0.504 OA
ATOM     22  H   UNL     1       2.214  35.927 -22.027  1.00  0.00     0.293 HD
ENDBRANCH  16  21
ENDBRANCH   1  11
BRANCH  10  23
ATOM     23  O   UNL     1      -0.632  31.853 -18.346  1.00  0.00    -0.500 OA
ATOM     24  H   UNL     1      -0.146  31.955 -19.229  1.00  0.00     0.294 HD
ENDBRANCH  10  23
BRANCH   5  25
ATOM     25  O   UNL     1      -6.988  35.644 -16.009  1.00  0.00    -0.507 OA
ATOM     26  H   UNL     1      -6.763  36.579 -15.689  1.00  0.00     0.293 HD
ENDBRANCH   5  25
BRANCH   7  27
ATOM     27  O   UNL     1      -5.540  31.102 -16.692  1.00  0.00    -0.507 OA
ATOM     28  H   UNL     1      -5.699  30.591 -15.835  1.00  0.00     0.293 HD
ENDBRANCH   7  27
TORSDOF 7
ENDMDL
MODEL 7
REMARK VINA RESULT:    -6.958      1.341      7.342
REMARK INTER + INTRA:          -8.616
REMARK INTER:                  -8.232
REMARK INTRA:                  -0.384
REMARK UNBOUND:                -0.030
REMARK SMILES Oc1cc(O)c2cc(O)c(-c3cc(O)c(O)c(O)c3)[o+]c2c1.[Cl-]
REMARK SMILES IDX 10 1 20 2 21 3 22 4 2 5 3 6 4 7 6 8 7 9 8 10 11 11 12 12
REMARK SMILES IDX 13 13 19 14 15 15 17 16 14 17 16 19 18 21 9 23 1 25 5 27
REMARK H PARENT 14 18 16 20 18 22 9 24 1 26 5 28
REMARK Flexibility Score: inf
ROOT
ATOM      1  C   UNL     1       8.297  29.746 -13.039  1.00  0.00     0.402 A 
ATOM      2  O   UNL     1       7.391  28.776 -13.138  1.00  0.00    -0.202 OA
ATOM      3  C   UNL     1       7.665  27.497 -12.904  1.00  0.00     0.368 A 
ATOM      4  C   UNL     1       6.646  26.549 -13.037  1.00  0.00     0.162 A 
ATOM      5  C   UNL     1       6.904  25.199 -12.801  1.00  0.00     0.128 A 
ATOM      6  C   UNL     1       8.190  24.789 -12.430  1.00  0.00     0.093 A 
ATOM      7  C   UNL     1       9.228  25.719 -12.290  1.00  0.00     0.136 A 
ATOM      8  C   UNL     1       8.968  27.094 -12.527  1.00  0.00     0.125 A 
ATOM      9  C   UNL     1       9.943  28.097 -12.398  1.00  0.00     0.078 A 
ATOM     10  C   UNL     1       9.611  29.433 -12.643  1.00  0.00     0.223 A 
ENDROOT
BRANCH   1  11
ATOM     11  C   UNL     1       7.872  31.133 -13.335  1.00  0.00     0.091 A 
ATOM     12  C   UNL     1       8.057  31.700 -14.608  1.00  0.00     0.068 A 
ATOM     13  C   UNL     1       7.627  33.007 -14.875  1.00  0.00     0.162 A 
ATOM     14  C   UNL     1       7.222  31.883 -12.342  1.00  0.00     0.068 A 
ATOM     15  C   UNL     1       6.998  33.757 -13.868  1.00  0.00     0.200 A 
ATOM     16  C   UNL     1       6.792  33.191 -12.604  1.00  0.00     0.162 A 
BRANCH  13  17
ATOM     17  O   UNL     1       7.820  33.561 -16.140  1.00  0.00    -0.504 OA
ATOM     18  H   UNL     1       8.588  33.273 -16.736  1.00  0.00     0.293 HD
ENDBRANCH  13  17
BRANCH  15  19
ATOM     19  O   UNL     1       6.566  35.061 -14.109  1.00  0.00    -0.502 OA
ATOM     20  H   UNL     1       6.682  35.510 -15.010  1.00  0.00     0.293 HD
ENDBRANCH  15  19
BRANCH  16  21
ATOM     21  O   UNL     1       6.159  33.935 -11.610  1.00  0.00    -0.504 OA
ATOM     22  H   UNL     1       6.686  34.488 -10.944  1.00  0.00     0.293 HD
ENDBRANCH  16  21
ENDBRANCH   1  11
BRANCH  10  23
ATOM     23  O   UNL     1      10.566  30.435 -12.468  1.00  0.00    -0.500 OA
ATOM     24  H   UNL     1      10.473  31.137 -11.742  1.00  0.00     0.294 HD
ENDBRANCH  10  23
BRANCH   5  25
ATOM     25  O   UNL     1       5.875  24.269 -12.938  1.00  0.00    -0.507 OA
ATOM     26  H   UNL     1       5.538  23.982 -13.849  1.00  0.00     0.293 HD
ENDBRANCH   5  25
BRANCH   7  27
ATOM     27  O   UNL     1      10.484  25.231 -11.920  1.00  0.00    -0.507 OA
ATOM     28  H   UNL     1      10.706  24.864 -11.006  1.00  0.00     0.293 HD
ENDBRANCH   7  27
TORSDOF 7
ENDMDL
MODEL 8
REMARK VINA RESULT:    -6.673     11.336     13.778
REMARK INTER + INTRA:          -8.264
REMARK INTER:                  -8.094
REMARK INTRA:                  -0.170
REMARK UNBOUND:                -0.030
REMARK SMILES Oc1cc(O)c2cc(O)c(-c3cc(O)c(O)c(O)c3)[o+]c2c1.[Cl-]
REMARK SMILES IDX 10 1 20 2 21 3 22 4 2 5 3 6 4 7 6 8 7 9 8 10 11 11 12 12
REMARK SMILES IDX 13 13 19 14 15 15 17 16 14 17 16 19 18 21 9 23 1 25 5 27
REMARK H PARENT 14 18 16 20 18 22 9 24 1 26 5 28
REMARK Flexibility Score: inf
ROOT
ATOM      1  C   UNL     1      -3.749  33.534 -17.781  1.00  0.00     0.402 A 
ATOM      2  O   UNL     1      -2.996  34.558 -17.385  1.00  0.00    -0.202 OA
ATOM      3  C   UNL     1      -1.729  34.716 -17.754  1.00  0.00     0.368 A 
ATOM      4  C   UNL     1      -1.019  35.824 -17.283  1.00  0.00     0.162 A 
ATOM      5  C   UNL     1       0.314  36.014 -17.650  1.00  0.00     0.128 A 
ATOM      6  C   UNL     1       0.943  35.092 -18.494  1.00  0.00     0.093 A 
ATOM      7  C   UNL     1       0.254  33.974 -18.979  1.00  0.00     0.136 A 
ATOM      8  C   UNL     1      -1.103  33.779 -18.610  1.00  0.00     0.125 A 
ATOM      9  C   UNL     1      -1.877  32.695 -19.058  1.00  0.00     0.078 A 
ATOM     10  C   UNL     1      -3.210  32.571 -18.655  1.00  0.00     0.223 A 
ENDROOT
BRANCH   1  11
ATOM     11  C   UNL     1      -5.146  33.463 -17.294  1.00  0.00     0.091 A 
ATOM     12  C   UNL     1      -6.075  34.476 -17.585  1.00  0.00     0.068 A 
ATOM     13  C   UNL     1      -7.399  34.379 -17.135  1.00  0.00     0.162 A 
ATOM     14  C   UNL     1      -5.568  32.335 -16.574  1.00  0.00     0.068 A 
ATOM     15  C   UNL     1      -7.806  33.256 -16.395  1.00  0.00     0.200 A 
ATOM     16  C   UNL     1      -6.890  32.233 -16.120  1.00  0.00     0.162 A 
BRANCH  13  17
ATOM     17  O   UNL     1      -8.312  35.392 -17.424  1.00  0.00    -0.504 OA
ATOM     18  H   UNL     1      -8.021  36.264 -17.852  1.00  0.00     0.293 HD
ENDBRANCH  13  17
BRANCH  15  19
ATOM     19  O   UNL     1      -9.117  33.139 -15.932  1.00  0.00    -0.502 OA
ATOM     20  H   UNL     1      -9.460  33.675 -15.144  1.00  0.00     0.293 HD
ENDBRANCH  15  19
BRANCH  16  21
ATOM     21  O   UNL     1      -7.301  31.116 -15.393  1.00  0.00    -0.504 OA
ATOM     22  H   UNL     1      -8.043  30.511 -15.725  1.00  0.00     0.293 HD
ENDBRANCH  16  21
ENDBRANCH   1  11
BRANCH  10  23
ATOM     23  O   UNL     1      -3.993  31.523 -19.139  1.00  0.00    -0.500 OA
ATOM     24  H   UNL     1      -4.774  31.153 -18.609  1.00  0.00     0.294 HD
ENDBRANCH  10  23
BRANCH   5  25
ATOM     25  O   UNL     1       1.006  37.125 -17.171  1.00  0.00    -0.507 OA
ATOM     26  H   UNL     1       1.998  37.242 -17.336  1.00  0.00     0.293 HD
ENDBRANCH   5  25
BRANCH   7  27
ATOM     27  O   UNL     1       0.952  33.098 -19.814  1.00  0.00    -0.507 OA
ATOM     28  H   UNL     1       0.534  32.571 -20.566  1.00  0.00     0.293 HD
ENDBRANCH   7  27
TORSDOF 7
ENDMDL
MODEL 9
REMARK VINA RESULT:    -6.562     10.331     13.320
REMARK INTER + INTRA:          -8.126
REMARK INTER:                  -7.809
REMARK INTRA:                  -0.317
REMARK UNBOUND:                -0.030
REMARK SMILES Oc1cc(O)c2cc(O)c(-c3cc(O)c(O)c(O)c3)[o+]c2c1.[Cl-]
REMARK SMILES IDX 10 1 20 2 21 3 22 4 2 5 3 6 4 7 6 8 7 9 8 10 11 11 12 12
REMARK SMILES IDX 13 13 19 14 15 15 17 16 14 17 16 19 18 21 9 23 1 25 5 27
REMARK H PARENT 14 18 16 20 18 22 9 24 1 26 5 28
REMARK Flexibility Score: inf
ROOT
ATOM      1  C   UNL     1      -2.303  34.621 -18.048  1.00  0.00     0.402 A 
ATOM      2  O   UNL     1      -2.838  33.504 -17.563  1.00  0.00    -0.202 OA
ATOM      3  C   UNL     1      -4.147  33.330 -17.406  1.00  0.00     0.368 A 
ATOM      4  C   UNL     1      -4.614  32.120 -16.885  1.00  0.00     0.162 A 
ATOM      5  C   UNL     1      -5.982  31.911 -16.706  1.00  0.00     0.128 A 
ATOM      6  C   UNL     1      -6.892  32.918 -17.049  1.00  0.00     0.093 A 
ATOM      7  C   UNL     1      -6.449  34.138 -17.573  1.00  0.00     0.136 A 
ATOM      8  C   UNL     1      -5.059  34.354 -17.759  1.00  0.00     0.125 A 
ATOM      9  C   UNL     1      -4.525  35.540 -18.290  1.00  0.00     0.078 A 
ATOM     10  C   UNL     1      -3.143  35.678 -18.448  1.00  0.00     0.223 A 
ENDROOT
BRANCH   1  11
ATOM     11  C   UNL     1      -0.829  34.698 -18.166  1.00  0.00     0.091 A 
ATOM     12  C   UNL     1      -0.140  34.018 -19.186  1.00  0.00     0.068 A 
ATOM     13  C   UNL     1       1.253  34.122 -19.295  1.00  0.00     0.162 A 
ATOM     14  C   UNL     1      -0.107  35.509 -17.277  1.00  0.00     0.068 A 
ATOM     15  C   UNL     1       1.970  34.918 -18.386  1.00  0.00     0.200 A 
ATOM     16  C   UNL     1       1.287  35.614 -17.381  1.00  0.00     0.162 A 
BRANCH  13  17
ATOM     17  O   UNL     1       1.928  33.440 -20.306  1.00  0.00    -0.504 OA
ATOM     18  H   UNL     1       1.804  33.678 -21.283  1.00  0.00     0.293 HD
ENDBRANCH  13  17
BRANCH  15  19
ATOM     19  O   UNL     1       3.357  35.033 -18.471  1.00  0.00    -0.502 OA
ATOM     20  H   UNL     1       3.947  35.071 -17.648  1.00  0.00     0.293 HD
ENDBRANCH  15  19
BRANCH  16  21
ATOM     21  O   UNL     1       2.001  36.411 -16.486  1.00  0.00    -0.504 OA
ATOM     22  H   UNL     1       2.237  36.084 -15.557  1.00  0.00     0.293 HD
ENDBRANCH  16  21
ENDBRANCH   1  11
BRANCH  10  23
ATOM     23  O   UNL     1      -2.616  36.836 -19.021  1.00  0.00    -0.500 OA
ATOM     24  H   UNL     1      -2.664  37.732 -18.550  1.00  0.00     0.294 HD
ENDBRANCH  10  23
BRANCH   5  25
ATOM     25  O   UNL     1      -6.428  30.698 -16.185  1.00  0.00    -0.507 OA
ATOM     26  H   UNL     1      -6.720  30.612 -15.219  1.00  0.00     0.293 HD
ENDBRANCH   5  25
BRANCH   7  27
ATOM     27  O   UNL     1      -7.419  35.094 -17.888  1.00  0.00    -0.507 OA
ATOM     28  H   UNL     1      -8.262  34.900 -18.409  1.00  0.00     0.293 HD
ENDBRANCH   7  27
TORSDOF 7
ENDMDL
