MODEL 1
REMARK VINA RESULT:    -3.873      0.000      0.000
REMARK INTER + INTRA:          -4.029
REMARK INTER:                  -4.779
REMARK INTRA:                   0.750
REMARK UNBOUND:                 0.750
REMARK SMILES CC1=CC=CC(C)(C)CC1=O
REMARK SMILES IDX 1 1 2 2 3 3 10 4 11 5 9 6 4 8 5 9 6 10 7 11 8 12
REMARK H PARENT
REMARK Flexibility Score: 80.00
ROOT
ATOM      1  C   UNL     1     -13.956  15.148 -31.620  1.00  0.00     0.048 C 
ATOM      2  C   UNL     1     -15.195  14.524 -31.023  1.00  0.00    -0.008 C 
ATOM      3  C   UNL     1     -15.501  14.837 -29.746  1.00  0.00     0.007 C 
ENDROOT
BRANCH   2   4
ATOM      4  C   UNL     1     -15.937  13.555 -31.869  1.00  0.00     0.159 C 
ATOM      5  O   UNL     1     -15.406  13.151 -32.940  1.00  0.00    -0.295 OA
BRANCH   4   6
ATOM      6  C   UNL     1     -17.299  13.035 -31.526  1.00  0.00     0.091 CG0
ATOM      7  G   UNL     1     -17.343  12.281 -30.178  1.00  0.00     0.000 G0
ENDBRANCH   4   6
ENDBRANCH   2   4
BRANCH   3   8
ATOM      8  C   UNL     1     -16.619  14.370 -28.893  1.00  0.00    -0.003 C 
ATOM      9  C   UNL     1     -17.398  13.290 -29.039  1.00  0.00    -0.020 C 
BRANCH   9  10
ATOM     10  C   UNL     1     -17.331  12.280 -30.160  1.00  0.00    -0.010 CG0
ATOM     11  C   UNL     1     -18.621  11.428 -30.124  1.00  0.00     0.016 C 
ATOM     12  C   UNL     1     -16.127  11.334 -29.947  1.00  0.00     0.016 C 
ATOM     13  G   UNL     1     -17.279  13.014 -31.519  1.00  0.00     0.000 G0
ENDBRANCH   9  10
ENDBRANCH   3   8
TORSDOF 0
ENDMDL
MODEL 2
REMARK VINA RESULT:    -3.832      1.698      3.540
REMARK INTER + INTRA:          -3.978
REMARK INTER:                  -4.743
REMARK INTRA:                   0.764
REMARK UNBOUND:                 0.750
REMARK SMILES CC1=CC=CC(C)(C)CC1=O
REMARK SMILES IDX 1 1 2 2 3 3 10 4 11 5 9 6 4 8 5 9 6 10 7 11 8 12
REMARK H PARENT
REMARK Flexibility Score: 80.00
ROOT
ATOM      1  C   UNL     1     -18.818  13.038 -30.332  1.00  0.00     0.048 C 
ATOM      2  C   UNL     1     -17.329  12.896 -30.532  1.00  0.00    -0.008 C 
ATOM      3  C   UNL     1     -16.628  12.246 -29.578  1.00  0.00     0.007 C 
ENDROOT
BRANCH   2   4
ATOM      4  C   UNL     1     -16.743  13.549 -31.730  1.00  0.00     0.159 C 
ATOM      5  O   UNL     1     -17.457  14.346 -32.398  1.00  0.00    -0.295 OA
BRANCH   4   6
ATOM      6  C   UNL     1     -15.343  13.303 -32.202  1.00  0.00     0.091 CG0
ATOM      7  G   UNL     1     -14.271  13.667 -31.150  1.00  0.00     0.000 G0
ENDBRANCH   4   6
ENDBRANCH   2   4
BRANCH   3   8
ATOM      8  C   UNL     1     -15.173  11.977 -29.483  1.00  0.00    -0.003 C 
ATOM      9  C   UNL     1     -14.161  12.569 -30.129  1.00  0.00    -0.020 C 
BRANCH   9  10
ATOM     10  C   UNL     1     -14.274  13.669 -31.158  1.00  0.00    -0.010 CG0
ATOM     11  C   UNL     1     -12.917  13.791 -31.888  1.00  0.00     0.016 C 
ATOM     12  C   UNL     1     -14.564  15.018 -30.460  1.00  0.00     0.016 C 
ATOM     13  G   UNL     1     -15.350  13.295 -32.203  1.00  0.00     0.000 G0
ENDBRANCH   9  10
ENDBRANCH   3   8
TORSDOF 0
ENDMDL
MODEL 3
REMARK VINA RESULT:    -3.738      8.760     10.409
REMARK INTER + INTRA:          -3.862
REMARK INTER:                  -4.621
REMARK INTRA:                   0.759
REMARK UNBOUND:                 0.750
REMARK SMILES CC1=CC=CC(C)(C)CC1=O
REMARK SMILES IDX 1 1 2 2 3 3 10 4 11 5 9 6 4 8 5 9 6 10 7 11 8 12
REMARK H PARENT
REMARK Flexibility Score: 80.00
ROOT
ATOM      1  C   UNL     1     -23.710  13.762 -30.112  1.00  0.00     0.048 C 
ATOM      2  C   UNL     1     -24.903  12.914 -29.745  1.00  0.00    -0.008 C 
ATOM      3  C   UNL     1     -24.672  11.639 -29.365  1.00  0.00     0.007 C 
ENDROOT
BRANCH   2   4
ATOM      4  C   UNL     1     -26.245  13.530 -29.905  1.00  0.00     0.159 C 
ATOM      5  O   UNL     1     -26.339  14.633 -30.509  1.00  0.00    -0.295 OA
BRANCH   4   6
ATOM      6  C   UNL     1     -27.503  12.917 -29.372  1.00  0.00     0.091 CG0
ATOM      7  G   UNL     1     -27.786  11.510 -29.945  1.00  0.00     0.000 G0
ENDBRANCH   4   6
ENDBRANCH   2   4
BRANCH   3   8
ATOM      8  C   UNL     1     -25.626  10.573 -28.977  1.00  0.00    -0.003 C 
ATOM      9  C   UNL     1     -26.941  10.489 -29.217  1.00  0.00    -0.020 C 
BRANCH   9  10
ATOM     10  C   UNL     1     -27.788  11.509 -29.941  1.00  0.00    -0.010 CG0
ATOM     11  C   UNL     1     -29.276  11.181 -29.674  1.00  0.00     0.016 C 
ATOM     12  C   UNL     1     -27.544  11.414 -31.464  1.00  0.00     0.016 C 
ATOM     13  G   UNL     1     -27.498  12.919 -29.377  1.00  0.00     0.000 G0
ENDBRANCH   9  10
ENDBRANCH   3   8
TORSDOF 0
ENDMDL
MODEL 4
REMARK VINA RESULT:    -3.708      1.918      3.757
REMARK INTER + INTRA:          -3.826
REMARK INTER:                  -4.572
REMARK INTRA:                   0.747
REMARK UNBOUND:                 0.750
REMARK SMILES CC1=CC=CC(C)(C)CC1=O
REMARK SMILES IDX 1 1 2 2 3 3 10 4 11 5 9 6 4 8 5 9 6 10 7 11 8 12
REMARK H PARENT
REMARK Flexibility Score: 80.00
ROOT
ATOM      1  C   UNL     1     -16.577  10.260 -29.146  1.00  0.00     0.048 C 
ATOM      2  C   UNL     1     -16.043  11.639 -29.451  1.00  0.00    -0.008 C 
ATOM      3  C   UNL     1     -16.851  12.693 -29.203  1.00  0.00     0.007 C 
ENDROOT
BRANCH   2   4
ATOM      4  C   UNL     1     -14.695  11.721 -30.069  1.00  0.00     0.159 C 
ATOM      5  O   UNL     1     -14.161  10.664 -30.505  1.00  0.00    -0.295 OA
BRANCH   4   6
ATOM      6  C   UNL     1     -13.920  12.996 -30.194  1.00  0.00     0.091 CG0
ATOM      7  G   UNL     1     -14.637  14.064 -31.050  1.00  0.00     0.000 G0
ENDBRANCH   4   6
ENDBRANCH   2   4
BRANCH   3   8
ATOM      8  C   UNL     1     -16.621  14.140 -29.421  1.00  0.00    -0.003 C 
ATOM      9  C   UNL     1     -15.713  14.744 -30.198  1.00  0.00    -0.020 C 
BRANCH   9  10
ATOM     10  C   UNL     1     -14.659  14.064 -31.041  1.00  0.00    -0.010 CG0
ATOM     11  C   UNL     1     -13.616  15.125 -31.462  1.00  0.00     0.016 C 
ATOM     12  C   UNL     1     -15.301  13.488 -32.325  1.00  0.00     0.016 C 
ATOM     13  G   UNL     1     -13.937  12.987 -30.201  1.00  0.00     0.000 G0
ENDBRANCH   9  10
ENDBRANCH   3   8
TORSDOF 0
ENDMDL
MODEL 5
REMARK VINA RESULT:    -3.699      8.722     10.591
REMARK INTER + INTRA:          -3.813
REMARK INTER:                  -4.571
REMARK INTRA:                   0.758
REMARK UNBOUND:                 0.750
REMARK SMILES CC1=CC=CC(C)(C)CC1=O
REMARK SMILES IDX 1 1 2 2 3 3 10 4 11 5 9 6 4 8 5 9 6 10 7 11 8 12
REMARK H PARENT
REMARK Flexibility Score: 80.00
ROOT
ATOM      1  C   UNL     1     -29.206  12.861 -29.310  1.00  0.00     0.048 C 
ATOM      2  C   UNL     1     -28.034  11.929 -29.120  1.00  0.00    -0.008 C 
ATOM      3  C   UNL     1     -27.791  11.475 -27.871  1.00  0.00     0.007 C 
ENDROOT
BRANCH   2   4
ATOM      4  C   UNL     1     -27.196  11.645 -30.312  1.00  0.00     0.159 C 
ATOM      5  O   UNL     1     -27.372  12.332 -31.357  1.00  0.00    -0.295 OA
BRANCH   4   6
ATOM      6  C   UNL     1     -26.153  10.571 -30.352  1.00  0.00     0.091 CG0
ATOM      7  G   UNL     1     -25.052  10.751 -29.283  1.00  0.00     0.000 G0
ENDBRANCH   4   6
ENDBRANCH   2   4
BRANCH   3   8
ATOM      8  C   UNL     1     -26.715  10.585 -27.375  1.00  0.00    -0.003 C 
ATOM      9  C   UNL     1     -25.545  10.273 -27.948  1.00  0.00    -0.020 C 
BRANCH   9  10
ATOM     10  C   UNL     1     -25.047  10.753 -29.291  1.00  0.00    -0.010 CG0
ATOM     11  C   UNL     1     -23.844   9.875 -29.705  1.00  0.00     0.016 C 
ATOM     12  C   UNL     1     -24.556  12.215 -29.179  1.00  0.00     0.016 C 
ATOM     13  G   UNL     1     -26.158  10.577 -30.351  1.00  0.00     0.000 G0
ENDBRANCH   9  10
ENDBRANCH   3   8
TORSDOF 0
ENDMDL
MODEL 6
REMARK VINA RESULT:    -3.690      2.063      3.976
REMARK INTER + INTRA:          -3.803
REMARK INTER:                  -4.538
REMARK INTRA:                   0.735
REMARK UNBOUND:                 0.750
REMARK SMILES CC1=CC=CC(C)(C)CC1=O
REMARK SMILES IDX 1 1 2 2 3 3 10 4 11 5 9 6 4 8 5 9 6 10 7 11 8 12
REMARK H PARENT
REMARK Flexibility Score: 80.00
ROOT
ATOM      1  C   UNL     1     -18.497  11.151 -28.751  1.00  0.00     0.048 C 
ATOM      2  C   UNL     1     -17.768  12.269 -29.456  1.00  0.00    -0.008 C 
ATOM      3  C   UNL     1     -17.929  12.377 -30.793  1.00  0.00     0.007 C 
ENDROOT
BRANCH   2   4
ATOM      4  C   UNL     1     -16.871  13.118 -28.630  1.00  0.00     0.159 C 
ATOM      5  O   UNL     1     -16.597  12.748 -27.455  1.00  0.00    -0.295 OA
BRANCH   4   6
ATOM      6  C   UNL     1     -16.279  14.406 -29.112  1.00  0.00     0.091 CG0
ATOM      7  G   UNL     1     -15.405  14.240 -30.375  1.00  0.00     0.000 G0
ENDBRANCH   4   6
ENDBRANCH   2   4
BRANCH   3   8
ATOM      8  C   UNL     1     -17.332  13.340 -31.748  1.00  0.00    -0.003 C 
ATOM      9  C   UNL     1     -16.260  14.128 -31.595  1.00  0.00    -0.020 C 
BRANCH   9  10
ATOM     10  C   UNL     1     -15.397  14.239 -30.359  1.00  0.00    -0.010 CG0
ATOM     11  C   UNL     1     -14.537  15.517 -30.482  1.00  0.00     0.016 C 
ATOM     12  C   UNL     1     -14.442  13.026 -30.272  1.00  0.00     0.016 C 
ATOM     13  G   UNL     1     -16.295  14.382 -29.110  1.00  0.00     0.000 G0
ENDBRANCH   9  10
ENDBRANCH   3   8
TORSDOF 0
ENDMDL
MODEL 7
REMARK VINA RESULT:    -3.679      1.661      2.330
REMARK INTER + INTRA:          -3.789
REMARK INTER:                  -4.545
REMARK INTRA:                   0.756
REMARK UNBOUND:                 0.750
REMARK SMILES CC1=CC=CC(C)(C)CC1=O
REMARK SMILES IDX 1 1 2 2 3 3 10 4 11 5 9 6 4 8 5 9 6 10 7 11 8 12
REMARK H PARENT
REMARK Flexibility Score: 80.00
ROOT
ATOM      1  C   UNL     1     -13.835  15.336 -30.519  1.00  0.00     0.048 C 
ATOM      2  C   UNL     1     -14.908  14.275 -30.547  1.00  0.00    -0.008 C 
ATOM      3  C   UNL     1     -15.924  14.434 -31.423  1.00  0.00     0.007 C 
ENDROOT
BRANCH   2   4
ATOM      4  C   UNL     1     -14.799  13.176 -29.553  1.00  0.00     0.159 C 
ATOM      5  O   UNL     1     -13.965  13.288 -28.613  1.00  0.00    -0.295 OA
BRANCH   4   6
ATOM      6  C   UNL     1     -15.620  11.926 -29.612  1.00  0.00     0.091 CG0
ATOM      7  G   UNL     1     -17.140  12.190 -29.529  1.00  0.00     0.000 G0
ENDBRANCH   4   6
ENDBRANCH   2   4
BRANCH   3   8
ATOM      8  C   UNL     1     -17.117  13.588 -31.660  1.00  0.00    -0.003 C 
ATOM      9  C   UNL     1     -17.656  12.648 -30.873  1.00  0.00    -0.020 C 
BRANCH   9  10
ATOM     10  C   UNL     1     -17.137  12.199 -29.527  1.00  0.00    -0.010 CG0
ATOM     11  C   UNL     1     -17.836  10.870 -29.157  1.00  0.00     0.016 C 
ATOM     12  C   UNL     1     -17.497  13.245 -28.447  1.00  0.00     0.016 C 
ATOM     13  G   UNL     1     -15.618  11.934 -29.618  1.00  0.00     0.000 G0
ENDBRANCH   9  10
ENDBRANCH   3   8
TORSDOF 0
ENDMDL
MODEL 8
REMARK VINA RESULT:    -3.649      2.071      2.763
REMARK INTER + INTRA:          -3.753
REMARK INTER:                  -4.512
REMARK INTRA:                   0.759
REMARK UNBOUND:                 0.750
REMARK SMILES CC1=CC=CC(C)(C)CC1=O
REMARK SMILES IDX 1 1 2 2 3 3 10 4 11 5 9 6 4 8 5 9 6 10 7 11 8 12
REMARK H PARENT
REMARK Flexibility Score: 80.00
ROOT
ATOM      1  C   UNL     1     -15.561  13.373 -32.229  1.00  0.00     0.048 C 
ATOM      2  C   UNL     1     -15.927  13.004 -30.812  1.00  0.00    -0.008 C 
ATOM      3  C   UNL     1     -16.544  13.940 -30.059  1.00  0.00     0.007 C 
ENDROOT
BRANCH   2   4
ATOM      4  C   UNL     1     -15.511  11.660 -30.335  1.00  0.00     0.159 C 
ATOM      5  O   UNL     1     -14.713  10.984 -31.042  1.00  0.00    -0.295 OA
BRANCH   4   6
ATOM      6  C   UNL     1     -15.999  11.050 -29.058  1.00  0.00     0.091 CG0
ATOM      7  G   UNL     1     -15.656  11.893 -27.809  1.00  0.00     0.000 G0
ENDBRANCH   4   6
ENDBRANCH   2   4
BRANCH   3   8
ATOM      8  C   UNL     1     -16.994  13.882 -28.649  1.00  0.00    -0.003 C 
ATOM      9  C   UNL     1     -16.627  13.035 -27.679  1.00  0.00    -0.020 C 
BRANCH   9  10
ATOM     10  C   UNL     1     -15.655  11.887 -27.811  1.00  0.00    -0.010 CG0
ATOM     11  C   UNL     1     -15.808  10.976 -26.571  1.00  0.00     0.016 C 
ATOM     12  C   UNL     1     -14.205  12.422 -27.835  1.00  0.00     0.016 C 
ATOM     13  G   UNL     1     -16.003  11.053 -29.065  1.00  0.00     0.000 G0
ENDBRANCH   9  10
ENDBRANCH   3   8
TORSDOF 0
ENDMDL
MODEL 9
REMARK VINA RESULT:    -3.443      2.114      3.051
REMARK INTER + INTRA:          -3.498
REMARK INTER:                  -4.256
REMARK INTRA:                   0.759
REMARK UNBOUND:                 0.750
REMARK SMILES CC1=CC=CC(C)(C)CC1=O
REMARK SMILES IDX 1 1 2 2 3 3 10 4 11 5 9 6 4 8 5 9 6 10 7 11 8 12
REMARK H PARENT
REMARK Flexibility Score: 80.00
ROOT
ATOM      1  C   UNL     1     -14.971  14.668 -31.170  1.00  0.00     0.048 C 
ATOM      2  C   UNL     1     -15.151  13.446 -30.301  1.00  0.00    -0.008 C 
ATOM      3  C   UNL     1     -14.622  12.283 -30.739  1.00  0.00     0.007 C 
ENDROOT
BRANCH   2   4
ATOM      4  C   UNL     1     -15.964  13.606 -29.069  1.00  0.00     0.159 C 
ATOM      5  O   UNL     1     -16.620  14.673 -28.907  1.00  0.00    -0.295 OA
BRANCH   4   6
ATOM      6  C   UNL     1     -16.039  12.571 -27.989  1.00  0.00     0.091 CG0
ATOM      7  G   UNL     1     -16.573  11.209 -28.487  1.00  0.00     0.000 G0
ENDBRANCH   4   6
ENDBRANCH   2   4
BRANCH   3   8
ATOM      8  C   UNL     1     -14.657  10.932 -30.129  1.00  0.00    -0.003 C 
ATOM      9  C   UNL     1     -15.476  10.454 -29.184  1.00  0.00    -0.020 C 
BRANCH   9  10
ATOM     10  C   UNL     1     -16.574  11.214 -28.478  1.00  0.00    -0.010 CG0
ATOM     11  C   UNL     1     -17.008  10.400 -27.238  1.00  0.00     0.016 C 
ATOM     12  C   UNL     1     -17.800  11.359 -29.409  1.00  0.00     0.016 C 
ATOM     13  G   UNL     1     -16.031  12.577 -27.992  1.00  0.00     0.000 G0
ENDBRANCH   9  10
ENDBRANCH   3   8
TORSDOF 0
ENDMDL
