MODEL 1
REMARK VINA RESULT:    -3.478      0.000      0.000
REMARK INTER + INTRA:          -3.697
REMARK INTER:                  -3.681
REMARK INTRA:                  -0.016
REMARK UNBOUND:                -0.016
REMARK SMILES O=C([O-])c1cccnc1
REMARK SMILES IDX 4 1 5 2 9 3 6 4 8 5 7 6 2 7 1 8 3 9
REMARK H PARENT
REMARK Flexibility Score: inf
ROOT
ATOM      1  C   UNL     1      39.926  -1.230  46.697  1.00  0.00     0.016 A 
ATOM      2  C   UNL     1      39.185  -1.424  47.875  1.00  0.00     0.013 A 
ATOM      3  C   UNL     1      41.145  -0.536  46.782  1.00  0.00     0.120 A 
ATOM      4  C   UNL     1      39.661  -0.932  49.091  1.00  0.00     0.021 A 
ATOM      5  N   UNL     1      41.585  -0.066  47.980  1.00  0.00    -0.264 NA
ATOM      6  C   UNL     1      40.876  -0.248  49.125  1.00  0.00     0.111 A 
ENDROOT
BRANCH   1   7
ATOM      7  C   UNL     1      39.440  -1.743  45.398  1.00  0.00     0.073 C 
ATOM      8  O   UNL     1      39.759  -2.897  45.005  1.00  0.00    -0.545 OA
ATOM      9  O   UNL     1      38.625  -0.957  44.591  1.00  0.00    -0.545 OA
ENDBRANCH   1   7
TORSDOF 1
ENDMDL
MODEL 2
REMARK VINA RESULT:    -3.442      2.517      2.921
REMARK INTER + INTRA:          -3.660
REMARK INTER:                  -3.642
REMARK INTRA:                  -0.018
REMARK UNBOUND:                -0.016
REMARK SMILES O=C([O-])c1cccnc1
REMARK SMILES IDX 4 1 5 2 9 3 6 4 8 5 7 6 2 7 1 8 3 9
REMARK H PARENT
REMARK Flexibility Score: inf
ROOT
ATOM      1  C   UNL     1      39.773  -2.524  46.710  1.00  0.00     0.016 A 
ATOM      2  C   UNL     1      38.561  -2.901  47.312  1.00  0.00     0.013 A 
ATOM      3  C   UNL     1      40.904  -3.331  46.924  1.00  0.00     0.120 A 
ATOM      4  C   UNL     1      38.498  -4.052  48.100  1.00  0.00     0.021 A 
ATOM      5  N   UNL     1      40.815  -4.446  47.697  1.00  0.00    -0.264 NA
ATOM      6  C   UNL     1      39.647  -4.820  48.283  1.00  0.00     0.111 A 
ENDROOT
BRANCH   1   7
ATOM      7  C   UNL     1      39.861  -1.309  45.871  1.00  0.00     0.073 C 
ATOM      8  O   UNL     1      40.681  -0.394  46.153  1.00  0.00    -0.545 OA
ATOM      9  O   UNL     1      39.038  -1.159  44.761  1.00  0.00    -0.545 OA
ENDBRANCH   1   7
TORSDOF 1
ENDMDL
MODEL 3
REMARK VINA RESULT:    -3.437      1.905      2.244
REMARK INTER + INTRA:          -3.654
REMARK INTER:                  -3.634
REMARK INTRA:                  -0.020
REMARK UNBOUND:                -0.016
REMARK SMILES O=C([O-])c1cccnc1
REMARK SMILES IDX 4 1 5 2 9 3 6 4 8 5 7 6 2 7 1 8 3 9
REMARK H PARENT
REMARK Flexibility Score: inf
ROOT
ATOM      1  C   UNL     1      40.869  -1.551  46.068  1.00  0.00     0.016 A 
ATOM      2  C   UNL     1      41.130  -0.255  46.544  1.00  0.00     0.013 A 
ATOM      3  C   UNL     1      41.884  -2.517  46.170  1.00  0.00     0.120 A 
ATOM      4  C   UNL     1      42.373   0.050  47.102  1.00  0.00     0.021 A 
ATOM      5  N   UNL     1      43.086  -2.193  46.717  1.00  0.00    -0.264 NA
ATOM      6  C   UNL     1      43.349  -0.942  47.181  1.00  0.00     0.111 A 
ENDROOT
BRANCH   1   7
ATOM      7  C   UNL     1      39.558  -1.894  45.474  1.00  0.00     0.073 C 
ATOM      8  O   UNL     1      39.032  -3.018  45.691  1.00  0.00    -0.545 OA
ATOM      9  O   UNL     1      38.890  -0.981  44.666  1.00  0.00    -0.545 OA
ENDBRANCH   1   7
TORSDOF 1
ENDMDL
MODEL 4
REMARK VINA RESULT:    -3.392      3.130      3.789
REMARK INTER + INTRA:          -3.607
REMARK INTER:                  -3.583
REMARK INTRA:                  -0.024
REMARK UNBOUND:                -0.016
REMARK SMILES O=C([O-])c1cccnc1
REMARK SMILES IDX 4 1 5 2 9 3 6 4 8 5 7 6 2 7 1 8 3 9
REMARK H PARENT
REMARK Flexibility Score: inf
ROOT
ATOM      1  C   UNL     1      41.513  -1.054  46.345  1.00  0.00     0.016 A 
ATOM      2  C   UNL     1      40.187  -0.783  45.965  1.00  0.00     0.013 A 
ATOM      3  C   UNL     1      42.011  -2.354  46.149  1.00  0.00     0.120 A 
ATOM      4  C   UNL     1      39.398  -1.791  45.407  1.00  0.00     0.021 A 
ATOM      5  N   UNL     1      41.220  -3.317  45.605  1.00  0.00    -0.264 NA
ATOM      6  C   UNL     1      39.937  -3.065  45.233  1.00  0.00     0.111 A 
ENDROOT
BRANCH   1   7
ATOM      7  C   UNL     1      42.366  -0.001  46.937  1.00  0.00     0.073 C 
ATOM      8  O   UNL     1      43.513  -0.278  47.377  1.00  0.00    -0.545 OA
ATOM      9  O   UNL     1      41.911   1.311  47.016  1.00  0.00    -0.545 OA
ENDBRANCH   1   7
TORSDOF 1
ENDMDL
MODEL 5
REMARK VINA RESULT:    -3.385      4.840      5.666
REMARK INTER + INTRA:          -3.599
REMARK INTER:                  -3.583
REMARK INTRA:                  -0.016
REMARK UNBOUND:                -0.016
REMARK SMILES O=C([O-])c1cccnc1
REMARK SMILES IDX 4 1 5 2 9 3 6 4 8 5 7 6 2 7 1 8 3 9
REMARK H PARENT
REMARK Flexibility Score: inf
ROOT
ATOM      1  C   UNL     1      42.907   2.685  47.146  1.00  0.00     0.016 A 
ATOM      2  C   UNL     1      42.435   3.846  46.511  1.00  0.00     0.013 A 
ATOM      3  C   UNL     1      44.292   2.544  47.336  1.00  0.00     0.120 A 
ATOM      4  C   UNL     1      43.334   4.825  46.084  1.00  0.00     0.021 A 
ATOM      5  N   UNL     1      45.145   3.512  46.909  1.00  0.00    -0.264 NA
ATOM      6  C   UNL     1      44.700   4.639  46.294  1.00  0.00     0.111 A 
ENDROOT
BRANCH   1   7
ATOM      7  C   UNL     1      41.972   1.636  47.607  1.00  0.00     0.073 C 
ATOM      8  O   UNL     1      41.656   0.681  46.847  1.00  0.00    -0.545 OA
ATOM      9  O   UNL     1      41.427   1.690  48.885  1.00  0.00    -0.545 OA
ENDBRANCH   1   7
TORSDOF 1
ENDMDL
MODEL 6
REMARK VINA RESULT:    -3.319      3.025      3.704
REMARK INTER + INTRA:          -3.529
REMARK INTER:                  -3.506
REMARK INTRA:                  -0.023
REMARK UNBOUND:                -0.016
REMARK SMILES O=C([O-])c1cccnc1
REMARK SMILES IDX 4 1 5 2 9 3 6 4 8 5 7 6 2 7 1 8 3 9
REMARK H PARENT
REMARK Flexibility Score: inf
ROOT
ATOM      1  C   UNL     1      41.770  -2.914  45.907  1.00  0.00     0.016 A 
ATOM      2  C   UNL     1      40.516  -3.219  45.350  1.00  0.00     0.013 A 
ATOM      3  C   UNL     1      41.992  -1.609  46.380  1.00  0.00     0.120 A 
ATOM      4  C   UNL     1      39.526  -2.237  45.275  1.00  0.00     0.021 A 
ATOM      5  N   UNL     1      41.010  -0.673  46.293  1.00  0.00    -0.264 NA
ATOM      6  C   UNL     1      39.794  -0.956  45.757  1.00  0.00     0.111 A 
ENDROOT
BRANCH   1   7
ATOM      7  C   UNL     1      42.833  -3.939  45.997  1.00  0.00     0.073 C 
ATOM      8  O   UNL     1      42.546  -5.165  45.941  1.00  0.00    -0.545 OA
ATOM      9  O   UNL     1      44.163  -3.563  46.144  1.00  0.00    -0.545 OA
ENDBRANCH   1   7
TORSDOF 1
ENDMDL
MODEL 7
REMARK VINA RESULT:    -3.302      2.576      3.506
REMARK INTER + INTRA:          -3.511
REMARK INTER:                  -3.495
REMARK INTRA:                  -0.016
REMARK UNBOUND:                -0.016
REMARK SMILES O=C([O-])c1cccnc1
REMARK SMILES IDX 4 1 5 2 9 3 6 4 8 5 7 6 2 7 1 8 3 9
REMARK H PARENT
REMARK Flexibility Score: inf
ROOT
ATOM      1  C   UNL     1      40.869  -0.578  47.005  1.00  0.00     0.016 A 
ATOM      2  C   UNL     1      40.196  -1.010  45.849  1.00  0.00     0.013 A 
ATOM      3  C   UNL     1      40.386  -1.001  48.256  1.00  0.00     0.120 A 
ATOM      4  C   UNL     1      39.077  -1.837  45.958  1.00  0.00     0.021 A 
ATOM      5  N   UNL     1      39.293  -1.806  48.332  1.00  0.00    -0.264 NA
ATOM      6  C   UNL     1      38.635  -2.229  47.221  1.00  0.00     0.111 A 
ENDROOT
BRANCH   1   7
ATOM      7  C   UNL     1      42.057   0.298  46.913  1.00  0.00     0.073 C 
ATOM      8  O   UNL     1      41.934   1.551  46.963  1.00  0.00    -0.545 OA
ATOM      9  O   UNL     1      43.326  -0.250  46.767  1.00  0.00    -0.545 OA
ENDBRANCH   1   7
TORSDOF 1
ENDMDL
MODEL 8
REMARK VINA RESULT:    -3.265      2.097      2.869
REMARK INTER + INTRA:          -3.472
REMARK INTER:                  -3.456
REMARK INTRA:                  -0.016
REMARK UNBOUND:                -0.016
REMARK SMILES O=C([O-])c1cccnc1
REMARK SMILES IDX 4 1 5 2 9 3 6 4 8 5 7 6 2 7 1 8 3 9
REMARK H PARENT
REMARK Flexibility Score: inf
ROOT
ATOM      1  C   UNL     1      40.604  -1.970  45.987  1.00  0.00     0.016 A 
ATOM      2  C   UNL     1      40.982  -3.258  45.572  1.00  0.00     0.013 A 
ATOM      3  C   UNL     1      41.563  -1.168  46.630  1.00  0.00     0.120 A 
ATOM      4  C   UNL     1      42.281  -3.715  45.801  1.00  0.00     0.021 A 
ATOM      5  N   UNL     1      42.821  -1.639  46.841  1.00  0.00    -0.264 NA
ATOM      6  C   UNL     1      43.196  -2.883  46.444  1.00  0.00     0.111 A 
ENDROOT
BRANCH   1   7
ATOM      7  C   UNL     1      39.234  -1.465  45.754  1.00  0.00     0.073 C 
ATOM      8  O   UNL     1      38.898  -1.021  44.623  1.00  0.00    -0.545 OA
ATOM      9  O   UNL     1      38.297  -1.474  46.781  1.00  0.00    -0.545 OA
ENDBRANCH   1   7
TORSDOF 1
ENDMDL
MODEL 9
REMARK VINA RESULT:    -3.240      2.559      3.437
REMARK INTER + INTRA:          -3.445
REMARK INTER:                  -3.426
REMARK INTRA:                  -0.019
REMARK UNBOUND:                -0.016
REMARK SMILES O=C([O-])c1cccnc1
REMARK SMILES IDX 4 1 5 2 9 3 6 4 8 5 7 6 2 7 1 8 3 9
REMARK H PARENT
REMARK Flexibility Score: inf
ROOT
ATOM      1  C   UNL     1      39.558  -3.124  47.348  1.00  0.00     0.016 A 
ATOM      2  C   UNL     1      39.047  -2.789  46.083  1.00  0.00     0.013 A 
ATOM      3  C   UNL     1      40.494  -2.259  47.941  1.00  0.00     0.120 A 
ATOM      4  C   UNL     1      39.469  -1.622  45.443  1.00  0.00     0.021 A 
ATOM      5  N   UNL     1      40.889  -1.130  47.295  1.00  0.00    -0.264 NA
ATOM      6  C   UNL     1      40.401  -0.796  46.071  1.00  0.00     0.111 A 
ENDROOT
BRANCH   1   7
ATOM      7  C   UNL     1      39.124  -4.356  48.043  1.00  0.00     0.073 C 
ATOM      8  O   UNL     1      37.899  -4.629  48.156  1.00  0.00    -0.545 OA
ATOM      9  O   UNL     1      40.062  -5.228  48.583  1.00  0.00    -0.545 OA
ENDBRANCH   1   7
TORSDOF 1
ENDMDL
