MODEL 1
REMARK VINA RESULT:    -4.433      0.000      0.000
REMARK INTER + INTRA:          -6.344
REMARK INTER:                  -5.988
REMARK INTRA:                  -0.356
REMARK UNBOUND:                -0.356
REMARK SMILES CC(=O)CCC=C(C)CCC=C(C)C
REMARK SMILES IDX 7 1 6 2 8 3 9 4 10 5 11 6 13 7 12 8 14 9 5 10 4 11 2 12 3 13
REMARK SMILES IDX 1 14
REMARK H PARENT
REMARK Flexibility Score: inf
ROOT
ATOM      1  C   UNL     1     -27.141 -13.252  24.759  1.00  0.00    -0.077 C 
ATOM      2  C   UNL     1     -27.128 -13.037  23.424  1.00  0.00    -0.028 C 
ATOM      3  C   UNL     1     -25.828 -13.484  25.461  1.00  0.00     0.039 C 
ENDROOT
BRANCH   1   4
ATOM      4  C   UNL     1     -28.421 -13.249  25.578  1.00  0.00     0.034 C 
BRANCH   4   5
ATOM      5  C   UNL     1     -28.751 -11.852  26.125  1.00  0.00     0.032 C 
BRANCH   5   6
ATOM      6  C   UNL     1     -27.704 -10.835  25.741  1.00  0.00    -0.028 C 
ATOM      7  C   UNL     1     -26.800  -8.632  25.137  1.00  0.00     0.039 C 
ATOM      8  C   UNL     1     -27.960  -9.540  25.454  1.00  0.00    -0.080 C 
ATOM      9  C   UNL     1     -29.366  -8.988  25.426  1.00  0.00     0.039 C 
ENDBRANCH   5   6
ENDBRANCH   4   5
ENDBRANCH   1   4
BRANCH   2  10
ATOM     10  C   UNL     1     -28.371 -12.825  22.594  1.00  0.00     0.035 C 
BRANCH  10  11
ATOM     11  C   UNL     1     -28.609 -14.001  21.642  1.00  0.00     0.079 C 
BRANCH  11  12
ATOM     12  C   UNL     1     -29.524 -15.018  22.267  1.00  0.00     0.130 C 
ATOM     13  O   UNL     1     -30.125 -14.742  23.294  1.00  0.00    -0.300 OA
ATOM     14  C   UNL     1     -29.723 -16.358  21.626  1.00  0.00     0.087 C 
ENDBRANCH  11  12
ENDBRANCH  10  11
ENDBRANCH   2  10
TORSDOF 6
ENDMDL
MODEL 2
REMARK VINA RESULT:    -4.392      1.131      1.690
REMARK INTER + INTRA:          -6.288
REMARK INTER:                  -5.366
REMARK INTRA:                  -0.922
REMARK UNBOUND:                -0.356
REMARK SMILES CC(=O)CCC=C(C)CCC=C(C)C
REMARK SMILES IDX 7 1 6 2 8 3 9 4 10 5 11 6 13 7 12 8 14 9 5 10 4 11 2 12 3 13
REMARK SMILES IDX 1 14
REMARK H PARENT
REMARK Flexibility Score: inf
ROOT
ATOM      1  C   UNL     1     -27.759 -12.206  23.581  1.00  0.00    -0.077 C 
ATOM      2  C   UNL     1     -28.643 -11.989  22.581  1.00  0.00    -0.028 C 
ATOM      3  C   UNL     1     -26.385 -11.598  23.468  1.00  0.00     0.039 C 
ENDROOT
BRANCH   1   4
ATOM      4  C   UNL     1     -28.104 -13.019  24.819  1.00  0.00     0.034 C 
BRANCH   4   5
ATOM      5  C   UNL     1     -28.161 -12.147  26.082  1.00  0.00     0.032 C 
BRANCH   5   6
ATOM      6  C   UNL     1     -29.182 -11.042  25.959  1.00  0.00    -0.028 C 
ATOM      7  C   UNL     1     -30.014  -8.740  25.755  1.00  0.00     0.039 C 
ATOM      8  C   UNL     1     -28.887  -9.724  25.935  1.00  0.00    -0.080 C 
ATOM      9  C   UNL     1     -27.475  -9.215  26.099  1.00  0.00     0.039 C 
ENDBRANCH   5   6
ENDBRANCH   4   5
ENDBRANCH   1   4
BRANCH   2  10
ATOM     10  C   UNL     1     -30.039 -12.566  22.552  1.00  0.00     0.035 C 
BRANCH  10  11
ATOM     11  C   UNL     1     -30.125 -13.758  21.594  1.00  0.00     0.079 C 
BRANCH  11  12
ATOM     12  C   UNL     1     -30.082 -15.057  22.353  1.00  0.00     0.130 C 
ATOM     13  O   UNL     1     -30.124 -15.047  23.574  1.00  0.00    -0.300 OA
ATOM     14  C   UNL     1     -30.012 -16.362  21.621  1.00  0.00     0.087 C 
ENDBRANCH  11  12
ENDBRANCH  10  11
ENDBRANCH   2  10
TORSDOF 6
ENDMDL
MODEL 3
REMARK VINA RESULT:    -4.248      2.384      5.153
REMARK INTER + INTRA:          -6.094
REMARK INTER:                  -5.559
REMARK INTRA:                  -0.535
REMARK UNBOUND:                -0.356
REMARK SMILES CC(=O)CCC=C(C)CCC=C(C)C
REMARK SMILES IDX 7 1 6 2 8 3 9 4 10 5 11 6 13 7 12 8 14 9 5 10 4 11 2 12 3 13
REMARK SMILES IDX 1 14
REMARK H PARENT
REMARK Flexibility Score: inf
ROOT
ATOM      1  C   UNL     1     -28.337 -12.900  25.474  1.00  0.00    -0.077 C 
ATOM      2  C   UNL     1     -28.275 -11.609  25.871  1.00  0.00    -0.028 C 
ATOM      3  C   UNL     1     -27.047 -13.636  25.222  1.00  0.00     0.039 C 
ENDROOT
BRANCH   1   4
ATOM      4  C   UNL     1     -29.653 -13.640  25.293  1.00  0.00     0.034 C 
BRANCH   4   5
ATOM      5  C   UNL     1     -29.756 -14.298  23.909  1.00  0.00     0.032 C 
BRANCH   5   6
ATOM      6  C   UNL     1     -30.125 -13.301  22.837  1.00  0.00    -0.028 C 
ATOM      7  C   UNL     1     -29.848 -11.968  20.793  1.00  0.00     0.039 C 
ATOM      8  C   UNL     1     -29.318 -12.940  21.816  1.00  0.00    -0.080 C 
ATOM      9  C   UNL     1     -27.908 -13.465  21.683  1.00  0.00     0.039 C 
ENDBRANCH   5   6
ENDBRANCH   4   5
ENDBRANCH   1   4
BRANCH   2  10
ATOM     10  C   UNL     1     -29.489 -10.747  26.125  1.00  0.00     0.035 C 
BRANCH  10  11
ATOM     11  C   UNL     1     -29.141  -9.258  26.029  1.00  0.00     0.079 C 
BRANCH  11  12
ATOM     12  C   UNL     1     -27.783  -9.066  25.411  1.00  0.00     0.130 C 
ATOM     13  O   UNL     1     -26.862  -8.643  26.093  1.00  0.00    -0.300 OA
ATOM     14  C   UNL     1     -27.546  -9.413  23.973  1.00  0.00     0.087 C 
ENDBRANCH  11  12
ENDBRANCH  10  11
ENDBRANCH   2  10
TORSDOF 6
ENDMDL
MODEL 4
REMARK VINA RESULT:    -4.186      1.841      3.475
REMARK INTER + INTRA:          -6.009
REMARK INTER:                  -5.145
REMARK INTRA:                  -0.865
REMARK UNBOUND:                -0.356
REMARK SMILES CC(=O)CCC=C(C)CCC=C(C)C
REMARK SMILES IDX 7 1 6 2 8 3 9 4 10 5 11 6 13 7 12 8 14 9 5 10 4 11 2 12 3 13
REMARK SMILES IDX 1 14
REMARK H PARENT
REMARK Flexibility Score: inf
ROOT
ATOM      1  C   UNL     1     -29.416 -12.705  22.409  1.00  0.00    -0.077 C 
ATOM      2  C   UNL     1     -28.282 -13.412  22.209  1.00  0.00    -0.028 C 
ATOM      3  C   UNL     1     -30.059 -12.030  21.225  1.00  0.00     0.039 C 
ENDROOT
BRANCH   1   4
ATOM      4  C   UNL     1     -30.076 -12.581  23.773  1.00  0.00     0.034 C 
BRANCH   4   5
ATOM      5  C   UNL     1     -30.114 -11.126  24.264  1.00  0.00     0.032 C 
BRANCH   5   6
ATOM      6  C   UNL     1     -28.731 -10.595  24.557  1.00  0.00    -0.028 C 
ATOM      7  C   UNL     1     -27.040  -9.043  25.433  1.00  0.00     0.039 C 
ATOM      8  C   UNL     1     -28.475  -9.414  25.162  1.00  0.00    -0.080 C 
ATOM      9  C   UNL     1     -29.577  -8.459  25.554  1.00  0.00     0.039 C 
ENDBRANCH   5   6
ENDBRANCH   4   5
ENDBRANCH   1   4
BRANCH   2  10
ATOM     10  C   UNL     1     -27.518 -14.107  23.311  1.00  0.00     0.035 C 
BRANCH  10  11
ATOM     11  C   UNL     1     -26.475 -13.175  23.936  1.00  0.00     0.079 C 
BRANCH  11  12
ATOM     12  C   UNL     1     -26.414 -13.366  25.427  1.00  0.00     0.130 C 
ATOM     13  O   UNL     1     -27.433 -13.268  26.093  1.00  0.00    -0.300 OA
ATOM     14  C   UNL     1     -25.116 -13.699  26.097  1.00  0.00     0.087 C 
ENDBRANCH  11  12
ENDBRANCH  10  11
ENDBRANCH   2  10
TORSDOF 6
ENDMDL
MODEL 5
REMARK VINA RESULT:    -4.161      2.125      5.635
REMARK INTER + INTRA:          -5.976
REMARK INTER:                  -4.953
REMARK INTRA:                  -1.023
REMARK UNBOUND:                -0.356
REMARK SMILES CC(=O)CCC=C(C)CCC=C(C)C
REMARK SMILES IDX 7 1 6 2 8 3 9 4 10 5 11 6 13 7 12 8 14 9 5 10 4 11 2 12 3 13
REMARK SMILES IDX 1 14
REMARK H PARENT
REMARK Flexibility Score: inf
ROOT
ATOM      1  C   UNL     1     -27.622 -12.396  23.118  1.00  0.00    -0.077 C 
ATOM      2  C   UNL     1     -27.270 -12.490  24.420  1.00  0.00    -0.028 C 
ATOM      3  C   UNL     1     -26.736 -13.047  22.087  1.00  0.00     0.039 C 
ENDROOT
BRANCH   1   4
ATOM      4  C   UNL     1     -28.880 -11.679  22.658  1.00  0.00     0.034 C 
BRANCH   4   5
ATOM      5  C   UNL     1     -30.125 -12.572  22.771  1.00  0.00     0.032 C 
BRANCH   5   6
ATOM      6  C   UNL     1     -29.970 -13.855  21.992  1.00  0.00    -0.028 C 
ATOM      7  C   UNL     1     -29.880 -16.282  21.620  1.00  0.00     0.039 C 
ATOM      8  C   UNL     1     -29.998 -15.092  22.536  1.00  0.00    -0.080 C 
ATOM      9  C   UNL     1     -30.125 -15.309  24.025  1.00  0.00     0.039 C 
ENDBRANCH   5   6
ENDBRANCH   4   5
ENDBRANCH   1   4
BRANCH   2  10
ATOM     10  C   UNL     1     -28.047 -11.856  25.549  1.00  0.00     0.035 C 
BRANCH  10  11
ATOM     11  C   UNL     1     -27.305 -10.643  26.120  1.00  0.00     0.079 C 
BRANCH  11  12
ATOM     12  C   UNL     1     -27.754  -9.375  25.446  1.00  0.00     0.130 C 
ATOM     13  O   UNL     1     -26.963  -8.735  24.771  1.00  0.00    -0.300 OA
ATOM     14  C   UNL     1     -29.172  -8.907  25.576  1.00  0.00     0.087 C 
ENDBRANCH  11  12
ENDBRANCH  10  11
ENDBRANCH   2  10
TORSDOF 6
ENDMDL
MODEL 6
REMARK VINA RESULT:    -3.974      2.181      5.062
REMARK INTER + INTRA:          -5.724
REMARK INTER:                  -4.448
REMARK INTRA:                  -1.275
REMARK UNBOUND:                -0.356
REMARK SMILES CC(=O)CCC=C(C)CCC=C(C)C
REMARK SMILES IDX 7 1 6 2 8 3 9 4 10 5 11 6 13 7 12 8 14 9 5 10 4 11 2 12 3 13
REMARK SMILES IDX 1 14
REMARK H PARENT
REMARK Flexibility Score: inf
ROOT
ATOM      1  C   UNL     1     -30.081 -12.418  22.526  1.00  0.00    -0.077 C 
ATOM      2  C   UNL     1     -30.125 -11.416  23.433  1.00  0.00    -0.028 C 
ATOM      3  C   UNL     1     -30.125 -12.061  21.062  1.00  0.00     0.039 C 
ENDROOT
BRANCH   1   4
ATOM      4  C   UNL     1     -29.971 -13.881  22.923  1.00  0.00     0.034 C 
BRANCH   4   5
ATOM      5  C   UNL     1     -28.573 -14.450  22.639  1.00  0.00     0.032 C 
BRANCH   5   6
ATOM      6  C   UNL     1     -27.664 -14.336  23.839  1.00  0.00    -0.028 C 
ATOM      7  C   UNL     1     -25.986 -13.323  25.321  1.00  0.00     0.039 C 
ATOM      8  C   UNL     1     -26.791 -13.325  24.047  1.00  0.00    -0.080 C 
ATOM      9  C   UNL     1     -26.591 -12.218  23.039  1.00  0.00     0.039 C 
ENDBRANCH   5   6
ENDBRANCH   4   5
ENDBRANCH   1   4
BRANCH   2  10
ATOM     10  C   UNL     1     -30.124 -11.635  24.928  1.00  0.00     0.035 C 
BRANCH  10  11
ATOM     11  C   UNL     1     -28.840 -11.094  25.565  1.00  0.00     0.079 C 
BRANCH  11  12
ATOM     12  C   UNL     1     -28.738  -9.605  25.381  1.00  0.00     0.130 C 
ATOM     13  O   UNL     1     -29.726  -8.905  25.543  1.00  0.00    -0.300 OA
ATOM     14  C   UNL     1     -27.428  -8.971  25.024  1.00  0.00     0.087 C 
ENDBRANCH  11  12
ENDBRANCH  10  11
ENDBRANCH   2  10
TORSDOF 6
ENDMDL
MODEL 7
REMARK VINA RESULT:    -3.780      2.171      5.573
REMARK INTER + INTRA:          -5.461
REMARK INTER:                  -5.229
REMARK INTRA:                  -0.232
REMARK UNBOUND:                -0.356
REMARK SMILES CC(=O)CCC=C(C)CCC=C(C)C
REMARK SMILES IDX 7 1 6 2 8 3 9 4 10 5 11 6 13 7 12 8 14 9 5 10 4 11 2 12 3 13
REMARK SMILES IDX 1 14
REMARK H PARENT
REMARK Flexibility Score: inf
ROOT
ATOM      1  C   UNL     1     -29.328 -12.972  25.425  1.00  0.00    -0.077 C 
ATOM      2  C   UNL     1     -29.976 -11.883  25.897  1.00  0.00    -0.028 C 
ATOM      3  C   UNL     1     -30.085 -14.272  25.332  1.00  0.00     0.039 C 
ENDROOT
BRANCH   1   4
ATOM      4  C   UNL     1     -27.880 -12.931  24.968  1.00  0.00     0.034 C 
BRANCH   4   5
ATOM      5  C   UNL     1     -27.756 -13.012  23.439  1.00  0.00     0.032 C 
BRANCH   5   6
ATOM      6  C   UNL     1     -28.096 -14.387  22.918  1.00  0.00    -0.028 C 
ATOM      7  C   UNL     1     -29.317 -16.081  21.624  1.00  0.00     0.039 C 
ATOM      8  C   UNL     1     -29.136 -14.663  22.102  1.00  0.00    -0.080 C 
ATOM      9  C   UNL     1     -30.123 -13.603  21.674  1.00  0.00     0.039 C 
ENDBRANCH   5   6
ENDBRANCH   4   5
ENDBRANCH   1   4
BRANCH   2  10
ATOM     10  C   UNL     1     -29.328 -10.530  26.073  1.00  0.00     0.035 C 
BRANCH  10  11
ATOM     11  C   UNL     1     -28.896  -9.943  24.726  1.00  0.00     0.079 C 
BRANCH  11  12
ATOM     12  C   UNL     1     -27.591  -9.205  24.859  1.00  0.00     0.130 C 
ATOM     13  O   UNL     1     -27.190  -8.513  23.936  1.00  0.00    -0.300 OA
ATOM     14  C   UNL     1     -26.794  -9.294  26.124  1.00  0.00     0.087 C 
ENDBRANCH  11  12
ENDBRANCH  10  11
ENDBRANCH   2  10
TORSDOF 6
ENDMDL
MODEL 8
REMARK VINA RESULT:    -3.421      1.485      3.099
REMARK INTER + INTRA:          -4.977
REMARK INTER:                  -4.152
REMARK INTRA:                  -0.825
REMARK UNBOUND:                -0.356
REMARK SMILES CC(=O)CCC=C(C)CCC=C(C)C
REMARK SMILES IDX 7 1 6 2 8 3 9 4 10 5 11 6 13 7 12 8 14 9 5 10 4 11 2 12 3 13
REMARK SMILES IDX 1 14
REMARK H PARENT
REMARK Flexibility Score: inf
ROOT
ATOM      1  C   UNL     1     -28.864 -11.106  23.924  1.00  0.00    -0.077 C 
ATOM      2  C   UNL     1     -29.176 -11.668  22.735  1.00  0.00    -0.028 C 
ATOM      3  C   UNL     1     -27.874  -9.970  23.942  1.00  0.00     0.039 C 
ENDROOT
BRANCH   1   4
ATOM      4  C   UNL     1     -29.486 -11.560  25.234  1.00  0.00     0.034 C 
BRANCH   4   5
ATOM      5  C   UNL     1     -29.073 -12.993  25.601  1.00  0.00     0.032 C 
BRANCH   5   6
ATOM      6  C   UNL     1     -27.657 -13.057  26.120  1.00  0.00    -0.028 C 
ATOM      7  C   UNL     1     -25.221 -13.362  26.023  1.00  0.00     0.039 C 
ATOM      8  C   UNL     1     -26.581 -13.393  25.375  1.00  0.00    -0.080 C 
ATOM      9  C   UNL     1     -26.706 -13.813  23.929  1.00  0.00     0.039 C 
ENDBRANCH   5   6
ENDBRANCH   4   5
ENDBRANCH   1   4
BRANCH   2  10
ATOM     10  C   UNL     1     -30.125 -12.832  22.578  1.00  0.00     0.035 C 
BRANCH  10  11
ATOM     11  C   UNL     1     -29.556 -13.885  21.621  1.00  0.00     0.079 C 
BRANCH  11  12
ATOM     12  C   UNL     1     -29.664 -15.262  22.217  1.00  0.00     0.130 C 
ATOM     13  O   UNL     1     -29.354 -16.237  21.549  1.00  0.00    -0.300 OA
ATOM     14  C   UNL     1     -30.125 -15.444  23.631  1.00  0.00     0.087 C 
ENDBRANCH  11  12
ENDBRANCH  10  11
ENDBRANCH   2  10
TORSDOF 6
ENDMDL
