MODEL 1
REMARK VINA RESULT:    -1.228      0.000      0.000
REMARK INTER + INTRA:          -3.818
REMARK INTER:                  -3.094
REMARK INTRA:                  -0.723
REMARK UNBOUND:                -0.723
REMARK SMILES CCCCCCCCCCCCCCCCCCCCCCCCCCCC(=O)[O-]
REMARK SMILES IDX 15 1 16 2 17 3 18 4 19 5 20 6 21 7 22 8 23 9 24 10 25 11
REMARK SMILES IDX 26 12 27 13 28 14 29 15 30 16 14 17 13 18 12 19 11 20 10 21
REMARK SMILES IDX 9 22 8 23 7 24 6 25 5 26 4 27 3 28 2 29 1 30
REMARK H PARENT
REMARK Flexibility Score: inf
ROOT
ATOM      1  C   UNL     1       6.141   5.071  54.329  1.00  0.00     0.000 C 
ENDROOT
BRANCH   1   2
ATOM      2  C   UNL     1       5.636   3.804  53.607  1.00  0.00     0.000 C 
BRANCH   2   3
ATOM      3  C   UNL     1       5.894   3.771  52.091  1.00  0.00     0.000 C 
BRANCH   3   4
ATOM      4  C   UNL     1       5.982   2.343  51.533  1.00  0.00     0.000 C 
BRANCH   4   5
ATOM      5  C   UNL     1       7.443   1.876  51.438  1.00  0.00     0.000 C 
BRANCH   5   6
ATOM      6  C   UNL     1       7.978   1.901  49.997  1.00  0.00     0.000 C 
BRANCH   6   7
ATOM      7  C   UNL     1       9.441   2.374  49.921  1.00  0.00     0.000 C 
BRANCH   7   8
ATOM      8  C   UNL     1      10.169   2.260  51.271  1.00  0.00     0.000 C 
BRANCH   8   9
ATOM      9  C   UNL     1      11.637   2.717  51.192  1.00  0.00     0.000 C 
BRANCH   9  10
ATOM     10  C   UNL     1      11.783   4.250  51.175  1.00  0.00     0.000 C 
BRANCH  10  11
ATOM     11  C   UNL     1      12.379   4.832  49.880  1.00  0.00     0.000 C 
BRANCH  11  12
ATOM     12  C   UNL     1      13.792   5.401  50.077  1.00  0.00     0.006 C 
BRANCH  12  13
ATOM     13  C   UNL     1      13.784   6.929  49.986  1.00  0.00     0.053 C 
BRANCH  13  14
ATOM     14  C   UNL     1      12.555   7.491  50.630  1.00  0.00     0.041 C 
ATOM     15  O   UNL     1      12.566   7.818  51.846  1.00  0.00    -0.550 OA
ATOM     16  O   UNL     1      11.389   7.630  49.889  1.00  0.00    -0.550 OA
ENDBRANCH  13  14
ENDBRANCH  12  13
ENDBRANCH  11  12
ENDBRANCH  10  11
ENDBRANCH   9  10
ENDBRANCH   8   9
ENDBRANCH   7   8
ENDBRANCH   6   7
ENDBRANCH   5   6
ENDBRANCH   4   5
ENDBRANCH   3   4
ENDBRANCH   2   3
ENDBRANCH   1   2
BRANCH   1  17
ATOM     17  C   UNL     1       7.106   4.814  55.501  1.00  0.00     0.000 C 
BRANCH  17  18
ATOM     18  C   UNL     1       8.464   5.506  55.311  1.00  0.00     0.000 C 
BRANCH  18  19
ATOM     19  C   UNL     1       9.166   5.014  54.040  1.00  0.00     0.000 C 
BRANCH  19  20
ATOM     20  C   UNL     1       8.266   5.206  52.811  1.00  0.00     0.000 C 
BRANCH  20  21
ATOM     21  C   UNL     1       9.052   5.574  51.543  1.00  0.00     0.000 C 
BRANCH  21  22
ATOM     22  C   UNL     1       8.153   6.149  50.432  1.00  0.00    -0.000 C 
BRANCH  22  23
ATOM     23  C   UNL     1       6.759   6.570  50.943  1.00  0.00    -0.000 C 
BRANCH  23  24
ATOM     24  C   UNL     1       5.649   6.508  49.875  1.00  0.00    -0.000 C 
BRANCH  24  25
ATOM     25  C   UNL     1       4.212   6.398  50.418  1.00  0.00    -0.000 C 
BRANCH  25  26
ATOM     26  C   UNL     1       3.395   5.207  49.884  1.00  0.00    -0.000 C 
BRANCH  26  27
ATOM     27  C   UNL     1       2.362   4.684  50.895  1.00  0.00    -0.000 C 
BRANCH  27  28
ATOM     28  C   UNL     1       1.002   4.367  50.250  1.00  0.00    -0.000 C 
BRANCH  28  29
ATOM     29  C   UNL     1       0.122   5.613  50.016  1.00  0.00    -0.003 C 
ATOM     30  C   UNL     1      -1.366   5.314  50.207  1.00  0.00     0.004 C 
ENDBRANCH  28  29
ENDBRANCH  27  28
ENDBRANCH  26  27
ENDBRANCH  25  26
ENDBRANCH  24  25
ENDBRANCH  23  24
ENDBRANCH  22  23
ENDBRANCH  21  22
ENDBRANCH  20  21
ENDBRANCH  19  20
ENDBRANCH  18  19
ENDBRANCH  17  18
ENDBRANCH   1  17
TORSDOF 26
ENDMDL
MODEL 2
REMARK VINA RESULT:    -1.194      4.155     10.763
REMARK INTER + INTRA:          -3.731
REMARK INTER:                  -3.683
REMARK INTRA:                  -0.048
REMARK UNBOUND:                -0.723
REMARK SMILES CCCCCCCCCCCCCCCCCCCCCCCCCCCC(=O)[O-]
REMARK SMILES IDX 15 1 16 2 17 3 18 4 19 5 20 6 21 7 22 8 23 9 24 10 25 11
REMARK SMILES IDX 26 12 27 13 28 14 29 15 30 16 14 17 13 18 12 19 11 20 10 21
REMARK SMILES IDX 9 22 8 23 7 24 6 25 5 26 4 27 3 28 2 29 1 30
REMARK H PARENT
REMARK Flexibility Score: inf
ROOT
ATOM      1  C   UNL     1       4.649   7.112  50.105  1.00  0.00     0.000 C 
ENDROOT
BRANCH   1   2
ATOM      2  C   UNL     1       3.437   7.451  50.998  1.00  0.00     0.000 C 
BRANCH   2   3
ATOM      3  C   UNL     1       2.470   6.282  51.255  1.00  0.00     0.000 C 
BRANCH   3   4
ATOM      4  C   UNL     1       1.930   5.660  49.959  1.00  0.00     0.000 C 
BRANCH   4   5
ATOM      5  C   UNL     1       0.401   5.798  49.876  1.00  0.00     0.000 C 
BRANCH   5   6
ATOM      6  C   UNL     1      -0.328   4.882  50.872  1.00  0.00     0.000 C 
BRANCH   6   7
ATOM      7  C   UNL     1      -1.754   4.530  50.411  1.00  0.00     0.000 C 
BRANCH   7   8
ATOM      8  C   UNL     1      -2.165   3.100  50.801  1.00  0.00     0.000 C 
BRANCH   8   9
ATOM      9  C   UNL     1      -3.635   2.793  50.462  1.00  0.00     0.000 C 
BRANCH   9  10
ATOM     10  C   UNL     1      -4.593   3.920  50.888  1.00  0.00     0.000 C 
BRANCH  10  11
ATOM     11  C   UNL     1      -4.710   5.087  49.891  1.00  0.00     0.000 C 
BRANCH  11  12
ATOM     12  C   UNL     1      -4.678   6.462  50.576  1.00  0.00     0.006 C 
BRANCH  12  13
ATOM     13  C   UNL     1      -3.691   7.399  49.875  1.00  0.00     0.053 C 
BRANCH  13  14
ATOM     14  C   UNL     1      -3.079   8.351  50.855  1.00  0.00     0.041 C 
ATOM     15  O   UNL     1      -3.630   8.561  51.968  1.00  0.00    -0.550 OA
ATOM     16  O   UNL     1      -1.910   9.025  50.527  1.00  0.00    -0.550 OA
ENDBRANCH  13  14
ENDBRANCH  12  13
ENDBRANCH  11  12
ENDBRANCH  10  11
ENDBRANCH   9  10
ENDBRANCH   8   9
ENDBRANCH   7   8
ENDBRANCH   6   7
ENDBRANCH   5   6
ENDBRANCH   4   5
ENDBRANCH   3   4
ENDBRANCH   2   3
ENDBRANCH   1   2
BRANCH   1  17
ATOM     17  C   UNL     1       5.398   5.821  50.485  1.00  0.00     0.000 C 
BRANCH  17  18
ATOM     18  C   UNL     1       5.386   5.553  51.997  1.00  0.00     0.000 C 
BRANCH  18  19
ATOM     19  C   UNL     1       5.957   4.167  52.320  1.00  0.00     0.000 C 
BRANCH  19  20
ATOM     20  C   UNL     1       5.178   3.070  51.579  1.00  0.00     0.000 C 
BRANCH  20  21
ATOM     21  C   UNL     1       5.644   2.882  50.127  1.00  0.00     0.000 C 
BRANCH  21  22
ATOM     22  C   UNL     1       6.985   2.130  50.026  1.00  0.00    -0.000 C 
BRANCH  22  23
ATOM     23  C   UNL     1       7.920   2.404  51.223  1.00  0.00    -0.000 C 
BRANCH  23  24
ATOM     24  C   UNL     1       9.372   2.741  50.828  1.00  0.00    -0.000 C 
BRANCH  24  25
ATOM     25  C   UNL     1      10.278   3.220  51.978  1.00  0.00    -0.000 C 
BRANCH  25  26
ATOM     26  C   UNL     1       9.878   4.563  52.616  1.00  0.00    -0.000 C 
BRANCH  26  27
ATOM     27  C   UNL     1      10.817   5.717  52.228  1.00  0.00    -0.000 C 
BRANCH  27  28
ATOM     28  C   UNL     1      11.613   5.433  50.942  1.00  0.00    -0.000 C 
BRANCH  28  29
ATOM     29  C   UNL     1      12.026   6.706  50.175  1.00  0.00    -0.003 C 
ATOM     30  C   UNL     1      13.425   7.187  50.562  1.00  0.00     0.004 C 
ENDBRANCH  28  29
ENDBRANCH  27  28
ENDBRANCH  26  27
ENDBRANCH  25  26
ENDBRANCH  24  25
ENDBRANCH  23  24
ENDBRANCH  22  23
ENDBRANCH  21  22
ENDBRANCH  20  21
ENDBRANCH  19  20
ENDBRANCH  18  19
ENDBRANCH  17  18
ENDBRANCH   1  17
TORSDOF 26
ENDMDL
MODEL 3
REMARK VINA RESULT:    -0.843      4.703      9.385
REMARK INTER + INTRA:          -2.849
REMARK INTER:                  -0.334
REMARK INTRA:                  -2.515
REMARK UNBOUND:                -0.723
REMARK SMILES CCCCCCCCCCCCCCCCCCCCCCCCCCCC(=O)[O-]
REMARK SMILES IDX 15 1 16 2 17 3 18 4 19 5 20 6 21 7 22 8 23 9 24 10 25 11
REMARK SMILES IDX 26 12 27 13 28 14 29 15 30 16 14 17 13 18 12 19 11 20 10 21
REMARK SMILES IDX 9 22 8 23 7 24 6 25 5 26 4 27 3 28 2 29 1 30
REMARK H PARENT
REMARK Flexibility Score: inf
ROOT
ATOM      1  C   UNL     1       7.422   5.818  54.618  1.00  0.00     0.000 C 
ENDROOT
BRANCH   1   2
ATOM      2  C   UNL     1       6.244   4.914  55.038  1.00  0.00     0.000 C 
BRANCH   2   3
ATOM      3  C   UNL     1       5.212   4.633  53.932  1.00  0.00     0.000 C 
BRANCH   3   4
ATOM      4  C   UNL     1       5.549   3.381  53.108  1.00  0.00     0.000 C 
BRANCH   4   5
ATOM      5  C   UNL     1       5.099   3.545  51.647  1.00  0.00     0.000 C 
BRANCH   5   6
ATOM      6  C   UNL     1       4.119   4.714  51.460  1.00  0.00     0.000 C 
BRANCH   6   7
ATOM      7  C   UNL     1       3.104   4.455  50.331  1.00  0.00     0.000 C 
BRANCH   7   8
ATOM      8  C   UNL     1       2.290   3.168  50.553  1.00  0.00     0.000 C 
BRANCH   8   9
ATOM      9  C   UNL     1       0.909   3.218  49.875  1.00  0.00     0.000 C 
BRANCH   9  10
ATOM     10  C   UNL     1      -0.138   3.976  50.711  1.00  0.00     0.000 C 
BRANCH  10  11
ATOM     11  C   UNL     1      -1.509   4.153  50.033  1.00  0.00     0.000 C 
BRANCH  11  12
ATOM     12  C   UNL     1      -2.497   3.030  50.382  1.00  0.00     0.006 C 
BRANCH  12  13
ATOM     13  C   UNL     1      -3.910   3.376  49.904  1.00  0.00     0.053 C 
BRANCH  13  14
ATOM     14  C   UNL     1      -4.803   3.679  51.066  1.00  0.00     0.041 C 
ATOM     15  O   UNL     1      -4.739   2.985  52.115  1.00  0.00    -0.550 OA
ATOM     16  O   UNL     1      -5.724   4.714  50.980  1.00  0.00    -0.550 OA
ENDBRANCH  13  14
ENDBRANCH  12  13
ENDBRANCH  11  12
ENDBRANCH  10  11
ENDBRANCH   9  10
ENDBRANCH   8   9
ENDBRANCH   7   8
ENDBRANCH   6   7
ENDBRANCH   5   6
ENDBRANCH   4   5
ENDBRANCH   3   4
ENDBRANCH   2   3
ENDBRANCH   1   2
BRANCH   1  17
ATOM     17  C   UNL     1       8.764   5.091  54.418  1.00  0.00     0.000 C 
BRANCH  17  18
ATOM     18  C   UNL     1       9.088   4.841  52.938  1.00  0.00     0.000 C 
BRANCH  18  19
ATOM     19  C   UNL     1       8.787   3.392  52.539  1.00  0.00     0.000 C 
BRANCH  19  20
ATOM     20  C   UNL     1      10.079   2.648  52.172  1.00  0.00     0.000 C 
BRANCH  20  21
ATOM     21  C   UNL     1      11.019   3.480  51.285  1.00  0.00     0.000 C 
BRANCH  21  22
ATOM     22  C   UNL     1      12.321   3.877  52.007  1.00  0.00    -0.000 C 
BRANCH  22  23
ATOM     23  C   UNL     1      13.171   4.883  51.204  1.00  0.00    -0.000 C 
BRANCH  23  24
ATOM     24  C   UNL     1      12.347   5.888  50.375  1.00  0.00    -0.000 C 
BRANCH  24  25
ATOM     25  C   UNL     1      12.068   7.240  51.058  1.00  0.00    -0.000 C 
BRANCH  25  26
ATOM     26  C   UNL     1      10.606   7.719  50.997  1.00  0.00    -0.000 C 
BRANCH  26  27
ATOM     27  C   UNL     1       9.655   6.675  50.391  1.00  0.00    -0.000 C 
BRANCH  27  28
ATOM     28  C   UNL     1       8.340   7.288  49.881  1.00  0.00    -0.000 C 
BRANCH  28  29
ATOM     29  C   UNL     1       7.117   6.363  50.050  1.00  0.00    -0.003 C 
ATOM     30  C   UNL     1       5.827   7.147  50.292  1.00  0.00     0.004 C 
ENDBRANCH  28  29
ENDBRANCH  27  28
ENDBRANCH  26  27
ENDBRANCH  25  26
ENDBRANCH  24  25
ENDBRANCH  23  24
ENDBRANCH  22  23
ENDBRANCH  21  22
ENDBRANCH  20  21
ENDBRANCH  19  20
ENDBRANCH  18  19
ENDBRANCH  17  18
ENDBRANCH   1  17
TORSDOF 26
ENDMDL
MODEL 4
REMARK VINA RESULT:    -0.465      4.624     10.810
REMARK INTER + INTRA:          -1.894
REMARK INTER:                  -5.015
REMARK INTRA:                   3.120
REMARK UNBOUND:                -0.723
REMARK SMILES CCCCCCCCCCCCCCCCCCCCCCCCCCCC(=O)[O-]
REMARK SMILES IDX 15 1 16 2 17 3 18 4 19 5 20 6 21 7 22 8 23 9 24 10 25 11
REMARK SMILES IDX 26 12 27 13 28 14 29 15 30 16 14 17 13 18 12 19 11 20 10 21
REMARK SMILES IDX 9 22 8 23 7 24 6 25 5 26 4 27 3 28 2 29 1 30
REMARK H PARENT
REMARK Flexibility Score: inf
ROOT
ATOM      1  C   UNL     1       5.183   7.171  50.239  1.00  0.00     0.000 C 
ENDROOT
BRANCH   1   2
ATOM      2  C   UNL     1       4.051   7.377  51.267  1.00  0.00     0.000 C 
BRANCH   2   3
ATOM      3  C   UNL     1       3.053   6.210  51.379  1.00  0.00     0.000 C 
BRANCH   3   4
ATOM      4  C   UNL     1       2.717   5.582  50.019  1.00  0.00     0.000 C 
BRANCH   4   5
ATOM      5  C   UNL     1       1.212   5.295  49.900  1.00  0.00     0.000 C 
BRANCH   5   6
ATOM      6  C   UNL     1       0.827   3.918  50.466  1.00  0.00     0.000 C 
BRANCH   6   7
ATOM      7  C   UNL     1      -0.688   3.656  50.394  1.00  0.00     0.000 C 
BRANCH   7   8
ATOM      8  C   UNL     1      -1.027   2.155  50.382  1.00  0.00     0.000 C 
BRANCH   8   9
ATOM      9  C   UNL     1      -2.476   1.879  49.943  1.00  0.00     0.000 C 
BRANCH   9  10
ATOM     10  C   UNL     1      -3.508   2.685  50.753  1.00  0.00     0.000 C 
BRANCH  10  11
ATOM     11  C   UNL     1      -4.516   3.486  49.909  1.00  0.00     0.000 C 
BRANCH  11  12
ATOM     12  C   UNL     1      -5.520   4.272  50.766  1.00  0.00     0.006 C 
BRANCH  12  13
ATOM     13  C   UNL     1      -5.929   5.575  50.073  1.00  0.00     0.053 C 
BRANCH  13  14
ATOM     14  C   UNL     1      -4.814   6.572  50.123  1.00  0.00     0.041 C 
ATOM     15  O   UNL     1      -3.644   6.206  50.409  1.00  0.00    -0.550 OA
ATOM     16  O   UNL     1      -5.074   7.914  49.875  1.00  0.00    -0.550 OA
ENDBRANCH  13  14
ENDBRANCH  12  13
ENDBRANCH  11  12
ENDBRANCH  10  11
ENDBRANCH   9  10
ENDBRANCH   8   9
ENDBRANCH   7   8
ENDBRANCH   6   7
ENDBRANCH   5   6
ENDBRANCH   4   5
ENDBRANCH   3   4
ENDBRANCH   2   3
ENDBRANCH   1   2
BRANCH   1  17
ATOM     17  C   UNL     1       6.108   5.972  50.519  1.00  0.00     0.000 C 
BRANCH  17  18
ATOM     18  C   UNL     1       5.699   5.188  51.774  1.00  0.00     0.000 C 
BRANCH  18  19
ATOM     19  C   UNL     1       5.549   3.692  51.472  1.00  0.00     0.000 C 
BRANCH  19  20
ATOM     20  C   UNL     1       6.299   3.319  50.185  1.00  0.00     0.000 C 
BRANCH  20  21
ATOM     21  C   UNL     1       7.558   4.170  49.956  1.00  0.00     0.000 C 
BRANCH  21  22
ATOM     22  C   UNL     1       8.603   3.997  51.075  1.00  0.00    -0.000 C 
BRANCH  22  23
ATOM     23  C   UNL     1       8.951   2.519  51.352  1.00  0.00    -0.000 C 
BRANCH  23  24
ATOM     24  C   UNL     1      10.292   2.311  52.082  1.00  0.00    -0.000 C 
BRANCH  24  25
ATOM     25  C   UNL     1      11.504   3.033  51.462  1.00  0.00    -0.000 C 
BRANCH  25  26
ATOM     26  C   UNL     1      11.211   3.824  50.174  1.00  0.00    -0.000 C 
BRANCH  26  27
ATOM     27  C   UNL     1      11.409   5.339  50.340  1.00  0.00    -0.000 C 
BRANCH  27  28
ATOM     28  C   UNL     1      10.380   5.976  51.290  1.00  0.00    -0.000 C 
BRANCH  28  29
ATOM     29  C   UNL     1      11.010   6.874  52.374  1.00  0.00    -0.003 C 
ATOM     30  C   UNL     1      10.956   6.233  53.761  1.00  0.00     0.004 C 
ENDBRANCH  28  29
ENDBRANCH  27  28
ENDBRANCH  26  27
ENDBRANCH  25  26
ENDBRANCH  24  25
ENDBRANCH  23  24
ENDBRANCH  22  23
ENDBRANCH  21  22
ENDBRANCH  20  21
ENDBRANCH  19  20
ENDBRANCH  18  19
ENDBRANCH  17  18
ENDBRANCH   1  17
TORSDOF 26
ENDMDL
MODEL 5
REMARK VINA RESULT:    -0.062     18.871     22.936
REMARK INTER + INTRA:          -0.879
REMARK INTER:                   0.142
REMARK INTRA:                  -1.022
REMARK UNBOUND:                -0.723
REMARK SMILES CCCCCCCCCCCCCCCCCCCCCCCCCCCC(=O)[O-]
REMARK SMILES IDX 15 1 16 2 17 3 18 4 19 5 20 6 21 7 22 8 23 9 24 10 25 11
REMARK SMILES IDX 26 12 27 13 28 14 29 15 30 16 14 17 13 18 12 19 11 20 10 21
REMARK SMILES IDX 9 22 8 23 7 24 6 25 5 26 4 27 3 28 2 29 1 30
REMARK H PARENT
REMARK Flexibility Score: inf
ROOT
ATOM      1  C   UNL     1       4.597  17.136  68.182  1.00  0.00     0.000 C 
ENDROOT
BRANCH   1   2
ATOM      2  C   UNL     1       3.743  15.973  67.638  1.00  0.00     0.000 C 
BRANCH   2   3
ATOM      3  C   UNL     1       2.466  16.397  66.890  1.00  0.00     0.000 C 
BRANCH   3   4
ATOM      4  C   UNL     1       1.193  15.782  67.490  1.00  0.00     0.000 C 
BRANCH   4   5
ATOM      5  C   UNL     1      -0.062  16.295  66.767  1.00  0.00     0.000 C 
BRANCH   5   6
ATOM      6  C   UNL     1      -0.659  15.251  65.809  1.00  0.00     0.000 C 
BRANCH   6   7
ATOM      7  C   UNL     1      -2.113  15.574  65.420  1.00  0.00     0.000 C 
BRANCH   7   8
ATOM      8  C   UNL     1      -2.898  14.326  64.980  1.00  0.00     0.000 C 
BRANCH   8   9
ATOM      9  C   UNL     1      -4.299  14.667  64.444  1.00  0.00     0.000 C 
BRANCH   9  10
ATOM     10  C   UNL     1      -4.488  16.173  64.185  1.00  0.00     0.000 C 
BRANCH  10  11
ATOM     11  C   UNL     1      -5.265  16.520  62.902  1.00  0.00     0.000 C 
BRANCH  11  12
ATOM     12  C   UNL     1      -5.058  15.489  61.782  1.00  0.00     0.006 C 
BRANCH  12  13
ATOM     13  C   UNL     1      -4.667  16.176  60.471  1.00  0.00     0.053 C 
BRANCH  13  14
ATOM     14  C   UNL     1      -3.363  16.895  60.619  1.00  0.00     0.041 C 
ATOM     15  O   UNL     1      -2.537  16.540  61.501  1.00  0.00    -0.550 OA
ATOM     16  O   UNL     1      -3.070  17.975  59.797  1.00  0.00    -0.550 OA
ENDBRANCH  13  14
ENDBRANCH  12  13
ENDBRANCH  11  12
ENDBRANCH  10  11
ENDBRANCH   9  10
ENDBRANCH   8   9
ENDBRANCH   7   8
ENDBRANCH   6   7
ENDBRANCH   5   6
ENDBRANCH   4   5
ENDBRANCH   3   4
ENDBRANCH   2   3
ENDBRANCH   1   2
BRANCH   1  17
ATOM     17  C   UNL     1       4.021  17.845  69.422  1.00  0.00     0.000 C 
BRANCH  17  18
ATOM     18  C   UNL     1       3.037  18.967  69.058  1.00  0.00     0.000 C 
BRANCH  18  19
ATOM     19  C   UNL     1       3.778  20.238  68.626  1.00  0.00     0.000 C 
BRANCH  19  20
ATOM     20  C   UNL     1       4.421  20.931  69.837  1.00  0.00     0.000 C 
BRANCH  20  21
ATOM     21  C   UNL     1       5.956  20.854  69.826  1.00  0.00     0.000 C 
BRANCH  21  22
ATOM     22  C   UNL     1       6.567  21.346  68.501  1.00  0.00    -0.000 C 
BRANCH  22  23
ATOM     23  C   UNL     1       7.971  21.961  68.677  1.00  0.00    -0.000 C 
BRANCH  23  24
ATOM     24  C   UNL     1       8.912  21.141  69.582  1.00  0.00    -0.000 C 
BRANCH  24  25
ATOM     25  C   UNL     1      10.178  21.876  70.062  1.00  0.00    -0.000 C 
BRANCH  25  26
ATOM     26  C   UNL     1      11.412  21.725  69.154  1.00  0.00    -0.000 C 
BRANCH  26  27
ATOM     27  C   UNL     1      11.062  21.734  67.657  1.00  0.00    -0.000 C 
BRANCH  27  28
ATOM     28  C   UNL     1      12.256  21.358  66.762  1.00  0.00    -0.000 C 
BRANCH  28  29
ATOM     29  C   UNL     1      11.857  20.994  65.317  1.00  0.00    -0.003 C 
ATOM     30  C   UNL     1      12.825  19.995  64.683  1.00  0.00     0.004 C 
ENDBRANCH  28  29
ENDBRANCH  27  28
ENDBRANCH  26  27
ENDBRANCH  25  26
ENDBRANCH  24  25
ENDBRANCH  23  24
ENDBRANCH  22  23
ENDBRANCH  21  22
ENDBRANCH  20  21
ENDBRANCH  19  20
ENDBRANCH  18  19
ENDBRANCH  17  18
ENDBRANCH   1  17
TORSDOF 26
ENDMDL
MODEL 6
REMARK VINA RESULT:     0.089      2.411      6.471
REMARK INTER + INTRA:          -0.500
REMARK INTER:                   1.639
REMARK INTRA:                  -2.139
REMARK UNBOUND:                -0.723
REMARK SMILES CCCCCCCCCCCCCCCCCCCCCCCCCCCC(=O)[O-]
REMARK SMILES IDX 15 1 16 2 17 3 18 4 19 5 20 6 21 7 22 8 23 9 24 10 25 11
REMARK SMILES IDX 26 12 27 13 28 14 29 15 30 16 14 17 13 18 12 19 11 20 10 21
REMARK SMILES IDX 9 22 8 23 7 24 6 25 5 26 4 27 3 28 2 29 1 30
REMARK H PARENT
REMARK Flexibility Score: inf
ROOT
ATOM      1  C   UNL     1       2.670   6.937  50.957  1.00  0.00     0.000 C 
ENDROOT
BRANCH   1   2
ATOM      2  C   UNL     1       3.129   5.572  50.404  1.00  0.00     0.000 C 
BRANCH   2   3
ATOM      3  C   UNL     1       2.865   4.372  51.330  1.00  0.00     0.000 C 
BRANCH   3   4
ATOM      4  C   UNL     1       3.958   3.297  51.238  1.00  0.00     0.000 C 
BRANCH   4   5
ATOM      5  C   UNL     1       4.668   3.348  49.876  1.00  0.00     0.000 C 
BRANCH   5   6
ATOM      6  C   UNL     1       6.196   3.464  50.011  1.00  0.00     0.000 C 
BRANCH   6   7
ATOM      7  C   UNL     1       6.669   4.927  50.089  1.00  0.00     0.000 C 
BRANCH   7   8
ATOM      8  C   UNL     1       7.312   5.268  51.445  1.00  0.00     0.000 C 
BRANCH   8   9
ATOM      9  C   UNL     1       7.725   4.014  52.236  1.00  0.00     0.000 C 
BRANCH   9  10
ATOM     10  C   UNL     1       9.242   3.756  52.195  1.00  0.00     0.000 C 
BRANCH  10  11
ATOM     11  C   UNL     1      10.023   4.623  51.191  1.00  0.00     0.000 C 
BRANCH  11  12
ATOM     12  C   UNL     1      11.545   4.474  51.331  1.00  0.00     0.006 C 
BRANCH  12  13
ATOM     13  C   UNL     1      12.264   5.010  50.091  1.00  0.00     0.053 C 
BRANCH  13  14
ATOM     14  C   UNL     1      12.656   6.442  50.283  1.00  0.00     0.041 C 
ATOM     15  O   UNL     1      13.803   6.736  50.712  1.00  0.00    -0.550 OA
ATOM     16  O   UNL     1      11.742   7.452  50.012  1.00  0.00    -0.550 OA
ENDBRANCH  13  14
ENDBRANCH  12  13
ENDBRANCH  11  12
ENDBRANCH  10  11
ENDBRANCH   9  10
ENDBRANCH   8   9
ENDBRANCH   7   8
ENDBRANCH   6   7
ENDBRANCH   5   6
ENDBRANCH   4   5
ENDBRANCH   3   4
ENDBRANCH   2   3
ENDBRANCH   1   2
BRANCH   1  17
ATOM     17  C   UNL     1       2.085   7.903  49.909  1.00  0.00     0.000 C 
BRANCH  17  18
ATOM     18  C   UNL     1       0.915   8.732  50.456  1.00  0.00     0.000 C 
BRANCH  18  19
ATOM     19  C   UNL     1      -0.423   8.257  49.876  1.00  0.00     0.000 C 
BRANCH  19  20
ATOM     20  C   UNL     1      -1.519   9.309  50.101  1.00  0.00     0.000 C 
BRANCH  20  21
ATOM     21  C   UNL     1      -2.540   8.891  51.171  1.00  0.00     0.000 C 
BRANCH  21  22
ATOM     22  C   UNL     1      -3.679   8.026  50.600  1.00  0.00    -0.000 C 
BRANCH  22  23
ATOM     23  C   UNL     1      -3.186   6.680  50.030  1.00  0.00    -0.000 C 
BRANCH  23  24
ATOM     24  C   UNL     1      -4.249   5.564  50.032  1.00  0.00    -0.000 C 
BRANCH  24  25
ATOM     25  C   UNL     1      -4.182   4.586  51.220  1.00  0.00    -0.000 C 
BRANCH  25  26
ATOM     26  C   UNL     1      -4.637   3.147  50.915  1.00  0.00    -0.000 C 
BRANCH  26  27
ATOM     27  C   UNL     1      -3.476   2.138  50.902  1.00  0.00    -0.000 C 
BRANCH  27  28
ATOM     28  C   UNL     1      -2.147   2.751  51.376  1.00  0.00    -0.000 C 
BRANCH  28  29
ATOM     29  C   UNL     1      -1.123   2.963  50.242  1.00  0.00    -0.003 C 
ATOM     30  C   UNL     1      -0.639   4.412  50.162  1.00  0.00     0.004 C 
ENDBRANCH  28  29
ENDBRANCH  27  28
ENDBRANCH  26  27
ENDBRANCH  25  26
ENDBRANCH  24  25
ENDBRANCH  23  24
ENDBRANCH  22  23
ENDBRANCH  21  22
ENDBRANCH  20  21
ENDBRANCH  19  20
ENDBRANCH  18  19
ENDBRANCH  17  18
ENDBRANCH   1  17
TORSDOF 26
ENDMDL
MODEL 7
REMARK VINA RESULT:     0.319     17.426     21.324
REMARK INTER + INTRA:           0.081
REMARK INTER:                   1.919
REMARK INTRA:                  -1.838
REMARK UNBOUND:                -0.723
REMARK SMILES CCCCCCCCCCCCCCCCCCCCCCCCCCCC(=O)[O-]
REMARK SMILES IDX 15 1 16 2 17 3 18 4 19 5 20 6 21 7 22 8 23 9 24 10 25 11
REMARK SMILES IDX 26 12 27 13 28 14 29 15 30 16 14 17 13 18 12 19 11 20 10 21
REMARK SMILES IDX 9 22 8 23 7 24 6 25 5 26 4 27 3 28 2 29 1 30
REMARK H PARENT
REMARK Flexibility Score: inf
ROOT
ATOM      1  C   UNL     1       4.764  14.795  67.661  1.00  0.00     0.000 C 
ENDROOT
BRANCH   1   2
ATOM      2  C   UNL     1       3.858  14.592  68.893  1.00  0.00     0.000 C 
BRANCH   2   3
ATOM      3  C   UNL     1       3.785  15.793  69.853  1.00  0.00     0.000 C 
BRANCH   3   4
ATOM      4  C   UNL     1       2.501  16.617  69.677  1.00  0.00     0.000 C 
BRANCH   4   5
ATOM      5  C   UNL     1       2.808  18.123  69.675  1.00  0.00     0.000 C 
BRANCH   5   6
ATOM      6  C   UNL     1       3.365  18.610  68.327  1.00  0.00     0.000 C 
BRANCH   6   7
ATOM      7  C   UNL     1       3.982  20.017  68.420  1.00  0.00     0.000 C 
BRANCH   7   8
ATOM      8  C   UNL     1       4.950  20.161  69.607  1.00  0.00     0.000 C 
BRANCH   8   9
ATOM      9  C   UNL     1       5.108  21.621  70.068  1.00  0.00     0.000 C 
BRANCH   9  10
ATOM     10  C   UNL     1       6.570  22.104  70.024  1.00  0.00     0.000 C 
BRANCH  10  11
ATOM     11  C   UNL     1       7.376  21.630  68.802  1.00  0.00     0.000 C 
BRANCH  11  12
ATOM     12  C   UNL     1       8.867  21.429  69.111  1.00  0.00     0.006 C 
BRANCH  12  13
ATOM     13  C   UNL     1       9.741  22.021  68.003  1.00  0.00     0.053 C 
BRANCH  13  14
ATOM     14  C   UNL     1      11.140  21.497  68.095  1.00  0.00     0.041 C 
ATOM     15  O   UNL     1      11.968  21.727  67.174  1.00  0.00    -0.550 OA
ATOM     16  O   UNL     1      11.521  20.731  69.188  1.00  0.00    -0.550 OA
ENDBRANCH  13  14
ENDBRANCH  12  13
ENDBRANCH  11  12
ENDBRANCH  10  11
ENDBRANCH   9  10
ENDBRANCH   8   9
ENDBRANCH   7   8
ENDBRANCH   6   7
ENDBRANCH   5   6
ENDBRANCH   4   5
ENDBRANCH   3   4
ENDBRANCH   2   3
ENDBRANCH   1   2
BRANCH   1  17
ATOM     17  C   UNL     1       5.603  16.086  67.673  1.00  0.00     0.000 C 
BRANCH  17  18
ATOM     18  C   UNL     1       7.045  15.859  67.194  1.00  0.00     0.000 C 
BRANCH  18  19
ATOM     19  C   UNL     1       8.016  15.771  68.378  1.00  0.00     0.000 C 
BRANCH  19  20
ATOM     20  C   UNL     1       9.340  15.120  67.949  1.00  0.00     0.000 C 
BRANCH  20  21
ATOM     21  C   UNL     1       9.504  15.045  66.423  1.00  0.00     0.000 C 
BRANCH  21  22
ATOM     22  C   UNL     1      10.799  14.326  65.999  1.00  0.00    -0.000 C 
BRANCH  22  23
ATOM     23  C   UNL     1      11.211  14.635  64.545  1.00  0.00    -0.000 C 
BRANCH  23  24
ATOM     24  C   UNL     1      12.683  14.310  64.221  1.00  0.00    -0.000 C 
BRANCH  24  25
ATOM     25  C   UNL     1      13.452  13.554  65.321  1.00  0.00    -0.000 C 
BRANCH  25  26
ATOM     26  C   UNL     1      13.293  12.023  65.303  1.00  0.00    -0.000 C 
BRANCH  26  27
ATOM     27  C   UNL     1      13.114  11.453  63.886  1.00  0.00    -0.000 C 
BRANCH  27  28
ATOM     28  C   UNL     1      13.082   9.916  63.860  1.00  0.00    -0.000 C 
BRANCH  28  29
ATOM     29  C   UNL     1      11.992   9.302  64.763  1.00  0.00    -0.003 C 
ATOM     30  C   UNL     1      10.648  10.018  64.616  1.00  0.00     0.004 C 
ENDBRANCH  28  29
ENDBRANCH  27  28
ENDBRANCH  26  27
ENDBRANCH  25  26
ENDBRANCH  24  25
ENDBRANCH  23  24
ENDBRANCH  22  23
ENDBRANCH  21  22
ENDBRANCH  20  21
ENDBRANCH  19  20
ENDBRANCH  18  19
ENDBRANCH  17  18
ENDBRANCH   1  17
TORSDOF 26
ENDMDL
