MODEL 1
REMARK VINA RESULT:    -2.281      0.000      0.000
REMARK INTER + INTRA:          -2.674
REMARK INTER:                  -2.414
REMARK INTRA:                  -0.259
REMARK UNBOUND:                -0.259
REMARK SMILES CC1=CC[C@H]2[C@@H]3[C@@H](C(C)C)CC[C@@]2(C)[C@H]13
REMARK SMILES IDX 1 1 2 2 3 3 4 4 5 5 6 6 15 7 13 8 12 9 11 10 7 11 14 12 8 13
REMARK SMILES IDX 9 14 10 15
REMARK H PARENT
REMARK Flexibility Score: inf
ROOT
ATOM      1  C   UNL     1       3.986  11.627  10.875  1.00  0.00     0.039 C 
ATOM      2  C   UNL     1       3.332  10.720  11.873  1.00  0.00    -0.073 C 
ATOM      3  C   UNL     1       1.980  10.664  11.997  1.00  0.00    -0.027 C 
ATOM      4  C   UNL     1       1.371   9.731  13.048  1.00  0.00     0.031 C 
ATOM      5  C   UNL     1       2.496   8.945  13.797  1.00  0.00     0.003 C 
ATOM      6  C   UNL     1       3.477   8.404  12.731  1.00  0.00     0.004 C 
ATOM      7  C   UNL     1       4.152   9.800  12.782  1.00  0.00     0.024 C 
ATOM      8  C   UNL     1       3.644   9.884  14.242  1.00  0.00    -0.022 C 
ATOM      9  C   UNL     1       4.596   9.104  15.201  1.00  0.00     0.008 C 
ATOM     10  C   UNL     1       5.242   7.867  14.521  1.00  0.00     0.005 C 
ATOM     11  C   UNL     1       4.369   7.292  13.366  1.00  0.00    -0.005 C 
ATOM     12  C   UNL     1       3.284  11.271  14.828  1.00  0.00     0.012 C 
ENDROOT
BRANCH  11  13
ATOM     13  C   UNL     1       5.216   6.493  12.328  1.00  0.00    -0.014 C 
ATOM     14  C   UNL     1       6.718   6.784  12.487  1.00  0.00     0.007 C 
ATOM     15  C   UNL     1       4.973   4.974  12.363  1.00  0.00     0.007 C 
ENDBRANCH  11  13
TORSDOF 1
ENDMDL
MODEL 2
REMARK VINA RESULT:    -2.085      1.757      4.059
REMARK INTER + INTRA:          -2.466
REMARK INTER:                  -2.274
REMARK INTRA:                  -0.192
REMARK UNBOUND:                -0.259
REMARK SMILES CC1=CC[C@H]2[C@@H]3[C@@H](C(C)C)CC[C@@]2(C)[C@H]13
REMARK SMILES IDX 1 1 2 2 3 3 4 4 5 5 6 6 15 7 13 8 12 9 11 10 7 11 14 12 8 13
REMARK SMILES IDX 9 14 10 15
REMARK H PARENT
REMARK Flexibility Score: inf
ROOT
ATOM      1  C   UNL     1       3.232   8.945  14.635  1.00  0.00     0.039 C 
ATOM      2  C   UNL     1       4.012   8.390  13.482  1.00  0.00    -0.073 C 
ATOM      3  C   UNL     1       3.788   8.812  12.210  1.00  0.00    -0.027 C 
ATOM      4  C   UNL     1       4.605   8.193  11.071  1.00  0.00     0.031 C 
ATOM      5  C   UNL     1       5.629   7.155  11.635  1.00  0.00     0.003 C 
ATOM      6  C   UNL     1       6.331   7.806  12.850  1.00  0.00     0.004 C 
ATOM      7  C   UNL     1       5.109   7.341  13.684  1.00  0.00     0.024 C 
ATOM      8  C   UNL     1       4.963   6.196  12.652  1.00  0.00    -0.022 C 
ATOM      9  C   UNL     1       5.952   5.034  12.977  1.00  0.00     0.008 C 
ATOM     10  C   UNL     1       7.276   5.539  13.610  1.00  0.00     0.005 C 
ATOM     11  C   UNL     1       7.622   7.000  13.193  1.00  0.00    -0.005 C 
ATOM     12  C   UNL     1       3.550   5.648  12.340  1.00  0.00     0.012 C 
ENDROOT
BRANCH  11  13
ATOM     13  C   UNL     1       8.550   7.705  14.231  1.00  0.00    -0.014 C 
ATOM     14  C   UNL     1       9.783   8.324  13.551  1.00  0.00     0.007 C 
ATOM     15  C   UNL     1       7.836   8.769  15.083  1.00  0.00     0.007 C 
ENDBRANCH  11  13
TORSDOF 1
ENDMDL
MODEL 3
REMARK VINA RESULT:    -1.835      1.437      4.902
REMARK INTER + INTRA:          -2.202
REMARK INTER:                  -1.957
REMARK INTRA:                  -0.245
REMARK UNBOUND:                -0.259
REMARK SMILES CC1=CC[C@H]2[C@@H]3[C@@H](C(C)C)CC[C@@]2(C)[C@H]13
REMARK SMILES IDX 1 1 2 2 3 3 4 4 5 5 6 6 15 7 13 8 12 9 11 10 7 11 14 12 8 13
REMARK SMILES IDX 9 14 10 15
REMARK H PARENT
REMARK Flexibility Score: inf
ROOT
ATOM      1  C   UNL     1       7.921   8.232  14.906  1.00  0.00     0.039 C 
ATOM      2  C   UNL     1       6.840   7.484  14.185  1.00  0.00    -0.073 C 
ATOM      3  C   UNL     1       6.670   6.147  14.361  1.00  0.00    -0.027 C 
ATOM      4  C   UNL     1       5.559   5.435  13.583  1.00  0.00     0.031 C 
ATOM      5  C   UNL     1       4.763   6.457  12.709  1.00  0.00     0.003 C 
ATOM      6  C   UNL     1       4.446   7.683  13.598  1.00  0.00     0.004 C 
ATOM      7  C   UNL     1       5.867   8.191  13.238  1.00  0.00     0.024 C 
ATOM      8  C   UNL     1       5.714   7.392  11.921  1.00  0.00    -0.022 C 
ATOM      9  C   UNL     1       4.882   8.203  10.880  1.00  0.00     0.008 C 
ATOM     10  C   UNL     1       3.799   9.094  11.547  1.00  0.00     0.005 C 
ATOM     11  C   UNL     1       3.326   8.535  12.922  1.00  0.00    -0.005 C 
ATOM     12  C   UNL     1       6.977   6.784  11.265  1.00  0.00     0.012 C 
ENDROOT
BRANCH  11  13
ATOM     13  C   UNL     1       2.740   9.651  13.843  1.00  0.00    -0.014 C 
ATOM     14  C   UNL     1       3.637  10.900  13.850  1.00  0.00     0.007 C 
ATOM     15  C   UNL     1       1.295  10.048  13.495  1.00  0.00     0.007 C 
ENDBRANCH  11  13
TORSDOF 1
ENDMDL
MODEL 4
REMARK VINA RESULT:    -0.968      1.011      4.646
REMARK INTER + INTRA:          -1.284
REMARK INTER:                  -1.015
REMARK INTRA:                  -0.268
REMARK UNBOUND:                -0.259
REMARK SMILES CC1=CC[C@H]2[C@@H]3[C@@H](C(C)C)CC[C@@]2(C)[C@H]13
REMARK SMILES IDX 1 1 2 2 3 3 4 4 5 5 6 6 15 7 13 8 12 9 11 10 7 11 14 12 8 13
REMARK SMILES IDX 9 14 10 15
REMARK H PARENT
REMARK Flexibility Score: inf
ROOT
ATOM      1  C   UNL     1       3.381   4.875  12.750  1.00  0.00     0.039 C 
ATOM      2  C   UNL     1       4.322   6.032  12.599  1.00  0.00    -0.073 C 
ATOM      3  C   UNL     1       5.506   5.898  11.946  1.00  0.00    -0.027 C 
ATOM      4  C   UNL     1       6.434   7.112  11.840  1.00  0.00     0.031 C 
ATOM      5  C   UNL     1       5.779   8.360  12.517  1.00  0.00     0.003 C 
ATOM      6  C   UNL     1       4.314   8.439  12.029  1.00  0.00     0.004 C 
ATOM      7  C   UNL     1       3.986   7.420  13.152  1.00  0.00     0.024 C 
ATOM      8  C   UNL     1       5.199   8.011  13.910  1.00  0.00    -0.022 C 
ATOM      9  C   UNL     1       4.801   9.332  14.639  1.00  0.00     0.008 C 
ATOM     10  C   UNL     1       3.717  10.133  13.869  1.00  0.00     0.005 C 
ATOM     11  C   UNL     1       3.743   9.859  12.335  1.00  0.00    -0.005 C 
ATOM     12  C   UNL     1       6.017   7.089  14.845  1.00  0.00     0.012 C 
ENDROOT
BRANCH  11  13
ATOM     13  C   UNL     1       2.365  10.145  11.661  1.00  0.00    -0.014 C 
ATOM     14  C   UNL     1       1.221  10.106  12.687  1.00  0.00     0.007 C 
ATOM     15  C   UNL     1       2.319  11.468  10.877  1.00  0.00     0.007 C 
ENDBRANCH  11  13
TORSDOF 1
ENDMDL
MODEL 5
REMARK VINA RESULT:    -0.368      1.236      2.769
REMARK INTER + INTRA:          -0.649
REMARK INTER:                  -0.377
REMARK INTRA:                  -0.272
REMARK UNBOUND:                -0.259
REMARK SMILES CC1=CC[C@H]2[C@@H]3[C@@H](C(C)C)CC[C@@]2(C)[C@H]13
REMARK SMILES IDX 1 1 2 2 3 3 4 4 5 5 6 6 15 7 13 8 12 9 11 10 7 11 14 12 8 13
REMARK SMILES IDX 9 14 10 15
REMARK H PARENT
REMARK Flexibility Score: inf
ROOT
ATOM      1  C   UNL     1       0.096   9.290  13.128  1.00  0.00     0.039 C 
ATOM      2  C   UNL     1       1.548   9.633  13.280  1.00  0.00    -0.073 C 
ATOM      3  C   UNL     1       1.961  10.568  14.175  1.00  0.00    -0.027 C 
ATOM      4  C   UNL     1       3.456  10.889  14.272  1.00  0.00     0.031 C 
ATOM      5  C   UNL     1       4.271   9.994  13.282  1.00  0.00     0.003 C 
ATOM      6  C   UNL     1       3.761   8.542  13.439  1.00  0.00     0.004 C 
ATOM      7  C   UNL     1       2.630   8.934  12.453  1.00  0.00     0.024 C 
ATOM      8  C   UNL     1       3.625   9.969  11.875  1.00  0.00    -0.022 C 
ATOM      9  C   UNL     1       4.610   9.286  10.876  1.00  0.00     0.008 C 
ATOM     10  C   UNL     1       4.932   7.819  11.267  1.00  0.00     0.005 C 
ATOM     11  C   UNL     1       4.791   7.560  12.797  1.00  0.00    -0.005 C 
ATOM     12  C   UNL     1       3.072  11.291  11.290  1.00  0.00     0.012 C 
ENDROOT
BRANCH  11  13
ATOM     13  C   UNL     1       4.517   6.058  13.119  1.00  0.00    -0.014 C 
ATOM     14  C   UNL     1       3.633   5.407  12.042  1.00  0.00     0.007 C 
ATOM     15  C   UNL     1       5.793   5.223  13.322  1.00  0.00     0.007 C 
ENDBRANCH  11  13
TORSDOF 1
ENDMDL
MODEL 6
REMARK VINA RESULT:    -0.091      1.337      2.105
REMARK INTER + INTRA:          -0.356
REMARK INTER:                  -0.100
REMARK INTRA:                  -0.256
REMARK UNBOUND:                -0.259
REMARK SMILES CC1=CC[C@H]2[C@@H]3[C@@H](C(C)C)CC[C@@]2(C)[C@H]13
REMARK SMILES IDX 1 1 2 2 3 3 4 4 5 5 6 6 15 7 13 8 12 9 11 10 7 11 14 12 8 13
REMARK SMILES IDX 9 14 10 15
REMARK H PARENT
REMARK Flexibility Score: inf
ROOT
ATOM      1  C   UNL     1       4.500  12.583  13.834  1.00  0.00     0.039 C 
ATOM      2  C   UNL     1       4.002  11.466  12.966  1.00  0.00    -0.073 C 
ATOM      3  C   UNL     1       3.549  11.700  11.708  1.00  0.00    -0.027 C 
ATOM      4  C   UNL     1       3.036  10.521  10.875  1.00  0.00     0.031 C 
ATOM      5  C   UNL     1       3.177   9.185  11.676  1.00  0.00     0.003 C 
ATOM      6  C   UNL     1       4.595   9.161  12.294  1.00  0.00     0.004 C 
ATOM      7  C   UNL     1       4.002  10.012  13.447  1.00  0.00     0.024 C 
ATOM      8  C   UNL     1       2.650   9.333  13.124  1.00  0.00    -0.022 C 
ATOM      9  C   UNL     1       2.572   7.921  13.783  1.00  0.00     0.008 C 
ATOM     10  C   UNL     1       3.957   7.224  13.860  1.00  0.00     0.005 C 
ATOM     11  C   UNL     1       4.935   7.707  12.748  1.00  0.00    -0.005 C 
ATOM     12  C   UNL     1       1.341  10.126  13.360  1.00  0.00     0.012 C 
ENDROOT
BRANCH  11  13
ATOM     13  C   UNL     1       6.430   7.504  13.148  1.00  0.00    -0.014 C 
ATOM     14  C   UNL     1       6.675   7.895  14.615  1.00  0.00     0.007 C 
ATOM     15  C   UNL     1       6.955   6.081  12.893  1.00  0.00     0.007 C 
ENDBRANCH  11  13
TORSDOF 1
ENDMDL
