MODEL 1
REMARK VINA RESULT:    -3.790      0.000      0.000
REMARK INTER + INTRA:          -4.011
REMARK INTER:                  -4.011
REMARK INTRA:                   0.000
REMARK UNBOUND:                 0.000
REMARK SMILES O=c1ccc2cc(O)c(O)cc2o1
REMARK SMILES IDX 4 1 3 2 2 3 1 4 13 5 12 6 11 7 9 8 7 9 6 10 5 11 8 12 10 14
REMARK H PARENT 8 13 10 15
REMARK Flexibility Score: inf
ROOT
ATOM      1  C   UNL     1      -2.276   2.989  -1.497  1.00  0.00     0.019 A 
ATOM      2  C   UNL     1      -0.889   2.848  -1.454  1.00  0.00     0.094 A 
ATOM      3  C   UNL     1      -0.255   2.083  -2.438  1.00  0.00     0.336 A 
ATOM      4  O   UNL     1       0.996   1.943  -2.416  1.00  0.00    -0.246 OA
ATOM      5  O   UNL     1      -0.966   1.501  -3.401  1.00  0.00    -0.423 OA
ATOM      6  C   UNL     1      -2.291   1.610  -3.479  1.00  0.00     0.142 A 
ATOM      7  C   UNL     1      -2.985   0.976  -4.512  1.00  0.00     0.098 A 
ATOM      8  C   UNL     1      -4.378   1.087  -4.602  1.00  0.00     0.161 A 
ATOM      9  C   UNL     1      -5.085   1.840  -3.647  1.00  0.00     0.158 A 
ATOM     10  C   UNL     1      -4.392   2.479  -2.606  1.00  0.00     0.062 A 
ATOM     11  C   UNL     1      -2.998   2.367  -2.519  1.00  0.00     0.022 A 
ENDROOT
BRANCH   9  12
ATOM     12  O   UNL     1      -6.471   1.951  -3.734  1.00  0.00    -0.504 OA
ATOM     13  H   UNL     1      -7.000   1.461  -4.446  1.00  0.00     0.293 HD
ENDBRANCH   9  12
BRANCH   8  14
ATOM     14  O   UNL     1      -5.041   0.442  -5.645  1.00  0.00    -0.504 OA
ATOM     15  H   UNL     1      -5.716  -0.296  -5.479  1.00  0.00     0.293 HD
ENDBRANCH   8  14
TORSDOF 2
ENDMDL
MODEL 2
REMARK VINA RESULT:    -3.758      1.756      2.679
REMARK INTER + INTRA:          -3.978
REMARK INTER:                  -3.978
REMARK INTRA:                   0.000
REMARK UNBOUND:                 0.000
REMARK SMILES O=c1ccc2cc(O)c(O)cc2o1
REMARK SMILES IDX 4 1 3 2 2 3 1 4 13 5 12 6 11 7 9 8 7 9 6 10 5 11 8 12 10 14
REMARK H PARENT 8 13 10 15
REMARK Flexibility Score: inf
ROOT
ATOM      1  C   UNL     1      -1.282   1.534  -2.264  1.00  0.00     0.019 A 
ATOM      2  C   UNL     1      -0.158   2.198  -1.775  1.00  0.00     0.094 A 
ATOM      3  C   UNL     1      -0.291   3.517  -1.328  1.00  0.00     0.336 A 
ATOM      4  O   UNL     1       0.712   4.134  -0.883  1.00  0.00    -0.246 OA
ATOM      5  O   UNL     1      -1.473   4.126  -1.370  1.00  0.00    -0.423 OA
ATOM      6  C   UNL     1      -2.571   3.528  -1.829  1.00  0.00     0.142 A 
ATOM      7  C   UNL     1      -3.786   4.218  -1.849  1.00  0.00     0.098 A 
ATOM      8  C   UNL     1      -4.945   3.596  -2.330  1.00  0.00     0.161 A 
ATOM      9  C   UNL     1      -4.889   2.270  -2.797  1.00  0.00     0.158 A 
ATOM     10  C   UNL     1      -3.670   1.574  -2.779  1.00  0.00     0.062 A 
ATOM     11  C   UNL     1      -2.511   2.197  -2.296  1.00  0.00     0.022 A 
ENDROOT
BRANCH   9  12
ATOM     12  O   UNL     1      -6.041   1.650  -3.276  1.00  0.00    -0.504 OA
ATOM     13  H   UNL     1      -6.563   0.991  -2.711  1.00  0.00     0.293 HD
ENDBRANCH   9  12
BRANCH   8  14
ATOM     14  O   UNL     1      -6.142   4.312  -2.337  1.00  0.00    -0.504 OA
ATOM     15  H   UNL     1      -6.499   4.771  -1.507  1.00  0.00     0.293 HD
ENDBRANCH   8  14
TORSDOF 2
ENDMDL
MODEL 3
REMARK VINA RESULT:    -3.751      1.393      2.061
REMARK INTER + INTRA:          -3.970
REMARK INTER:                  -3.970
REMARK INTRA:                   0.000
REMARK UNBOUND:                 0.000
REMARK SMILES O=c1ccc2cc(O)c(O)cc2o1
REMARK SMILES IDX 4 1 3 2 2 3 1 4 13 5 12 6 11 7 9 8 7 9 6 10 5 11 8 12 10 14
REMARK H PARENT 8 13 10 15
REMARK Flexibility Score: inf
ROOT
ATOM      1  C   UNL     1      -1.728   2.965  -4.768  1.00  0.00     0.019 A 
ATOM      2  C   UNL     1      -0.459   2.722  -4.244  1.00  0.00     0.094 A 
ATOM      3  C   UNL     1      -0.346   2.030  -3.034  1.00  0.00     0.336 A 
ATOM      4  O   UNL     1       0.792   1.801  -2.545  1.00  0.00    -0.246 OA
ATOM      5  O   UNL     1      -1.434   1.609  -2.395  1.00  0.00    -0.423 OA
ATOM      6  C   UNL     1      -2.664   1.818  -2.860  1.00  0.00     0.142 A 
ATOM      7  C   UNL     1      -3.770   1.353  -2.145  1.00  0.00     0.098 A 
ATOM      8  C   UNL     1      -5.067   1.569  -2.627  1.00  0.00     0.161 A 
ATOM      9  C   UNL     1      -5.260   2.259  -3.838  1.00  0.00     0.158 A 
ATOM     10  C   UNL     1      -4.151   2.729  -4.560  1.00  0.00     0.062 A 
ATOM     11  C   UNL     1      -2.854   2.510  -4.075  1.00  0.00     0.022 A 
ENDROOT
BRANCH   9  12
ATOM     12  O   UNL     1      -6.549   2.475  -4.319  1.00  0.00    -0.504 OA
ATOM     13  H   UNL     1      -6.871   3.400  -4.579  1.00  0.00     0.293 HD
ENDBRANCH   9  12
BRANCH   8  14
ATOM     14  O   UNL     1      -6.150   1.092  -1.890  1.00  0.00    -0.504 OA
ATOM     15  H   UNL     1      -6.156   1.098  -0.876  1.00  0.00     0.293 HD
ENDBRANCH   8  14
TORSDOF 2
ENDMDL
MODEL 4
REMARK VINA RESULT:    -3.682      1.928      4.487
REMARK INTER + INTRA:          -3.897
REMARK INTER:                  -3.897
REMARK INTRA:                   0.000
REMARK UNBOUND:                 0.000
REMARK SMILES O=c1ccc2cc(O)c(O)cc2o1
REMARK SMILES IDX 4 1 3 2 2 3 1 4 13 5 12 6 11 7 9 8 7 9 6 10 5 11 8 12 10 14
REMARK H PARENT 8 13 10 15
REMARK Flexibility Score: inf
ROOT
ATOM      1  C   UNL     1      -3.449   3.258  -5.165  1.00  0.00     0.019 A 
ATOM      2  C   UNL     1      -4.238   2.797  -6.218  1.00  0.00     0.094 A 
ATOM      3  C   UNL     1      -4.787   1.513  -6.143  1.00  0.00     0.336 A 
ATOM      4  O   UNL     1      -5.502   1.079  -7.084  1.00  0.00    -0.246 OA
ATOM      5  O   UNL     1      -4.559   0.745  -5.080  1.00  0.00    -0.423 OA
ATOM      6  C   UNL     1      -3.813   1.145  -4.054  1.00  0.00     0.142 A 
ATOM      7  C   UNL     1      -3.607   0.295  -2.964  1.00  0.00     0.098 A 
ATOM      8  C   UNL     1      -2.823   0.709  -1.880  1.00  0.00     0.161 A 
ATOM      9  C   UNL     1      -2.238   1.988  -1.885  1.00  0.00     0.158 A 
ATOM     10  C   UNL     1      -2.441   2.846  -2.978  1.00  0.00     0.062 A 
ATOM     11  C   UNL     1      -3.226   2.430  -4.061  1.00  0.00     0.022 A 
ENDROOT
BRANCH   9  12
ATOM     12  O   UNL     1      -1.458   2.402  -0.808  1.00  0.00    -0.504 OA
ATOM     13  H   UNL     1      -0.516   2.751  -0.937  1.00  0.00     0.293 HD
ENDBRANCH   9  12
BRANCH   8  14
ATOM     14  O   UNL     1      -2.638  -0.164  -0.808  1.00  0.00    -0.504 OA
ATOM     15  H   UNL     1      -2.546   0.168   0.145  1.00  0.00     0.293 HD
ENDBRANCH   8  14
TORSDOF 2
ENDMDL
MODEL 5
REMARK VINA RESULT:    -3.616      2.431      4.061
REMARK INTER + INTRA:          -3.827
REMARK INTER:                  -3.827
REMARK INTRA:                   0.000
REMARK UNBOUND:                 0.000
REMARK SMILES O=c1ccc2cc(O)c(O)cc2o1
REMARK SMILES IDX 4 1 3 2 2 3 1 4 13 5 12 6 11 7 9 8 7 9 6 10 5 11 8 12 10 14
REMARK H PARENT 8 13 10 15
REMARK Flexibility Score: inf
ROOT
ATOM      1  C   UNL     1       0.323   3.599  -0.726  1.00  0.00     0.019 A 
ATOM      2  C   UNL     1      -0.540   4.222   0.174  1.00  0.00     0.094 A 
ATOM      3  C   UNL     1      -1.913   4.227  -0.096  1.00  0.00     0.336 A 
ATOM      4  O   UNL     1      -2.708   4.786   0.704  1.00  0.00    -0.246 OA
ATOM      5  O   UNL     1      -2.385   3.643  -1.194  1.00  0.00    -0.423 OA
ATOM      6  C   UNL     1      -1.596   3.036  -2.079  1.00  0.00     0.142 A 
ATOM      7  C   UNL     1      -2.149   2.440  -3.215  1.00  0.00     0.098 A 
ATOM      8  C   UNL     1      -1.326   1.800  -4.150  1.00  0.00     0.161 A 
ATOM      9  C   UNL     1       0.065   1.755  -3.946  1.00  0.00     0.158 A 
ATOM     10  C   UNL     1       0.625   2.353  -2.806  1.00  0.00     0.062 A 
ATOM     11  C   UNL     1      -0.201   2.993  -1.872  1.00  0.00     0.022 A 
ENDROOT
BRANCH   9  12
ATOM     12  O   UNL     1       0.885   1.118  -4.875  1.00  0.00    -0.504 OA
ATOM     13  H   UNL     1       1.351   0.244  -4.662  1.00  0.00     0.293 HD
ENDBRANCH   9  12
BRANCH   8  14
ATOM     14  O   UNL     1      -1.909   1.214  -5.274  1.00  0.00    -0.504 OA
ATOM     15  H   UNL     1      -2.178   0.238  -5.293  1.00  0.00     0.293 HD
ENDBRANCH   8  14
TORSDOF 2
ENDMDL
MODEL 6
REMARK VINA RESULT:    -3.613      2.341      3.340
REMARK INTER + INTRA:          -3.824
REMARK INTER:                  -3.824
REMARK INTRA:                   0.000
REMARK UNBOUND:                 0.000
REMARK SMILES O=c1ccc2cc(O)c(O)cc2o1
REMARK SMILES IDX 4 1 3 2 2 3 1 4 13 5 12 6 11 7 9 8 7 9 6 10 5 11 8 12 10 14
REMARK H PARENT 8 13 10 15
REMARK Flexibility Score: inf
ROOT
ATOM      1  C   UNL     1       0.954   2.959  -2.053  1.00  0.00     0.019 A 
ATOM      2  C   UNL     1       1.365   4.081  -2.772  1.00  0.00     0.094 A 
ATOM      3  C   UNL     1       0.433   4.756  -3.566  1.00  0.00     0.336 A 
ATOM      4  O   UNL     1       0.785   5.771  -4.224  1.00  0.00    -0.246 OA
ATOM      5  O   UNL     1      -0.827   4.333  -3.634  1.00  0.00    -0.423 OA
ATOM      6  C   UNL     1      -1.261   3.268  -2.964  1.00  0.00     0.142 A 
ATOM      7  C   UNL     1      -2.596   2.869  -3.074  1.00  0.00     0.098 A 
ATOM      8  C   UNL     1      -3.060   1.750  -2.372  1.00  0.00     0.161 A 
ATOM      9  C   UNL     1      -2.181   1.020  -1.552  1.00  0.00     0.158 A 
ATOM     10  C   UNL     1      -0.838   1.416  -1.439  1.00  0.00     0.062 A 
ATOM     11  C   UNL     1      -0.376   2.537  -2.142  1.00  0.00     0.022 A 
ENDROOT
BRANCH   9  12
ATOM     12  O   UNL     1      -2.641  -0.094  -0.853  1.00  0.00    -0.504 OA
ATOM     13  H   UNL     1      -3.233  -0.002  -0.037  1.00  0.00     0.293 HD
ENDBRANCH   9  12
BRANCH   8  14
ATOM     14  O   UNL     1      -4.398   1.378  -2.503  1.00  0.00    -0.504 OA
ATOM     15  H   UNL     1      -4.873   1.382  -3.398  1.00  0.00     0.293 HD
ENDBRANCH   8  14
TORSDOF 2
ENDMDL
MODEL 7
REMARK VINA RESULT:    -3.603      1.998      2.434
REMARK INTER + INTRA:          -3.814
REMARK INTER:                  -3.814
REMARK INTRA:                   0.000
REMARK UNBOUND:                 0.000
REMARK SMILES O=c1ccc2cc(O)c(O)cc2o1
REMARK SMILES IDX 4 1 3 2 2 3 1 4 13 5 12 6 11 7 9 8 7 9 6 10 5 11 8 12 10 14
REMARK H PARENT 8 13 10 15
REMARK Flexibility Score: inf
ROOT
ATOM      1  C   UNL     1      -2.773   5.130  -1.415  1.00  0.00     0.019 A 
ATOM      2  C   UNL     1      -1.513   5.494  -0.941  1.00  0.00     0.094 A 
ATOM      3  C   UNL     1      -0.524   4.512  -0.823  1.00  0.00     0.336 A 
ATOM      4  O   UNL     1       0.620   4.821  -0.397  1.00  0.00    -0.246 OA
ATOM      5  O   UNL     1      -0.783   3.251  -1.158  1.00  0.00    -0.423 OA
ATOM      6  C   UNL     1      -1.971   2.861  -1.615  1.00  0.00     0.142 A 
ATOM      7  C   UNL     1      -2.186   1.522  -1.951  1.00  0.00     0.098 A 
ATOM      8  C   UNL     1      -3.433   1.104  -2.433  1.00  0.00     0.161 A 
ATOM      9  C   UNL     1      -4.477   2.035  -2.578  1.00  0.00     0.158 A 
ATOM     10  C   UNL     1      -4.266   3.381  -2.241  1.00  0.00     0.062 A 
ATOM     11  C   UNL     1      -3.017   3.798  -1.761  1.00  0.00     0.022 A 
ENDROOT
BRANCH   9  12
ATOM     12  O   UNL     1      -5.719   1.621  -3.057  1.00  0.00    -0.504 OA
ATOM     13  H   UNL     1      -6.371   2.273  -3.476  1.00  0.00     0.293 HD
ENDBRANCH   9  12
BRANCH   8  14
ATOM     14  O   UNL     1      -3.615  -0.239  -2.760  1.00  0.00    -0.504 OA
ATOM     15  H   UNL     1      -3.889  -0.534  -3.690  1.00  0.00     0.293 HD
ENDBRANCH   8  14
TORSDOF 2
ENDMDL
MODEL 8
REMARK VINA RESULT:    -3.570      2.137      4.728
REMARK INTER + INTRA:          -3.779
REMARK INTER:                  -3.779
REMARK INTRA:                   0.000
REMARK UNBOUND:                 0.000
REMARK SMILES O=c1ccc2cc(O)c(O)cc2o1
REMARK SMILES IDX 4 1 3 2 2 3 1 4 13 5 12 6 11 7 9 8 7 9 6 10 5 11 8 12 10 14
REMARK H PARENT 8 13 10 15
REMARK Flexibility Score: inf
ROOT
ATOM      1  C   UNL     1      -3.726   3.083  -4.542  1.00  0.00     0.019 A 
ATOM      2  C   UNL     1      -4.714   3.561  -3.682  1.00  0.00     0.094 A 
ATOM      3  C   UNL     1      -4.437   3.649  -2.314  1.00  0.00     0.336 A 
ATOM      4  O   UNL     1      -5.316   4.078  -1.521  1.00  0.00    -0.246 OA
ATOM      5  O   UNL     1      -3.249   3.281  -1.843  1.00  0.00    -0.423 OA
ATOM      6  C   UNL     1      -2.278   2.820  -2.628  1.00  0.00     0.142 A 
ATOM      7  C   UNL     1      -1.049   2.448  -2.077  1.00  0.00     0.098 A 
ATOM      8  C   UNL     1      -0.023   1.962  -2.896  1.00  0.00     0.161 A 
ATOM      9  C   UNL     1      -0.228   1.845  -4.283  1.00  0.00     0.158 A 
ATOM     10  C   UNL     1      -1.461   2.217  -4.842  1.00  0.00     0.062 A 
ATOM     11  C   UNL     1      -2.486   2.704  -4.019  1.00  0.00     0.022 A 
ENDROOT
BRANCH   9  12
ATOM     12  O   UNL     1       0.792   1.361  -5.100  1.00  0.00    -0.504 OA
ATOM     13  H   UNL     1       1.555   0.809  -4.727  1.00  0.00     0.293 HD
ENDBRANCH   9  12
BRANCH   8  14
ATOM     14  O   UNL     1       1.192   1.599  -2.315  1.00  0.00    -0.504 OA
ATOM     15  H   UNL     1       1.545   0.651  -2.354  1.00  0.00     0.293 HD
ENDBRANCH   8  14
TORSDOF 2
ENDMDL
MODEL 9
REMARK VINA RESULT:    -3.531      2.354      3.456
REMARK INTER + INTRA:          -3.737
REMARK INTER:                  -3.737
REMARK INTRA:                   0.000
REMARK UNBOUND:                 0.000
REMARK SMILES O=c1ccc2cc(O)c(O)cc2o1
REMARK SMILES IDX 4 1 3 2 2 3 1 4 13 5 12 6 11 7 9 8 7 9 6 10 5 11 8 12 10 14
REMARK H PARENT 8 13 10 15
REMARK Flexibility Score: inf
ROOT
ATOM      1  C   UNL     1      -0.586   4.453  -3.584  1.00  0.00     0.019 A 
ATOM      2  C   UNL     1       0.386   5.235  -2.959  1.00  0.00     0.094 A 
ATOM      3  C   UNL     1       0.834   4.870  -1.686  1.00  0.00     0.336 A 
ATOM      4  O   UNL     1       1.711   5.563  -1.106  1.00  0.00    -0.246 OA
ATOM      5  O   UNL     1       0.340   3.793  -1.081  1.00  0.00    -0.423 OA
ATOM      6  C   UNL     1      -0.587   3.019  -1.641  1.00  0.00     0.142 A 
ATOM      7  C   UNL     1      -1.070   1.899  -0.959  1.00  0.00     0.098 A 
ATOM      8  C   UNL     1      -2.045   1.081  -1.541  1.00  0.00     0.161 A 
ATOM      9  C   UNL     1      -2.545   1.385  -2.820  1.00  0.00     0.158 A 
ATOM     10  C   UNL     1      -2.064   2.509  -3.510  1.00  0.00     0.062 A 
ATOM     11  C   UNL     1      -1.087   3.327  -2.925  1.00  0.00     0.022 A 
ENDROOT
BRANCH   9  12
ATOM     12  O   UNL     1      -3.516   0.572  -3.401  1.00  0.00    -0.504 OA
ATOM     13  H   UNL     1      -3.365  -0.420  -3.539  1.00  0.00     0.293 HD
ENDBRANCH   9  12
BRANCH   8  14
ATOM     14  O   UNL     1      -2.506  -0.029  -0.833  1.00  0.00    -0.504 OA
ATOM     15  H   UNL     1      -1.882  -0.765  -0.523  1.00  0.00     0.293 HD
ENDBRANCH   8  14
TORSDOF 2
ENDMDL
