MODEL 1
REMARK VINA RESULT:     5.023      0.000      0.000
REMARK INTER + INTRA:           5.935
REMARK INTER:                   6.197
REMARK INTRA:                  -0.262
REMARK UNBOUND:                -0.262
REMARK SMILES COc1cc(-c2oc3cc(O)cc(O)c3c(=O)c2O)ccc1O
REMARK SMILES IDX 6 1 18 2 16 3 17 4 15 5 13 6 12 7 10 8 9 9 8 10 7 11 5 12
REMARK SMILES IDX 3 13 22 14 4 15 21 16 20 17 2 18 1 19 23 20 19 22 14 24
REMARK SMILES IDX 11 26
REMARK H PARENT 23 21 19 23 14 25 11 27
REMARK Flexibility Score: inf
ROOT
ATOM      1  C   UNL     1     160.464 146.103 172.137  1.00  0.00     0.180 A 
ATOM      2  C   UNL     1     160.445 145.337 170.959  1.00  0.00     0.208 A 
ATOM      3  C   UNL     1     160.150 145.970 169.740  1.00  0.00     0.238 A 
ATOM      4  O   UNL     1     160.188 145.289 168.682  1.00  0.00    -0.285 OA
ATOM      5  C   UNL     1     159.863 147.356 169.717  1.00  0.00     0.111 A 
ATOM      6  C   UNL     1     159.512 148.091 168.544  1.00  0.00     0.134 A 
ATOM      7  C   UNL     1     159.377 149.483 168.617  1.00  0.00     0.093 A 
ATOM      8  C   UNL     1     159.514 150.157 169.831  1.00  0.00     0.123 A 
ATOM      9  C   UNL     1     159.798 149.441 170.994  1.00  0.00     0.094 A 
ATOM     10  C   UNL     1     159.975 148.056 170.946  1.00  0.00     0.146 A 
ATOM     11  O   UNL     1     160.254 147.413 172.073  1.00  0.00    -0.452 OA
ENDROOT
BRANCH   1  12
ATOM     12  C   UNL     1     160.742 145.504 173.463  1.00  0.00     0.025 A 
ATOM     13  C   UNL     1     162.153 145.377 175.457  1.00  0.00     0.161 A 
ATOM     14  C   UNL     1     161.270 144.432 176.011  1.00  0.00     0.157 A 
ATOM     15  C   UNL     1     161.875 145.913 174.183  1.00  0.00     0.062 A 
ATOM     16  C   UNL     1     160.130 144.040 175.303  1.00  0.00     0.051 A 
ATOM     17  C   UNL     1     159.862 144.575 174.041  1.00  0.00     0.016 A 
BRANCH  13  18
ATOM     18  O   UNL     1     163.285 145.760 176.193  1.00  0.00    -0.493 OA
ATOM     19  C   UNL     1     164.386 146.491 175.662  1.00  0.00     0.278 C 
ENDBRANCH  13  18
BRANCH  14  20
ATOM     20  O   UNL     1     161.506 143.876 177.267  1.00  0.00    -0.504 OA
ATOM     21  H   UNL     1     161.075 144.239 178.109  1.00  0.00     0.293 HD
ENDBRANCH  14  20
ENDBRANCH   1  12
BRANCH   2  22
ATOM     22  O   UNL     1     160.752 143.975 171.001  1.00  0.00    -0.502 OA
ATOM     23  H   UNL     1     160.712 143.381 170.181  1.00  0.00     0.293 HD
ENDBRANCH   2  22
BRANCH   6  24
ATOM     24  O   UNL     1     159.262 147.504 167.302  1.00  0.00    -0.507 OA
ATOM     25  H   UNL     1     158.817 147.970 166.525  1.00  0.00     0.293 HD
ENDBRANCH   6  24
BRANCH   8  26
ATOM     26  O   UNL     1     159.358 151.541 169.869  1.00  0.00    -0.508 OA
ATOM     27  H   UNL     1     160.025 152.137 170.344  1.00  0.00     0.293 HD
ENDBRANCH   8  26
TORSDOF 6
ENDMDL
MODEL 2
REMARK VINA RESULT:     6.044      1.200      2.919
REMARK INTER + INTRA:           7.195
REMARK INTER:                   7.321
REMARK INTRA:                  -0.125
REMARK UNBOUND:                -0.262
REMARK SMILES COc1cc(-c2oc3cc(O)cc(O)c3c(=O)c2O)ccc1O
REMARK SMILES IDX 6 1 18 2 16 3 17 4 15 5 13 6 12 7 10 8 9 9 8 10 7 11 5 12
REMARK SMILES IDX 3 13 22 14 4 15 21 16 20 17 2 18 1 19 23 20 19 22 14 24
REMARK SMILES IDX 11 26
REMARK H PARENT 23 21 19 23 14 25 11 27
REMARK Flexibility Score: inf
ROOT
ATOM      1  C   UNL     1     160.364 146.229 172.023  1.00  0.00     0.180 A 
ATOM      2  C   UNL     1     160.192 147.618 171.888  1.00  0.00     0.208 A 
ATOM      3  C   UNL     1     159.908 148.148 170.619  1.00  0.00     0.238 A 
ATOM      4  O   UNL     1     159.702 149.386 170.514  1.00  0.00    -0.285 OA
ATOM      5  C   UNL     1     159.815 147.287 169.500  1.00  0.00     0.111 A 
ATOM      6  C   UNL     1     159.571 147.721 168.162  1.00  0.00     0.134 A 
ATOM      7  C   UNL     1     159.369 146.770 167.154  1.00  0.00     0.093 A 
ATOM      8  C   UNL     1     159.467 145.405 167.422  1.00  0.00     0.123 A 
ATOM      9  C   UNL     1     159.763 144.971 168.715  1.00  0.00     0.094 A 
ATOM     10  C   UNL     1     159.934 145.895 169.748  1.00  0.00     0.146 A 
ATOM     11  O   UNL     1     160.206 145.441 170.966  1.00  0.00    -0.452 OA
ENDROOT
BRANCH   1  12
ATOM     12  C   UNL     1     160.689 145.597 173.323  1.00  0.00     0.025 A 
ATOM     13  C   UNL     1     162.145 145.453 175.283  1.00  0.00     0.161 A 
ATOM     14  C   UNL     1     161.304 144.464 175.824  1.00  0.00     0.157 A 
ATOM     15  C   UNL     1     161.824 146.019 174.032  1.00  0.00     0.062 A 
ATOM     16  C   UNL     1     160.162 144.059 175.128  1.00  0.00     0.051 A 
ATOM     17  C   UNL     1     159.850 144.624 173.889  1.00  0.00     0.016 A 
BRANCH  13  18
ATOM     18  O   UNL     1     163.281 145.848 176.008  1.00  0.00    -0.493 OA
ATOM     19  C   UNL     1     164.437 146.450 175.434  1.00  0.00     0.278 C 
ENDBRANCH  13  18
BRANCH  14  20
ATOM     20  O   UNL     1     161.584 143.877 177.057  1.00  0.00    -0.504 OA
ATOM     21  H   UNL     1     160.854 143.540 177.674  1.00  0.00     0.293 HD
ENDBRANCH  14  20
ENDBRANCH   1  12
BRANCH   2  22
ATOM     22  O   UNL     1     160.267 148.447 173.010  1.00  0.00    -0.502 OA
ATOM     23  H   UNL     1     160.048 149.436 172.972  1.00  0.00     0.293 HD
ENDBRANCH   2  22
BRANCH   6  24
ATOM     24  O   UNL     1     159.545 149.061 167.769  1.00  0.00    -0.507 OA
ATOM     25  H   UNL     1     159.047 149.416 166.966  1.00  0.00     0.293 HD
ENDBRANCH   6  24
BRANCH   8  26
ATOM     26  O   UNL     1     159.275 144.487 166.391  1.00  0.00    -0.508 OA
ATOM     27  H   UNL     1     160.052 143.992 165.970  1.00  0.00     0.293 HD
ENDBRANCH   8  26
TORSDOF 6
ENDMDL
MODEL 3
REMARK VINA RESULT:     6.412      2.520      2.882
REMARK INTER + INTRA:           7.649
REMARK INTER:                   7.373
REMARK INTRA:                   0.276
REMARK UNBOUND:                -0.262
REMARK SMILES COc1cc(-c2oc3cc(O)cc(O)c3c(=O)c2O)ccc1O
REMARK SMILES IDX 6 1 18 2 16 3 17 4 15 5 13 6 12 7 10 8 9 9 8 10 7 11 5 12
REMARK SMILES IDX 3 13 22 14 4 15 21 16 20 17 2 18 1 19 23 20 19 22 14 24
REMARK SMILES IDX 11 26
REMARK H PARENT 23 21 19 23 14 25 11 27
REMARK Flexibility Score: inf
ROOT
ATOM      1  C   UNL     1     160.602 145.010 172.529  1.00  0.00     0.180 A 
ATOM      2  C   UNL     1     161.530 145.304 171.515  1.00  0.00     0.208 A 
ATOM      3  C   UNL     1     161.073 145.443 170.194  1.00  0.00     0.238 A 
ATOM      4  O   UNL     1     161.901 145.760 169.299  1.00  0.00    -0.285 OA
ATOM      5  C   UNL     1     159.700 145.269 169.901  1.00  0.00     0.111 A 
ATOM      6  C   UNL     1     159.134 145.348 168.592  1.00  0.00     0.134 A 
ATOM      7  C   UNL     1     157.743 145.289 168.437  1.00  0.00     0.093 A 
ATOM      8  C   UNL     1     156.904 145.090 169.533  1.00  0.00     0.123 A 
ATOM      9  C   UNL     1     157.451 144.953 170.810  1.00  0.00     0.094 A 
ATOM     10  C   UNL     1     158.831 145.044 171.001  1.00  0.00     0.146 A 
ATOM     11  O   UNL     1     159.311 144.918 172.232  1.00  0.00    -0.452 OA
ENDROOT
BRANCH   1  12
ATOM     12  C   UNL     1     161.010 144.825 173.941  1.00  0.00     0.025 A 
ATOM     13  C   UNL     1     162.524 145.379 175.780  1.00  0.00     0.161 A 
ATOM     14  C   UNL     1     161.777 144.547 176.634  1.00  0.00     0.157 A 
ATOM     15  C   UNL     1     162.126 145.517 174.434  1.00  0.00     0.062 A 
ATOM     16  C   UNL     1     160.652 143.875 176.148  1.00  0.00     0.051 A 
ATOM     17  C   UNL     1     160.265 144.016 174.814  1.00  0.00     0.016 A 
BRANCH  13  18
ATOM     18  O   UNL     1     163.645 146.050 176.296  1.00  0.00    -0.493 OA
ATOM     19  C   UNL     1     164.764 146.467 175.522  1.00  0.00     0.278 C 
ENDBRANCH  13  18
BRANCH  14  20
ATOM     20  O   UNL     1     162.135 144.381 177.971  1.00  0.00    -0.504 OA
ATOM     21  H   UNL     1     161.457 144.428 178.722  1.00  0.00     0.293 HD
ENDBRANCH  14  20
ENDBRANCH   1  12
BRANCH   2  22
ATOM     22  O   UNL     1     162.878 145.492 171.829  1.00  0.00    -0.502 OA
ATOM     23  H   UNL     1     163.489 146.084 171.277  1.00  0.00     0.293 HD
ENDBRANCH   2  22
BRANCH   6  24
ATOM     24  O   UNL     1     159.888 145.454 167.421  1.00  0.00    -0.507 OA
ATOM     25  H   UNL     1     160.867 145.222 167.345  1.00  0.00     0.293 HD
ENDBRANCH   6  24
BRANCH   8  26
ATOM     26  O   UNL     1     155.526 145.022 169.339  1.00  0.00    -0.508 OA
ATOM     27  H   UNL     1     155.102 145.273 168.454  1.00  0.00     0.293 HD
ENDBRANCH   8  26
TORSDOF 6
ENDMDL
MODEL 4
REMARK VINA RESULT:     7.826      2.595      6.967
REMARK INTER + INTRA:           9.394
REMARK INTER:                   8.523
REMARK INTRA:                   0.871
REMARK UNBOUND:                -0.262
REMARK SMILES COc1cc(-c2oc3cc(O)cc(O)c3c(=O)c2O)ccc1O
REMARK SMILES IDX 6 1 18 2 16 3 17 4 15 5 13 6 12 7 10 8 9 9 8 10 7 11 5 12
REMARK SMILES IDX 3 13 22 14 4 15 21 16 20 17 2 18 1 19 23 20 19 22 14 24
REMARK SMILES IDX 11 26
REMARK H PARENT 23 21 19 23 14 25 11 27
REMARK Flexibility Score: inf
ROOT
ATOM      1  C   UNL     1     160.273 145.152 172.222  1.00  0.00     0.180 A 
ATOM      2  C   UNL     1     159.545 144.503 173.235  1.00  0.00     0.208 A 
ATOM      3  C   UNL     1     160.104 144.409 174.521  1.00  0.00     0.238 A 
ATOM      4  O   UNL     1     159.424 143.875 175.436  1.00  0.00    -0.285 OA
ATOM      5  C   UNL     1     161.388 144.949 174.773  1.00  0.00     0.111 A 
ATOM      6  C   UNL     1     162.066 144.874 176.027  1.00  0.00     0.134 A 
ATOM      7  C   UNL     1     163.276 145.557 176.198  1.00  0.00     0.093 A 
ATOM      8  C   UNL     1     163.865 146.256 175.144  1.00  0.00     0.123 A 
ATOM      9  C   UNL     1     163.239 146.286 173.897  1.00  0.00     0.094 A 
ATOM     10  C   UNL     1     162.013 145.645 173.706  1.00  0.00     0.146 A 
ATOM     11  O   UNL     1     161.446 145.705 172.507  1.00  0.00    -0.452 OA
ENDROOT
BRANCH   1  12
ATOM     12  C   UNL     1     159.762 145.271 170.837  1.00  0.00     0.025 A 
ATOM     13  C   UNL     1     160.211 145.419 168.438  1.00  0.00     0.161 A 
ATOM     14  C   UNL     1     158.826 145.435 168.188  1.00  0.00     0.157 A 
ATOM     15  C   UNL     1     160.668 145.330 169.768  1.00  0.00     0.062 A 
ATOM     16  C   UNL     1     157.923 145.355 169.252  1.00  0.00     0.051 A 
ATOM     17  C   UNL     1     158.384 145.268 170.567  1.00  0.00     0.016 A 
BRANCH  13  18
ATOM     18  O   UNL     1     161.096 145.492 167.350  1.00  0.00    -0.493 OA
ATOM     19  C   UNL     1     160.888 144.853 166.095  1.00  0.00     0.278 C 
ENDBRANCH  13  18
BRANCH  14  20
ATOM     20  O   UNL     1     158.329 145.524 166.889  1.00  0.00    -0.504 OA
ATOM     21  H   UNL     1     158.316 146.396 166.373  1.00  0.00     0.293 HD
ENDBRANCH  14  20
ENDBRANCH   1  12
BRANCH   2  22
ATOM     22  O   UNL     1     158.270 143.997 172.970  1.00  0.00    -0.502 OA
ATOM     23  H   UNL     1     157.749 143.451 173.647  1.00  0.00     0.293 HD
ENDBRANCH   2  22
BRANCH   6  24
ATOM     24  O   UNL     1     161.611 144.128 177.116  1.00  0.00    -0.507 OA
ATOM     25  H   UNL     1     161.205 143.206 177.053  1.00  0.00     0.293 HD
ENDBRANCH   6  24
BRANCH   8  26
ATOM     26  O   UNL     1     165.077 146.911 175.347  1.00  0.00    -0.508 OA
ATOM     27  H   UNL     1     165.748 147.029 174.596  1.00  0.00     0.293 HD
ENDBRANCH   8  26
TORSDOF 6
ENDMDL
