MODEL 1
REMARK VINA RESULT:    -3.791      0.000      0.000
REMARK INTER + INTRA:          -4.377
REMARK INTER:                  -5.120
REMARK INTRA:                   0.744
REMARK UNBOUND:                 0.744
REMARK SMILES CC(C)=CCC[C@H](C(=O)[O-])[C@@H]1[C@H](O)C[C@]2(C)C3=CC[C@H]4C(C)(C)[C@@H](O)CC[C@@]4(C)C3=CC[C@@]12C
REMARK SMILES IDX 6 1 7 2 8 3 9 4 10 5 11 6 12 7 33 8 14 9 15 10 32 11 34 12
REMARK SMILES IDX 16 13 17 14 31 15 30 16 18 17 28 18 19 19 20 20 27 21 29 22
REMARK SMILES IDX 21 23 26 24 24 25 22 26 23 27 13 28 25 30 5 32 4 33 2 34
REMARK SMILES IDX 1 35 3 36
REMARK H PARENT 13 29 25 31
REMARK Flexibility Score: inf
ROOT
ATOM      1  C   UNL     1      99.154 111.585 110.742  1.00  0.00     0.014 C 
ENDROOT
BRANCH   1   2
ATOM      2  C   UNL     1      99.744 111.240 109.350  1.00  0.00     0.042 C 
BRANCH   2   3
ATOM      3  C   UNL     1     101.027 112.006 109.090  1.00  0.00     0.045 C 
ATOM      4  O   UNL     1     102.066 111.386 108.737  1.00  0.00    -0.550 OA
ATOM      5  O   UNL     1     101.116 113.370 109.335  1.00  0.00    -0.550 OA
ENDBRANCH   2   3
BRANCH   2   6
ATOM      6  C   UNL     1      98.648 111.267 108.215  1.00  0.00     0.034 C 
ATOM      7  C   UNL     1      98.998 112.067 106.915  1.00  0.00     0.119 C 
ATOM      8  C   UNL     1      97.166 111.651 108.506  1.00  0.00    -0.014 C 
ATOM      9  C   UNL     1      97.656 112.576 106.334  1.00  0.00     0.044 C 
ATOM     10  C   UNL     1      96.578 111.761 107.061  1.00  0.00     0.001 C 
ATOM     11  C   UNL     1      96.295 110.631 109.279  1.00  0.00     0.035 C 
ATOM     12  C   UNL     1      97.119 113.016 109.272  1.00  0.00     0.013 C 
ATOM     13  C   UNL     1      96.427 110.401 106.296  1.00  0.00     0.017 C 
ATOM     14  C   UNL     1      95.173 112.329 107.143  1.00  0.00    -0.042 C 
ATOM     15  C   UNL     1      94.823 111.007 109.195  1.00  0.00    -0.022 C 
ATOM     16  C   UNL     1      94.301 111.873 108.274  1.00  0.00    -0.042 C 
ATOM     17  C   UNL     1      94.645 112.976 106.104  1.00  0.00    -0.022 C 
ATOM     18  C   UNL     1      92.849 112.399 108.421  1.00  0.00    -0.004 C 
ATOM     19  C   UNL     1      93.176 113.178 105.979  1.00  0.00     0.032 C 
ATOM     20  C   UNL     1      92.505 113.514 107.336  1.00  0.00     0.011 C 
ATOM     21  C   UNL     1      91.891 111.187 108.272  1.00  0.00     0.014 C 
ATOM     22  C   UNL     1      92.745 113.017 109.848  1.00  0.00     0.017 C 
ATOM     23  C   UNL     1      90.947 113.849 107.171  1.00  0.00    -0.005 C 
ATOM     24  C   UNL     1      90.409 111.567 108.248  1.00  0.00     0.033 C 
ATOM     25  C   UNL     1      90.085 112.546 107.109  1.00  0.00     0.120 C 
ATOM     26  C   UNL     1      90.672 114.676 105.878  1.00  0.00     0.014 C 
ATOM     27  C   UNL     1      90.438 114.758 108.335  1.00  0.00     0.014 C 
BRANCH   7  28
ATOM     28  O   UNL     1      99.845 113.155 107.160  1.00  0.00    -0.393 OA
ATOM     29  H   UNL     1     100.557 112.830 107.772  1.00  0.00     0.210 HD
ENDBRANCH   7  28
BRANCH  25  30
ATOM     30  O   UNL     1      90.262 111.891 105.875  1.00  0.00    -0.393 OA
ATOM     31  H   UNL     1      89.444 112.058 105.336  1.00  0.00     0.210 HD
ENDBRANCH  25  30
ENDBRANCH   2   6
ENDBRANCH   1   2
BRANCH   1  32
ATOM     32  C   UNL     1     100.179 111.492 111.888  1.00  0.00     0.028 C 
BRANCH  32  33
ATOM     33  C   UNL     1     100.108 112.688 112.809  1.00  0.00    -0.028 C 
ATOM     34  C   UNL     1      99.748 112.642 114.111  1.00  0.00    -0.080 C 
ATOM     35  C   UNL     1      99.361 111.352 114.793  1.00  0.00     0.039 C 
ATOM     36  C   UNL     1      99.743 113.926 114.900  1.00  0.00     0.039 C 
ENDBRANCH  32  33
ENDBRANCH   1  32
TORSDOF 7
ENDMDL
MODEL 2
REMARK VINA RESULT:    -3.782      2.259      8.800
REMARK INTER + INTRA:          -4.365
REMARK INTER:                  -4.192
REMARK INTRA:                  -0.173
REMARK UNBOUND:                 0.744
REMARK SMILES CC(C)=CCC[C@H](C(=O)[O-])[C@@H]1[C@H](O)C[C@]2(C)C3=CC[C@H]4C(C)(C)[C@@H](O)CC[C@@]4(C)C3=CC[C@@]12C
REMARK SMILES IDX 6 1 7 2 8 3 9 4 10 5 11 6 12 7 33 8 14 9 15 10 32 11 34 12
REMARK SMILES IDX 16 13 17 14 31 15 30 16 18 17 28 18 19 19 20 20 27 21 29 22
REMARK SMILES IDX 21 23 26 24 24 25 22 26 23 27 13 28 25 30 5 32 4 33 2 34
REMARK SMILES IDX 1 35 3 36
REMARK H PARENT 13 29 25 31
REMARK Flexibility Score: inf
ROOT
ATOM      1  C   UNL     1      91.811 110.763 106.195  1.00  0.00     0.014 C 
ENDROOT
BRANCH   1   2
ATOM      2  C   UNL     1      92.188 111.278 107.609  1.00  0.00     0.042 C 
BRANCH   2   3
ATOM      3  C   UNL     1      91.979 112.776 107.723  1.00  0.00     0.045 C 
ATOM      4  O   UNL     1      91.783 113.297 108.855  1.00  0.00    -0.550 OA
ATOM      5  O   UNL     1      91.890 113.581 106.596  1.00  0.00    -0.550 OA
ENDBRANCH   2   3
BRANCH   2   6
ATOM      6  C   UNL     1      93.573 110.707 108.102  1.00  0.00     0.034 C 
ATOM      7  C   UNL     1      93.662 110.267 109.602  1.00  0.00     0.119 C 
ATOM      8  C   UNL     1      94.914 111.460 107.851  1.00  0.00    -0.014 C 
ATOM      9  C   UNL     1      95.136 110.463 110.035  1.00  0.00     0.044 C 
ATOM     10  C   UNL     1      95.912 110.629 108.721  1.00  0.00     0.001 C 
ATOM     11  C   UNL     1      95.471 111.480 106.406  1.00  0.00     0.035 C 
ATOM     12  C   UNL     1      94.785 112.941 108.346  1.00  0.00     0.013 C 
ATOM     13  C   UNL     1      96.231 109.192 108.183  1.00  0.00     0.017 C 
ATOM     14  C   UNL     1      97.251 111.345 108.756  1.00  0.00    -0.042 C 
ATOM     15  C   UNL     1      96.915 111.961 106.392  1.00  0.00    -0.022 C 
ATOM     16  C   UNL     1      97.724 112.001 107.494  1.00  0.00    -0.042 C 
ATOM     17  C   UNL     1      98.091 111.155 109.773  1.00  0.00    -0.022 C 
ATOM     18  C   UNL     1      99.085 112.744 107.446  1.00  0.00    -0.004 C 
ATOM     19  C   UNL     1      99.537 111.487 109.659  1.00  0.00     0.032 C 
ATOM     20  C   UNL     1      99.783 112.804 108.877  1.00  0.00     0.011 C 
ATOM     21  C   UNL     1      99.993 111.998 106.433  1.00  0.00     0.014 C 
ATOM     22  C   UNL     1      98.781 114.193 106.958  1.00  0.00     0.017 C 
ATOM     23  C   UNL     1     101.331 113.217 108.865  1.00  0.00    -0.005 C 
ATOM     24  C   UNL     1     101.428 112.526 106.380  1.00  0.00     0.033 C 
ATOM     25  C   UNL     1     102.118 112.451 107.752  1.00  0.00     0.120 C 
ATOM     26  C   UNL     1     102.014 112.921 110.235  1.00  0.00     0.014 C 
ATOM     27  C   UNL     1     101.504 114.756 108.664  1.00  0.00     0.014 C 
BRANCH   7  28
ATOM     28  O   UNL     1      92.826 111.019 110.438  1.00  0.00    -0.393 OA
ATOM     29  H   UNL     1      93.358 111.242 111.247  1.00  0.00     0.210 HD
ENDBRANCH   7  28
BRANCH  25  30
ATOM     30  O   UNL     1     102.293 111.100 108.106  1.00  0.00    -0.393 OA
ATOM     31  H   UNL     1     103.250 110.878 107.948  1.00  0.00     0.210 HD
ENDBRANCH  25  30
ENDBRANCH   2   6
ENDBRANCH   1   2
BRANCH   1  32
ATOM     32  C   UNL     1      90.898 109.522 106.213  1.00  0.00     0.028 C 
BRANCH  32  33
ATOM     33  C   UNL     1      89.492 109.861 106.649  1.00  0.00    -0.028 C 
ATOM     34  C   UNL     1      88.555 108.958 107.014  1.00  0.00    -0.080 C 
ATOM     35  C   UNL     1      88.828 107.472 107.013  1.00  0.00     0.039 C 
ATOM     36  C   UNL     1      87.200 109.460 107.440  1.00  0.00     0.039 C 
ENDBRANCH  32  33
ENDBRANCH   1  32
TORSDOF 7
ENDMDL
MODEL 3
REMARK VINA RESULT:    -3.151      2.132      8.277
REMARK INTER + INTRA:          -3.512
REMARK INTER:                  -3.684
REMARK INTRA:                   0.172
REMARK UNBOUND:                 0.744
REMARK SMILES CC(C)=CCC[C@H](C(=O)[O-])[C@@H]1[C@H](O)C[C@]2(C)C3=CC[C@H]4C(C)(C)[C@@H](O)CC[C@@]4(C)C3=CC[C@@]12C
REMARK SMILES IDX 6 1 7 2 8 3 9 4 10 5 11 6 12 7 33 8 14 9 15 10 32 11 34 12
REMARK SMILES IDX 16 13 17 14 31 15 30 16 18 17 28 18 19 19 20 20 27 21 29 22
REMARK SMILES IDX 21 23 26 24 24 25 22 26 23 27 13 28 25 30 5 32 4 33 2 34
REMARK SMILES IDX 1 35 3 36
REMARK H PARENT 13 29 25 31
REMARK Flexibility Score: inf
ROOT
ATOM      1  C   UNL     1      91.521 111.952 108.103  1.00  0.00     0.014 C 
ENDROOT
BRANCH   1   2
ATOM      2  C   UNL     1      92.355 111.168 107.056  1.00  0.00     0.042 C 
BRANCH   2   3
ATOM      3  C   UNL     1      91.489 110.194 106.280  1.00  0.00     0.045 C 
ATOM      4  O   UNL     1      91.980 109.105 105.875  1.00  0.00    -0.550 OA
ATOM      5  O   UNL     1      90.192 110.518 105.908  1.00  0.00    -0.550 OA
ENDBRANCH   2   3
BRANCH   2   6
ATOM      6  C   UNL     1      93.699 110.608 107.662  1.00  0.00     0.034 C 
ATOM      7  C   UNL     1      93.673 110.188 109.169  1.00  0.00     0.119 C 
ATOM      8  C   UNL     1      95.054 111.362 107.504  1.00  0.00    -0.014 C 
ATOM      9  C   UNL     1      95.109 110.395 109.712  1.00  0.00     0.044 C 
ATOM     10  C   UNL     1      95.984 110.546 108.460  1.00  0.00     0.001 C 
ATOM     11  C   UNL     1      95.721 111.365 106.108  1.00  0.00     0.035 C 
ATOM     12  C   UNL     1      94.883 112.849 107.968  1.00  0.00     0.013 C 
ATOM     13  C   UNL     1      96.347 109.103 107.968  1.00  0.00     0.017 C 
ATOM     14  C   UNL     1      97.314 111.267 108.590  1.00  0.00    -0.042 C 
ATOM     15  C   UNL     1      97.161 111.851 106.199  1.00  0.00    -0.022 C 
ATOM     16  C   UNL     1      97.882 111.908 107.359  1.00  0.00    -0.042 C 
ATOM     17  C   UNL     1      98.073 111.093 109.670  1.00  0.00    -0.022 C 
ATOM     18  C   UNL     1      99.240 112.655 107.407  1.00  0.00    -0.004 C 
ATOM     19  C   UNL     1      99.523 111.429 109.664  1.00  0.00     0.032 C 
ATOM     20  C   UNL     1      99.826 112.736 108.886  1.00  0.00     0.011 C 
ATOM     21  C   UNL     1     100.226 111.899 106.476  1.00  0.00     0.014 C 
ATOM     22  C   UNL     1      98.972 114.096 106.877  1.00  0.00     0.017 C 
ATOM     23  C   UNL     1     101.369 113.154 108.988  1.00  0.00    -0.005 C 
ATOM     24  C   UNL     1     101.660 112.431 106.529  1.00  0.00     0.033 C 
ATOM     25  C   UNL     1     102.242 112.376 107.950  1.00  0.00     0.120 C 
ATOM     26  C   UNL     1     101.945 112.878 110.411  1.00  0.00     0.014 C 
ATOM     27  C   UNL     1     101.553 114.691 108.781  1.00  0.00     0.014 C 
BRANCH   7  28
ATOM     28  O   UNL     1      92.773 110.947 109.928  1.00  0.00    -0.393 OA
ATOM     29  H   UNL     1      93.246 111.785 110.177  1.00  0.00     0.210 HD
ENDBRANCH   7  28
BRANCH  25  30
ATOM     30  O   UNL     1     102.392 111.031 108.334  1.00  0.00    -0.393 OA
ATOM     31  H   UNL     1     102.286 110.479 107.514  1.00  0.00     0.210 HD
ENDBRANCH  25  30
ENDBRANCH   2   6
ENDBRANCH   1   2
BRANCH   1  32
ATOM     32  C   UNL     1      91.238 113.412 107.701  1.00  0.00     0.028 C 
BRANCH  32  33
ATOM     33  C   UNL     1      91.859 114.394 108.666  1.00  0.00    -0.028 C 
ATOM     34  C   UNL     1      91.176 115.110 109.588  1.00  0.00    -0.080 C 
ATOM     35  C   UNL     1      89.677 115.001 109.741  1.00  0.00     0.039 C 
ATOM     36  C   UNL     1      91.946 116.039 110.490  1.00  0.00     0.039 C 
ENDBRANCH  32  33
ENDBRANCH   1  32
TORSDOF 7
ENDMDL
MODEL 4
REMARK VINA RESULT:    -2.632      3.323      6.579
REMARK INTER + INTRA:          -2.812
REMARK INTER:                  -3.009
REMARK INTRA:                   0.197
REMARK UNBOUND:                 0.744
REMARK SMILES CC(C)=CCC[C@H](C(=O)[O-])[C@@H]1[C@H](O)C[C@]2(C)C3=CC[C@H]4C(C)(C)[C@@H](O)CC[C@@]4(C)C3=CC[C@@]12C
REMARK SMILES IDX 6 1 7 2 8 3 9 4 10 5 11 6 12 7 33 8 14 9 15 10 32 11 34 12
REMARK SMILES IDX 16 13 17 14 31 15 30 16 18 17 28 18 19 19 20 20 27 21 29 22
REMARK SMILES IDX 21 23 26 24 24 25 22 26 23 27 13 28 25 30 5 32 4 33 2 34
REMARK SMILES IDX 1 35 3 36
REMARK H PARENT 13 29 25 31
REMARK Flexibility Score: inf
ROOT
ATOM      1  C   UNL     1      99.384 113.550 117.832  1.00  0.00     0.014 C 
ENDROOT
BRANCH   1   2
ATOM      2  C   UNL     1     100.702 113.436 117.020  1.00  0.00     0.042 C 
BRANCH   2   3
ATOM      3  C   UNL     1     101.345 114.796 116.822  1.00  0.00     0.045 C 
ATOM      4  O   UNL     1     100.826 115.624 116.026  1.00  0.00    -0.550 OA
ATOM      5  O   UNL     1     102.559 115.113 117.415  1.00  0.00    -0.550 OA
ENDBRANCH   2   3
BRANCH   2   6
ATOM      6  C   UNL     1     100.538 112.526 115.741  1.00  0.00     0.034 C 
ATOM      7  C   UNL     1     101.746 112.482 114.747  1.00  0.00     0.119 C 
ATOM      8  C   UNL     1      99.289 112.622 114.814  1.00  0.00    -0.014 C 
ATOM      9  C   UNL     1     101.154 112.205 113.343  1.00  0.00     0.044 C 
ATOM     10  C   UNL     1      99.721 111.724 113.609  1.00  0.00     0.001 C 
ATOM     11  C   UNL     1      97.949 112.061 115.347  1.00  0.00     0.035 C 
ATOM     12  C   UNL     1      99.063 114.113 114.392  1.00  0.00     0.013 C 
ATOM     13  C   UNL     1      99.794 110.188 113.913  1.00  0.00     0.017 C 
ATOM     14  C   UNL     1      98.694 111.860 112.499  1.00  0.00    -0.042 C 
ATOM     15  C   UNL     1      96.931 111.935 114.222  1.00  0.00    -0.022 C 
ATOM     16  C   UNL     1      97.250 111.943 112.892  1.00  0.00    -0.042 C 
ATOM     17  C   UNL     1      99.035 111.629 111.232  1.00  0.00    -0.022 C 
ATOM     18  C   UNL     1      96.139 112.074 111.817  1.00  0.00    -0.004 C 
ATOM     19  C   UNL     1      98.010 111.345 110.190  1.00  0.00     0.032 C 
ATOM     20  C   UNL     1      96.743 112.224 110.350  1.00  0.00     0.011 C 
ATOM     21  C   UNL     1      95.246 110.807 111.906  1.00  0.00     0.014 C 
ATOM     22  C   UNL     1      95.325 113.354 112.175  1.00  0.00     0.017 C 
ATOM     23  C   UNL     1      95.699 111.999 109.156  1.00  0.00    -0.005 C 
ATOM     24  C   UNL     1      94.186 110.718 110.807  1.00  0.00     0.033 C 
ATOM     25  C   UNL     1      94.811 110.736 109.403  1.00  0.00     0.120 C 
ATOM     26  C   UNL     1      96.424 111.823 107.786  1.00  0.00     0.014 C 
ATOM     27  C   UNL     1      94.786 113.252 108.959  1.00  0.00     0.014 C 
BRANCH   7  28
ATOM     28  O   UNL     1     102.471 113.680 114.721  1.00  0.00    -0.393 OA
ATOM     29  H   UNL     1     102.784 113.803 113.785  1.00  0.00     0.210 HD
ENDBRANCH   7  28
BRANCH  25  30
ATOM     30  O   UNL     1      95.558 109.558 109.215  1.00  0.00    -0.393 OA
ATOM     31  H   UNL     1      95.201 109.112 108.402  1.00  0.00     0.210 HD
ENDBRANCH  25  30
ENDBRANCH   2   6
ENDBRANCH   1   2
BRANCH   1  32
ATOM     32  C   UNL     1      98.783 112.187 118.227  1.00  0.00     0.028 C 
BRANCH  32  33
ATOM     33  C   UNL     1      99.728 111.381 119.086  1.00  0.00    -0.028 C 
ATOM     34  C   UNL     1     100.132 110.119 118.818  1.00  0.00    -0.080 C 
ATOM     35  C   UNL     1      99.656 109.364 117.599  1.00  0.00     0.039 C 
ATOM     36  C   UNL     1     101.094 109.455 119.770  1.00  0.00     0.039 C 
ENDBRANCH  32  33
ENDBRANCH   1  32
TORSDOF 7
ENDMDL
MODEL 5
REMARK VINA RESULT:    -2.630      1.442      2.256
REMARK INTER + INTRA:          -2.809
REMARK INTER:                  -2.725
REMARK INTRA:                  -0.083
REMARK UNBOUND:                 0.744
REMARK SMILES CC(C)=CCC[C@H](C(=O)[O-])[C@@H]1[C@H](O)C[C@]2(C)C3=CC[C@H]4C(C)(C)[C@@H](O)CC[C@@]4(C)C3=CC[C@@]12C
REMARK SMILES IDX 6 1 7 2 8 3 9 4 10 5 11 6 12 7 33 8 14 9 15 10 32 11 34 12
REMARK SMILES IDX 16 13 17 14 31 15 30 16 18 17 28 18 19 19 20 20 27 21 29 22
REMARK SMILES IDX 21 23 26 24 24 25 22 26 23 27 13 28 25 30 5 32 4 33 2 34
REMARK SMILES IDX 1 35 3 36
REMARK H PARENT 13 29 25 31
REMARK Flexibility Score: inf
ROOT
ATOM      1  C   UNL     1     100.235 111.385 109.957  1.00  0.00     0.014 C 
ENDROOT
BRANCH   1   2
ATOM      2  C   UNL     1      99.609 111.175 108.552  1.00  0.00     0.042 C 
BRANCH   2   3
ATOM      3  C   UNL     1      99.791 112.403 107.679  1.00  0.00     0.045 C 
ATOM      4  O   UNL     1     100.012 112.267 106.446  1.00  0.00    -0.550 OA
ATOM      5  O   UNL     1      99.828 113.678 108.226  1.00  0.00    -0.550 OA
ENDBRANCH   2   3
BRANCH   2   6
ATOM      6  C   UNL     1      98.159 110.560 108.632  1.00  0.00     0.034 C 
ATOM      7  C   UNL     1      97.903 109.248 107.817  1.00  0.00     0.119 C 
ATOM      8  C   UNL     1      96.882 111.417 108.377  1.00  0.00    -0.014 C 
ATOM      9  C   UNL     1      96.402 109.251 107.433  1.00  0.00     0.044 C 
ATOM     10  C   UNL     1      95.769 110.320 108.333  1.00  0.00     0.001 C 
ATOM     11  C   UNL     1      96.473 112.443 109.462  1.00  0.00     0.035 C 
ATOM     12  C   UNL     1      97.024 112.176 107.014  1.00  0.00     0.013 C 
ATOM     13  C   UNL     1      95.445 109.640 109.708  1.00  0.00     0.017 C 
ATOM     14  C   UNL     1      94.465 110.959 107.890  1.00  0.00    -0.042 C 
ATOM     15  C   UNL     1      95.059 112.950 109.218  1.00  0.00    -0.022 C 
ATOM     16  C   UNL     1      94.147 112.329 108.410  1.00  0.00    -0.042 C 
ATOM     17  C   UNL     1      93.520 110.226 107.301  1.00  0.00    -0.022 C 
ATOM     18  C   UNL     1      92.830 113.045 108.012  1.00  0.00    -0.004 C 
ATOM     19  C   UNL     1      92.107 110.690 107.231  1.00  0.00     0.032 C 
ATOM     20  C   UNL     1      91.996 112.210 106.942  1.00  0.00     0.011 C 
ATOM     21  C   UNL     1      91.996 113.251 109.305  1.00  0.00     0.014 C 
ATOM     22  C   UNL     1      93.241 114.415 107.392  1.00  0.00     0.017 C 
ATOM     23  C   UNL     1      90.475 112.675 106.747  1.00  0.00    -0.005 C 
ATOM     24  C   UNL     1      90.597 113.818 109.057  1.00  0.00     0.033 C 
ATOM     25  C   UNL     1      89.771 112.921 108.121  1.00  0.00     0.120 C 
ATOM     26  C   UNL     1      89.647 111.614 105.959  1.00  0.00     0.014 C 
ATOM     27  C   UNL     1      90.388 113.969 105.875  1.00  0.00     0.014 C 
BRANCH   7  28
ATOM     28  O   UNL     1      98.683 109.171 106.656  1.00  0.00    -0.393 OA
ATOM     29  H   UNL     1      98.179 109.646 105.942  1.00  0.00     0.210 HD
ENDBRANCH   7  28
BRANCH  25  30
ATOM     30  O   UNL     1      89.506 111.700 108.769  1.00  0.00    -0.393 OA
ATOM     31  H   UNL     1      90.376 111.231 108.876  1.00  0.00     0.210 HD
ENDBRANCH  25  30
ENDBRANCH   2   6
ENDBRANCH   1   2
BRANCH   1  32
ATOM     32  C   UNL     1      99.193 111.535 111.081  1.00  0.00     0.028 C 
BRANCH  32  33
ATOM     33  C   UNL     1      99.744 112.297 112.263  1.00  0.00    -0.028 C 
ATOM     34  C   UNL     1      99.145 112.391 113.472  1.00  0.00    -0.080 C 
ATOM     35  C   UNL     1      97.819 111.728 113.765  1.00  0.00     0.039 C 
ATOM     36  C   UNL     1      99.833 113.179 114.556  1.00  0.00     0.039 C 
ENDBRANCH  32  33
ENDBRANCH   1  32
TORSDOF 7
ENDMDL
MODEL 6
REMARK VINA RESULT:    -1.995      3.836      5.493
REMARK INTER + INTRA:          -1.951
REMARK INTER:                  -3.231
REMARK INTRA:                   1.280
REMARK UNBOUND:                 0.744
REMARK SMILES CC(C)=CCC[C@H](C(=O)[O-])[C@@H]1[C@H](O)C[C@]2(C)C3=CC[C@H]4C(C)(C)[C@@H](O)CC[C@@]4(C)C3=CC[C@@]12C
REMARK SMILES IDX 6 1 7 2 8 3 9 4 10 5 11 6 12 7 33 8 14 9 15 10 32 11 34 12
REMARK SMILES IDX 16 13 17 14 31 15 30 16 18 17 28 18 19 19 20 20 27 21 29 22
REMARK SMILES IDX 21 23 26 24 24 25 22 26 23 27 13 28 25 30 5 32 4 33 2 34
REMARK SMILES IDX 1 35 3 36
REMARK H PARENT 13 29 25 31
REMARK Flexibility Score: inf
ROOT
ATOM      1  C   UNL     1      98.561 107.051 106.523  1.00  0.00     0.014 C 
ENDROOT
BRANCH   1   2
ATOM      2  C   UNL     1      97.257 107.469 107.252  1.00  0.00     0.042 C 
BRANCH   2   3
ATOM      3  C   UNL     1      96.121 106.512 106.942  1.00  0.00     0.045 C 
ATOM      4  O   UNL     1      96.009 105.442 107.598  1.00  0.00    -0.550 OA
ATOM      5  O   UNL     1      95.260 106.734 105.876  1.00  0.00    -0.550 OA
ENDBRANCH   2   3
BRANCH   2   6
ATOM      6  C   UNL     1      96.958 109.011 107.101  1.00  0.00     0.034 C 
ATOM      7  C   UNL     1      97.836 109.986 107.954  1.00  0.00     0.119 C 
ATOM      8  C   UNL     1      95.517 109.590 107.229  1.00  0.00    -0.014 C 
ATOM      9  C   UNL     1      96.964 111.236 108.234  1.00  0.00     0.044 C 
ATOM     10  C   UNL     1      95.794 111.128 107.246  1.00  0.00     0.001 C 
ATOM     11  C   UNL     1      94.523 109.315 106.074  1.00  0.00     0.035 C 
ATOM     12  C   UNL     1      94.868 109.088 108.563  1.00  0.00     0.013 C 
ATOM     13  C   UNL     1      96.277 111.735 105.884  1.00  0.00     0.017 C 
ATOM     14  C   UNL     1      94.503 111.859 107.570  1.00  0.00    -0.042 C 
ATOM     15  C   UNL     1      93.294 110.204 106.198  1.00  0.00    -0.022 C 
ATOM     16  C   UNL     1      93.235 111.333 106.969  1.00  0.00    -0.042 C 
ATOM     17  C   UNL     1      94.534 113.070 108.124  1.00  0.00    -0.022 C 
ATOM     18  C   UNL     1      91.876 112.029 107.243  1.00  0.00    -0.004 C 
ATOM     19  C   UNL     1      93.355 113.977 108.078  1.00  0.00     0.032 C 
ATOM     20  C   UNL     1      92.017 113.222 108.290  1.00  0.00     0.011 C 
ATOM     21  C   UNL     1      91.336 112.560 105.888  1.00  0.00     0.014 C 
ATOM     22  C   UNL     1      90.930 110.937 107.828  1.00  0.00     0.017 C 
ATOM     23  C   UNL     1      90.767 114.221 108.360  1.00  0.00    -0.005 C 
ATOM     24  C   UNL     1      90.066 113.404 106.015  1.00  0.00     0.033 C 
ATOM     25  C   UNL     1      90.273 114.620 106.931  1.00  0.00     0.120 C 
ATOM     26  C   UNL     1      91.119 115.527 109.135  1.00  0.00     0.014 C 
ATOM     27  C   UNL     1      89.585 113.591 109.165  1.00  0.00     0.014 C 
BRANCH   7  28
ATOM     28  O   UNL     1      98.249 109.423 109.168  1.00  0.00    -0.393 OA
ATOM     29  H   UNL     1      98.916 110.048 109.559  1.00  0.00     0.210 HD
ENDBRANCH   7  28
BRANCH  25  30
ATOM     30  O   UNL     1      91.180 115.507 106.321  1.00  0.00    -0.393 OA
ATOM     31  H   UNL     1      91.950 114.965 106.004  1.00  0.00     0.210 HD
ENDBRANCH  25  30
ENDBRANCH   2   6
ENDBRANCH   1   2
BRANCH   1  32
ATOM     32  C   UNL     1      98.767 105.526 106.451  1.00  0.00     0.028 C 
BRANCH  32  33
ATOM     33  C   UNL     1      98.874 104.905 107.825  1.00  0.00    -0.028 C 
ATOM     34  C   UNL     1      98.789 103.582 108.085  1.00  0.00    -0.080 C 
ATOM     35  C   UNL     1      98.563 102.561 106.995  1.00  0.00     0.039 C 
ATOM     36  C   UNL     1      98.933 103.120 109.512  1.00  0.00     0.039 C 
ENDBRANCH  32  33
ENDBRANCH   1  32
TORSDOF 7
ENDMDL
MODEL 7
REMARK VINA RESULT:    -1.113      3.585      7.081
REMARK INTER + INTRA:          -0.759
REMARK INTER:                  -1.324
REMARK INTRA:                   0.564
REMARK UNBOUND:                 0.744
REMARK SMILES CC(C)=CCC[C@H](C(=O)[O-])[C@@H]1[C@H](O)C[C@]2(C)C3=CC[C@H]4C(C)(C)[C@@H](O)CC[C@@]4(C)C3=CC[C@@]12C
REMARK SMILES IDX 6 1 7 2 8 3 9 4 10 5 11 6 12 7 33 8 14 9 15 10 32 11 34 12
REMARK SMILES IDX 16 13 17 14 31 15 30 16 18 17 28 18 19 19 20 20 27 21 29 22
REMARK SMILES IDX 21 23 26 24 24 25 22 26 23 27 13 28 25 30 5 32 4 33 2 34
REMARK SMILES IDX 1 35 3 36
REMARK H PARENT 13 29 25 31
REMARK Flexibility Score: inf
ROOT
ATOM      1  C   UNL     1     100.191 111.803 117.800  1.00  0.00     0.014 C 
ENDROOT
BRANCH   1   2
ATOM      2  C   UNL     1     100.628 112.146 116.351  1.00  0.00     0.042 C 
BRANCH   2   3
ATOM      3  C   UNL     1     101.759 113.156 116.341  1.00  0.00     0.045 C 
ATOM      4  O   UNL     1     101.741 114.124 117.148  1.00  0.00    -0.550 OA
ATOM      5  O   UNL     1     102.767 113.103 115.389  1.00  0.00    -0.550 OA
ENDBRANCH   2   3
BRANCH   2   6
ATOM      6  C   UNL     1      99.396 112.438 115.410  1.00  0.00     0.034 C 
ATOM      7  C   UNL     1      97.991 111.983 115.926  1.00  0.00     0.119 C 
ATOM      8  C   UNL     1      99.393 112.038 113.904  1.00  0.00    -0.014 C 
ATOM      9  C   UNL     1      97.135 111.677 114.671  1.00  0.00     0.044 C 
ATOM     10  C   UNL     1      97.906 112.314 113.506  1.00  0.00     0.001 C 
ATOM     11  C   UNL     1     100.285 112.854 112.938  1.00  0.00     0.035 C 
ATOM     12  C   UNL     1      99.775 110.525 113.763  1.00  0.00     0.013 C 
ATOM     13  C   UNL     1      97.499 113.826 113.450  1.00  0.00     0.017 C 
ATOM     14  C   UNL     1      97.665 111.785 112.103  1.00  0.00    -0.042 C 
ATOM     15  C   UNL     1      99.925 112.556 111.489  1.00  0.00    -0.022 C 
ATOM     16  C   UNL     1      98.757 111.967 111.093  1.00  0.00    -0.042 C 
ATOM     17  C   UNL     1      96.438 111.437 111.715  1.00  0.00    -0.022 C 
ATOM     18  C   UNL     1      98.583 111.463 109.635  1.00  0.00    -0.004 C 
ATOM     19  C   UNL     1      96.083 111.318 110.275  1.00  0.00     0.032 C 
ATOM     20  C   UNL     1      97.216 110.670 109.437  1.00  0.00     0.011 C 
ATOM     21  C   UNL     1      98.629 112.702 108.701  1.00  0.00     0.014 C 
ATOM     22  C   UNL     1      99.781 110.509 109.351  1.00  0.00     0.017 C 
ATOM     23  C   UNL     1      96.778 110.434 107.914  1.00  0.00    -0.005 C 
ATOM     24  C   UNL     1      98.325 112.385 107.236  1.00  0.00     0.033 C 
ATOM     25  C   UNL     1      96.942 111.735 107.063  1.00  0.00     0.120 C 
ATOM     26  C   UNL     1      95.294 109.968 107.810  1.00  0.00     0.014 C 
ATOM     27  C   UNL     1      97.600 109.275 107.263  1.00  0.00     0.014 C 
BRANCH   7  28
ATOM     28  O   UNL     1      98.054 110.843 116.737  1.00  0.00    -0.393 OA
ATOM     29  H   UNL     1      97.227 110.840 117.289  1.00  0.00     0.210 HD
ENDBRANCH   7  28
BRANCH  25  30
ATOM     30  O   UNL     1      95.948 112.675 107.394  1.00  0.00    -0.393 OA
ATOM     31  H   UNL     1      95.641 112.462 108.316  1.00  0.00     0.210 HD
ENDBRANCH  25  30
ENDBRANCH   2   6
ENDBRANCH   1   2
BRANCH   1  32
ATOM     32  C   UNL     1     100.444 110.334 118.190  1.00  0.00     0.028 C 
BRANCH  32  33
ATOM     33  C   UNL     1     100.750 110.186 119.662  1.00  0.00    -0.028 C 
ATOM     34  C   UNL     1     101.566 109.247 120.192  1.00  0.00    -0.080 C 
ATOM     35  C   UNL     1     102.266 108.216 119.338  1.00  0.00     0.039 C 
ATOM     36  C   UNL     1     101.782 109.242 121.683  1.00  0.00     0.039 C 
ENDBRANCH  32  33
ENDBRANCH   1  32
TORSDOF 7
ENDMDL
MODEL 8
REMARK VINA RESULT:    -1.088      3.485      6.461
REMARK INTER + INTRA:          -0.726
REMARK INTER:                  -1.169
REMARK INTRA:                   0.443
REMARK UNBOUND:                 0.744
REMARK SMILES CC(C)=CCC[C@H](C(=O)[O-])[C@@H]1[C@H](O)C[C@]2(C)C3=CC[C@H]4C(C)(C)[C@@H](O)CC[C@@]4(C)C3=CC[C@@]12C
REMARK SMILES IDX 6 1 7 2 8 3 9 4 10 5 11 6 12 7 33 8 14 9 15 10 32 11 34 12
REMARK SMILES IDX 16 13 17 14 31 15 30 16 18 17 28 18 19 19 20 20 27 21 29 22
REMARK SMILES IDX 21 23 26 24 24 25 22 26 23 27 13 28 25 30 5 32 4 33 2 34
REMARK SMILES IDX 1 35 3 36
REMARK H PARENT 13 29 25 31
REMARK Flexibility Score: inf
ROOT
ATOM      1  C   UNL     1     101.794 113.551 117.138  1.00  0.00     0.014 C 
ENDROOT
BRANCH   1   2
ATOM      2  C   UNL     1     100.309 113.260 116.793  1.00  0.00     0.042 C 
BRANCH   2   3
ATOM      3  C   UNL     1      99.533 112.829 118.023  1.00  0.00     0.045 C 
ATOM      4  O   UNL     1      99.388 113.630 118.985  1.00  0.00    -0.550 OA
ATOM      5  O   UNL     1      99.065 111.529 118.163  1.00  0.00    -0.550 OA
ENDBRANCH   2   3
BRANCH   2   6
ATOM      6  C   UNL     1     100.162 112.367 115.501  1.00  0.00     0.034 C 
ATOM      7  C   UNL     1     101.383 112.334 114.524  1.00  0.00     0.119 C 
ATOM      8  C   UNL     1      98.926 112.477 114.557  1.00  0.00    -0.014 C 
ATOM      9  C   UNL     1     100.810 112.076 113.107  1.00  0.00     0.044 C 
ATOM     10  C   UNL     1      99.373 111.594 113.347  1.00  0.00     0.001 C 
ATOM     11  C   UNL     1      97.577 111.912 115.065  1.00  0.00     0.035 C 
ATOM     12  C   UNL     1      98.708 113.974 114.152  1.00  0.00     0.013 C 
ATOM     13  C   UNL     1      99.439 110.054 113.632  1.00  0.00     0.017 C 
ATOM     14  C   UNL     1      98.362 111.747 112.225  1.00  0.00    -0.042 C 
ATOM     15  C   UNL     1      96.575 111.802 113.924  1.00  0.00    -0.022 C 
ATOM     16  C   UNL     1      96.912 111.827 112.599  1.00  0.00    -0.042 C 
ATOM     17  C   UNL     1      98.720 111.531 110.960  1.00  0.00    -0.022 C 
ATOM     18  C   UNL     1      95.817 111.974 111.511  1.00  0.00    -0.004 C 
ATOM     19  C   UNL     1      97.710 111.263 109.901  1.00  0.00     0.032 C 
ATOM     20  C   UNL     1      96.441 112.142 110.054  1.00  0.00     0.011 C 
ATOM     21  C   UNL     1      94.921 110.708 111.571  1.00  0.00     0.014 C 
ATOM     22  C   UNL     1      95.000 113.250 111.874  1.00  0.00     0.017 C 
ATOM     23  C   UNL     1      95.414 111.935 108.842  1.00  0.00    -0.005 C 
ATOM     24  C   UNL     1      93.876 110.634 110.455  1.00  0.00     0.033 C 
ATOM     25  C   UNL     1      94.520 110.670 109.061  1.00  0.00     0.120 C 
ATOM     26  C   UNL     1      96.158 111.775 107.481  1.00  0.00     0.014 C 
ATOM     27  C   UNL     1      94.506 113.191 108.650  1.00  0.00     0.014 C 
BRANCH   7  28
ATOM     28  O   UNL     1     102.110 113.531 114.522  1.00  0.00    -0.393 OA
ATOM     29  H   UNL     1     101.599 114.174 113.964  1.00  0.00     0.210 HD
ENDBRANCH   7  28
BRANCH  25  30
ATOM     30  O   UNL     1      95.268 109.493 108.869  1.00  0.00    -0.393 OA
ATOM     31  H   UNL     1      95.152 108.937 109.684  1.00  0.00     0.210 HD
ENDBRANCH  25  30
ENDBRANCH   2   6
ENDBRANCH   1   2
BRANCH   1  32
ATOM     32  C   UNL     1     102.189 115.030 116.966  1.00  0.00     0.028 C 
BRANCH  32  33
ATOM     33  C   UNL     1     101.239 115.766 116.050  1.00  0.00    -0.028 C 
ATOM     34  C   UNL     1     101.332 117.075 115.728  1.00  0.00    -0.080 C 
ATOM     35  C   UNL     1     102.426 117.962 116.276  1.00  0.00     0.039 C 
ATOM     36  C   UNL     1     100.311 117.658 114.786  1.00  0.00     0.039 C 
ENDBRANCH  32  33
ENDBRANCH   1  32
TORSDOF 7
ENDMDL
