MODEL 1
REMARK VINA RESULT:    -2.979      0.000      0.000
REMARK INTER + INTRA:          -3.388
REMARK INTER:                  -3.327
REMARK INTRA:                  -0.061
REMARK UNBOUND:                -0.061
REMARK SMILES CCCC(=O)[O-]
REMARK SMILES IDX 3 1 4 2 5 3 6 4 2 5 1 6
REMARK H PARENT
REMARK Flexibility Score: inf
ROOT
ATOM      1  C   UNL     1     -29.632 -20.582 -33.138  1.00  0.00     0.052 C 
ENDROOT
BRANCH   1   2
ATOM      2  C   UNL     1     -30.746 -20.556 -32.140  1.00  0.00     0.041 C 
ATOM      3  O   UNL     1     -31.668 -19.703 -32.243  1.00  0.00    -0.550 OA
ATOM      4  O   UNL     1     -30.793 -21.502 -31.124  1.00  0.00    -0.550 OA
ENDBRANCH   1   2
BRANCH   1   5
ATOM      5  C   UNL     1     -29.008 -19.190 -33.280  1.00  0.00     0.003 C 
ATOM      6  C   UNL     1     -28.085 -18.878 -32.107  1.00  0.00     0.004 C 
ENDBRANCH   1   5
TORSDOF 2
ENDMDL
MODEL 2
REMARK VINA RESULT:    -2.964      0.178      1.329
REMARK INTER + INTRA:          -3.372
REMARK INTER:                  -3.301
REMARK INTRA:                  -0.071
REMARK UNBOUND:                -0.061
REMARK SMILES CCCC(=O)[O-]
REMARK SMILES IDX 3 1 4 2 5 3 6 4 2 5 1 6
REMARK H PARENT
REMARK Flexibility Score: inf
ROOT
ATOM      1  C   UNL     1     -29.630 -20.494 -33.146  1.00  0.00     0.052 C 
ENDROOT
BRANCH   1   2
ATOM      2  C   UNL     1     -30.731 -20.496 -32.133  1.00  0.00     0.041 C 
ATOM      3  O   UNL     1     -30.792 -21.408 -31.266  1.00  0.00    -0.550 OA
ATOM      4  O   UNL     1     -31.662 -19.465 -32.114  1.00  0.00    -0.550 OA
ENDBRANCH   1   2
BRANCH   1   5
ATOM      5  C   UNL     1     -28.919 -19.137 -33.162  1.00  0.00     0.003 C 
ATOM      6  C   UNL     1     -28.108 -18.926 -31.888  1.00  0.00     0.004 C 
ENDBRANCH   1   5
TORSDOF 2
ENDMDL
MODEL 3
REMARK VINA RESULT:    -2.822     22.052     22.710
REMARK INTER + INTRA:          -3.213
REMARK INTER:                  -3.181
REMARK INTRA:                  -0.032
REMARK UNBOUND:                -0.061
REMARK SMILES CCCC(=O)[O-]
REMARK SMILES IDX 3 1 4 2 5 3 6 4 2 5 1 6
REMARK H PARENT
REMARK Flexibility Score: inf
ROOT
ATOM      1  C   UNL     1     -18.366 -37.234 -38.723  1.00  0.00     0.052 C 
ENDROOT
BRANCH   1   2
ATOM      2  C   UNL     1     -16.892 -37.430 -38.887  1.00  0.00     0.041 C 
ATOM      3  O   UNL     1     -16.113 -36.441 -38.841  1.00  0.00    -0.550 OA
ATOM      4  O   UNL     1     -16.372 -38.709 -39.043  1.00  0.00    -0.550 OA
ENDBRANCH   1   2
BRANCH   1   5
ATOM      5  C   UNL     1     -18.988 -38.433 -38.001  1.00  0.00     0.003 C 
ATOM      6  C   UNL     1     -20.174 -38.990 -38.781  1.00  0.00     0.004 C 
ENDBRANCH   1   5
TORSDOF 2
ENDMDL
MODEL 4
REMARK VINA RESULT:    -2.751      1.127      1.384
REMARK INTER + INTRA:          -3.134
REMARK INTER:                  -3.067
REMARK INTRA:                  -0.067
REMARK UNBOUND:                -0.061
REMARK SMILES CCCC(=O)[O-]
REMARK SMILES IDX 3 1 4 2 5 3 6 4 2 5 1 6
REMARK H PARENT
REMARK Flexibility Score: inf
ROOT
ATOM      1  C   UNL     1     -30.728 -20.666 -32.552  1.00  0.00     0.052 C 
ENDROOT
BRANCH   1   2
ATOM      2  C   UNL     1     -31.150 -19.970 -31.297  1.00  0.00     0.041 C 
ATOM      3  O   UNL     1     -32.210 -19.290 -31.276  1.00  0.00    -0.550 OA
ATOM      4  O   UNL     1     -30.399 -20.111 -30.137  1.00  0.00    -0.550 OA
ENDBRANCH   1   2
BRANCH   1   5
ATOM      5  C   UNL     1     -29.258 -20.368 -32.861  1.00  0.00     0.003 C 
ATOM      6  C   UNL     1     -29.083 -18.946 -33.384  1.00  0.00     0.004 C 
ENDBRANCH   1   5
TORSDOF 2
ENDMDL
MODEL 5
REMARK VINA RESULT:    -2.669      2.167      3.134
REMARK INTER + INTRA:          -3.043
REMARK INTER:                  -3.031
REMARK INTRA:                  -0.011
REMARK UNBOUND:                -0.061
REMARK SMILES CCCC(=O)[O-]
REMARK SMILES IDX 3 1 4 2 5 3 6 4 2 5 1 6
REMARK H PARENT
REMARK Flexibility Score: inf
ROOT
ATOM      1  C   UNL     1     -29.809 -20.657 -33.574  1.00  0.00     0.052 C 
ENDROOT
BRANCH   1   2
ATOM      2  C   UNL     1     -29.323 -19.813 -32.438  1.00  0.00     0.041 C 
ATOM      3  O   UNL     1     -29.945 -19.809 -31.342  1.00  0.00    -0.550 OA
ATOM      4  O   UNL     1     -28.158 -19.069 -32.572  1.00  0.00    -0.550 OA
ENDBRANCH   1   2
BRANCH   1   5
ATOM      5  C   UNL     1     -31.254 -21.102 -33.332  1.00  0.00     0.003 C 
ATOM      6  C   UNL     1     -31.820 -21.822 -34.551  1.00  0.00     0.004 C 
ENDBRANCH   1   5
TORSDOF 2
ENDMDL
MODEL 6
REMARK VINA RESULT:    -2.649      2.065      2.886
REMARK INTER + INTRA:          -3.019
REMARK INTER:                  -2.979
REMARK INTRA:                  -0.041
REMARK UNBOUND:                -0.061
REMARK SMILES CCCC(=O)[O-]
REMARK SMILES IDX 3 1 4 2 5 3 6 4 2 5 1 6
REMARK H PARENT
REMARK Flexibility Score: inf
ROOT
ATOM      1  C   UNL     1     -30.781 -21.043 -31.752  1.00  0.00     0.052 C 
ENDROOT
BRANCH   1   2
ATOM      2  C   UNL     1     -29.761 -20.523 -32.715  1.00  0.00     0.041 C 
ATOM      3  O   UNL     1     -29.827 -20.831 -33.935  1.00  0.00    -0.550 OA
ATOM      4  O   UNL     1     -28.764 -19.661 -32.276  1.00  0.00    -0.550 OA
ENDBRANCH   1   2
BRANCH   1   5
ATOM      5  C   UNL     1     -30.721 -20.263 -30.436  1.00  0.00     0.003 C 
ATOM      6  C   UNL     1     -31.783 -19.169 -30.396  1.00  0.00     0.004 C 
ENDBRANCH   1   5
TORSDOF 2
ENDMDL
MODEL 7
REMARK VINA RESULT:    -2.640      4.840      5.632
REMARK INTER + INTRA:          -3.010
REMARK INTER:                  -3.005
REMARK INTRA:                  -0.005
REMARK UNBOUND:                -0.061
REMARK SMILES CCCC(=O)[O-]
REMARK SMILES IDX 3 1 4 2 5 3 6 4 2 5 1 6
REMARK H PARENT
REMARK Flexibility Score: inf
ROOT
ATOM      1  C   UNL     1     -32.708 -23.404 -36.095  1.00  0.00     0.052 C 
ENDROOT
BRANCH   1   2
ATOM      2  C   UNL     1     -32.711 -22.125 -35.319  1.00  0.00     0.041 C 
ATOM      3  O   UNL     1     -33.490 -21.190 -35.642  1.00  0.00    -0.550 OA
ATOM      4  O   UNL     1     -31.887 -21.983 -34.209  1.00  0.00    -0.550 OA
ENDBRANCH   1   2
BRANCH   1   5
ATOM      5  C   UNL     1     -31.553 -23.417 -37.102  1.00  0.00     0.003 C 
ATOM      6  C   UNL     1     -31.645 -24.624 -38.029  1.00  0.00     0.004 C 
ENDBRANCH   1   5
TORSDOF 2
ENDMDL
MODEL 8
REMARK VINA RESULT:    -2.551      6.223      6.782
REMARK INTER + INTRA:          -2.911
REMARK INTER:                  -2.904
REMARK INTRA:                  -0.007
REMARK UNBOUND:                -0.061
REMARK SMILES CCCC(=O)[O-]
REMARK SMILES IDX 3 1 4 2 5 3 6 4 2 5 1 6
REMARK H PARENT
REMARK Flexibility Score: inf
ROOT
ATOM      1  C   UNL     1     -31.478 -23.413 -36.874  1.00  0.00     0.052 C 
ENDROOT
BRANCH   1   2
ATOM      2  C   UNL     1     -31.938 -23.961 -38.188  1.00  0.00     0.041 C 
ATOM      3  O   UNL     1     -32.251 -23.180 -39.125  1.00  0.00    -0.550 OA
ATOM      4  O   UNL     1     -31.978 -25.335 -38.394  1.00  0.00    -0.550 OA
ENDBRANCH   1   2
BRANCH   1   5
ATOM      5  C   UNL     1     -32.674 -23.142 -35.958  1.00  0.00     0.003 C 
ATOM      6  C   UNL     1     -32.296 -22.192 -34.826  1.00  0.00     0.004 C 
ENDBRANCH   1   5
TORSDOF 2
ENDMDL
MODEL 9
REMARK VINA RESULT:    -2.447      6.033      6.867
REMARK INTER + INTRA:          -2.794
REMARK INTER:                  -2.731
REMARK INTRA:                  -0.062
REMARK UNBOUND:                -0.061
REMARK SMILES CCCC(=O)[O-]
REMARK SMILES IDX 3 1 4 2 5 3 6 4 2 5 1 6
REMARK H PARENT
REMARK Flexibility Score: inf
ROOT
ATOM      1  C   UNL     1     -31.869 -22.077 -37.470  1.00  0.00     0.052 C 
ENDROOT
BRANCH   1   2
ATOM      2  C   UNL     1     -33.340 -21.877 -37.653  1.00  0.00     0.041 C 
ATOM      3  O   UNL     1     -34.124 -22.020 -36.677  1.00  0.00    -0.550 OA
ATOM      4  O   UNL     1     -33.842 -21.486 -38.888  1.00  0.00    -0.550 OA
ENDBRANCH   1   2
BRANCH   1   5
ATOM      5  C   UNL     1     -31.585 -23.466 -36.893  1.00  0.00     0.003 C 
ATOM      6  C   UNL     1     -31.690 -24.542 -37.969  1.00  0.00     0.004 C 
ENDBRANCH   1   5
TORSDOF 2
ENDMDL
