MODEL 1
REMARK VINA RESULT:    -4.814      0.000      0.000
REMARK INTER + INTRA:          -5.443
REMARK INTER:                  -5.376
REMARK INTRA:                  -0.066
REMARK UNBOUND:                -0.066
REMARK SMILES O=C([O-])c1ccccc1C(=O)[O-]
REMARK SMILES IDX 4 1 9 2 5 3 8 4 6 5 7 6 2 7 1 8 3 9 10 10 11 11 12 12
REMARK H PARENT
REMARK Flexibility Score: inf
ROOT
ATOM      1  C   UNL     1       6.027 -13.006  17.859  1.00  0.00     0.006 A 
ATOM      2  C   UNL     1       6.007 -11.746  18.518  1.00  0.00     0.006 A 
ATOM      3  C   UNL     1       6.882 -13.188  16.756  1.00  0.00     0.010 A 
ATOM      4  C   UNL     1       6.887 -10.735  18.090  1.00  0.00     0.010 A 
ATOM      5  C   UNL     1       7.732 -12.164  16.334  1.00  0.00     0.001 A 
ATOM      6  C   UNL     1       7.743 -10.945  17.007  1.00  0.00     0.001 A 
ENDROOT
BRANCH   1   7
ATOM      7  C   UNL     1       5.238 -14.166  18.331  1.00  0.00     0.072 C 
ATOM      8  O   UNL     1       4.403 -14.719  17.567  1.00  0.00    -0.545 OA
ATOM      9  O   UNL     1       5.451 -14.703  19.596  1.00  0.00    -0.545 OA
ENDBRANCH   1   7
BRANCH   2  10
ATOM     10  C   UNL     1       5.042 -11.423  19.594  1.00  0.00     0.072 C 
ATOM     11  O   UNL     1       5.454 -11.097  20.738  1.00  0.00    -0.545 OA
ATOM     12  O   UNL     1       3.675 -11.412  19.341  1.00  0.00    -0.545 OA
ENDBRANCH   2  10
TORSDOF 2
ENDMDL
MODEL 2
REMARK VINA RESULT:    -4.801      0.123      3.142
REMARK INTER + INTRA:          -5.428
REMARK INTER:                  -5.365
REMARK INTRA:                  -0.063
REMARK UNBOUND:                -0.066
REMARK SMILES O=C([O-])c1ccccc1C(=O)[O-]
REMARK SMILES IDX 4 1 9 2 5 3 8 4 6 5 7 6 2 7 1 8 3 9 10 10 11 11 12 12
REMARK H PARENT
REMARK Flexibility Score: inf
ROOT
ATOM      1  C   UNL     1       6.019 -11.729  18.440  1.00  0.00     0.006 A 
ATOM      2  C   UNL     1       6.106 -13.000  17.807  1.00  0.00     0.006 A 
ATOM      3  C   UNL     1       6.848 -10.684  17.992  1.00  0.00     0.010 A 
ATOM      4  C   UNL     1       6.971 -13.161  16.710  1.00  0.00     0.010 A 
ATOM      5  C   UNL     1       7.716 -10.872  16.915  1.00  0.00     0.001 A 
ATOM      6  C   UNL     1       7.768 -12.104  16.268  1.00  0.00     0.001 A 
ENDROOT
BRANCH   1   7
ATOM      7  C   UNL     1       5.037 -11.434  19.507  1.00  0.00     0.072 C 
ATOM      8  O   UNL     1       5.429 -11.104  20.658  1.00  0.00    -0.545 OA
ATOM      9  O   UNL     1       3.672 -11.453  19.241  1.00  0.00    -0.545 OA
ENDBRANCH   1   7
BRANCH   2  10
ATOM     10  C   UNL     1       5.376 -14.190  18.303  1.00  0.00     0.072 C 
ATOM     11  O   UNL     1       4.605 -14.825  17.535  1.00  0.00    -0.545 OA
ATOM     12  O   UNL     1       5.578 -14.659  19.595  1.00  0.00    -0.545 OA
ENDBRANCH   2  10
TORSDOF 2
ENDMDL
MODEL 3
REMARK VINA RESULT:    -4.625      0.589      2.899
REMARK INTER + INTRA:          -5.232
REMARK INTER:                  -5.064
REMARK INTRA:                  -0.168
REMARK UNBOUND:                -0.066
REMARK SMILES O=C([O-])c1ccccc1C(=O)[O-]
REMARK SMILES IDX 4 1 9 2 5 3 8 4 6 5 7 6 2 7 1 8 3 9 10 10 11 11 12 12
REMARK H PARENT
REMARK Flexibility Score: inf
ROOT
ATOM      1  C   UNL     1       5.704 -12.074  18.617  1.00  0.00     0.006 A 
ATOM      2  C   UNL     1       5.832 -13.241  17.814  1.00  0.00     0.006 A 
ATOM      3  C   UNL     1       6.582 -10.995  18.400  1.00  0.00     0.010 A 
ATOM      4  C   UNL     1       6.789 -13.262  16.783  1.00  0.00     0.010 A 
ATOM      5  C   UNL     1       7.539 -11.046  17.386  1.00  0.00     0.001 A 
ATOM      6  C   UNL     1       7.634 -12.171  16.571  1.00  0.00     0.001 A 
ENDROOT
BRANCH   1   7
ATOM      7  C   UNL     1       4.635 -11.913  19.627  1.00  0.00     0.072 C 
ATOM      8  O   UNL     1       3.505 -11.468  19.290  1.00  0.00    -0.545 OA
ATOM      9  O   UNL     1       4.837 -12.309  20.944  1.00  0.00    -0.545 OA
ENDBRANCH   1   7
BRANCH   2  10
ATOM     10  C   UNL     1       5.047 -14.472  18.065  1.00  0.00     0.072 C 
ATOM     11  O   UNL     1       5.266 -15.164  19.094  1.00  0.00    -0.545 OA
ATOM     12  O   UNL     1       4.018 -14.844  17.208  1.00  0.00    -0.545 OA
ENDBRANCH   2  10
TORSDOF 2
ENDMDL
MODEL 4
REMARK VINA RESULT:    -4.422      1.947      3.928
REMARK INTER + INTRA:          -5.006
REMARK INTER:                  -4.818
REMARK INTRA:                  -0.188
REMARK UNBOUND:                -0.066
REMARK SMILES O=C([O-])c1ccccc1C(=O)[O-]
REMARK SMILES IDX 4 1 9 2 5 3 8 4 6 5 7 6 2 7 1 8 3 9 10 10 11 11 12 12
REMARK H PARENT
REMARK Flexibility Score: inf
ROOT
ATOM      1  C   UNL     1       5.556 -11.824  19.406  1.00  0.00     0.006 A 
ATOM      2  C   UNL     1       4.960 -12.938  20.060  1.00  0.00     0.006 A 
ATOM      3  C   UNL     1       5.645 -10.597  20.090  1.00  0.00     0.010 A 
ATOM      4  C   UNL     1       4.535 -12.802  21.394  1.00  0.00     0.010 A 
ATOM      5  C   UNL     1       5.197 -10.478  21.406  1.00  0.00     0.001 A 
ATOM      6  C   UNL     1       4.654 -11.581  22.060  1.00  0.00     0.001 A 
ENDROOT
BRANCH   1   7
ATOM      7  C   UNL     1       6.157 -11.918  18.056  1.00  0.00     0.072 C 
ATOM      8  O   UNL     1       5.444 -11.750  17.031  1.00  0.00    -0.545 OA
ATOM      9  O   UNL     1       7.522 -12.127  17.900  1.00  0.00    -0.545 OA
ENDBRANCH   1   7
BRANCH   2  10
ATOM     10  C   UNL     1       4.699 -14.222  19.369  1.00  0.00     0.072 C 
ATOM     11  O   UNL     1       5.371 -15.247  19.662  1.00  0.00    -0.545 OA
ATOM     12  O   UNL     1       3.671 -14.332  18.441  1.00  0.00    -0.545 OA
ENDBRANCH   2  10
TORSDOF 2
ENDMDL
MODEL 5
REMARK VINA RESULT:    -4.411      2.024      2.609
REMARK INTER + INTRA:          -4.993
REMARK INTER:                  -4.776
REMARK INTRA:                  -0.217
REMARK UNBOUND:                -0.066
REMARK SMILES O=C([O-])c1ccccc1C(=O)[O-]
REMARK SMILES IDX 4 1 9 2 5 3 8 4 6 5 7 6 2 7 1 8 3 9 10 10 11 11 12 12
REMARK H PARENT
REMARK Flexibility Score: inf
ROOT
ATOM      1  C   UNL     1       3.866 -12.112  19.051  1.00  0.00     0.006 A 
ATOM      2  C   UNL     1       4.661 -11.290  19.898  1.00  0.00     0.006 A 
ATOM      3  C   UNL     1       4.355 -12.455  17.777  1.00  0.00     0.010 A 
ATOM      4  C   UNL     1       5.940 -10.896  19.465  1.00  0.00     0.010 A 
ATOM      5  C   UNL     1       5.618 -12.035  17.359  1.00  0.00     0.001 A 
ATOM      6  C   UNL     1       6.414 -11.268  18.206  1.00  0.00     0.001 A 
ENDROOT
BRANCH   1   7
ATOM      7  C   UNL     1       2.572 -12.685  19.482  1.00  0.00     0.072 C 
ATOM      8  O   UNL     1       1.489 -12.203  19.054  1.00  0.00    -0.545 OA
ATOM      9  O   UNL     1       2.530 -13.801  20.311  1.00  0.00    -0.545 OA
ENDBRANCH   1   7
BRANCH   2  10
ATOM     10  C   UNL     1       4.168 -10.766  21.192  1.00  0.00     0.072 C 
ATOM     11  O   UNL     1       4.559 -11.280  22.274  1.00  0.00    -0.545 OA
ATOM     12  O   UNL     1       3.322  -9.664  21.236  1.00  0.00    -0.545 OA
ENDBRANCH   2  10
TORSDOF 2
ENDMDL
MODEL 6
REMARK VINA RESULT:    -4.406      1.954      3.649
REMARK INTER + INTRA:          -4.987
REMARK INTER:                  -4.786
REMARK INTRA:                  -0.201
REMARK UNBOUND:                -0.066
REMARK SMILES O=C([O-])c1ccccc1C(=O)[O-]
REMARK SMILES IDX 4 1 9 2 5 3 8 4 6 5 7 6 2 7 1 8 3 9 10 10 11 11 12 12
REMARK H PARENT
REMARK Flexibility Score: inf
ROOT
ATOM      1  C   UNL     1       4.903 -12.831  20.189  1.00  0.00     0.006 A 
ATOM      2  C   UNL     1       5.493 -11.732  19.506  1.00  0.00     0.006 A 
ATOM      3  C   UNL     1       4.486 -12.664  21.522  1.00  0.00     0.010 A 
ATOM      4  C   UNL     1       5.587 -10.490  20.159  1.00  0.00     0.010 A 
ATOM      5  C   UNL     1       4.608 -11.428  22.159  1.00  0.00     0.001 A 
ATOM      6  C   UNL     1       5.146 -10.340  21.475  1.00  0.00     0.001 A 
ENDROOT
BRANCH   1   7
ATOM      7  C   UNL     1       4.639 -14.131  19.531  1.00  0.00     0.072 C 
ATOM      8  O   UNL     1       5.350 -15.135  19.801  1.00  0.00    -0.545 OA
ATOM      9  O   UNL     1       3.566 -14.280  18.659  1.00  0.00    -0.545 OA
ENDBRANCH   1   7
BRANCH   2  10
ATOM     10  C   UNL     1       6.086 -11.858  18.154  1.00  0.00     0.072 C 
ATOM     11  O   UNL     1       5.368 -11.699  17.131  1.00  0.00    -0.545 OA
ATOM     12  O   UNL     1       7.447 -12.087  17.995  1.00  0.00    -0.545 OA
ENDBRANCH   2  10
TORSDOF 2
ENDMDL
MODEL 7
REMARK VINA RESULT:    -4.384      1.997      3.730
REMARK INTER + INTRA:          -4.963
REMARK INTER:                  -4.744
REMARK INTRA:                  -0.219
REMARK UNBOUND:                -0.066
REMARK SMILES O=C([O-])c1ccccc1C(=O)[O-]
REMARK SMILES IDX 4 1 9 2 5 3 8 4 6 5 7 6 2 7 1 8 3 9 10 10 11 11 12 12
REMARK H PARENT
REMARK Flexibility Score: inf
ROOT
ATOM      1  C   UNL     1       4.716 -11.347  19.832  1.00  0.00     0.006 A 
ATOM      2  C   UNL     1       3.882 -12.149  19.004  1.00  0.00     0.006 A 
ATOM      3  C   UNL     1       5.994 -10.984  19.368  1.00  0.00     0.010 A 
ATOM      4  C   UNL     1       4.331 -12.503  17.719  1.00  0.00     0.010 A 
ATOM      5  C   UNL     1       6.428 -11.365  18.097  1.00  0.00     0.001 A 
ATOM      6  C   UNL     1       5.593 -12.113  17.270  1.00  0.00     0.001 A 
ENDROOT
BRANCH   1   7
ATOM      7  C   UNL     1       4.269 -10.813  21.138  1.00  0.00     0.072 C 
ATOM      8  O   UNL     1       4.648 -11.356  22.210  1.00  0.00    -0.545 OA
ATOM      9  O   UNL     1       3.479  -9.670  21.205  1.00  0.00    -0.545 OA
ENDBRANCH   1   7
BRANCH   2  10
ATOM     10  C   UNL     1       2.585 -12.692  19.467  1.00  0.00     0.072 C 
ATOM     11  O   UNL     1       1.505 -12.174  19.076  1.00  0.00    -0.545 OA
ATOM     12  O   UNL     1       2.537 -13.816  20.284  1.00  0.00    -0.545 OA
ENDBRANCH   2  10
TORSDOF 2
ENDMDL
MODEL 8
REMARK VINA RESULT:    -4.365      1.478      1.986
REMARK INTER + INTRA:          -4.942
REMARK INTER:                  -4.734
REMARK INTRA:                  -0.208
REMARK UNBOUND:                -0.066
REMARK SMILES O=C([O-])c1ccccc1C(=O)[O-]
REMARK SMILES IDX 4 1 9 2 5 3 8 4 6 5 7 6 2 7 1 8 3 9 10 10 11 11 12 12
REMARK H PARENT
REMARK Flexibility Score: inf
ROOT
ATOM      1  C   UNL     1       5.234 -13.902  18.575  1.00  0.00     0.006 A 
ATOM      2  C   UNL     1       5.086 -12.899  19.572  1.00  0.00     0.006 A 
ATOM      3  C   UNL     1       6.015 -13.627  17.438  1.00  0.00     0.010 A 
ATOM      4  C   UNL     1       5.776 -11.681  19.426  1.00  0.00     0.010 A 
ATOM      5  C   UNL     1       6.673 -12.403  17.302  1.00  0.00     0.001 A 
ATOM      6  C   UNL     1       6.564 -11.438  18.300  1.00  0.00     0.001 A 
ENDROOT
BRANCH   1   7
ATOM      7  C   UNL     1       4.659 -15.259  18.717  1.00  0.00     0.072 C 
ATOM      8  O   UNL     1       3.706 -15.625  17.978  1.00  0.00    -0.545 OA
ATOM      9  O   UNL     1       5.199 -16.169  19.618  1.00  0.00    -0.545 OA
ENDBRANCH   1   7
BRANCH   2  10
ATOM     10  C   UNL     1       4.173 -13.051  20.729  1.00  0.00     0.072 C 
ATOM     11  O   UNL     1       2.957 -12.740  20.621  1.00  0.00    -0.545 OA
ATOM     12  O   UNL     1       4.626 -13.598  21.923  1.00  0.00    -0.545 OA
ENDBRANCH   2  10
TORSDOF 2
ENDMDL
MODEL 9
REMARK VINA RESULT:    -4.326      2.089      2.794
REMARK INTER + INTRA:          -4.898
REMARK INTER:                  -4.695
REMARK INTRA:                  -0.203
REMARK UNBOUND:                -0.066
REMARK SMILES O=C([O-])c1ccccc1C(=O)[O-]
REMARK SMILES IDX 4 1 9 2 5 3 8 4 6 5 7 6 2 7 1 8 3 9 10 10 11 11 12 12
REMARK H PARENT
REMARK Flexibility Score: inf
ROOT
ATOM      1  C   UNL     1       4.164 -12.489  17.977  1.00  0.00     0.006 A 
ATOM      2  C   UNL     1       3.770 -12.046  19.270  1.00  0.00     0.006 A 
ATOM      3  C   UNL     1       5.421 -12.105  17.475  1.00  0.00     0.010 A 
ATOM      4  C   UNL     1       4.674 -11.289  20.038  1.00  0.00     0.010 A 
ATOM      5  C   UNL     1       6.294 -11.335  18.246  1.00  0.00     0.001 A 
ATOM      6  C   UNL     1       5.925 -10.939  19.530  1.00  0.00     0.001 A 
ENDROOT
BRANCH   1   7
ATOM      7  C   UNL     1       3.334 -13.403  17.160  1.00  0.00     0.072 C 
ATOM      8  O   UNL     1       2.517 -12.939  16.320  1.00  0.00    -0.545 OA
ATOM      9  O   UNL     1       3.489 -14.781  17.258  1.00  0.00    -0.545 OA
ENDBRANCH   1   7
BRANCH   2  10
ATOM     10  C   UNL     1       2.415 -12.284  19.816  1.00  0.00     0.072 C 
ATOM     11  O   UNL     1       1.531 -11.390  19.731  1.00  0.00    -0.545 OA
ATOM     12  O   UNL     1       2.079 -13.514  20.370  1.00  0.00    -0.545 OA
ENDBRANCH   2  10
TORSDOF 2
ENDMDL
