MODEL 1
REMARK VINA RESULT:    -4.005      0.000      0.000
REMARK INTER + INTRA:          -5.620
REMARK INTER:                  -5.176
REMARK INTRA:                  -0.444
REMARK UNBOUND:                -0.444
REMARK SMILES CCO[C@@H]1O[C@H](CO)[C@H](O)[C@H](O)[C@H]1O
REMARK SMILES IDX 4 1 13 2 11 3 9 4 6 5 5 6 3 7 2 8 1 9 14 10 12 12 7 14 8 15
REMARK SMILES IDX 10 17
REMARK H PARENT 14 11 12 13 8 16 10 18
REMARK Flexibility Score: inf
ROOT
ATOM      1  C   UNL     1      33.110  -5.670  -3.571  1.00  0.00     0.281 C 
ATOM      2  C   UNL     1      31.790  -5.215  -2.922  1.00  0.00     0.202 C 
ATOM      3  C   UNL     1      31.653  -3.687  -2.964  1.00  0.00     0.179 C 
ATOM      4  C   UNL     1      31.873  -3.188  -4.400  1.00  0.00     0.177 C 
ATOM      5  C   UNL     1      33.165  -3.770  -5.031  1.00  0.00     0.178 C 
ATOM      6  O   UNL     1      33.265  -5.186  -4.902  1.00  0.00    -0.341 OA
ENDROOT
BRANCH   1   7
ATOM      7  O   UNL     1      34.209  -5.306  -2.753  1.00  0.00    -0.350 OA
BRANCH   7   8
ATOM      8  C   UNL     1      34.242  -6.102  -1.586  1.00  0.00     0.160 C 
ATOM      9  C   UNL     1      34.812  -5.281  -0.440  1.00  0.00     0.035 C 
ENDBRANCH   7   8
ENDBRANCH   1   7
BRANCH   2  10
ATOM     10  O   UNL     1      30.715  -5.814  -3.601  1.00  0.00    -0.385 OA
ATOM     11  H   UNL     1      30.648  -5.369  -4.486  1.00  0.00     0.211 HD
ENDBRANCH   2  10
BRANCH   3  12
ATOM     12  O   UNL     1      32.570  -3.103  -2.074  1.00  0.00    -0.387 OA
ATOM     13  H   UNL     1      32.891  -2.264  -2.495  1.00  0.00     0.211 HD
ENDBRANCH   3  12
BRANCH   5  14
ATOM     14  C   UNL     1      34.464  -3.038  -4.625  1.00  0.00     0.191 C 
BRANCH  14  15
ATOM     15  O   UNL     1      35.588  -3.811  -4.956  1.00  0.00    -0.394 OA
ATOM     16  H   UNL     1      35.398  -4.736  -4.652  1.00  0.00     0.210 HD
ENDBRANCH  14  15
ENDBRANCH   5  14
BRANCH   4  17
ATOM     17  O   UNL     1      31.879  -1.784  -4.424  1.00  0.00    -0.387 OA
ATOM     18  H   UNL     1      31.619  -1.511  -5.343  1.00  0.00     0.211 HD
ENDBRANCH   4  17
TORSDOF 7
ENDMDL
MODEL 2
REMARK VINA RESULT:    -3.996     14.332     16.602
REMARK INTER + INTRA:          -5.608
REMARK INTER:                  -5.165
REMARK INTRA:                  -0.443
REMARK UNBOUND:                -0.444
REMARK SMILES CCO[C@@H]1O[C@H](CO)[C@H](O)[C@H](O)[C@H]1O
REMARK SMILES IDX 4 1 13 2 11 3 9 4 6 5 5 6 3 7 2 8 1 9 14 10 12 12 7 14 8 15
REMARK SMILES IDX 10 17
REMARK H PARENT 14 11 12 13 8 16 10 18
REMARK Flexibility Score: inf
ROOT
ATOM      1  C   UNL     1      31.356  -7.174  12.262  1.00  0.00     0.281 C 
ATOM      2  C   UNL     1      30.445  -8.415  12.310  1.00  0.00     0.202 C 
ATOM      3  C   UNL     1      31.271  -9.702  12.435  1.00  0.00     0.179 C 
ATOM      4  C   UNL     1      32.251  -9.574  13.610  1.00  0.00     0.177 C 
ATOM      5  C   UNL     1      33.061  -8.252  13.558  1.00  0.00     0.178 C 
ATOM      6  O   UNL     1      32.242  -7.100  13.375  1.00  0.00    -0.341 OA
ENDROOT
BRANCH   1   7
ATOM      7  O   UNL     1      32.060  -7.131  11.033  1.00  0.00    -0.350 OA
BRANCH   7   8
ATOM      8  C   UNL     1      31.832  -5.901  10.376  1.00  0.00     0.160 C 
ATOM      9  C   UNL     1      33.087  -5.504   9.614  1.00  0.00     0.035 C 
ENDBRANCH   7   8
ENDBRANCH   1   7
BRANCH   2  10
ATOM     10  O   UNL     1      29.567  -8.297  13.402  1.00  0.00    -0.385 OA
ATOM     11  H   UNL     1      29.930  -8.873  14.126  1.00  0.00     0.211 HD
ENDBRANCH   2  10
BRANCH   3  12
ATOM     12  O   UNL     1      31.949  -9.951  11.229  1.00  0.00    -0.387 OA
ATOM     13  H   UNL     1      32.450 -10.799  11.347  1.00  0.00     0.211 HD
ENDBRANCH   3  12
BRANCH   5  14
ATOM     14  C   UNL     1      34.277  -8.281  12.605  1.00  0.00     0.191 C 
BRANCH  14  15
ATOM     15  O   UNL     1      34.769  -6.984  12.397  1.00  0.00    -0.394 OA
ATOM     16  H   UNL     1      35.182  -6.695  13.252  1.00  0.00     0.210 HD
ENDBRANCH  14  15
ENDBRANCH   5  14
BRANCH   4  17
ATOM     17  O   UNL     1      33.100 -10.693  13.651  1.00  0.00    -0.387 OA
ATOM     18  H   UNL     1      34.023 -10.349  13.782  1.00  0.00     0.211 HD
ENDBRANCH   4  17
TORSDOF 7
ENDMDL
MODEL 3
REMARK VINA RESULT:    -3.966      1.744      3.371
REMARK INTER + INTRA:          -5.569
REMARK INTER:                  -5.193
REMARK INTRA:                  -0.376
REMARK UNBOUND:                -0.444
REMARK SMILES CCO[C@@H]1O[C@H](CO)[C@H](O)[C@H](O)[C@H]1O
REMARK SMILES IDX 4 1 13 2 11 3 9 4 6 5 5 6 3 7 2 8 1 9 14 10 12 12 7 14 8 15
REMARK SMILES IDX 10 17
REMARK H PARENT 14 11 12 13 8 16 10 18
REMARK Flexibility Score: inf
ROOT
ATOM      1  C   UNL     1      33.489  -5.058  -3.471  1.00  0.00     0.281 C 
ATOM      2  C   UNL     1      33.320  -3.656  -2.857  1.00  0.00     0.202 C 
ATOM      3  C   UNL     1      31.998  -3.015  -3.299  1.00  0.00     0.179 C 
ATOM      4  C   UNL     1      30.838  -3.984  -3.026  1.00  0.00     0.177 C 
ATOM      5  C   UNL     1      31.120  -5.406  -3.578  1.00  0.00     0.178 C 
ATOM      6  O   UNL     1      32.390  -5.919  -3.186  1.00  0.00    -0.341 OA
ENDROOT
BRANCH   1   7
ATOM      7  O   UNL     1      33.723  -4.956  -4.865  1.00  0.00    -0.350 OA
BRANCH   7   8
ATOM      8  C   UNL     1      34.526  -6.030  -5.311  1.00  0.00     0.160 C 
ATOM      9  C   UNL     1      35.989  -5.620  -5.241  1.00  0.00     0.035 C 
ENDBRANCH   7   8
ENDBRANCH   1   7
BRANCH   2  10
ATOM     10  O   UNL     1      33.360  -3.762  -1.455  1.00  0.00    -0.385 OA
ATOM     11  H   UNL     1      32.908  -4.614  -1.217  1.00  0.00     0.211 HD
ENDBRANCH   2  10
BRANCH   3  12
ATOM     12  O   UNL     1      32.068  -2.672  -4.661  1.00  0.00    -0.387 OA
ATOM     13  H   UNL     1      32.328  -3.492  -5.154  1.00  0.00     0.211 HD
ENDBRANCH   3  12
BRANCH   5  14
ATOM     14  C   UNL     1      30.846  -5.574  -5.090  1.00  0.00     0.191 C 
BRANCH  14  15
ATOM     15  O   UNL     1      29.542  -6.045  -5.304  1.00  0.00    -0.394 OA
ATOM     16  H   UNL     1      29.253  -5.693  -6.186  1.00  0.00     0.210 HD
ENDBRANCH  14  15
ENDBRANCH   5  14
BRANCH   4  17
ATOM     17  O   UNL     1      29.643  -3.460  -3.547  1.00  0.00    -0.387 OA
ATOM     18  H   UNL     1      29.848  -2.544  -3.870  1.00  0.00     0.211 HD
ENDBRANCH   4  17
TORSDOF 7
ENDMDL
MODEL 4
REMARK VINA RESULT:    -3.927      1.694      2.914
REMARK INTER + INTRA:          -5.519
REMARK INTER:                  -5.116
REMARK INTRA:                  -0.403
REMARK UNBOUND:                -0.444
REMARK SMILES CCO[C@@H]1O[C@H](CO)[C@H](O)[C@H](O)[C@H]1O
REMARK SMILES IDX 4 1 13 2 11 3 9 4 6 5 5 6 3 7 2 8 1 9 14 10 12 12 7 14 8 15
REMARK SMILES IDX 10 17
REMARK H PARENT 14 11 12 13 8 16 10 18
REMARK Flexibility Score: inf
ROOT
ATOM      1  C   UNL     1      34.107  -3.788  -2.312  1.00  0.00     0.281 C 
ATOM      2  C   UNL     1      33.745  -5.284  -2.272  1.00  0.00     0.202 C 
ATOM      3  C   UNL     1      32.453  -5.562  -3.051  1.00  0.00     0.179 C 
ATOM      4  C   UNL     1      32.560  -4.960  -4.460  1.00  0.00     0.177 C 
ATOM      5  C   UNL     1      33.032  -3.482  -4.433  1.00  0.00     0.178 C 
ATOM      6  O   UNL     1      34.198  -3.280  -3.640  1.00  0.00    -0.341 OA
ENDROOT
BRANCH   1   7
ATOM      7  O   UNL     1      33.189  -3.042  -1.532  1.00  0.00    -0.350 OA
BRANCH   7   8
ATOM      8  C   UNL     1      33.877  -2.168  -0.661  1.00  0.00     0.160 C 
ATOM      9  C   UNL     1      34.471  -2.972   0.485  1.00  0.00     0.035 C 
ENDBRANCH   7   8
ENDBRANCH   1   7
BRANCH   2  10
ATOM     10  O   UNL     1      34.807  -6.027  -2.819  1.00  0.00    -0.385 OA
ATOM     11  H   UNL     1      35.648  -5.608  -2.497  1.00  0.00     0.211 HD
ENDBRANCH   2  10
BRANCH   3  12
ATOM     12  O   UNL     1      31.354  -5.032  -2.352  1.00  0.00    -0.387 OA
ATOM     13  H   UNL     1      31.386  -5.406  -1.434  1.00  0.00     0.211 HD
ENDBRANCH   3  12
BRANCH   5  14
ATOM     14  C   UNL     1      31.916  -2.458  -4.129  1.00  0.00     0.191 C 
BRANCH  14  15
ATOM     15  O   UNL     1      31.170  -2.186  -5.285  1.00  0.00    -0.394 OA
ATOM     16  H   UNL     1      31.455  -1.290  -5.606  1.00  0.00     0.210 HD
ENDBRANCH  14  15
ENDBRANCH   5  14
BRANCH   4  17
ATOM     17  O   UNL     1      31.335  -5.094  -5.134  1.00  0.00    -0.387 OA
ATOM     18  H   UNL     1      31.388  -4.523  -5.944  1.00  0.00     0.211 HD
ENDBRANCH   4  17
TORSDOF 7
ENDMDL
MODEL 5
REMARK VINA RESULT:    -3.925     14.785     16.899
REMARK INTER + INTRA:          -5.517
REMARK INTER:                  -5.110
REMARK INTRA:                  -0.407
REMARK UNBOUND:                -0.444
REMARK SMILES CCO[C@@H]1O[C@H](CO)[C@H](O)[C@H](O)[C@H]1O
REMARK SMILES IDX 4 1 13 2 11 3 9 4 6 5 5 6 3 7 2 8 1 9 14 10 12 12 7 14 8 15
REMARK SMILES IDX 10 17
REMARK H PARENT 14 11 12 13 8 16 10 18
REMARK Flexibility Score: inf
ROOT
ATOM      1  C   UNL     1      32.363  -7.681  13.356  1.00  0.00     0.281 C 
ATOM      2  C   UNL     1      30.993  -7.428  12.700  1.00  0.00     0.202 C 
ATOM      3  C   UNL     1      30.556  -8.630  11.852  1.00  0.00     0.179 C 
ATOM      4  C   UNL     1      30.644  -9.913  12.691  1.00  0.00     0.177 C 
ATOM      5  C   UNL     1      32.012 -10.052  13.409  1.00  0.00     0.178 C 
ATOM      6  O   UNL     1      32.391  -8.880  14.125  1.00  0.00    -0.341 OA
ENDROOT
BRANCH   1   7
ATOM      7  O   UNL     1      33.384  -7.669  12.374  1.00  0.00    -0.350 OA
BRANCH   7   8
ATOM      8  C   UNL     1      33.557  -6.365  11.857  1.00  0.00     0.160 C 
ATOM      9  C   UNL     1      34.535  -6.416  10.693  1.00  0.00     0.035 C 
ENDBRANCH   7   8
ENDBRANCH   1   7
BRANCH   2  10
ATOM     10  O   UNL     1      30.043  -7.178  13.706  1.00  0.00    -0.385 OA
ATOM     11  H   UNL     1      29.565  -6.345  13.450  1.00  0.00     0.211 HD
ENDBRANCH   2  10
BRANCH   3  12
ATOM     12  O   UNL     1      31.358  -8.716  10.701  1.00  0.00    -0.387 OA
ATOM     13  H   UNL     1      31.816  -7.842  10.600  1.00  0.00     0.211 HD
ENDBRANCH   3  12
BRANCH   5  14
ATOM     14  C   UNL     1      33.150 -10.607  12.522  1.00  0.00     0.191 C 
BRANCH  14  15
ATOM     15  O   UNL     1      32.940 -11.966  12.246  1.00  0.00    -0.394 OA
ATOM     16  H   UNL     1      33.168 -12.102  11.289  1.00  0.00     0.210 HD
ENDBRANCH  14  15
ENDBRANCH   5  14
BRANCH   4  17
ATOM     17  O   UNL     1      30.373 -11.032  11.885  1.00  0.00    -0.387 OA
ATOM     18  H   UNL     1      29.425 -10.956  11.598  1.00  0.00     0.211 HD
ENDBRANCH   4  17
TORSDOF 7
ENDMDL
MODEL 6
REMARK VINA RESULT:    -3.853      1.512      3.599
REMARK INTER + INTRA:          -5.423
REMARK INTER:                  -4.996
REMARK INTRA:                  -0.427
REMARK UNBOUND:                -0.444
REMARK SMILES CCO[C@@H]1O[C@H](CO)[C@H](O)[C@H](O)[C@H]1O
REMARK SMILES IDX 4 1 13 2 11 3 9 4 6 5 5 6 3 7 2 8 1 9 14 10 12 12 7 14 8 15
REMARK SMILES IDX 10 17
REMARK H PARENT 14 11 12 13 8 16 10 18
REMARK Flexibility Score: inf
ROOT
ATOM      1  C   UNL     1      33.964  -4.078  -4.667  1.00  0.00     0.281 C 
ATOM      2  C   UNL     1      34.338  -4.719  -3.318  1.00  0.00     0.202 C 
ATOM      3  C   UNL     1      33.150  -4.693  -2.346  1.00  0.00     0.179 C 
ATOM      4  C   UNL     1      31.913  -5.296  -3.027  1.00  0.00     0.177 C 
ATOM      5  C   UNL     1      31.656  -4.681  -4.428  1.00  0.00     0.178 C 
ATOM      6  O   UNL     1      32.814  -4.675  -5.259  1.00  0.00    -0.341 OA
ENDROOT
BRANCH   1   7
ATOM      7  O   UNL     1      33.805  -2.678  -4.516  1.00  0.00    -0.350 OA
BRANCH   7   8
ATOM      8  C   UNL     1      35.065  -2.043  -4.432  1.00  0.00     0.160 C 
ATOM      9  C   UNL     1      35.878  -2.385  -5.671  1.00  0.00     0.035 C 
ENDBRANCH   7   8
ENDBRANCH   1   7
BRANCH   2  10
ATOM     10  O   UNL     1      34.751  -6.044  -3.539  1.00  0.00    -0.385 OA
ATOM     11  H   UNL     1      34.132  -6.431  -4.213  1.00  0.00     0.211 HD
ENDBRANCH   2  10
BRANCH   3  12
ATOM     12  O   UNL     1      32.910  -3.373  -1.925  1.00  0.00    -0.387 OA
ATOM     13  H   UNL     1      32.119  -3.047  -2.427  1.00  0.00     0.211 HD
ENDBRANCH   3  12
BRANCH   5  14
ATOM     14  C   UNL     1      30.926  -3.319  -4.407  1.00  0.00     0.191 C 
BRANCH  14  15
ATOM     15  O   UNL     1      29.598  -3.479  -3.984  1.00  0.00    -0.394 OA
ATOM     16  H   UNL     1      29.412  -2.744  -3.343  1.00  0.00     0.210 HD
ENDBRANCH  14  15
ENDBRANCH   5  14
BRANCH   4  17
ATOM     17  O   UNL     1      30.791  -5.157  -2.193  1.00  0.00    -0.387 OA
ATOM     18  H   UNL     1      29.996  -5.388  -2.741  1.00  0.00     0.211 HD
ENDBRANCH   4  17
TORSDOF 7
ENDMDL
MODEL 7
REMARK VINA RESULT:    -3.822      1.816      3.203
REMARK INTER + INTRA:          -5.384
REMARK INTER:                  -5.000
REMARK INTRA:                  -0.384
REMARK UNBOUND:                -0.444
REMARK SMILES CCO[C@@H]1O[C@H](CO)[C@H](O)[C@H](O)[C@H]1O
REMARK SMILES IDX 4 1 13 2 11 3 9 4 6 5 5 6 3 7 2 8 1 9 14 10 12 12 7 14 8 15
REMARK SMILES IDX 10 17
REMARK H PARENT 14 11 12 13 8 16 10 18
REMARK Flexibility Score: inf
ROOT
ATOM      1  C   UNL     1      33.305  -3.635  -3.415  1.00  0.00     0.281 C 
ATOM      2  C   UNL     1      32.978  -5.026  -2.842  1.00  0.00     0.202 C 
ATOM      3  C   UNL     1      31.527  -5.422  -3.148  1.00  0.00     0.179 C 
ATOM      4  C   UNL     1      31.254  -5.261  -4.650  1.00  0.00     0.177 C 
ATOM      5  C   UNL     1      31.705  -3.876  -5.184  1.00  0.00     0.178 C 
ATOM      6  O   UNL     1      33.038  -3.539  -4.811  1.00  0.00    -0.341 OA
ENDROOT
BRANCH   1   7
ATOM      7  O   UNL     1      32.621  -2.632  -2.684  1.00  0.00    -0.350 OA
BRANCH   7   8
ATOM      8  C   UNL     1      33.541  -1.751  -2.073  1.00  0.00     0.160 C 
ATOM      9  C   UNL     1      33.833  -2.236  -0.662  1.00  0.00     0.035 C 
ENDBRANCH   7   8
ENDBRANCH   1   7
BRANCH   2  10
ATOM     10  O   UNL     1      33.862  -5.969  -3.395  1.00  0.00    -0.385 OA
ATOM     11  H   UNL     1      34.528  -6.187  -2.691  1.00  0.00     0.211 HD
ENDBRANCH   2  10
BRANCH   3  12
ATOM     12  O   UNL     1      30.649  -4.636  -2.381  1.00  0.00    -0.387 OA
ATOM     13  H   UNL     1      30.716  -3.708  -2.723  1.00  0.00     0.211 HD
ENDBRANCH   3  12
BRANCH   5  14
ATOM     14  C   UNL     1      30.702  -2.730  -4.924  1.00  0.00     0.191 C 
BRANCH  14  15
ATOM     15  O   UNL     1      29.639  -2.790  -5.838  1.00  0.00    -0.394 OA
ATOM     16  H   UNL     1      29.456  -3.752  -6.000  1.00  0.00     0.210 HD
ENDBRANCH  14  15
ENDBRANCH   5  14
BRANCH   4  17
ATOM     17  O   UNL     1      29.895  -5.495  -4.918  1.00  0.00    -0.387 OA
ATOM     18  H   UNL     1      29.402  -5.325  -4.073  1.00  0.00     0.211 HD
ENDBRANCH   4  17
TORSDOF 7
ENDMDL
MODEL 8
REMARK VINA RESULT:    -3.775      1.628      3.690
REMARK INTER + INTRA:          -5.323
REMARK INTER:                  -4.853
REMARK INTRA:                  -0.470
REMARK UNBOUND:                -0.444
REMARK SMILES CCO[C@@H]1O[C@H](CO)[C@H](O)[C@H](O)[C@H]1O
REMARK SMILES IDX 4 1 13 2 11 3 9 4 6 5 5 6 3 7 2 8 1 9 14 10 12 12 7 14 8 15
REMARK SMILES IDX 10 17
REMARK H PARENT 14 11 12 13 8 16 10 18
REMARK Flexibility Score: inf
ROOT
ATOM      1  C   UNL     1      32.947  -3.609  -5.103  1.00  0.00     0.281 C 
ATOM      2  C   UNL     1      32.144  -2.629  -4.229  1.00  0.00     0.202 C 
ATOM      3  C   UNL     1      32.214  -3.026  -2.748  1.00  0.00     0.179 C 
ATOM      4  C   UNL     1      33.680  -3.211  -2.332  1.00  0.00     0.177 C 
ATOM      5  C   UNL     1      34.459  -4.124  -3.315  1.00  0.00     0.178 C 
ATOM      6  O   UNL     1      34.301  -3.742  -4.679  1.00  0.00    -0.341 OA
ENDROOT
BRANCH   1   7
ATOM      7  O   UNL     1      32.293  -4.865  -5.158  1.00  0.00    -0.350 OA
BRANCH   7   8
ATOM      8  C   UNL     1      31.261  -4.843  -6.123  1.00  0.00     0.160 C 
ATOM      9  C   UNL     1      29.993  -5.414  -5.510  1.00  0.00     0.035 C 
ENDBRANCH   7   8
ENDBRANCH   1   7
BRANCH   2  10
ATOM     10  O   UNL     1      32.657  -1.332  -4.405  1.00  0.00    -0.385 OA
ATOM     11  H   UNL     1      31.896  -0.703  -4.289  1.00  0.00     0.211 HD
ENDBRANCH   2  10
BRANCH   3  12
ATOM     12  O   UNL     1      31.470  -4.200  -2.535  1.00  0.00    -0.387 OA
ATOM     13  H   UNL     1      31.483  -4.379  -1.560  1.00  0.00     0.211 HD
ENDBRANCH   3  12
BRANCH   5  14
ATOM     14  C   UNL     1      34.249  -5.638  -3.088  1.00  0.00     0.191 C 
BRANCH  14  15
ATOM     15  O   UNL     1      34.973  -6.072  -1.967  1.00  0.00    -0.394 OA
ATOM     16  H   UNL     1      34.735  -7.026  -1.826  1.00  0.00     0.210 HD
ENDBRANCH  14  15
ENDBRANCH   5  14
BRANCH   4  17
ATOM     17  O   UNL     1      33.747  -3.701  -1.017  1.00  0.00    -0.387 OA
ATOM     18  H   UNL     1      32.838  -3.604  -0.627  1.00  0.00     0.211 HD
ENDBRANCH   4  17
TORSDOF 7
ENDMDL
MODEL 9
REMARK VINA RESULT:    -3.761      1.578      3.453
REMARK INTER + INTRA:          -5.305
REMARK INTER:                  -4.859
REMARK INTRA:                  -0.446
REMARK UNBOUND:                -0.444
REMARK SMILES CCO[C@@H]1O[C@H](CO)[C@H](O)[C@H](O)[C@H]1O
REMARK SMILES IDX 4 1 13 2 11 3 9 4 6 5 5 6 3 7 2 8 1 9 14 10 12 12 7 14 8 15
REMARK SMILES IDX 10 17
REMARK H PARENT 14 11 12 13 8 16 10 18
REMARK Flexibility Score: inf
ROOT
ATOM      1  C   UNL     1      34.117  -3.301  -4.392  1.00  0.00     0.281 C 
ATOM      2  C   UNL     1      32.728  -2.868  -4.894  1.00  0.00     0.202 C 
ATOM      3  C   UNL     1      31.634  -3.814  -4.380  1.00  0.00     0.179 C 
ATOM      4  C   UNL     1      31.754  -3.962  -2.857  1.00  0.00     0.177 C 
ATOM      5  C   UNL     1      33.202  -4.294  -2.411  1.00  0.00     0.178 C 
ATOM      6  O   UNL     1      34.177  -3.420  -2.973  1.00  0.00    -0.341 OA
ENDROOT
BRANCH   1   7
ATOM      7  O   UNL     1      34.516  -4.501  -5.032  1.00  0.00    -0.350 OA
BRANCH   7   8
ATOM      8  C   UNL     1      35.900  -4.476  -5.313  1.00  0.00     0.160 C 
ATOM      9  C   UNL     1      36.382  -5.894  -5.575  1.00  0.00     0.035 C 
ENDBRANCH   7   8
ENDBRANCH   1   7
BRANCH   2  10
ATOM     10  O   UNL     1      32.472  -1.555  -4.459  1.00  0.00    -0.385 OA
ATOM     11  H   UNL     1      32.784  -0.947  -5.180  1.00  0.00     0.211 HD
ENDBRANCH   2  10
BRANCH   3  12
ATOM     12  O   UNL     1      31.743  -5.059  -5.025  1.00  0.00    -0.387 OA
ATOM     13  H   UNL     1      31.247  -5.717  -4.472  1.00  0.00     0.211 HD
ENDBRANCH   3  12
BRANCH   5  14
ATOM     14  C   UNL     1      33.589  -5.785  -2.541  1.00  0.00     0.191 C 
BRANCH  14  15
ATOM     15  O   UNL     1      34.956  -5.963  -2.284  1.00  0.00    -0.394 OA
ATOM     16  H   UNL     1      35.211  -6.834  -2.687  1.00  0.00     0.210 HD
ENDBRANCH  14  15
ENDBRANCH   5  14
BRANCH   4  17
ATOM     17  O   UNL     1      30.843  -4.927  -2.395  1.00  0.00    -0.387 OA
ATOM     18  H   UNL     1      29.949  -4.494  -2.381  1.00  0.00     0.211 HD
ENDBRANCH   4  17
TORSDOF 7
ENDMDL
