MODEL 1
REMARK VINA RESULT:    -4.579      0.000      0.000
REMARK INTER + INTRA:          -4.804
REMARK INTER:                  -5.650
REMARK INTRA:                   0.846
REMARK UNBOUND:                 0.846
REMARK SMILES CC1=CC=CC(C)(C)CC1=O
REMARK SMILES IDX 1 1 2 2 3 3 10 4 11 5 9 6 4 8 5 9 6 10 7 11 8 12
REMARK H PARENT
REMARK Flexibility Score: 80.00
ROOT
ATOM      1  C   UNL     1       3.373  17.048  -6.127  1.00  0.00     0.048 C 
ATOM      2  C   UNL     1       3.557  15.652  -6.677  1.00  0.00    -0.008 C 
ATOM      3  C   UNL     1       2.627  15.186  -7.538  1.00  0.00     0.007 C 
ENDROOT
BRANCH   2   4
ATOM      4  C   UNL     1       4.730  14.886  -6.175  1.00  0.00     0.159 C 
ATOM      5  O   UNL     1       5.551  15.469  -5.414  1.00  0.00    -0.295 OA
BRANCH   4   6
ATOM      6  C   UNL     1       4.985  13.441  -6.484  1.00  0.00     0.091 CG0
ATOM      7  G   UNL     1       4.960  13.109  -7.994  1.00  0.00     0.000 G0
ENDBRANCH   4   6
ENDBRANCH   2   4
BRANCH   3   8
ATOM      8  C   UNL     1       2.553  13.882  -8.235  1.00  0.00    -0.003 C 
ATOM      9  C   UNL     1       3.534  13.001  -8.465  1.00  0.00    -0.020 C 
BRANCH   9  10
ATOM     10  C   UNL     1       4.963  13.115  -7.991  1.00  0.00    -0.010 CG0
ATOM     11  C   UNL     1       5.646  11.742  -8.181  1.00  0.00     0.016 C 
ATOM     12  C   UNL     1       5.730  14.150  -8.845  1.00  0.00     0.016 C 
ATOM     13  G   UNL     1       4.979  13.456  -6.484  1.00  0.00     0.000 G0
ENDBRANCH   9  10
ENDBRANCH   3   8
TORSDOF 0
ENDMDL
MODEL 2
REMARK VINA RESULT:    -4.555      1.607      1.894
REMARK INTER + INTRA:          -4.774
REMARK INTER:                  -5.630
REMARK INTRA:                   0.855
REMARK UNBOUND:                 0.846
REMARK SMILES CC1=CC=CC(C)(C)CC1=O
REMARK SMILES IDX 1 1 2 2 3 3 10 4 11 5 9 6 4 8 5 9 6 10 7 11 8 12
REMARK H PARENT
REMARK Flexibility Score: 80.00
ROOT
ATOM      1  C   UNL     1       4.205  16.641  -5.041  1.00  0.00     0.048 C 
ATOM      2  C   UNL     1       3.753  15.585  -6.023  1.00  0.00    -0.008 C 
ATOM      3  C   UNL     1       3.755  15.902  -7.336  1.00  0.00     0.007 C 
ENDROOT
BRANCH   2   4
ATOM      4  C   UNL     1       3.289  14.294  -5.449  1.00  0.00     0.159 C 
ATOM      5  O   UNL     1       3.376  14.122  -4.201  1.00  0.00    -0.295 OA
BRANCH   4   6
ATOM      6  C   UNL     1       2.682  13.185  -6.255  1.00  0.00     0.091 CG0
ATOM      7  G   UNL     1       3.525  12.767  -7.481  1.00  0.00     0.000 G0
ENDBRANCH   4   6
ENDBRANCH   2   4
BRANCH   3   8
ATOM      8  C   UNL     1       3.382  15.080  -8.509  1.00  0.00    -0.003 C 
ATOM      9  C   UNL     1       3.302  13.747  -8.603  1.00  0.00    -0.020 C 
BRANCH   9  10
ATOM     10  C   UNL     1       3.518  12.761  -7.480  1.00  0.00    -0.010 CG0
ATOM     11  C   UNL     1       3.012  11.378  -7.948  1.00  0.00     0.016 C 
ATOM     12  C   UNL     1       5.024  12.633  -7.160  1.00  0.00     0.016 C 
ATOM     13  G   UNL     1       2.681  13.188  -6.253  1.00  0.00     0.000 G0
ENDBRANCH   9  10
ENDBRANCH   3   8
TORSDOF 0
ENDMDL
MODEL 3
REMARK VINA RESULT:    -4.479      1.555      3.135
REMARK INTER + INTRA:          -4.681
REMARK INTER:                  -5.535
REMARK INTRA:                   0.854
REMARK UNBOUND:                 0.846
REMARK SMILES CC1=CC=CC(C)(C)CC1=O
REMARK SMILES IDX 1 1 2 2 3 3 10 4 11 5 9 6 4 8 5 9 6 10 7 11 8 12
REMARK H PARENT
REMARK Flexibility Score: 80.00
ROOT
ATOM      1  C   UNL     1       6.748  12.506  -5.374  1.00  0.00     0.048 C 
ATOM      2  C   UNL     1       5.821  12.738  -6.545  1.00  0.00    -0.008 C 
ATOM      3  C   UNL     1       5.639  11.722  -7.415  1.00  0.00     0.007 C 
ENDROOT
BRANCH   2   4
ATOM      4  C   UNL     1       5.226  14.096  -6.666  1.00  0.00     0.159 C 
ATOM      5  O   UNL     1       5.450  14.937  -5.752  1.00  0.00    -0.295 OA
BRANCH   4   6
ATOM      6  C   UNL     1       4.403  14.551  -7.834  1.00  0.00     0.091 CG0
ATOM      7  G   UNL     1       3.225  13.610  -8.176  1.00  0.00     0.000 G0
ENDBRANCH   4   6
ENDBRANCH   2   4
BRANCH   3   8
ATOM      8  C   UNL     1       4.793  11.656  -8.629  1.00  0.00    -0.003 C 
ATOM      9  C   UNL     1       3.746  12.422  -8.960  1.00  0.00    -0.020 C 
BRANCH   9  10
ATOM     10  C   UNL     1       3.223  13.601  -8.176  1.00  0.00    -0.010 CG0
ATOM     11  C   UNL     1       2.230  14.376  -9.072  1.00  0.00     0.016 C 
ATOM     12  C   UNL     1       2.455  13.116  -6.925  1.00  0.00     0.016 C 
ATOM     13  G   UNL     1       4.393  14.548  -7.827  1.00  0.00     0.000 G0
ENDBRANCH   9  10
ENDBRANCH   3   8
TORSDOF 0
ENDMDL
MODEL 4
REMARK VINA RESULT:    -4.291      1.477      3.493
REMARK INTER + INTRA:          -4.448
REMARK INTER:                  -5.295
REMARK INTRA:                   0.847
REMARK UNBOUND:                 0.846
REMARK SMILES CC1=CC=CC(C)(C)CC1=O
REMARK SMILES IDX 1 1 2 2 3 3 10 4 11 5 9 6 4 8 5 9 6 10 7 11 8 12
REMARK H PARENT
REMARK Flexibility Score: 80.00
ROOT
ATOM      1  C   UNL     1       6.027  11.753  -8.061  1.00  0.00     0.048 C 
ATOM      2  C   UNL     1       5.463  13.138  -7.841  1.00  0.00    -0.008 C 
ATOM      3  C   UNL     1       4.960  13.791  -8.911  1.00  0.00     0.007 C 
ENDROOT
BRANCH   2   4
ATOM      4  C   UNL     1       5.559  13.688  -6.462  1.00  0.00     0.159 C 
ATOM      5  O   UNL     1       5.991  12.938  -5.543  1.00  0.00    -0.295 OA
BRANCH   4   6
ATOM      6  C   UNL     1       5.212  15.099  -6.093  1.00  0.00     0.091 CG0
ATOM      7  G   UNL     1       3.796  15.533  -6.537  1.00  0.00     0.000 G0
ENDBRANCH   4   6
ENDBRANCH   2   4
BRANCH   3   8
ATOM      8  C   UNL     1       4.340  15.133  -8.995  1.00  0.00    -0.003 C 
ATOM      9  C   UNL     1       3.816  15.874  -8.011  1.00  0.00    -0.020 C 
BRANCH   9  10
ATOM     10  C   UNL     1       3.800  15.522  -6.543  1.00  0.00    -0.010 CG0
ATOM     11  C   UNL     1       3.420  16.790  -5.746  1.00  0.00     0.016 C 
ATOM     12  C   UNL     1       2.729  14.444  -6.261  1.00  0.00     0.016 C 
ATOM     13  G   UNL     1       5.216  15.085  -6.104  1.00  0.00     0.000 G0
ENDBRANCH   9  10
ENDBRANCH   3   8
TORSDOF 0
ENDMDL
MODEL 5
REMARK VINA RESULT:    -4.260      1.714      3.475
REMARK INTER + INTRA:          -4.411
REMARK INTER:                  -5.261
REMARK INTRA:                   0.850
REMARK UNBOUND:                 0.846
REMARK SMILES CC1=CC=CC(C)(C)CC1=O
REMARK SMILES IDX 1 1 2 2 3 3 10 4 11 5 9 6 4 8 5 9 6 10 7 11 8 12
REMARK H PARENT
REMARK Flexibility Score: 80.00
ROOT
ATOM      1  C   UNL     1       3.281  10.740  -9.009  1.00  0.00     0.048 C 
ATOM      2  C   UNL     1       3.492  12.161  -8.541  1.00  0.00    -0.008 C 
ATOM      3  C   UNL     1       2.619  13.101  -8.964  1.00  0.00     0.007 C 
ENDROOT
BRANCH   2   4
ATOM      4  C   UNL     1       4.685  12.414  -7.689  1.00  0.00     0.159 C 
ATOM      5  O   UNL     1       5.394  11.431  -7.336  1.00  0.00    -0.295 OA
BRANCH   4   6
ATOM      6  C   UNL     1       5.130  13.777  -7.248  1.00  0.00     0.091 CG0
ATOM      7  G   UNL     1       4.017  14.612  -6.575  1.00  0.00     0.000 G0
ENDBRANCH   4   6
ENDBRANCH   2   4
BRANCH   3   8
ATOM      8  C   UNL     1       2.568  14.549  -8.663  1.00  0.00    -0.003 C 
ATOM      9  C   UNL     1       3.126  15.210  -7.642  1.00  0.00    -0.020 C 
BRANCH   9  10
ATOM     10  C   UNL     1       4.011  14.615  -6.574  1.00  0.00    -0.010 CG0
ATOM     11  C   UNL     1       4.686  15.774  -5.805  1.00  0.00     0.016 C 
ATOM     12  C   UNL     1       3.166  13.803  -5.567  1.00  0.00     0.016 C 
ATOM     13  G   UNL     1       5.122  13.771  -7.239  1.00  0.00     0.000 G0
ENDBRANCH   9  10
ENDBRANCH   3   8
TORSDOF 0
ENDMDL
MODEL 6
REMARK VINA RESULT:    -4.173      1.137      1.299
REMARK INTER + INTRA:          -4.303
REMARK INTER:                  -5.424
REMARK INTRA:                   1.121
REMARK UNBOUND:                 0.846
REMARK SMILES CC1=CC=CC(C)(C)CC1=O
REMARK SMILES IDX 1 1 2 2 3 3 10 4 11 5 9 6 4 8 5 9 6 10 7 11 8 12
REMARK H PARENT
REMARK Flexibility Score: 80.00
ROOT
ATOM      1  C   UNL     1       1.872  15.894  -5.511  1.00  0.00     0.048 C 
ATOM      2  C   UNL     1       2.719  15.301  -6.613  1.00  0.00    -0.008 C 
ATOM      3  C   UNL     1       2.089  14.627  -7.600  1.00  0.00     0.007 C 
ENDROOT
BRANCH   2   4
ATOM      4  C   UNL     1       4.192  15.465  -6.485  1.00  0.00     0.159 C 
ATOM      5  O   UNL     1       4.659  15.888  -5.391  1.00  0.00    -0.295 OA
BRANCH   4   6
ATOM      6  C   UNL     1       5.173  15.121  -7.566  1.00  0.00     0.091 CG0
ATOM      7  G   UNL     1       5.073  13.661  -8.062  1.00  0.00     0.000 G0
ENDBRANCH   4   6
ENDBRANCH   2   4
BRANCH   3   8
ATOM      8  C   UNL     1       2.649  13.960  -8.797  1.00  0.00    -0.003 C 
ATOM      9  C   UNL     1       3.910  13.574  -9.025  1.00  0.00    -0.020 C 
BRANCH   9  10
ATOM     10  C   UNL     1       5.062  13.678  -8.055  1.00  0.00    -0.010 CG0
ATOM     11  C   UNL     1       4.754  12.773  -6.840  1.00  0.00     0.016 C 
ATOM     12  C   UNL     1       6.364  13.167  -8.711  1.00  0.00     0.016 C 
ATOM     13  G   UNL     1       5.179  15.134  -7.550  1.00  0.00     0.000 G0
ENDBRANCH   9  10
ENDBRANCH   3   8
TORSDOF 0
ENDMDL
MODEL 7
REMARK VINA RESULT:    -3.805      1.722      2.260
REMARK INTER + INTRA:          -3.849
REMARK INTER:                  -4.691
REMARK INTRA:                   0.841
REMARK UNBOUND:                 0.846
REMARK SMILES CC1=CC=CC(C)(C)CC1=O
REMARK SMILES IDX 1 1 2 2 3 3 10 4 11 5 9 6 4 8 5 9 6 10 7 11 8 12
REMARK H PARENT
REMARK Flexibility Score: 80.00
ROOT
ATOM      1  C   UNL     1       3.619  17.587  -5.889  1.00  0.00     0.048 C 
ATOM      2  C   UNL     1       3.605  16.131  -6.294  1.00  0.00    -0.008 C 
ATOM      3  C   UNL     1       3.113  15.235  -5.411  1.00  0.00     0.007 C 
ENDROOT
BRANCH   2   4
ATOM      4  C   UNL     1       4.189  15.801  -7.622  1.00  0.00     0.159 C 
ATOM      5  O   UNL     1       4.548  16.748  -8.376  1.00  0.00    -0.295 OA
BRANCH   4   6
ATOM      6  C   UNL     1       4.421  14.404  -8.115  1.00  0.00     0.091 CG0
ATOM      7  G   UNL     1       3.166  13.503  -8.058  1.00  0.00     0.000 G0
ENDBRANCH   4   6
ENDBRANCH   2   4
BRANCH   3   8
ATOM      8  C   UNL     1       2.964  13.767  -5.536  1.00  0.00    -0.003 C 
ATOM      9  C   UNL     1       2.956  13.020  -6.646  1.00  0.00    -0.020 C 
BRANCH   9  10
ATOM     10  C   UNL     1       3.169  13.517  -8.055  1.00  0.00    -0.010 CG0
ATOM     11  C   UNL     1       3.433  12.295  -8.964  1.00  0.00     0.016 C 
ATOM     12  C   UNL     1       1.897  14.228  -8.572  1.00  0.00     0.016 C 
ATOM     13  G   UNL     1       4.419  14.425  -8.097  1.00  0.00     0.000 G0
ENDBRANCH   9  10
ENDBRANCH   3   8
TORSDOF 0
ENDMDL
MODEL 8
REMARK VINA RESULT:    -3.747      2.088      3.877
REMARK INTER + INTRA:          -3.777
REMARK INTER:                  -4.640
REMARK INTRA:                   0.863
REMARK UNBOUND:                 0.846
REMARK SMILES CC1=CC=CC(C)(C)CC1=O
REMARK SMILES IDX 1 1 2 2 3 3 10 4 11 5 9 6 4 8 5 9 6 10 7 11 8 12
REMARK H PARENT
REMARK Flexibility Score: 80.00
ROOT
ATOM      1  C   UNL     1       3.225  11.815  -8.847  1.00  0.00     0.048 C 
ATOM      2  C   UNL     1       3.545  12.920  -7.867  1.00  0.00    -0.008 C 
ATOM      3  C   UNL     1       4.681  12.812  -7.145  1.00  0.00     0.007 C 
ENDROOT
BRANCH   2   4
ATOM      4  C   UNL     1       2.544  14.014  -7.744  1.00  0.00     0.159 C 
ATOM      5  O   UNL     1       1.553  14.017  -8.525  1.00  0.00    -0.295 OA
BRANCH   4   6
ATOM      6  C   UNL     1       2.613  15.104  -6.716  1.00  0.00     0.091 CG0
ATOM      7  G   UNL     1       3.969  15.845  -6.678  1.00  0.00     0.000 G0
ENDBRANCH   4   6
ENDBRANCH   2   4
BRANCH   3   8
ATOM      8  C   UNL     1       5.250  13.733  -6.134  1.00  0.00    -0.003 C 
ATOM      9  C   UNL     1       4.982  15.029  -5.940  1.00  0.00    -0.020 C 
BRANCH   9  10
ATOM     10  C   UNL     1       3.960  15.849  -6.690  1.00  0.00    -0.010 CG0
ATOM     11  C   UNL     1       3.756  17.179  -5.931  1.00  0.00     0.016 C 
ATOM     12  C   UNL     1       4.477  16.184  -8.108  1.00  0.00     0.016 C 
ATOM     13  G   UNL     1       2.611  15.096  -6.709  1.00  0.00     0.000 G0
ENDBRANCH   9  10
ENDBRANCH   3   8
TORSDOF 0
ENDMDL
MODEL 9
REMARK VINA RESULT:    -3.617      2.084      3.951
REMARK INTER + INTRA:          -3.617
REMARK INTER:                  -4.494
REMARK INTRA:                   0.877
REMARK UNBOUND:                 0.846
REMARK SMILES CC1=CC=CC(C)(C)CC1=O
REMARK SMILES IDX 1 1 2 2 3 3 10 4 11 5 9 6 4 8 5 9 6 10 7 11 8 12
REMARK H PARENT
REMARK Flexibility Score: 80.00
ROOT
ATOM      1  C   UNL     1       5.245  11.406  -8.459  1.00  0.00     0.048 C 
ATOM      2  C   UNL     1       4.754  12.535  -7.583  1.00  0.00    -0.008 C 
ATOM      3  C   UNL     1       5.627  13.520  -7.276  1.00  0.00     0.007 C 
ENDROOT
BRANCH   2   4
ATOM      4  C   UNL     1       3.356  12.437  -7.086  1.00  0.00     0.159 C 
ATOM      5  O   UNL     1       2.644  11.469  -7.474  1.00  0.00    -0.295 OA
BRANCH   4   6
ATOM      6  C   UNL     1       2.739  13.398  -6.114  1.00  0.00     0.091 CG0
ATOM      7  G   UNL     1       2.894  14.882  -6.515  1.00  0.00     0.000 G0
ENDBRANCH   4   6
ENDBRANCH   2   4
BRANCH   3   8
ATOM      8  C   UNL     1       5.428  14.740  -6.462  1.00  0.00    -0.003 C 
ATOM      9  C   UNL     1       4.283  15.355  -6.144  1.00  0.00    -0.020 C 
BRANCH   9  10
ATOM     10  C   UNL     1       2.893  14.889  -6.503  1.00  0.00    -0.010 CG0
ATOM     11  C   UNL     1       1.878  15.720  -5.686  1.00  0.00     0.016 C 
ATOM     12  C   UNL     1       2.614  15.137  -8.003  1.00  0.00     0.016 C 
ATOM     13  G   UNL     1       2.729  13.405  -6.103  1.00  0.00     0.000 G0
ENDBRANCH   9  10
ENDBRANCH   3   8
TORSDOF 0
ENDMDL
