MODEL 1
REMARK VINA RESULT:    -3.588      0.000      0.000
REMARK INTER + INTRA:          -7.011
REMARK INTER:                  -5.686
REMARK INTRA:                  -1.325
REMARK UNBOUND:                -1.325
REMARK SMILES CCCCCCCCCCCC(=O)[O-]
REMARK SMILES IDX 7 1 8 2 9 3 10 4 11 5 12 6 13 7 14 8 6 9 5 10 4 11 3 12 2 13
REMARK SMILES IDX 1 14
REMARK H PARENT
REMARK Flexibility Score: inf
ROOT
ATOM      1  C   UNL     1     -26.837 -50.306  29.545  1.00  0.00     0.000 C 
ENDROOT
BRANCH   1   2
ATOM      2  C   UNL     1     -26.021 -49.543  30.604  1.00  0.00     0.000 C 
BRANCH   2   3
ATOM      3  C   UNL     1     -24.656 -50.193  30.888  1.00  0.00     0.000 C 
BRANCH   3   4
ATOM      4  C   UNL     1     -24.570 -50.789  32.302  1.00  0.00     0.006 C 
BRANCH   4   5
ATOM      5  C   UNL     1     -25.506 -50.091  33.297  1.00  0.00     0.053 C 
BRANCH   5   6
ATOM      6  C   UNL     1     -24.903 -50.088  34.666  1.00  0.00     0.041 C 
ATOM      7  O   UNL     1     -25.370 -49.339  35.563  1.00  0.00    -0.550 OA
ATOM      8  O   UNL     1     -23.854 -50.949  34.965  1.00  0.00    -0.550 OA
ENDBRANCH   5   6
ENDBRANCH   4   5
ENDBRANCH   3   4
ENDBRANCH   2   3
ENDBRANCH   1   2
BRANCH   1   9
ATOM      9  C   UNL     1     -27.882 -51.293  30.104  1.00  0.00     0.000 C 
BRANCH   9  10
ATOM     10  C   UNL     1     -27.666 -52.766  29.714  1.00  0.00    -0.000 C 
BRANCH  10  11
ATOM     11  C   UNL     1     -26.543 -53.438  30.519  1.00  0.00    -0.000 C 
BRANCH  11  12
ATOM     12  C   UNL     1     -25.601 -54.224  29.595  1.00  0.00    -0.000 C 
BRANCH  12  13
ATOM     13  C   UNL     1     -24.577 -53.322  28.891  1.00  0.00    -0.003 C 
ATOM     14  C   UNL     1     -24.807 -53.228  27.383  1.00  0.00     0.004 C 
ENDBRANCH  12  13
ENDBRANCH  11  12
ENDBRANCH  10  11
ENDBRANCH   9  10
ENDBRANCH   1   9
TORSDOF 10
ENDMDL
MODEL 2
REMARK VINA RESULT:    -3.577      7.479      9.288
REMARK INTER + INTRA:          -6.994
REMARK INTER:                  -6.350
REMARK INTRA:                  -0.644
REMARK UNBOUND:                -1.325
REMARK SMILES CCCCCCCCCCCC(=O)[O-]
REMARK SMILES IDX 7 1 8 2 9 3 10 4 11 5 12 6 13 7 14 8 6 9 5 10 4 11 3 12 2 13
REMARK SMILES IDX 1 14
REMARK H PARENT
REMARK Flexibility Score: inf
ROOT
ATOM      1  C   UNL     1     -32.341 -52.302  32.492  1.00  0.00     0.000 C 
ENDROOT
BRANCH   1   2
ATOM      2  C   UNL     1     -32.659 -52.754  31.055  1.00  0.00     0.000 C 
BRANCH   2   3
ATOM      3  C   UNL     1     -33.635 -53.942  31.005  1.00  0.00     0.000 C 
BRANCH   3   4
ATOM      4  C   UNL     1     -33.653 -54.633  29.633  1.00  0.00     0.006 C 
BRANCH   4   5
ATOM      5  C   UNL     1     -34.927 -55.455  29.399  1.00  0.00     0.053 C 
BRANCH   5   6
ATOM      6  C   UNL     1     -36.063 -54.559  29.020  1.00  0.00     0.041 C 
ATOM      7  O   UNL     1     -37.196 -54.716  29.545  1.00  0.00    -0.550 OA
ATOM      8  O   UNL     1     -35.858 -53.519  28.122  1.00  0.00    -0.550 OA
ENDBRANCH   5   6
ENDBRANCH   4   5
ENDBRANCH   3   4
ENDBRANCH   2   3
ENDBRANCH   1   2
BRANCH   1   9
ATOM      9  C   UNL     1     -32.354 -53.422  33.552  1.00  0.00     0.000 C 
BRANCH   9  10
ATOM     10  C   UNL     1     -30.967 -53.877  34.041  1.00  0.00    -0.000 C 
BRANCH  10  11
ATOM     11  C   UNL     1     -30.222 -52.786  34.824  1.00  0.00    -0.000 C 
BRANCH  11  12
ATOM     12  C   UNL     1     -28.738 -52.746  34.431  1.00  0.00    -0.000 C 
BRANCH  12  13
ATOM     13  C   UNL     1     -28.526 -52.869  32.914  1.00  0.00    -0.003 C 
ATOM     14  C   UNL     1     -27.150 -53.428  32.552  1.00  0.00     0.004 C 
ENDBRANCH  12  13
ENDBRANCH  11  12
ENDBRANCH  10  11
ENDBRANCH   9  10
ENDBRANCH   1   9
TORSDOF 10
ENDMDL
MODEL 3
REMARK VINA RESULT:    -3.574      4.411      6.475
REMARK INTER + INTRA:          -6.988
REMARK INTER:                  -6.016
REMARK INTRA:                  -0.971
REMARK UNBOUND:                -1.325
REMARK SMILES CCCCCCCCCCCC(=O)[O-]
REMARK SMILES IDX 7 1 8 2 9 3 10 4 11 5 12 6 13 7 14 8 6 9 5 10 4 11 3 12 2 13
REMARK SMILES IDX 1 14
REMARK H PARENT
REMARK Flexibility Score: inf
ROOT
ATOM      1  C   UNL     1     -29.222 -46.907  34.101  1.00  0.00     0.000 C 
ENDROOT
BRANCH   1   2
ATOM      2  C   UNL     1     -29.383 -47.578  35.477  1.00  0.00     0.000 C 
BRANCH   2   3
ATOM      3  C   UNL     1     -28.159 -48.419  35.877  1.00  0.00     0.000 C 
BRANCH   3   4
ATOM      4  C   UNL     1     -26.979 -48.242  34.908  1.00  0.00     0.006 C 
BRANCH   4   5
ATOM      5  C   UNL     1     -25.656 -48.764  35.482  1.00  0.00     0.053 C 
BRANCH   5   6
ATOM      6  C   UNL     1     -25.296 -50.073  34.853  1.00  0.00     0.041 C 
ATOM      7  O   UNL     1     -24.157 -50.574  35.040  1.00  0.00    -0.550 OA
ATOM      8  O   UNL     1     -26.236 -50.762  34.097  1.00  0.00    -0.550 OA
ENDBRANCH   5   6
ENDBRANCH   4   5
ENDBRANCH   3   4
ENDBRANCH   2   3
ENDBRANCH   1   2
BRANCH   1   9
ATOM      9  C   UNL     1     -29.713 -45.448  34.018  1.00  0.00     0.000 C 
BRANCH   9  10
ATOM     10  C   UNL     1     -28.628 -44.410  33.680  1.00  0.00    -0.000 C 
BRANCH  10  11
ATOM     11  C   UNL     1     -27.391 -45.034  33.015  1.00  0.00    -0.000 C 
BRANCH  11  12
ATOM     12  C   UNL     1     -27.403 -44.791  31.498  1.00  0.00    -0.000 C 
BRANCH  12  13
ATOM     13  C   UNL     1     -27.998 -45.973  30.716  1.00  0.00    -0.003 C 
ATOM     14  C   UNL     1     -27.061 -47.180  30.665  1.00  0.00     0.004 C 
ENDBRANCH  12  13
ENDBRANCH  11  12
ENDBRANCH  10  11
ENDBRANCH   9  10
ENDBRANCH   1   9
TORSDOF 10
ENDMDL
MODEL 4
REMARK VINA RESULT:    -3.568      7.958      9.919
REMARK INTER + INTRA:          -6.979
REMARK INTER:                  -6.052
REMARK INTRA:                  -0.927
REMARK UNBOUND:                -1.325
REMARK SMILES CCCCCCCCCCCC(=O)[O-]
REMARK SMILES IDX 7 1 8 2 9 3 10 4 11 5 12 6 13 7 14 8 6 9 5 10 4 11 3 12 2 13
REMARK SMILES IDX 1 14
REMARK H PARENT
REMARK Flexibility Score: inf
ROOT
ATOM      1  C   UNL     1     -32.850 -53.435  32.913  1.00  0.00     0.000 C 
ENDROOT
BRANCH   1   2
ATOM      2  C   UNL     1     -32.389 -52.551  31.741  1.00  0.00     0.000 C 
BRANCH   2   3
ATOM      3  C   UNL     1     -33.333 -52.629  30.528  1.00  0.00     0.000 C 
BRANCH   3   4
ATOM      4  C   UNL     1     -33.482 -54.060  29.988  1.00  0.00     0.006 C 
BRANCH   4   5
ATOM      5  C   UNL     1     -34.914 -54.594  30.114  1.00  0.00     0.053 C 
BRANCH   5   6
ATOM      6  C   UNL     1     -35.383 -55.142  28.803  1.00  0.00     0.041 C 
ATOM      7  O   UNL     1     -35.962 -54.393  27.974  1.00  0.00    -0.550 OA
ATOM      8  O   UNL     1     -35.137 -56.470  28.477  1.00  0.00    -0.550 OA
ENDBRANCH   5   6
ENDBRANCH   4   5
ENDBRANCH   3   4
ENDBRANCH   2   3
ENDBRANCH   1   2
BRANCH   1   9
ATOM      9  C   UNL     1     -31.733 -53.898  33.869  1.00  0.00     0.000 C 
BRANCH   9  10
ATOM     10  C   UNL     1     -30.470 -53.017  33.876  1.00  0.00    -0.000 C 
BRANCH  10  11
ATOM     11  C   UNL     1     -30.398 -52.087  35.096  1.00  0.00    -0.000 C 
BRANCH  11  12
ATOM     12  C   UNL     1     -30.796 -50.653  34.718  1.00  0.00    -0.000 C 
BRANCH  12  13
ATOM     13  C   UNL     1     -32.020 -50.155  35.502  1.00  0.00    -0.003 C 
ATOM     14  C   UNL     1     -33.304 -50.176  34.673  1.00  0.00     0.004 C 
ENDBRANCH  12  13
ENDBRANCH  11  12
ENDBRANCH  10  11
ENDBRANCH   9  10
ENDBRANCH   1   9
TORSDOF 10
ENDMDL
MODEL 5
REMARK VINA RESULT:    -3.563      8.498     10.223
REMARK INTER + INTRA:          -6.970
REMARK INTER:                  -5.907
REMARK INTRA:                  -1.063
REMARK UNBOUND:                -1.325
REMARK SMILES CCCCCCCCCCCC(=O)[O-]
REMARK SMILES IDX 7 1 8 2 9 3 10 4 11 5 12 6 13 7 14 8 6 9 5 10 4 11 3 12 2 13
REMARK SMILES IDX 1 14
REMARK H PARENT
REMARK Flexibility Score: inf
ROOT
ATOM      1  C   UNL     1     -31.139 -48.833  35.580  1.00  0.00     0.000 C 
ENDROOT
BRANCH   1   2
ATOM      2  C   UNL     1     -32.369 -48.604  36.476  1.00  0.00     0.000 C 
BRANCH   2   3
ATOM      3  C   UNL     1     -33.693 -48.946  35.771  1.00  0.00     0.000 C 
BRANCH   3   4
ATOM      4  C   UNL     1     -33.801 -48.308  34.377  1.00  0.00     0.006 C 
BRANCH   4   5
ATOM      5  C   UNL     1     -34.462 -46.924  34.408  1.00  0.00     0.053 C 
BRANCH   5   6
ATOM      6  C   UNL     1     -35.874 -47.011  33.920  1.00  0.00     0.041 C 
ATOM      7  O   UNL     1     -36.125 -46.941  32.689  1.00  0.00    -0.550 OA
ATOM      8  O   UNL     1     -36.909 -47.216  34.824  1.00  0.00    -0.550 OA
ENDBRANCH   5   6
ENDBRANCH   4   5
ENDBRANCH   3   4
ENDBRANCH   2   3
ENDBRANCH   1   2
BRANCH   1   9
ATOM      9  C   UNL     1     -30.231 -47.603  35.381  1.00  0.00     0.000 C 
BRANCH   9  10
ATOM     10  C   UNL     1     -30.797 -46.277  35.920  1.00  0.00    -0.000 C 
BRANCH  10  11
ATOM     11  C   UNL     1     -31.134 -45.275  34.805  1.00  0.00    -0.000 C 
BRANCH  11  12
ATOM     12  C   UNL     1     -30.141 -45.397  33.640  1.00  0.00    -0.000 C 
BRANCH  12  13
ATOM     13  C   UNL     1     -28.988 -44.385  33.740  1.00  0.00    -0.003 C 
ATOM     14  C   UNL     1     -27.716 -44.867  33.042  1.00  0.00     0.004 C 
ENDBRANCH  12  13
ENDBRANCH  11  12
ENDBRANCH  10  11
ENDBRANCH   9  10
ENDBRANCH   1   9
TORSDOF 10
ENDMDL
MODEL 6
REMARK VINA RESULT:    -3.523      9.495     11.381
REMARK INTER + INTRA:          -6.908
REMARK INTER:                  -6.197
REMARK INTRA:                  -0.711
REMARK UNBOUND:                -1.325
REMARK SMILES CCCCCCCCCCCC(=O)[O-]
REMARK SMILES IDX 7 1 8 2 9 3 10 4 11 5 12 6 13 7 14 8 6 9 5 10 4 11 3 12 2 13
REMARK SMILES IDX 1 14
REMARK H PARENT
REMARK Flexibility Score: inf
ROOT
ATOM      1  C   UNL     1     -34.484 -52.454  26.476  1.00  0.00     0.000 C 
ENDROOT
BRANCH   1   2
ATOM      2  C   UNL     1     -34.444 -52.160  24.966  1.00  0.00     0.000 C 
BRANCH   2   3
ATOM      3  C   UNL     1     -33.131 -51.489  24.524  1.00  0.00     0.000 C 
BRANCH   3   4
ATOM      4  C   UNL     1     -33.363 -50.135  23.836  1.00  0.00     0.006 C 
BRANCH   4   5
ATOM      5  C   UNL     1     -34.849 -49.766  23.741  1.00  0.00     0.053 C 
BRANCH   5   6
ATOM      6  C   UNL     1     -35.030 -48.289  23.901  1.00  0.00     0.041 C 
ATOM      7  O   UNL     1     -34.045 -47.514  23.791  1.00  0.00    -0.550 OA
ATOM      8  O   UNL     1     -36.297 -47.766  24.125  1.00  0.00    -0.550 OA
ENDBRANCH   5   6
ENDBRANCH   4   5
ENDBRANCH   3   4
ENDBRANCH   2   3
ENDBRANCH   1   2
BRANCH   1   9
ATOM      9  C   UNL     1     -33.390 -51.761  27.312  1.00  0.00     0.000 C 
BRANCH   9  10
ATOM     10  C   UNL     1     -33.261 -52.259  28.763  1.00  0.00    -0.000 C 
BRANCH  10  11
ATOM     11  C   UNL     1     -34.501 -53.026  29.244  1.00  0.00    -0.000 C 
BRANCH  11  12
ATOM     12  C   UNL     1     -34.103 -54.361  29.892  1.00  0.00    -0.000 C 
BRANCH  12  13
ATOM     13  C   UNL     1     -35.200 -55.429  29.763  1.00  0.00    -0.003 C 
ATOM     14  C   UNL     1     -36.458 -54.905  29.071  1.00  0.00     0.004 C 
ENDBRANCH  12  13
ENDBRANCH  11  12
ENDBRANCH  10  11
ENDBRANCH   9  10
ENDBRANCH   1   9
TORSDOF 10
ENDMDL
MODEL 7
REMARK VINA RESULT:    -3.498      1.926      3.192
REMARK INTER + INTRA:          -6.867
REMARK INTER:                  -5.827
REMARK INTRA:                  -1.040
REMARK UNBOUND:                -1.325
REMARK SMILES CCCCCCCCCCCC(=O)[O-]
REMARK SMILES IDX 7 1 8 2 9 3 10 4 11 5 12 6 13 7 14 8 6 9 5 10 4 11 3 12 2 13
REMARK SMILES IDX 1 14
REMARK H PARENT
REMARK Flexibility Score: inf
ROOT
ATOM      1  C   UNL     1     -24.803 -52.655  30.523  1.00  0.00     0.000 C 
ENDROOT
BRANCH   1   2
ATOM      2  C   UNL     1     -25.500 -53.883  31.136  1.00  0.00     0.000 C 
BRANCH   2   3
ATOM      3  C   UNL     1     -26.747 -53.513  31.958  1.00  0.00     0.000 C 
BRANCH   3   4
ATOM      4  C   UNL     1     -26.753 -52.038  32.388  1.00  0.00     0.006 C 
BRANCH   4   5
ATOM      5  C   UNL     1     -26.322 -51.845  33.848  1.00  0.00     0.053 C 
BRANCH   5   6
ATOM      6  C   UNL     1     -25.103 -50.981  33.921  1.00  0.00     0.041 C 
ATOM      7  O   UNL     1     -24.368 -51.008  34.942  1.00  0.00    -0.550 OA
ATOM      8  O   UNL     1     -24.754 -50.180  32.841  1.00  0.00    -0.550 OA
ENDBRANCH   5   6
ENDBRANCH   4   5
ENDBRANCH   3   4
ENDBRANCH   2   3
ENDBRANCH   1   2
BRANCH   1   9
ATOM      9  C   UNL     1     -24.248 -52.855  29.099  1.00  0.00     0.000 C 
BRANCH   9  10
ATOM     10  C   UNL     1     -25.253 -52.597  27.962  1.00  0.00    -0.000 C 
BRANCH  10  11
ATOM     11  C   UNL     1     -25.588 -53.865  27.163  1.00  0.00    -0.000 C 
BRANCH  11  12
ATOM     12  C   UNL     1     -26.850 -54.544  27.716  1.00  0.00    -0.000 C 
BRANCH  12  13
ATOM     13  C   UNL     1     -27.887 -53.533  28.228  1.00  0.00    -0.003 C 
ATOM     14  C   UNL     1     -29.224 -53.633  27.493  1.00  0.00     0.004 C 
ENDBRANCH  12  13
ENDBRANCH  11  12
ENDBRANCH  10  11
ENDBRANCH   9  10
ENDBRANCH   1   9
TORSDOF 10
ENDMDL
MODEL 8
REMARK VINA RESULT:    -3.490      8.915     10.818
REMARK INTER + INTRA:          -6.855
REMARK INTER:                  -5.772
REMARK INTRA:                  -1.083
REMARK UNBOUND:                -1.325
REMARK SMILES CCCCCCCCCCCC(=O)[O-]
REMARK SMILES IDX 7 1 8 2 9 3 10 4 11 5 12 6 13 7 14 8 6 9 5 10 4 11 3 12 2 13
REMARK SMILES IDX 1 14
REMARK H PARENT
REMARK Flexibility Score: inf
ROOT
ATOM      1  C   UNL     1     -32.793 -50.645  26.863  1.00  0.00     0.000 C 
ENDROOT
BRANCH   1   2
ATOM      2  C   UNL     1     -32.620 -51.368  28.211  1.00  0.00     0.000 C 
BRANCH   2   3
ATOM      3  C   UNL     1     -33.253 -52.771  28.220  1.00  0.00     0.000 C 
BRANCH   3   4
ATOM      4  C   UNL     1     -34.760 -52.734  28.516  1.00  0.00     0.006 C 
BRANCH   4   5
ATOM      5  C   UNL     1     -35.536 -53.834  27.778  1.00  0.00     0.053 C 
BRANCH   5   6
ATOM      6  C   UNL     1     -35.830 -54.973  28.702  1.00  0.00     0.041 C 
ATOM      7  O   UNL     1     -35.077 -55.980  28.726  1.00  0.00    -0.550 OA
ATOM      8  O   UNL     1     -36.913 -54.901  29.570  1.00  0.00    -0.550 OA
ENDBRANCH   5   6
ENDBRANCH   4   5
ENDBRANCH   3   4
ENDBRANCH   2   3
ENDBRANCH   1   2
BRANCH   1   9
ATOM      9  C   UNL     1     -32.060 -51.290  25.670  1.00  0.00     0.000 C 
BRANCH   9  10
ATOM     10  C   UNL     1     -32.942 -51.589  24.444  1.00  0.00    -0.000 C 
BRANCH  10  11
ATOM     11  C   UNL     1     -34.428 -51.747  24.802  1.00  0.00    -0.000 C 
BRANCH  11  12
ATOM     12  C   UNL     1     -35.287 -50.732  24.033  1.00  0.00    -0.000 C 
BRANCH  12  13
ATOM     13  C   UNL     1     -34.482 -49.507  23.572  1.00  0.00    -0.003 C 
ATOM     14  C   UNL     1     -34.995 -48.200  24.175  1.00  0.00     0.004 C 
ENDBRANCH  12  13
ENDBRANCH  11  12
ENDBRANCH  10  11
ENDBRANCH   9  10
ENDBRANCH   1   9
TORSDOF 10
ENDMDL
MODEL 9
REMARK VINA RESULT:    -3.410      3.532      5.915
REMARK INTER + INTRA:          -6.729
REMARK INTER:                  -5.071
REMARK INTRA:                  -1.658
REMARK UNBOUND:                -1.325
REMARK SMILES CCCCCCCCCCCC(=O)[O-]
REMARK SMILES IDX 7 1 8 2 9 3 10 4 11 5 12 6 13 7 14 8 6 9 5 10 4 11 3 12 2 13
REMARK SMILES IDX 1 14
REMARK H PARENT
REMARK Flexibility Score: inf
ROOT
ATOM      1  C   UNL     1     -30.326 -50.695  35.279  1.00  0.00     0.000 C 
ENDROOT
BRANCH   1   2
ATOM      2  C   UNL     1     -29.483 -51.927  35.655  1.00  0.00     0.000 C 
BRANCH   2   3
ATOM      3  C   UNL     1     -28.671 -52.478  34.470  1.00  0.00     0.000 C 
BRANCH   3   4
ATOM      4  C   UNL     1     -27.157 -52.283  34.652  1.00  0.00     0.006 C 
BRANCH   4   5
ATOM      5  C   UNL     1     -26.449 -51.893  33.348  1.00  0.00     0.053 C 
BRANCH   5   6
ATOM      6  C   UNL     1     -25.177 -51.163  33.645  1.00  0.00     0.041 C 
ATOM      7  O   UNL     1     -24.484 -50.690  32.707  1.00  0.00    -0.550 OA
ATOM      8  O   UNL     1     -24.781 -50.964  34.962  1.00  0.00    -0.550 OA
ENDBRANCH   5   6
ENDBRANCH   4   5
ENDBRANCH   3   4
ENDBRANCH   2   3
ENDBRANCH   1   2
BRANCH   1   9
ATOM      9  C   UNL     1     -29.899 -49.375  35.952  1.00  0.00     0.000 C 
BRANCH   9  10
ATOM     10  C   UNL     1     -28.522 -49.406  36.639  1.00  0.00    -0.000 C 
BRANCH  10  11
ATOM     11  C   UNL     1     -27.413 -48.775  35.784  1.00  0.00    -0.000 C 
BRANCH  11  12
ATOM     12  C   UNL     1     -28.010 -47.888  34.681  1.00  0.00    -0.000 C 
BRANCH  12  13
ATOM     13  C   UNL     1     -27.496 -48.261  33.282  1.00  0.00    -0.003 C 
ATOM     14  C   UNL     1     -28.541 -48.999  32.445  1.00  0.00     0.004 C 
ENDBRANCH  12  13
ENDBRANCH  11  12
ENDBRANCH  10  11
ENDBRANCH   9  10
ENDBRANCH   1   9
TORSDOF 10
ENDMDL
