MODEL 1
REMARK VINA RESULT:    -3.076      0.000      0.000
REMARK INTER + INTRA:          -6.908
REMARK INTER:                  -5.235
REMARK INTRA:                  -1.673
REMARK UNBOUND:                -1.673
REMARK SMILES CCCCCCCCCCCCCC(=O)[O-]
REMARK SMILES IDX 8 1 9 2 10 3 11 4 12 5 13 6 14 7 15 8 16 9 7 10 6 11 5 12
REMARK SMILES IDX 4 13 3 14 2 15 1 16
REMARK H PARENT
REMARK Flexibility Score: inf
ROOT
ATOM      1  C   UNL     1      20.880   9.728  37.118  1.00  0.00     0.000 C 
ENDROOT
BRANCH   1   2
ATOM      2  C   UNL     1      20.732   9.482  35.605  1.00  0.00     0.000 C 
BRANCH   2   3
ATOM      3  C   UNL     1      21.062   8.036  35.204  1.00  0.00     0.000 C 
BRANCH   3   4
ATOM      4  C   UNL     1      19.816   7.133  35.175  1.00  0.00     0.000 C 
BRANCH   4   5
ATOM      5  C   UNL     1      19.863   6.091  34.042  1.00  0.00     0.006 C 
BRANCH   5   6
ATOM      6  C   UNL     1      20.443   4.729  34.456  1.00  0.00     0.053 C 
BRANCH   6   7
ATOM      7  C   UNL     1      21.884   4.590  34.069  1.00  0.00     0.041 C 
ATOM      8  O   UNL     1      22.333   5.208  33.069  1.00  0.00    -0.550 OA
ATOM      9  O   UNL     1      22.736   3.804  34.834  1.00  0.00    -0.550 OA
ENDBRANCH   6   7
ENDBRANCH   5   6
ENDBRANCH   4   5
ENDBRANCH   3   4
ENDBRANCH   2   3
ENDBRANCH   1   2
BRANCH   1  10
ATOM     10  C   UNL     1      22.349   9.791  37.567  1.00  0.00     0.000 C 
BRANCH  10  11
ATOM     11  C   UNL     1      22.574   9.137  38.942  1.00  0.00    -0.000 C 
BRANCH  11  12
ATOM     12  C   UNL     1      21.261   8.694  39.607  1.00  0.00    -0.000 C 
BRANCH  12  13
ATOM     13  C   UNL     1      21.100   7.166  39.644  1.00  0.00    -0.000 C 
BRANCH  13  14
ATOM     14  C   UNL     1      22.302   6.473  38.986  1.00  0.00    -0.000 C 
BRANCH  14  15
ATOM     15  C   UNL     1      21.886   5.499  37.872  1.00  0.00    -0.003 C 
ATOM     16  C   UNL     1      20.532   4.842  38.136  1.00  0.00     0.004 C 
ENDBRANCH  14  15
ENDBRANCH  13  14
ENDBRANCH  12  13
ENDBRANCH  11  12
ENDBRANCH  10  11
ENDBRANCH   1  10
TORSDOF 12
ENDMDL
MODEL 2
REMARK VINA RESULT:    -3.072      0.981      3.251
REMARK INTER + INTRA:          -6.901
REMARK INTER:                  -5.099
REMARK INTRA:                  -1.802
REMARK UNBOUND:                -1.673
REMARK SMILES CCCCCCCCCCCCCC(=O)[O-]
REMARK SMILES IDX 8 1 9 2 10 3 11 4 12 5 13 6 14 7 15 8 16 9 7 10 6 11 5 12
REMARK SMILES IDX 4 13 3 14 2 15 1 16
REMARK H PARENT
REMARK Flexibility Score: inf
ROOT
ATOM      1  C   UNL     1      20.756   6.873  39.076  1.00  0.00     0.000 C 
ENDROOT
BRANCH   1   2
ATOM      2  C   UNL     1      22.122   6.189  38.883  1.00  0.00     0.000 C 
BRANCH   2   3
ATOM      3  C   UNL     1      22.060   5.008  37.901  1.00  0.00     0.000 C 
BRANCH   3   4
ATOM      4  C   UNL     1      20.670   4.844  37.263  1.00  0.00     0.000 C 
BRANCH   4   5
ATOM      5  C   UNL     1      20.729   4.204  35.863  1.00  0.00     0.006 C 
BRANCH   5   6
ATOM      6  C   UNL     1      22.129   4.195  35.228  1.00  0.00     0.053 C 
BRANCH   6   7
ATOM      7  C   UNL     1      22.100   4.641  33.798  1.00  0.00     0.041 C 
ATOM      8  O   UNL     1      23.069   4.389  33.036  1.00  0.00    -0.550 OA
ATOM      9  O   UNL     1      20.987   5.307  33.301  1.00  0.00    -0.550 OA
ENDBRANCH   6   7
ENDBRANCH   5   6
ENDBRANCH   4   5
ENDBRANCH   3   4
ENDBRANCH   2   3
ENDBRANCH   1   2
BRANCH   1  10
ATOM     10  C   UNL     1      20.875   8.398  39.227  1.00  0.00     0.000 C 
BRANCH  10  11
ATOM     11  C   UNL     1      22.272   8.922  38.850  1.00  0.00    -0.000 C 
BRANCH  11  12
ATOM     12  C   UNL     1      22.305   9.567  37.455  1.00  0.00    -0.000 C 
BRANCH  12  13
ATOM     13  C   UNL     1      20.937  10.117  37.023  1.00  0.00    -0.000 C 
BRANCH  13  14
ATOM     14  C   UNL     1      20.588   9.660  35.599  1.00  0.00    -0.000 C 
BRANCH  14  15
ATOM     15  C   UNL     1      20.548   8.130  35.463  1.00  0.00    -0.003 C 
ATOM     16  C   UNL     1      19.125   7.583  35.348  1.00  0.00     0.004 C 
ENDBRANCH  14  15
ENDBRANCH  13  14
ENDBRANCH  12  13
ENDBRANCH  11  12
ENDBRANCH  10  11
ENDBRANCH   1  10
TORSDOF 12
ENDMDL
MODEL 3
REMARK VINA RESULT:    -3.060      6.218      9.115
REMARK INTER + INTRA:          -6.880
REMARK INTER:                  -6.136
REMARK INTRA:                  -0.745
REMARK UNBOUND:                -1.673
REMARK SMILES CCCCCCCCCCCCCC(=O)[O-]
REMARK SMILES IDX 8 1 9 2 10 3 11 4 12 5 13 6 14 7 15 8 16 9 7 10 6 11 5 12
REMARK SMILES IDX 4 13 3 14 2 15 1 16
REMARK H PARENT
REMARK Flexibility Score: inf
ROOT
ATOM      1  C   UNL     1      23.131   3.221  27.465  1.00  0.00     0.000 C 
ENDROOT
BRANCH   1   2
ATOM      2  C   UNL     1      23.175   4.748  27.269  1.00  0.00     0.000 C 
BRANCH   2   3
ATOM      3  C   UNL     1      24.477   5.223  26.603  1.00  0.00     0.000 C 
BRANCH   3   4
ATOM      4  C   UNL     1      24.259   6.439  25.685  1.00  0.00     0.000 C 
BRANCH   4   5
ATOM      5  C   UNL     1      25.144   7.640  26.069  1.00  0.00     0.006 C 
BRANCH   5   6
ATOM      6  C   UNL     1      24.579   8.507  27.206  1.00  0.00     0.053 C 
BRANCH   6   7
ATOM      7  C   UNL     1      25.441   8.459  28.431  1.00  0.00     0.041 C 
ATOM      8  O   UNL     1      26.401   7.650  28.497  1.00  0.00    -0.550 OA
ATOM      9  O   UNL     1      25.201   9.333  29.483  1.00  0.00    -0.550 OA
ENDBRANCH   6   7
ENDBRANCH   5   6
ENDBRANCH   4   5
ENDBRANCH   3   4
ENDBRANCH   2   3
ENDBRANCH   1   2
BRANCH   1  10
ATOM     10  C   UNL     1      22.009   2.779  28.418  1.00  0.00     0.000 C 
BRANCH  10  11
ATOM     11  C   UNL     1      22.538   2.387  29.809  1.00  0.00    -0.000 C 
BRANCH  11  12
ATOM     12  C   UNL     1      21.944   3.253  30.932  1.00  0.00    -0.000 C 
BRANCH  12  13
ATOM     13  C   UNL     1      22.543   2.933  32.310  1.00  0.00    -0.000 C 
BRANCH  13  14
ATOM     14  C   UNL     1      22.993   4.217  33.023  1.00  0.00    -0.000 C 
BRANCH  14  15
ATOM     15  C   UNL     1      22.500   5.490  32.316  1.00  0.00    -0.003 C 
ATOM     16  C   UNL     1      21.538   6.310  33.176  1.00  0.00     0.004 C 
ENDBRANCH  14  15
ENDBRANCH  13  14
ENDBRANCH  12  13
ENDBRANCH  11  12
ENDBRANCH  10  11
ENDBRANCH   1  10
TORSDOF 12
ENDMDL
MODEL 4
REMARK VINA RESULT:    -3.034      1.938      4.670
REMARK INTER + INTRA:          -6.836
REMARK INTER:                  -5.361
REMARK INTRA:                  -1.475
REMARK UNBOUND:                -1.673
REMARK SMILES CCCCCCCCCCCCCC(=O)[O-]
REMARK SMILES IDX 8 1 9 2 10 3 11 4 12 5 13 6 14 7 15 8 16 9 7 10 6 11 5 12
REMARK SMILES IDX 4 13 3 14 2 15 1 16
REMARK H PARENT
REMARK Flexibility Score: inf
ROOT
ATOM      1  C   UNL     1      20.994   9.801  37.215  1.00  0.00     0.000 C 
ENDROOT
BRANCH   1   2
ATOM      2  C   UNL     1      22.406   9.569  37.784  1.00  0.00     0.000 C 
BRANCH   2   3
ATOM      3  C   UNL     1      22.384   8.916  39.176  1.00  0.00     0.000 C 
BRANCH   3   4
ATOM      4  C   UNL     1      21.018   8.293  39.513  1.00  0.00     0.000 C 
BRANCH   4   5
ATOM      5  C   UNL     1      21.089   6.764  39.686  1.00  0.00     0.006 C 
BRANCH   5   6
ATOM      6  C   UNL     1      22.078   6.062  38.742  1.00  0.00     0.053 C 
BRANCH   6   7
ATOM      7  C   UNL     1      22.458   4.700  39.236  1.00  0.00     0.041 C 
ATOM      8  O   UNL     1      22.643   4.502  40.465  1.00  0.00    -0.550 OA
ATOM      9  O   UNL     1      22.574   3.644  38.342  1.00  0.00    -0.550 OA
ENDBRANCH   6   7
ENDBRANCH   5   6
ENDBRANCH   4   5
ENDBRANCH   3   4
ENDBRANCH   2   3
ENDBRANCH   1   2
BRANCH   1  10
ATOM     10  C   UNL     1      20.929   9.591  35.693  1.00  0.00     0.000 C 
BRANCH  10  11
ATOM     11  C   UNL     1      19.798   8.633  35.278  1.00  0.00    -0.000 C 
BRANCH  11  12
ATOM     12  C   UNL     1      19.885   7.273  35.990  1.00  0.00    -0.000 C 
BRANCH  12  13
ATOM     13  C   UNL     1      20.895   6.321  35.332  1.00  0.00    -0.000 C 
BRANCH  13  14
ATOM     14  C   UNL     1      20.195   5.377  34.343  1.00  0.00    -0.000 C 
BRANCH  14  15
ATOM     15  C   UNL     1      20.612   5.631  32.887  1.00  0.00    -0.003 C 
ATOM     16  C   UNL     1      21.943   6.375  32.774  1.00  0.00     0.004 C 
ENDBRANCH  14  15
ENDBRANCH  13  14
ENDBRANCH  12  13
ENDBRANCH  11  12
ENDBRANCH  10  11
ENDBRANCH   1  10
TORSDOF 12
ENDMDL
MODEL 5
REMARK VINA RESULT:    -2.951      9.850     12.052
REMARK INTER + INTRA:          -6.694
REMARK INTER:                  -4.524
REMARK INTRA:                  -2.171
REMARK UNBOUND:                -1.673
REMARK SMILES CCCCCCCCCCCCCC(=O)[O-]
REMARK SMILES IDX 8 1 9 2 10 3 11 4 12 5 13 6 14 7 15 8 16 9 7 10 6 11 5 12
REMARK SMILES IDX 4 13 3 14 2 15 1 16
REMARK H PARENT
REMARK Flexibility Score: inf
ROOT
ATOM      1  C   UNL     1       9.513   3.550  32.473  1.00  0.00     0.000 C 
ENDROOT
BRANCH   1   2
ATOM      2  C   UNL     1       9.700   2.625  31.256  1.00  0.00     0.000 C 
BRANCH   2   3
ATOM      3  C   UNL     1      10.033   3.397  29.970  1.00  0.00     0.000 C 
BRANCH   3   4
ATOM      4  C   UNL     1      11.548   3.526  29.735  1.00  0.00     0.000 C 
BRANCH   4   5
ATOM      5  C   UNL     1      12.089   4.923  30.094  1.00  0.00     0.006 C 
BRANCH   5   6
ATOM      6  C   UNL     1      13.298   4.912  31.043  1.00  0.00     0.053 C 
BRANCH   6   7
ATOM      7  C   UNL     1      14.578   4.621  30.320  1.00  0.00     0.041 C 
ATOM      8  O   UNL     1      15.400   3.796  30.795  1.00  0.00    -0.550 OA
ATOM      9  O   UNL     1      14.844   5.238  29.104  1.00  0.00    -0.550 OA
ENDBRANCH   6   7
ENDBRANCH   5   6
ENDBRANCH   4   5
ENDBRANCH   3   4
ENDBRANCH   2   3
ENDBRANCH   1   2
BRANCH   1  10
ATOM     10  C   UNL     1      10.717   3.523  33.428  1.00  0.00     0.000 C 
BRANCH  10  11
ATOM     11  C   UNL     1      11.025   4.907  34.028  1.00  0.00    -0.000 C 
BRANCH  11  12
ATOM     12  C   UNL     1      10.021   5.981  33.581  1.00  0.00    -0.000 C 
BRANCH  12  13
ATOM     13  C   UNL     1      10.701   7.295  33.166  1.00  0.00    -0.000 C 
BRANCH  13  14
ATOM     14  C   UNL     1      10.355   7.655  31.714  1.00  0.00    -0.000 C 
BRANCH  14  15
ATOM     15  C   UNL     1       9.018   7.050  31.257  1.00  0.00    -0.003 C 
ATOM     16  C   UNL     1       8.917   6.920  29.737  1.00  0.00     0.004 C 
ENDBRANCH  14  15
ENDBRANCH  13  14
ENDBRANCH  12  13
ENDBRANCH  11  12
ENDBRANCH  10  11
ENDBRANCH   1  10
TORSDOF 12
ENDMDL
MODEL 6
REMARK VINA RESULT:    -2.940      9.482     12.090
REMARK INTER + INTRA:          -6.676
REMARK INTER:                  -4.439
REMARK INTRA:                  -2.237
REMARK UNBOUND:                -1.673
REMARK SMILES CCCCCCCCCCCCCC(=O)[O-]
REMARK SMILES IDX 8 1 9 2 10 3 11 4 12 5 13 6 14 7 15 8 16 9 7 10 6 11 5 12
REMARK SMILES IDX 4 13 3 14 2 15 1 16
REMARK H PARENT
REMARK Flexibility Score: inf
ROOT
ATOM      1  C   UNL     1      10.264   2.224  30.091  1.00  0.00     0.000 C 
ENDROOT
BRANCH   1   2
ATOM      2  C   UNL     1       9.580   3.525  29.633  1.00  0.00     0.000 C 
BRANCH   2   3
ATOM      3  C   UNL     1      10.587   4.605  29.203  1.00  0.00     0.000 C 
BRANCH   3   4
ATOM      4  C   UNL     1      12.044   4.197  29.484  1.00  0.00     0.000 C 
BRANCH   4   5
ATOM      5  C   UNL     1      12.755   5.160  30.453  1.00  0.00     0.006 C 
BRANCH   5   6
ATOM      6  C   UNL     1      13.387   4.477  31.677  1.00  0.00     0.053 C 
BRANCH   6   7
ATOM      7  C   UNL     1      14.872   4.339  31.538  1.00  0.00     0.041 C 
ATOM      8  O   UNL     1      15.539   3.748  32.427  1.00  0.00    -0.550 OA
ATOM      9  O   UNL     1      15.513   4.835  30.410  1.00  0.00    -0.550 OA
ENDBRANCH   6   7
ENDBRANCH   5   6
ENDBRANCH   4   5
ENDBRANCH   3   4
ENDBRANCH   2   3
ENDBRANCH   1   2
BRANCH   1  10
ATOM     10  C   UNL     1       9.895   1.837  31.532  1.00  0.00     0.000 C 
BRANCH  10  11
ATOM     11  C   UNL     1       9.327   3.022  32.333  1.00  0.00    -0.000 C 
BRANCH  11  12
ATOM     12  C   UNL     1      10.272   3.485  33.454  1.00  0.00    -0.000 C 
BRANCH  12  13
ATOM     13  C   UNL     1      10.279   5.011  33.633  1.00  0.00    -0.000 C 
BRANCH  13  14
ATOM     14  C   UNL     1       9.354   5.687  32.610  1.00  0.00    -0.000 C 
BRANCH  14  15
ATOM     15  C   UNL     1       9.960   6.970  32.022  1.00  0.00    -0.003 C 
ATOM     16  C   UNL     1      11.059   7.563  32.904  1.00  0.00     0.004 C 
ENDBRANCH  14  15
ENDBRANCH  13  14
ENDBRANCH  12  13
ENDBRANCH  11  12
ENDBRANCH  10  11
ENDBRANCH   1  10
TORSDOF 12
ENDMDL
MODEL 7
REMARK VINA RESULT:    -2.899     10.208     12.828
REMARK INTER + INTRA:          -6.605
REMARK INTER:                  -4.603
REMARK INTRA:                  -2.002
REMARK UNBOUND:                -1.673
REMARK SMILES CCCCCCCCCCCCCC(=O)[O-]
REMARK SMILES IDX 8 1 9 2 10 3 11 4 12 5 13 6 14 7 15 8 16 9 7 10 6 11 5 12
REMARK SMILES IDX 4 13 3 14 2 15 1 16
REMARK H PARENT
REMARK Flexibility Score: inf
ROOT
ATOM      1  C   UNL     1       9.911   2.146  31.530  1.00  0.00     0.000 C 
ENDROOT
BRANCH   1   2
ATOM      2  C   UNL     1       9.156   3.116  32.458  1.00  0.00     0.000 C 
BRANCH   2   3
ATOM      3  C   UNL     1      10.087   3.842  33.441  1.00  0.00     0.000 C 
BRANCH   3   4
ATOM      4  C   UNL     1      10.005   5.373  33.309  1.00  0.00     0.000 C 
BRANCH   4   5
ATOM      5  C   UNL     1       9.299   5.821  32.015  1.00  0.00     0.006 C 
BRANCH   5   6
ATOM      6  C   UNL     1       9.813   7.151  31.439  1.00  0.00     0.053 C 
BRANCH   6   7
ATOM      7  C   UNL     1       9.785   7.162  29.941  1.00  0.00     0.041 C 
ATOM      8  O   UNL     1       9.322   6.178  29.310  1.00  0.00    -0.550 OA
ATOM      9  O   UNL     1      10.241   8.275  29.247  1.00  0.00    -0.550 OA
ENDBRANCH   6   7
ENDBRANCH   5   6
ENDBRANCH   4   5
ENDBRANCH   3   4
ENDBRANCH   2   3
ENDBRANCH   1   2
BRANCH   1  10
ATOM     10  C   UNL     1       9.683   2.454  30.041  1.00  0.00     0.000 C 
BRANCH  10  11
ATOM     11  C   UNL     1      10.927   3.059  29.367  1.00  0.00    -0.000 C 
BRANCH  11  12
ATOM     12  C   UNL     1      12.116   3.192  30.332  1.00  0.00    -0.000 C 
BRANCH  12  13
ATOM     13  C   UNL     1      12.508   4.654  30.595  1.00  0.00    -0.000 C 
BRANCH  13  14
ATOM     14  C   UNL     1      13.843   4.736  31.351  1.00  0.00    -0.000 C 
BRANCH  14  15
ATOM     15  C   UNL     1      13.815   3.970  32.683  1.00  0.00    -0.003 C 
ATOM     16  C   UNL     1      13.645   4.891  33.891  1.00  0.00     0.004 C 
ENDBRANCH  14  15
ENDBRANCH  13  14
ENDBRANCH  12  13
ENDBRANCH  11  12
ENDBRANCH  10  11
ENDBRANCH   1  10
TORSDOF 12
ENDMDL
MODEL 8
REMARK VINA RESULT:    -2.896     10.400     12.091
REMARK INTER + INTRA:          -6.601
REMARK INTER:                  -4.821
REMARK INTRA:                  -1.780
REMARK UNBOUND:                -1.673
REMARK SMILES CCCCCCCCCCCCCC(=O)[O-]
REMARK SMILES IDX 8 1 9 2 10 3 11 4 12 5 13 6 14 7 15 8 16 9 7 10 6 11 5 12
REMARK SMILES IDX 4 13 3 14 2 15 1 16
REMARK H PARENT
REMARK Flexibility Score: inf
ROOT
ATOM      1  C   UNL     1       9.276   7.130  31.350  1.00  0.00     0.000 C 
ENDROOT
BRANCH   1   2
ATOM      2  C   UNL     1       9.671   7.183  29.863  1.00  0.00     0.000 C 
BRANCH   2   3
ATOM      3  C   UNL     1       9.213   5.940  29.083  1.00  0.00     0.000 C 
BRANCH   3   4
ATOM      4  C   UNL     1      10.031   4.686  29.439  1.00  0.00     0.000 C 
BRANCH   4   5
ATOM      5  C   UNL     1      11.524   4.831  29.088  1.00  0.00     0.006 C 
BRANCH   5   6
ATOM      6  C   UNL     1      12.474   4.711  30.291  1.00  0.00     0.053 C 
BRANCH   6   7
ATOM      7  C   UNL     1      13.905   4.915  29.899  1.00  0.00     0.041 C 
ATOM      8  O   UNL     1      14.190   5.402  28.774  1.00  0.00    -0.550 OA
ATOM      9  O   UNL     1      14.922   4.595  30.790  1.00  0.00    -0.550 OA
ENDBRANCH   6   7
ENDBRANCH   5   6
ENDBRANCH   4   5
ENDBRANCH   3   4
ENDBRANCH   2   3
ENDBRANCH   1   2
BRANCH   1  10
ATOM     10  C   UNL     1      10.372   7.689  32.273  1.00  0.00     0.000 C 
BRANCH  10  11
ATOM     11  C   UNL     1      11.149   6.579  33.004  1.00  0.00    -0.000 C 
BRANCH  11  12
ATOM     12  C   UNL     1      10.226   5.610  33.759  1.00  0.00    -0.000 C 
BRANCH  12  13
ATOM     13  C   UNL     1      10.371   4.157  33.282  1.00  0.00    -0.000 C 
BRANCH  13  14
ATOM     14  C   UNL     1       9.036   3.623  32.740  1.00  0.00    -0.000 C 
BRANCH  14  15
ATOM     15  C   UNL     1       9.069   2.109  32.476  1.00  0.00    -0.003 C 
ATOM     16  C   UNL     1      10.202   1.698  31.535  1.00  0.00     0.004 C 
ENDBRANCH  14  15
ENDBRANCH  13  14
ENDBRANCH  12  13
ENDBRANCH  11  12
ENDBRANCH  10  11
ENDBRANCH   1  10
TORSDOF 12
ENDMDL
MODEL 9
REMARK VINA RESULT:    -2.886      1.643      2.505
REMARK INTER + INTRA:          -6.584
REMARK INTER:                  -5.080
REMARK INTRA:                  -1.504
REMARK UNBOUND:                -1.673
REMARK SMILES CCCCCCCCCCCCCC(=O)[O-]
REMARK SMILES IDX 8 1 9 2 10 3 11 4 12 5 13 6 14 7 15 8 16 9 7 10 6 11 5 12
REMARK SMILES IDX 4 13 3 14 2 15 1 16
REMARK H PARENT
REMARK Flexibility Score: inf
ROOT
ATOM      1  C   UNL     1      19.342   8.303  35.627  1.00  0.00     0.000 C 
ENDROOT
BRANCH   1   2
ATOM      2  C   UNL     1      19.699   6.919  35.054  1.00  0.00     0.000 C 
BRANCH   2   3
ATOM      3  C   UNL     1      21.210   6.733  34.849  1.00  0.00     0.000 C 
BRANCH   3   4
ATOM      4  C   UNL     1      21.633   5.254  34.880  1.00  0.00     0.000 C 
BRANCH   4   5
ATOM      5  C   UNL     1      21.434   4.550  33.524  1.00  0.00     0.006 C 
BRANCH   5   6
ATOM      6  C   UNL     1      22.714   3.937  32.934  1.00  0.00     0.053 C 
BRANCH   6   7
ATOM      7  C   UNL     1      22.415   2.804  32.000  1.00  0.00     0.041 C 
ATOM      8  O   UNL     1      22.379   3.001  30.757  1.00  0.00    -0.550 OA
ATOM      9  O   UNL     1      22.209   1.526  32.502  1.00  0.00    -0.550 OA
ENDBRANCH   6   7
ENDBRANCH   5   6
ENDBRANCH   4   5
ENDBRANCH   3   4
ENDBRANCH   2   3
ENDBRANCH   1   2
BRANCH   1  10
ATOM     10  C   UNL     1      20.468   9.332  35.432  1.00  0.00     0.000 C 
BRANCH  10  11
ATOM     11  C   UNL     1      20.873  10.019  36.748  1.00  0.00    -0.000 C 
BRANCH  11  12
ATOM     12  C   UNL     1      19.891   9.725  37.894  1.00  0.00    -0.000 C 
BRANCH  12  13
ATOM     13  C   UNL     1      20.545   8.958  39.054  1.00  0.00    -0.000 C 
BRANCH  13  14
ATOM     14  C   UNL     1      21.906   8.383  38.632  1.00  0.00    -0.000 C 
BRANCH  14  15
ATOM     15  C   UNL     1      21.886   6.852  38.501  1.00  0.00    -0.003 C 
ATOM     16  C   UNL     1      20.493   6.259  38.710  1.00  0.00     0.004 C 
ENDBRANCH  14  15
ENDBRANCH  13  14
ENDBRANCH  12  13
ENDBRANCH  11  12
ENDBRANCH  10  11
ENDBRANCH   1  10
TORSDOF 12
ENDMDL
