MODEL 1
REMARK VINA RESULT:    -4.007      0.000      0.000
REMARK INTER + INTRA:          -6.265
REMARK INTER:                  -5.881
REMARK INTRA:                  -0.384
REMARK UNBOUND:                -0.384
REMARK SMILES O=C([O-])CCCCCCCC(=O)[O-]
REMARK SMILES IDX 7 1 6 2 5 3 4 4 2 5 1 6 3 7 8 8 9 9 10 10 11 11 12 12 13 13
REMARK H PARENT
REMARK Flexibility Score: inf
ROOT
ATOM      1  C   UNL     1      -6.915  -8.430   0.732  1.00  0.00     0.000 C 
ENDROOT
BRANCH   1   2
ATOM      2  C   UNL     1      -7.920  -8.570  -0.420  1.00  0.00     0.000 C 
BRANCH   2   3
ATOM      3  C   UNL     1      -9.380  -8.561   0.063  1.00  0.00     0.006 C 
BRANCH   3   4
ATOM      4  C   UNL     1      -9.599  -7.628   1.262  1.00  0.00     0.053 C 
BRANCH   4   5
ATOM      5  C   UNL     1     -10.449  -6.462   0.865  1.00  0.00     0.041 C 
ATOM      6  O   UNL     1     -10.278  -5.340   1.409  1.00  0.00    -0.550 OA
ATOM      7  O   UNL     1     -11.397  -6.603  -0.140  1.00  0.00    -0.550 OA
ENDBRANCH   4   5
ENDBRANCH   3   4
ENDBRANCH   2   3
ENDBRANCH   1   2
BRANCH   1   8
ATOM      8  C   UNL     1      -6.015  -9.668   0.829  1.00  0.00     0.000 C 
BRANCH   8   9
ATOM      9  C   UNL     1      -6.422 -10.728  -0.205  1.00  0.00     0.006 C 
BRANCH   9  10
ATOM     10  C   UNL     1      -5.431 -11.898  -0.258  1.00  0.00     0.053 C 
BRANCH  10  11
ATOM     11  C   UNL     1      -5.855 -13.028   0.628  1.00  0.00     0.041 C 
ATOM     12  O   UNL     1      -6.401 -14.050   0.134  1.00  0.00    -0.550 OA
ATOM     13  O   UNL     1      -5.617 -12.969   1.996  1.00  0.00    -0.550 OA
ENDBRANCH  10  11
ENDBRANCH   9  10
ENDBRANCH   8   9
ENDBRANCH   1   8
TORSDOF 8
ENDMDL
MODEL 2
REMARK VINA RESULT:    -3.987      0.978      6.721
REMARK INTER + INTRA:          -6.235
REMARK INTER:                  -5.933
REMARK INTRA:                  -0.302
REMARK UNBOUND:                -0.384
REMARK SMILES O=C([O-])CCCCCCCC(=O)[O-]
REMARK SMILES IDX 7 1 6 2 5 3 4 4 2 5 1 6 3 7 8 8 9 9 10 10 11 11 12 12 13 13
REMARK H PARENT
REMARK Flexibility Score: inf
ROOT
ATOM      1  C   UNL     1      -7.790  -9.344  -0.033  1.00  0.00     0.000 C 
ENDROOT
BRANCH   1   2
ATOM      2  C   UNL     1      -6.693 -10.256  -0.598  1.00  0.00     0.000 C 
BRANCH   2   3
ATOM      3  C   UNL     1      -5.663 -10.673   0.464  1.00  0.00     0.006 C 
BRANCH   3   4
ATOM      4  C   UNL     1      -5.175 -12.116   0.280  1.00  0.00     0.053 C 
BRANCH   4   5
ATOM      5  C   UNL     1      -6.165 -13.078   0.858  1.00  0.00     0.041 C 
ATOM      6  O   UNL     1      -6.402 -14.169   0.277  1.00  0.00    -0.550 OA
ATOM      7  O   UNL     1      -6.788 -12.791   2.066  1.00  0.00    -0.550 OA
ENDBRANCH   4   5
ENDBRANCH   3   4
ENDBRANCH   2   3
ENDBRANCH   1   2
BRANCH   1   8
ATOM      8  C   UNL     1      -7.397  -7.867  -0.161  1.00  0.00     0.000 C 
BRANCH   8   9
ATOM      9  C   UNL     1      -8.436  -6.960   0.514  1.00  0.00     0.006 C 
BRANCH   9  10
ATOM     10  C   UNL     1      -9.858  -7.525   0.406  1.00  0.00     0.053 C 
BRANCH  10  11
ATOM     11  C   UNL     1     -10.890  -6.522   0.820  1.00  0.00     0.041 C 
ATOM     12  O   UNL     1     -11.337  -5.692  -0.014  1.00  0.00    -0.550 OA
ATOM     13  O   UNL     1     -11.383  -6.526   2.120  1.00  0.00    -0.550 OA
ENDBRANCH  10  11
ENDBRANCH   9  10
ENDBRANCH   8   9
ENDBRANCH   1   8
TORSDOF 8
ENDMDL
MODEL 3
REMARK VINA RESULT:    -3.913      1.201      6.760
REMARK INTER + INTRA:          -6.126
REMARK INTER:                  -5.817
REMARK INTRA:                  -0.309
REMARK UNBOUND:                -0.384
REMARK SMILES O=C([O-])CCCCCCCC(=O)[O-]
REMARK SMILES IDX 7 1 6 2 5 3 4 4 2 5 1 6 3 7 8 8 9 9 10 10 11 11 12 12 13 13
REMARK H PARENT
REMARK Flexibility Score: inf
ROOT
ATOM      1  C   UNL     1      -7.689  -8.000  -0.271  1.00  0.00     0.000 C 
ENDROOT
BRANCH   1   2
ATOM      2  C   UNL     1      -6.686  -9.044   0.240  1.00  0.00     0.000 C 
BRANCH   2   3
ATOM      3  C   UNL     1      -6.978 -10.456  -0.293  1.00  0.00     0.006 C 
BRANCH   3   4
ATOM      4  C   UNL     1      -5.777 -11.401  -0.149  1.00  0.00     0.053 C 
BRANCH   4   5
ATOM      5  C   UNL     1      -6.151 -12.599   0.667  1.00  0.00     0.041 C 
ATOM      6  O   UNL     1      -6.674 -12.453   1.802  1.00  0.00    -0.550 OA
ATOM      7  O   UNL     1      -5.966 -13.875   0.152  1.00  0.00    -0.550 OA
ENDBRANCH   4   5
ENDBRANCH   3   4
ENDBRANCH   2   3
ENDBRANCH   1   2
BRANCH   1   8
ATOM      8  C   UNL     1      -9.130  -8.426   0.038  1.00  0.00     0.000 C 
BRANCH   8   9
ATOM      9  C   UNL     1      -9.983  -7.219   0.456  1.00  0.00     0.006 C 
BRANCH   9  10
ATOM     10  C   UNL     1      -9.354  -6.440   1.620  1.00  0.00     0.053 C 
BRANCH  10  11
ATOM     11  C   UNL     1     -10.393  -5.884   2.544  1.00  0.00     0.041 C 
ATOM     12  O   UNL     1     -10.238  -4.748   3.062  1.00  0.00    -0.550 OA
ATOM     13  O   UNL     1     -11.551  -6.608   2.807  1.00  0.00    -0.550 OA
ENDBRANCH  10  11
ENDBRANCH   9  10
ENDBRANCH   8   9
ENDBRANCH   1   8
TORSDOF 8
ENDMDL
MODEL 4
REMARK VINA RESULT:    -3.792      1.572      2.375
REMARK INTER + INTRA:          -5.949
REMARK INTER:                  -5.368
REMARK INTRA:                  -0.581
REMARK UNBOUND:                -0.384
REMARK SMILES O=C([O-])CCCCCCCC(=O)[O-]
REMARK SMILES IDX 7 1 6 2 5 3 4 4 2 5 1 6 3 7 8 8 9 9 10 10 11 11 12 12 13 13
REMARK H PARENT
REMARK Flexibility Score: inf
ROOT
ATOM      1  C   UNL     1      -7.374  -6.689   0.904  1.00  0.00     0.000 C 
ENDROOT
BRANCH   1   2
ATOM      2  C   UNL     1      -8.051  -7.526   1.998  1.00  0.00     0.000 C 
BRANCH   2   3
ATOM      3  C   UNL     1      -9.500  -7.091   2.266  1.00  0.00     0.006 C 
BRANCH   3   4
ATOM      4  C   UNL     1      -9.888  -5.823   1.492  1.00  0.00     0.053 C 
BRANCH   4   5
ATOM      5  C   UNL     1     -10.818  -6.162   0.369  1.00  0.00     0.041 C 
ATOM      6  O   UNL     1     -10.845  -7.330  -0.100  1.00  0.00    -0.550 OA
ATOM      7  O   UNL     1     -11.690  -5.201  -0.125  1.00  0.00    -0.550 OA
ENDBRANCH   4   5
ENDBRANCH   3   4
ENDBRANCH   2   3
ENDBRANCH   1   2
BRANCH   1   8
ATOM      8  C   UNL     1      -6.924  -7.574  -0.266  1.00  0.00     0.000 C 
BRANCH   8   9
ATOM      9  C   UNL     1      -7.636  -8.934  -0.232  1.00  0.00     0.006 C 
BRANCH   9  10
ATOM     10  C   UNL     1      -6.671 -10.100  -0.486  1.00  0.00     0.053 C 
BRANCH  10  11
ATOM     11  C   UNL     1      -6.107 -10.645   0.790  1.00  0.00     0.041 C 
ATOM     12  O   UNL     1      -5.160 -10.051   1.368  1.00  0.00    -0.550 OA
ATOM     13  O   UNL     1      -6.651 -11.791   1.358  1.00  0.00    -0.550 OA
ENDBRANCH  10  11
ENDBRANCH   9  10
ENDBRANCH   8   9
ENDBRANCH   1   8
TORSDOF 8
ENDMDL
MODEL 5
REMARK VINA RESULT:    -3.724     18.787     20.182
REMARK INTER + INTRA:          -5.849
REMARK INTER:                  -5.282
REMARK INTRA:                  -0.567
REMARK UNBOUND:                -0.384
REMARK SMILES O=C([O-])CCCCCCCC(=O)[O-]
REMARK SMILES IDX 7 1 6 2 5 3 4 4 2 5 1 6 3 7 8 8 9 9 10 10 11 11 12 12 13 13
REMARK H PARENT
REMARK Flexibility Score: inf
ROOT
ATOM      1  C   UNL     1     -19.496  -4.261 -14.216  1.00  0.00     0.000 C 
ENDROOT
BRANCH   1   2
ATOM      2  C   UNL     1     -19.838  -5.372 -15.217  1.00  0.00     0.000 C 
BRANCH   2   3
ATOM      3  C   UNL     1     -19.473  -6.772 -14.697  1.00  0.00     0.006 C 
BRANCH   3   4
ATOM      4  C   UNL     1     -20.677  -7.723 -14.668  1.00  0.00     0.053 C 
BRANCH   4   5
ATOM      5  C   UNL     1     -20.629  -8.589 -13.448  1.00  0.00     0.041 C 
ATOM      6  O   UNL     1     -20.396  -9.821 -13.555  1.00  0.00    -0.550 OA
ATOM      7  O   UNL     1     -20.791  -8.025 -12.189  1.00  0.00    -0.550 OA
ENDBRANCH   4   5
ENDBRANCH   3   4
ENDBRANCH   2   3
ENDBRANCH   1   2
BRANCH   1   8
ATOM      8  C   UNL     1     -20.111  -4.552 -12.841  1.00  0.00     0.000 C 
BRANCH   8   9
ATOM      9  C   UNL     1     -21.635  -4.362 -12.868  1.00  0.00     0.006 C 
BRANCH   9  10
ATOM     10  C   UNL     1     -22.109  -3.331 -11.835  1.00  0.00     0.053 C 
BRANCH  10  11
ATOM     11  C   UNL     1     -21.367  -2.036 -11.957  1.00  0.00     0.041 C 
ATOM     12  O   UNL     1     -21.454  -1.354 -13.011  1.00  0.00    -0.550 OA
ATOM     13  O   UNL     1     -20.605  -1.567 -10.893  1.00  0.00    -0.550 OA
ENDBRANCH  10  11
ENDBRANCH   9  10
ENDBRANCH   8   9
ENDBRANCH   1   8
TORSDOF 8
ENDMDL
MODEL 6
REMARK VINA RESULT:    -3.670     18.714     20.971
REMARK INTER + INTRA:          -5.770
REMARK INTER:                  -4.955
REMARK INTRA:                  -0.814
REMARK UNBOUND:                -0.384
REMARK SMILES O=C([O-])CCCCCCCC(=O)[O-]
REMARK SMILES IDX 7 1 6 2 5 3 4 4 2 5 1 6 3 7 8 8 9 9 10 10 11 11 12 12 13 13
REMARK H PARENT
REMARK Flexibility Score: inf
ROOT
ATOM      1  C   UNL     1     -20.979  -3.974 -12.695  1.00  0.00     0.000 C 
ENDROOT
BRANCH   1   2
ATOM      2  C   UNL     1     -19.956  -5.078 -12.997  1.00  0.00     0.000 C 
BRANCH   2   3
ATOM      3  C   UNL     1     -20.535  -6.489 -12.810  1.00  0.00     0.006 C 
BRANCH   3   4
ATOM      4  C   UNL     1     -20.010  -7.485 -13.853  1.00  0.00     0.053 C 
BRANCH   4   5
ATOM      5  C   UNL     1     -20.527  -8.860 -13.567  1.00  0.00     0.041 C 
ATOM      6  O   UNL     1     -21.200  -9.477 -14.434  1.00  0.00    -0.550 OA
ATOM      7  O   UNL     1     -20.224  -9.480 -12.362  1.00  0.00    -0.550 OA
ENDBRANCH   4   5
ENDBRANCH   3   4
ENDBRANCH   2   3
ENDBRANCH   1   2
BRANCH   1   8
ATOM      8  C   UNL     1     -22.413  -4.513 -12.788  1.00  0.00     0.000 C 
BRANCH   8   9
ATOM      9  C   UNL     1     -23.195  -3.807 -13.905  1.00  0.00     0.006 C 
BRANCH   9  10
ATOM     10  C   UNL     1     -23.830  -4.802 -14.886  1.00  0.00     0.053 C 
BRANCH  10  11
ATOM     11  C   UNL     1     -22.797  -5.616 -15.601  1.00  0.00     0.041 C 
ATOM     12  O   UNL     1     -22.940  -6.862 -15.715  1.00  0.00    -0.550 OA
ATOM     13  O   UNL     1     -21.692  -4.995 -16.171  1.00  0.00    -0.550 OA
ENDBRANCH  10  11
ENDBRANCH   9  10
ENDBRANCH   8   9
ENDBRANCH   1   8
TORSDOF 8
ENDMDL
MODEL 7
REMARK VINA RESULT:    -3.612     18.942     19.894
REMARK INTER + INTRA:          -5.685
REMARK INTER:                  -5.063
REMARK INTRA:                  -0.622
REMARK UNBOUND:                -0.384
REMARK SMILES O=C([O-])CCCCCCCC(=O)[O-]
REMARK SMILES IDX 7 1 6 2 5 3 4 4 2 5 1 6 3 7 8 8 9 9 10 10 11 11 12 12 13 13
REMARK H PARENT
REMARK Flexibility Score: inf
ROOT
ATOM      1  C   UNL     1     -19.857  -4.601 -13.451  1.00  0.00     0.000 C 
ENDROOT
BRANCH   1   2
ATOM      2  C   UNL     1     -20.784  -3.379 -13.405  1.00  0.00     0.000 C 
BRANCH   2   3
ATOM      3  C   UNL     1     -22.247  -3.733 -13.719  1.00  0.00     0.006 C 
BRANCH   3   4
ATOM      4  C   UNL     1     -22.894  -4.592 -12.625  1.00  0.00     0.053 C 
BRANCH   4   5
ATOM      5  C   UNL     1     -23.923  -3.801 -11.881  1.00  0.00     0.041 C 
ATOM      6  O   UNL     1     -24.419  -4.251 -10.815  1.00  0.00    -0.550 OA
ATOM      7  O   UNL     1     -24.297  -2.544 -12.338  1.00  0.00    -0.550 OA
ENDBRANCH   4   5
ENDBRANCH   3   4
ENDBRANCH   2   3
ENDBRANCH   1   2
BRANCH   1   8
ATOM      8  C   UNL     1     -19.736  -5.146 -14.880  1.00  0.00     0.000 C 
BRANCH   8   9
ATOM      9  C   UNL     1     -19.502  -6.663 -14.873  1.00  0.00     0.006 C 
BRANCH   9  10
ATOM     10  C   UNL     1     -20.774  -7.445 -14.519  1.00  0.00     0.053 C 
BRANCH  10  11
ATOM     11  C   UNL     1     -20.595  -8.273 -13.284  1.00  0.00     0.041 C 
ATOM     12  O   UNL     1     -20.788  -7.766 -12.148  1.00  0.00    -0.550 OA
ATOM     13  O   UNL     1     -20.247  -9.615 -13.389  1.00  0.00    -0.550 OA
ENDBRANCH  10  11
ENDBRANCH   9  10
ENDBRANCH   8   9
ENDBRANCH   1   8
TORSDOF 8
ENDMDL
MODEL 8
REMARK VINA RESULT:    -3.611     18.926     20.832
REMARK INTER + INTRA:          -5.683
REMARK INTER:                  -4.775
REMARK INTRA:                  -0.908
REMARK UNBOUND:                -0.384
REMARK SMILES O=C([O-])CCCCCCCC(=O)[O-]
REMARK SMILES IDX 7 1 6 2 5 3 4 4 2 5 1 6 3 7 8 8 9 9 10 10 11 11 12 12 13 13
REMARK H PARENT
REMARK Flexibility Score: inf
ROOT
ATOM      1  C   UNL     1     -22.510  -4.783 -12.787  1.00  0.00     0.000 C 
ENDROOT
BRANCH   1   2
ATOM      2  C   UNL     1     -23.561  -4.265 -13.779  1.00  0.00     0.000 C 
BRANCH   2   3
ATOM      3  C   UNL     1     -23.201  -4.578 -15.240  1.00  0.00     0.006 C 
BRANCH   3   4
ATOM      4  C   UNL     1     -23.651  -5.981 -15.671  1.00  0.00     0.053 C 
BRANCH   4   5
ATOM      5  C   UNL     1     -22.477  -6.785 -16.133  1.00  0.00     0.041 C 
ATOM      6  O   UNL     1     -22.562  -8.038 -16.217  1.00  0.00    -0.550 OA
ATOM      7  O   UNL     1     -21.305  -6.147 -16.518  1.00  0.00    -0.550 OA
ENDBRANCH   4   5
ENDBRANCH   3   4
ENDBRANCH   2   3
ENDBRANCH   1   2
BRANCH   1   8
ATOM      8  C   UNL     1     -21.090  -4.542 -13.315  1.00  0.00     0.000 C 
BRANCH   8   9
ATOM      9  C   UNL     1     -20.128  -5.634 -12.826  1.00  0.00     0.006 C 
BRANCH   9  10
ATOM     10  C   UNL     1     -20.804  -7.009 -12.744  1.00  0.00     0.053 C 
BRANCH  10  11
ATOM     11  C   UNL     1     -20.116  -8.020 -13.609  1.00  0.00     0.041 C 
ATOM     12  O   UNL     1     -19.243  -7.655 -14.439  1.00  0.00    -0.550 OA
ATOM     13  O   UNL     1     -20.416  -9.371 -13.474  1.00  0.00    -0.550 OA
ENDBRANCH  10  11
ENDBRANCH   9  10
ENDBRANCH   8   9
ENDBRANCH   1   8
TORSDOF 8
ENDMDL
MODEL 9
REMARK VINA RESULT:    -3.603     18.739     20.428
REMARK INTER + INTRA:          -5.671
REMARK INTER:                  -5.239
REMARK INTRA:                  -0.432
REMARK UNBOUND:                -0.384
REMARK SMILES O=C([O-])CCCCCCCC(=O)[O-]
REMARK SMILES IDX 7 1 6 2 5 3 4 4 2 5 1 6 3 7 8 8 9 9 10 10 11 11 12 12 13 13
REMARK H PARENT
REMARK Flexibility Score: inf
ROOT
ATOM      1  C   UNL     1     -19.540  -4.474 -14.360  1.00  0.00     0.000 C 
ENDROOT
BRANCH   1   2
ATOM      2  C   UNL     1     -19.806  -5.942 -14.719  1.00  0.00     0.000 C 
BRANCH   2   3
ATOM      3  C   UNL     1     -21.001  -6.532 -13.953  1.00  0.00     0.006 C 
BRANCH   3   4
ATOM      4  C   UNL     1     -20.576  -7.565 -12.900  1.00  0.00     0.053 C 
BRANCH   4   5
ATOM      5  C   UNL     1     -20.167  -8.844 -13.561  1.00  0.00     0.041 C 
ATOM      6  O   UNL     1     -21.038  -9.619 -14.034  1.00  0.00    -0.550 OA
ATOM      7  O   UNL     1     -18.820  -9.155 -13.698  1.00  0.00    -0.550 OA
ENDBRANCH   4   5
ENDBRANCH   3   4
ENDBRANCH   2   3
ENDBRANCH   1   2
BRANCH   1   8
ATOM      8  C   UNL     1     -20.115  -4.133 -12.979  1.00  0.00     0.000 C 
BRANCH   8   9
ATOM      9  C   UNL     1     -21.124  -2.979 -13.073  1.00  0.00     0.006 C 
BRANCH   9  10
ATOM     10  C   UNL     1     -22.120  -2.983 -11.905  1.00  0.00     0.053 C 
BRANCH  10  11
ATOM     11  C   UNL     1     -23.308  -3.849 -12.188  1.00  0.00     0.041 C 
ATOM     12  O   UNL     1     -24.045  -4.240 -11.246  1.00  0.00    -0.550 OA
ATOM     13  O   UNL     1     -23.621  -4.196 -13.497  1.00  0.00    -0.550 OA
ENDBRANCH  10  11
ENDBRANCH   9  10
ENDBRANCH   8   9
ENDBRANCH   1   8
TORSDOF 8
ENDMDL
