MODEL 1
REMARK VINA RESULT:    -4.465      0.000      0.000
REMARK INTER + INTRA:          -4.465
REMARK INTER:                  -4.465
REMARK INTRA:                   0.000
REMARK UNBOUND:                 0.000
REMARK SMILES CC1=CC(=O)[C@@H]2C[C@H]1C2(C)C
REMARK SMILES IDX 1 1 2 2 3 3 4 4 5 5 6 6 7 7 8 8 9 9 10 10 11 11
REMARK H PARENT
REMARK Flexibility Score: inf
ROOT
ATOM      1  C   UNL     1     103.448 115.801 126.712  1.00  0.00     0.040 C 
ATOM      2  C   UNL     1     102.966 115.298 125.388  1.00  0.00    -0.066 C 
ATOM      3  C   UNL     1     102.156 114.207 125.296  1.00  0.00     0.047 C 
ATOM      4  C   UNL     1     101.716 113.822 123.917  1.00  0.00     0.159 C 
ATOM      5  O   UNL     1     100.936 112.856 123.706  1.00  0.00    -0.295 OA
ATOM      6  C   UNL     1     102.278 114.683 122.787  1.00  0.00     0.067 C 
ATOM      7  C   UNL     1     103.779 114.819 123.125  1.00  0.00     0.021 C 
ATOM      8  C   UNL     1     103.374 115.977 124.064  1.00  0.00     0.022 C 
ATOM      9  C   UNL     1     102.112 116.180 123.175  1.00  0.00    -0.019 C 
ATOM     10  C   UNL     1     100.791 116.622 123.865  1.00  0.00     0.012 C 
ATOM     11  C   UNL     1     102.378 117.132 121.982  1.00  0.00     0.012 C 
ENDROOT
TORSDOF 0
ENDMDL
MODEL 2
REMARK VINA RESULT:    -4.439      2.631      4.419
REMARK INTER + INTRA:          -4.439
REMARK INTER:                  -4.439
REMARK INTRA:                   0.000
REMARK UNBOUND:                 0.000
REMARK SMILES CC1=CC(=O)[C@@H]2C[C@H]1C2(C)C
REMARK SMILES IDX 1 1 2 2 3 3 4 4 5 5 6 6 7 7 8 8 9 9 10 10 11 11
REMARK H PARENT
REMARK Flexibility Score: inf
ROOT
ATOM      1  C   UNL     1      99.270 116.563 119.673  1.00  0.00     0.040 C 
ATOM      2  C   UNL     1     100.153 116.676 120.876  1.00  0.00    -0.066 C 
ATOM      3  C   UNL     1     101.195 115.822 121.073  1.00  0.00     0.047 C 
ATOM      4  C   UNL     1     102.024 116.058 122.299  1.00  0.00     0.159 C 
ATOM      5  O   UNL     1     103.036 115.361 122.571  1.00  0.00    -0.295 OA
ATOM      6  C   UNL     1     101.554 117.204 123.194  1.00  0.00     0.067 C 
ATOM      7  C   UNL     1     100.027 116.998 123.304  1.00  0.00     0.021 C 
ATOM      8  C   UNL     1      99.917 117.750 121.958  1.00  0.00     0.022 C 
ATOM      9  C   UNL     1     101.267 118.445 122.301  1.00  0.00    -0.019 C 
ATOM     10  C   UNL     1     102.248 118.760 121.137  1.00  0.00     0.012 C 
ATOM     11  C   UNL     1     101.071 119.737 123.133  1.00  0.00     0.012 C 
ENDROOT
TORSDOF 0
ENDMDL
MODEL 3
REMARK VINA RESULT:    -4.408      1.804      3.500
REMARK INTER + INTRA:          -4.408
REMARK INTER:                  -4.408
REMARK INTRA:                   0.000
REMARK UNBOUND:                 0.000
REMARK SMILES CC1=CC(=O)[C@@H]2C[C@H]1C2(C)C
REMARK SMILES IDX 1 1 2 2 3 3 4 4 5 5 6 6 7 7 8 8 9 9 10 10 11 11
REMARK H PARENT
REMARK Flexibility Score: inf
ROOT
ATOM      1  C   UNL     1     100.024 116.990 123.317  1.00  0.00     0.040 C 
ATOM      2  C   UNL     1     101.298 116.206 123.301  1.00  0.00    -0.066 C 
ATOM      3  C   UNL     1     102.435 116.711 122.746  1.00  0.00     0.047 C 
ATOM      4  C   UNL     1     103.653 115.842 122.821  1.00  0.00     0.159 C 
ATOM      5  O   UNL     1     104.771 116.213 122.380  1.00  0.00    -0.295 OA
ATOM      6  C   UNL     1     103.442 114.475 123.473  1.00  0.00     0.067 C 
ATOM      7  C   UNL     1     102.137 113.949 122.835  1.00  0.00     0.021 C 
ATOM      8  C   UNL     1     101.385 114.784 123.895  1.00  0.00     0.022 C 
ATOM      9  C   UNL     1     102.649 114.675 124.796  1.00  0.00    -0.019 C 
ATOM     10  C   UNL     1     103.014 115.885 125.701  1.00  0.00     0.012 C 
ATOM     11  C   UNL     1     102.638 113.399 125.675  1.00  0.00     0.012 C 
ENDROOT
TORSDOF 0
ENDMDL
MODEL 4
REMARK VINA RESULT:    -4.383      1.563      2.796
REMARK INTER + INTRA:          -4.383
REMARK INTER:                  -4.383
REMARK INTRA:                   0.000
REMARK UNBOUND:                 0.000
REMARK SMILES CC1=CC(=O)[C@@H]2C[C@H]1C2(C)C
REMARK SMILES IDX 1 1 2 2 3 3 4 4 5 5 6 6 7 7 8 8 9 9 10 10 11 11
REMARK H PARENT
REMARK Flexibility Score: inf
ROOT
ATOM      1  C   UNL     1     103.199 115.532 126.499  1.00  0.00     0.040 C 
ATOM      2  C   UNL     1     102.607 115.119 125.188  1.00  0.00    -0.066 C 
ATOM      3  C   UNL     1     101.903 115.996 124.420  1.00  0.00     0.047 C 
ATOM      4  C   UNL     1     101.388 115.470 123.114  1.00  0.00     0.159 C 
ATOM      5  O   UNL     1     100.758 116.194 122.301  1.00  0.00    -0.295 OA
ATOM      6  C   UNL     1     101.684 113.996 122.842  1.00  0.00     0.067 C 
ATOM      7  C   UNL     1     101.333 113.288 124.169  1.00  0.00     0.021 C 
ATOM      8  C   UNL     1     102.749 113.679 124.650  1.00  0.00     0.022 C 
ATOM      9  C   UNL     1     103.183 113.724 123.156  1.00  0.00    -0.019 C 
ATOM     10  C   UNL     1     104.232 114.788 122.728  1.00  0.00     0.012 C 
ATOM     11  C   UNL     1     103.653 112.343 122.637  1.00  0.00     0.012 C 
ENDROOT
TORSDOF 0
ENDMDL
MODEL 5
REMARK VINA RESULT:    -4.364      1.664      2.988
REMARK INTER + INTRA:          -4.364
REMARK INTER:                  -4.364
REMARK INTRA:                   0.000
REMARK UNBOUND:                 0.000
REMARK SMILES CC1=CC(=O)[C@@H]2C[C@H]1C2(C)C
REMARK SMILES IDX 1 1 2 2 3 3 4 4 5 5 6 6 7 7 8 8 9 9 10 10 11 11
REMARK H PARENT
REMARK Flexibility Score: inf
ROOT
ATOM      1  C   UNL     1     101.455 112.679 123.121  1.00  0.00     0.040 C 
ATOM      2  C   UNL     1     101.716 114.064 123.625  1.00  0.00    -0.066 C 
ATOM      3  C   UNL     1     102.293 114.279 124.840  1.00  0.00     0.047 C 
ATOM      4  C   UNL     1     102.532 115.710 125.216  1.00  0.00     0.159 C 
ATOM      5  O   UNL     1     103.092 116.036 126.295  1.00  0.00    -0.295 OA
ATOM      6  C   UNL     1     102.049 116.743 124.199  1.00  0.00     0.067 C 
ATOM      7  C   UNL     1     100.636 116.257 123.808  1.00  0.00     0.021 C 
ATOM      8  C   UNL     1     101.333 115.313 122.803  1.00  0.00     0.022 C 
ATOM      9  C   UNL     1     102.529 116.308 122.785  1.00  0.00    -0.019 C 
ATOM     10  C   UNL     1     103.965 115.730 122.638  1.00  0.00     0.012 C 
ATOM     11  C   UNL     1     102.348 117.429 121.730  1.00  0.00     0.012 C 
ENDROOT
TORSDOF 0
ENDMDL
MODEL 6
REMARK VINA RESULT:    -4.318      1.923      2.976
REMARK INTER + INTRA:          -4.318
REMARK INTER:                  -4.318
REMARK INTRA:                   0.000
REMARK UNBOUND:                 0.000
REMARK SMILES CC1=CC(=O)[C@@H]2C[C@H]1C2(C)C
REMARK SMILES IDX 1 1 2 2 3 3 4 4 5 5 6 6 7 7 8 8 9 9 10 10 11 11
REMARK H PARENT
REMARK Flexibility Score: inf
ROOT
ATOM      1  C   UNL     1     101.141 112.861 123.749  1.00  0.00     0.040 C 
ATOM      2  C   UNL     1     101.666 114.216 123.392  1.00  0.00    -0.066 C 
ATOM      3  C   UNL     1     101.923 114.559 122.099  1.00  0.00     0.047 C 
ATOM      4  C   UNL     1     102.415 115.955 121.867  1.00  0.00     0.159 C 
ATOM      5  O   UNL     1     102.651 116.402 120.715  1.00  0.00    -0.295 OA
ATOM      6  C   UNL     1     102.609 116.797 123.129  1.00  0.00     0.067 C 
ATOM      7  C   UNL     1     103.347 115.853 124.104  1.00  0.00     0.021 C 
ATOM      8  C   UNL     1     101.957 115.284 124.467  1.00  0.00     0.022 C 
ATOM      9  C   UNL     1     101.347 116.646 124.024  1.00  0.00    -0.019 C 
ATOM     10  C   UNL     1      99.951 116.637 123.339  1.00  0.00     0.012 C 
ATOM     11  C   UNL     1     101.314 117.681 125.177  1.00  0.00     0.012 C 
ENDROOT
TORSDOF 0
ENDMDL
MODEL 7
REMARK VINA RESULT:    -4.316      3.614      5.435
REMARK INTER + INTRA:          -4.316
REMARK INTER:                  -4.316
REMARK INTRA:                   0.000
REMARK UNBOUND:                 0.000
REMARK SMILES CC1=CC(=O)[C@@H]2C[C@H]1C2(C)C
REMARK SMILES IDX 1 1 2 2 3 3 4 4 5 5 6 6 7 7 8 8 9 9 10 10 11 11
REMARK H PARENT
REMARK Flexibility Score: inf
ROOT
ATOM      1  C   UNL     1      98.798 117.370 119.001  1.00  0.00     0.040 C 
ATOM      2  C   UNL     1      99.956 117.504 119.939  1.00  0.00    -0.066 C 
ATOM      3  C   UNL     1     101.026 118.291 119.638  1.00  0.00     0.047 C 
ATOM      4  C   UNL     1     102.106 118.368 120.675  1.00  0.00     0.159 C 
ATOM      5  O   UNL     1     103.125 119.091 120.530  1.00  0.00    -0.295 OA
ATOM      6  C   UNL     1     101.880 117.509 121.918  1.00  0.00     0.067 C 
ATOM      7  C   UNL     1     101.423 116.144 121.358  1.00  0.00     0.021 C 
ATOM      8  C   UNL     1     100.002 116.749 121.285  1.00  0.00     0.022 C 
ATOM      9  C   UNL     1     100.423 117.731 122.417  1.00  0.00    -0.019 C 
ATOM     10  C   UNL     1      99.846 119.173 122.390  1.00  0.00     0.012 C 
ATOM     11  C   UNL     1     100.187 117.139 123.829  1.00  0.00     0.012 C 
ENDROOT
TORSDOF 0
ENDMDL
MODEL 8
REMARK VINA RESULT:    -4.235      3.254      4.815
REMARK INTER + INTRA:          -4.235
REMARK INTER:                  -4.235
REMARK INTRA:                   0.000
REMARK UNBOUND:                 0.000
REMARK SMILES CC1=CC(=O)[C@@H]2C[C@H]1C2(C)C
REMARK SMILES IDX 1 1 2 2 3 3 4 4 5 5 6 6 7 7 8 8 9 9 10 10 11 11
REMARK H PARENT
REMARK Flexibility Score: inf
ROOT
ATOM      1  C   UNL     1     101.404 115.559 123.141  1.00  0.00     0.040 C 
ATOM      2  C   UNL     1     100.809 116.571 122.214  1.00  0.00    -0.066 C 
ATOM      3  C   UNL     1     100.102 117.636 122.685  1.00  0.00     0.047 C 
ATOM      4  C   UNL     1      99.585 118.596 121.658  1.00  0.00     0.159 C 
ATOM      5  O   UNL     1      98.951 119.637 121.971  1.00  0.00    -0.295 OA
ATOM      6  C   UNL     1      99.882 118.223 120.206  1.00  0.00     0.067 C 
ATOM      7  C   UNL     1      99.537 116.720 120.123  1.00  0.00     0.021 C 
ATOM      8  C   UNL     1     100.953 116.453 120.681  1.00  0.00     0.022 C 
ATOM      9  C   UNL     1     101.383 117.828 120.093  1.00  0.00    -0.019 C 
ATOM     10  C   UNL     1     102.429 118.669 120.878  1.00  0.00     0.012 C 
ATOM     11  C   UNL     1     101.854 117.719 118.621  1.00  0.00     0.012 C 
ENDROOT
TORSDOF 0
ENDMDL
MODEL 9
REMARK VINA RESULT:    -4.178      2.145      3.097
REMARK INTER + INTRA:          -4.178
REMARK INTER:                  -4.178
REMARK INTRA:                   0.000
REMARK UNBOUND:                 0.000
REMARK SMILES CC1=CC(=O)[C@@H]2C[C@H]1C2(C)C
REMARK SMILES IDX 1 1 2 2 3 3 4 4 5 5 6 6 7 7 8 8 9 9 10 10 11 11
REMARK H PARENT
REMARK Flexibility Score: inf
ROOT
ATOM      1  C   UNL     1     101.322 112.919 123.949  1.00  0.00     0.040 C 
ATOM      2  C   UNL     1     101.830 114.263 123.531  1.00  0.00    -0.066 C 
ATOM      3  C   UNL     1     103.135 114.454 123.191  1.00  0.00     0.047 C 
ATOM      4  C   UNL     1     103.512 115.839 122.759  1.00  0.00     0.159 C 
ATOM      5  O   UNL     1     104.677 116.132 122.385  1.00  0.00    -0.295 OA
ATOM      6  C   UNL     1     102.383 116.869 122.806  1.00  0.00     0.067 C 
ATOM      7  C   UNL     1     101.706 116.627 124.173  1.00  0.00     0.021 C 
ATOM      8  C   UNL     1     100.907 115.500 123.480  1.00  0.00     0.022 C 
ATOM      9  C   UNL     1     101.122 116.252 122.135  1.00  0.00    -0.019 C 
ATOM     10  C   UNL     1     101.311 115.409 120.843  1.00  0.00     0.012 C 
ATOM     11  C   UNL     1     100.021 117.309 121.868  1.00  0.00     0.012 C 
ENDROOT
TORSDOF 0
ENDMDL
