MODEL 1
REMARK VINA RESULT:    -1.855      0.000      0.000
REMARK INTER + INTRA:          -8.428
REMARK INTER:                  -4.242
REMARK INTRA:                  -4.186
REMARK UNBOUND:                -4.186
REMARK SMILES CCCCCCCCCCCCCCCCCCCCCCCC(=O)[O-]
REMARK SMILES IDX 13 1 14 2 15 3 16 4 17 5 18 6 19 7 20 8 21 9 22 10 23 11
REMARK SMILES IDX 24 12 25 13 26 14 12 15 11 16 10 17 9 18 8 19 7 20 6 21 5 22
REMARK SMILES IDX 4 23 3 24 2 25 1 26
REMARK H PARENT
REMARK Flexibility Score: inf
ROOT
ATOM      1  C   UNL     1     115.048  12.676  23.107  1.00  0.00     0.000 C 
ENDROOT
BRANCH   1   2
ATOM      2  C   UNL     1     115.001  13.428  21.772  1.00  0.00     0.000 C 
BRANCH   2   3
ATOM      3  C   UNL     1     114.791  14.933  21.998  1.00  0.00     0.000 C 
BRANCH   3   4
ATOM      4  C   UNL     1     115.965  15.777  21.477  1.00  0.00     0.000 C 
BRANCH   4   5
ATOM      5  C   UNL     1     116.657  15.138  20.261  1.00  0.00     0.000 C 
BRANCH   5   6
ATOM      6  C   UNL     1     118.141  14.824  20.522  1.00  0.00     0.000 C 
BRANCH   6   7
ATOM      7  C   UNL     1     118.614  15.093  21.964  1.00  0.00     0.000 C 
BRANCH   7   8
ATOM      8  C   UNL     1     119.925  15.897  22.086  1.00  0.00     0.000 C 
BRANCH   8   9
ATOM      9  C   UNL     1     120.005  16.826  23.311  1.00  0.00     0.000 C 
BRANCH   9  10
ATOM     10  C   UNL     1     118.811  16.658  24.266  1.00  0.00     0.006 C 
BRANCH  10  11
ATOM     11  C   UNL     1     119.253  16.568  25.733  1.00  0.00     0.053 C 
BRANCH  11  12
ATOM     12  C   UNL     1     119.019  17.858  26.460  1.00  0.00     0.041 C 
ATOM     13  O   UNL     1     118.133  17.932  27.351  1.00  0.00    -0.550 OA
ATOM     14  O   UNL     1     119.805  18.968  26.178  1.00  0.00    -0.550 OA
ENDBRANCH  11  12
ENDBRANCH  10  11
ENDBRANCH   9  10
ENDBRANCH   8   9
ENDBRANCH   7   8
ENDBRANCH   6   7
ENDBRANCH   5   6
ENDBRANCH   4   5
ENDBRANCH   3   4
ENDBRANCH   2   3
ENDBRANCH   1   2
BRANCH   1  15
ATOM     15  C   UNL     1     116.396  12.889  23.813  1.00  0.00     0.000 C 
BRANCH  15  16
ATOM     16  C   UNL     1     116.237  13.291  25.289  1.00  0.00     0.000 C 
BRANCH  16  17
ATOM     17  C   UNL     1     115.729  14.734  25.460  1.00  0.00     0.000 C 
BRANCH  17  18
ATOM     18  C   UNL     1     115.896  15.249  26.899  1.00  0.00    -0.000 C 
BRANCH  18  19
ATOM     19  C   UNL     1     116.987  14.493  27.676  1.00  0.00    -0.000 C 
BRANCH  19  20
ATOM     20  C   UNL     1     116.496  13.991  29.044  1.00  0.00    -0.000 C 
BRANCH  20  21
ATOM     21  C   UNL     1     116.308  12.464  29.079  1.00  0.00    -0.000 C 
BRANCH  21  22
ATOM     22  C   UNL     1     114.886  12.039  28.654  1.00  0.00    -0.000 C 
BRANCH  22  23
ATOM     23  C   UNL     1     113.786  13.019  29.106  1.00  0.00    -0.000 C 
BRANCH  23  24
ATOM     24  C   UNL     1     112.764  13.390  28.019  1.00  0.00    -0.000 C 
BRANCH  24  25
ATOM     25  C   UNL     1     112.946  12.576  26.729  1.00  0.00    -0.003 C 
ATOM     26  C   UNL     1     112.254  13.254  25.551  1.00  0.00     0.004 C 
ENDBRANCH  24  25
ENDBRANCH  23  24
ENDBRANCH  22  23
ENDBRANCH  21  22
ENDBRANCH  20  21
ENDBRANCH  19  20
ENDBRANCH  18  19
ENDBRANCH  17  18
ENDBRANCH  16  17
ENDBRANCH  15  16
ENDBRANCH   1  15
TORSDOF 22
ENDMDL
MODEL 2
REMARK VINA RESULT:    -1.822      2.723      5.157
REMARK INTER + INTRA:          -8.351
REMARK INTER:                  -3.460
REMARK INTRA:                  -4.890
REMARK UNBOUND:                -4.186
REMARK SMILES CCCCCCCCCCCCCCCCCCCCCCCC(=O)[O-]
REMARK SMILES IDX 13 1 14 2 15 3 16 4 17 5 18 6 19 7 20 8 21 9 22 10 23 11
REMARK SMILES IDX 24 12 25 13 26 14 12 15 11 16 10 17 9 18 8 19 7 20 6 21 5 22
REMARK SMILES IDX 4 23 3 24 2 25 1 26
REMARK H PARENT
REMARK Flexibility Score: inf
ROOT
ATOM      1  C   UNL     1     118.681  15.737  22.897  1.00  0.00     0.000 C 
ENDROOT
BRANCH   1   2
ATOM      2  C   UNL     1     118.951  15.490  21.409  1.00  0.00     0.000 C 
BRANCH   2   3
ATOM      3  C   UNL     1     118.396  16.639  20.553  1.00  0.00     0.000 C 
BRANCH   3   4
ATOM      4  C   UNL     1     117.110  16.250  19.807  1.00  0.00     0.000 C 
BRANCH   4   5
ATOM      5  C   UNL     1     115.840  16.705  20.546  1.00  0.00     0.000 C 
BRANCH   5   6
ATOM      6  C   UNL     1     114.847  15.552  20.780  1.00  0.00     0.000 C 
BRANCH   6   7
ATOM      7  C   UNL     1     115.500  14.184  21.058  1.00  0.00     0.000 C 
BRANCH   7   8
ATOM      8  C   UNL     1     115.334  13.658  22.499  1.00  0.00     0.000 C 
BRANCH   8   9
ATOM      9  C   UNL     1     116.521  12.835  23.030  1.00  0.00     0.000 C 
BRANCH   9  10
ATOM     10  C   UNL     1     116.200  12.103  24.344  1.00  0.00     0.006 C 
BRANCH  10  11
ATOM     11  C   UNL     1     114.693  11.876  24.525  1.00  0.00     0.053 C 
BRANCH  11  12
ATOM     12  C   UNL     1     114.184  12.520  25.779  1.00  0.00     0.041 C 
ATOM     13  O   UNL     1     113.260  13.374  25.724  1.00  0.00    -0.550 OA
ATOM     14  O   UNL     1     114.707  12.152  27.012  1.00  0.00    -0.550 OA
ENDBRANCH  11  12
ENDBRANCH  10  11
ENDBRANCH   9  10
ENDBRANCH   8   9
ENDBRANCH   7   8
ENDBRANCH   6   7
ENDBRANCH   5   6
ENDBRANCH   4   5
ENDBRANCH   3   4
ENDBRANCH   2   3
ENDBRANCH   1   2
BRANCH   1  15
ATOM     15  C   UNL     1     118.469  17.233  23.179  1.00  0.00     0.000 C 
BRANCH  15  16
ATOM     16  C   UNL     1     117.535  17.487  24.373  1.00  0.00     0.000 C 
BRANCH  16  17
ATOM     17  C   UNL     1     116.146  16.850  24.186  1.00  0.00     0.000 C 
BRANCH  17  18
ATOM     18  C   UNL     1     115.753  15.941  25.362  1.00  0.00    -0.000 C 
BRANCH  18  19
ATOM     19  C   UNL     1     116.960  15.209  25.974  1.00  0.00    -0.000 C 
BRANCH  19  20
ATOM     20  C   UNL     1     116.744  14.850  27.452  1.00  0.00    -0.000 C 
BRANCH  20  21
ATOM     21  C   UNL     1     117.809  15.473  28.373  1.00  0.00    -0.000 C 
BRANCH  21  22
ATOM     22  C   UNL     1     118.848  16.302  27.589  1.00  0.00    -0.000 C 
BRANCH  22  23
ATOM     23  C   UNL     1     118.889  17.788  27.993  1.00  0.00    -0.000 C 
BRANCH  23  24
ATOM     24  C   UNL     1     117.593  18.321  28.628  1.00  0.00    -0.000 C 
BRANCH  24  25
ATOM     25  C   UNL     1     116.635  18.935  27.597  1.00  0.00    -0.003 C 
ATOM     26  C   UNL     1     115.188  18.564  27.905  1.00  0.00     0.004 C 
ENDBRANCH  24  25
ENDBRANCH  23  24
ENDBRANCH  22  23
ENDBRANCH  21  22
ENDBRANCH  20  21
ENDBRANCH  19  20
ENDBRANCH  18  19
ENDBRANCH  17  18
ENDBRANCH  16  17
ENDBRANCH  15  16
ENDBRANCH   1  15
TORSDOF 22
ENDMDL
MODEL 3
REMARK VINA RESULT:    -1.780      2.306      4.542
REMARK INTER + INTRA:          -8.255
REMARK INTER:                  -3.513
REMARK INTRA:                  -4.743
REMARK UNBOUND:                -4.186
REMARK SMILES CCCCCCCCCCCCCCCCCCCCCCCC(=O)[O-]
REMARK SMILES IDX 13 1 14 2 15 3 16 4 17 5 18 6 19 7 20 8 21 9 22 10 23 11
REMARK SMILES IDX 24 12 25 13 26 14 12 15 11 16 10 17 9 18 8 19 7 20 6 21 5 22
REMARK SMILES IDX 4 23 3 24 2 25 1 26
REMARK H PARENT
REMARK Flexibility Score: inf
ROOT
ATOM      1  C   UNL     1     114.742  15.625  22.776  1.00  0.00     0.000 C 
ENDROOT
BRANCH   1   2
ATOM      2  C   UNL     1     113.533  15.241  23.637  1.00  0.00     0.000 C 
BRANCH   2   3
ATOM      3  C   UNL     1     113.333  16.247  24.780  1.00  0.00     0.000 C 
BRANCH   3   4
ATOM      4  C   UNL     1     114.559  17.149  24.994  1.00  0.00     0.000 C 
BRANCH   4   5
ATOM      5  C   UNL     1     114.607  17.753  26.408  1.00  0.00     0.000 C 
BRANCH   5   6
ATOM      6  C   UNL     1     116.040  18.091  26.858  1.00  0.00     0.000 C 
BRANCH   6   7
ATOM      7  C   UNL     1     117.081  18.134  25.722  1.00  0.00     0.000 C 
BRANCH   7   8
ATOM      8  C   UNL     1     118.446  17.500  26.058  1.00  0.00     0.000 C 
BRANCH   8   9
ATOM      9  C   UNL     1     119.056  16.639  24.937  1.00  0.00     0.000 C 
BRANCH   9  10
ATOM     10  C   UNL     1     118.348  16.832  23.585  1.00  0.00     0.006 C 
BRANCH  10  11
ATOM     11  C   UNL     1     118.436  15.579  22.704  1.00  0.00     0.053 C 
BRANCH  11  12
ATOM     12  C   UNL     1     119.325  15.798  21.518  1.00  0.00     0.041 C 
ATOM     13  O   UNL     1     118.835  15.856  20.359  1.00  0.00    -0.550 OA
ATOM     14  O   UNL     1     120.692  15.973  21.695  1.00  0.00    -0.550 OA
ENDBRANCH  11  12
ENDBRANCH  10  11
ENDBRANCH   9  10
ENDBRANCH   8   9
ENDBRANCH   7   8
ENDBRANCH   6   7
ENDBRANCH   5   6
ENDBRANCH   4   5
ENDBRANCH   3   4
ENDBRANCH   2   3
ENDBRANCH   1   2
BRANCH   1  15
ATOM     15  C   UNL     1     114.608  15.062  21.352  1.00  0.00     0.000 C 
BRANCH  15  16
ATOM     16  C   UNL     1     114.776  13.535  21.298  1.00  0.00     0.000 C 
BRANCH  16  17
ATOM     17  C   UNL     1     116.177  13.109  20.824  1.00  0.00     0.000 C 
BRANCH  17  18
ATOM     18  C   UNL     1     116.846  12.116  21.789  1.00  0.00    -0.000 C 
BRANCH  18  19
ATOM     19  C   UNL     1     116.976  12.673  23.217  1.00  0.00    -0.000 C 
BRANCH  19  20
ATOM     20  C   UNL     1     116.149  11.875  24.238  1.00  0.00    -0.000 C 
BRANCH  20  21
ATOM     21  C   UNL     1     115.601  12.759  25.373  1.00  0.00    -0.000 C 
BRANCH  21  22
ATOM     22  C   UNL     1     116.433  14.045  25.567  1.00  0.00    -0.000 C 
BRANCH  22  23
ATOM     23  C   UNL     1     116.621  14.444  27.043  1.00  0.00    -0.000 C 
BRANCH  23  24
ATOM     24  C   UNL     1     115.606  13.821  28.016  1.00  0.00    -0.000 C 
BRANCH  24  25
ATOM     25  C   UNL     1     114.422  14.751  28.315  1.00  0.00    -0.003 C 
ATOM     26  C   UNL     1     113.111  14.146  27.820  1.00  0.00     0.004 C 
ENDBRANCH  24  25
ENDBRANCH  23  24
ENDBRANCH  22  23
ENDBRANCH  21  22
ENDBRANCH  20  21
ENDBRANCH  19  20
ENDBRANCH  18  19
ENDBRANCH  17  18
ENDBRANCH  16  17
ENDBRANCH  15  16
ENDBRANCH   1  15
TORSDOF 22
ENDMDL
MODEL 4
REMARK VINA RESULT:    -1.776      2.176      5.856
REMARK INTER + INTRA:          -8.246
REMARK INTER:                  -3.545
REMARK INTRA:                  -4.701
REMARK UNBOUND:                -4.186
REMARK SMILES CCCCCCCCCCCCCCCCCCCCCCCC(=O)[O-]
REMARK SMILES IDX 13 1 14 2 15 3 16 4 17 5 18 6 19 7 20 8 21 9 22 10 23 11
REMARK SMILES IDX 24 12 25 13 26 14 12 15 11 16 10 17 9 18 8 19 7 20 6 21 5 22
REMARK SMILES IDX 4 23 3 24 2 25 1 26
REMARK H PARENT
REMARK Flexibility Score: inf
ROOT
ATOM      1  C   UNL     1     116.477  15.840  22.908  1.00  0.00     0.000 C 
ENDROOT
BRANCH   1   2
ATOM      2  C   UNL     1     116.375  15.286  21.482  1.00  0.00     0.000 C 
BRANCH   2   3
ATOM      3  C   UNL     1     115.276  14.217  21.387  1.00  0.00     0.000 C 
BRANCH   3   4
ATOM      4  C   UNL     1     115.801  12.803  21.680  1.00  0.00     0.000 C 
BRANCH   4   5
ATOM      5  C   UNL     1     115.193  12.200  22.958  1.00  0.00     0.000 C 
BRANCH   5   6
ATOM      6  C   UNL     1     116.248  11.938  24.049  1.00  0.00     0.000 C 
BRANCH   6   7
ATOM      7  C   UNL     1     116.241  12.951  25.210  1.00  0.00     0.000 C 
BRANCH   7   8
ATOM      8  C   UNL     1     114.853  13.508  25.588  1.00  0.00     0.000 C 
BRANCH   8   9
ATOM      9  C   UNL     1     114.866  14.910  26.222  1.00  0.00     0.000 C 
BRANCH   9  10
ATOM     10  C   UNL     1     114.576  14.885  27.732  1.00  0.00     0.006 C 
BRANCH  10  11
ATOM     11  C   UNL     1     115.687  15.564  28.545  1.00  0.00     0.053 C 
BRANCH  11  12
ATOM     12  C   UNL     1     116.938  14.740  28.568  1.00  0.00     0.041 C 
ATOM     13  O   UNL     1     116.876  13.498  28.768  1.00  0.00    -0.550 OA
ATOM     14  O   UNL     1     118.170  15.338  28.334  1.00  0.00    -0.550 OA
ENDBRANCH  11  12
ENDBRANCH  10  11
ENDBRANCH   9  10
ENDBRANCH   8   9
ENDBRANCH   7   8
ENDBRANCH   6   7
ENDBRANCH   5   6
ENDBRANCH   4   5
ENDBRANCH   3   4
ENDBRANCH   2   3
ENDBRANCH   1   2
BRANCH   1  15
ATOM     15  C   UNL     1     117.922  15.769  23.426  1.00  0.00     0.000 C 
BRANCH  15  16
ATOM     16  C   UNL     1     118.033  16.094  24.925  1.00  0.00     0.000 C 
BRANCH  16  17
ATOM     17  C   UNL     1     119.381  16.738  25.293  1.00  0.00     0.000 C 
BRANCH  17  18
ATOM     18  C   UNL     1     120.414  16.628  24.159  1.00  0.00    -0.000 C 
BRANCH  18  19
ATOM     19  C   UNL     1     120.915  18.001  23.679  1.00  0.00    -0.000 C 
BRANCH  19  20
ATOM     20  C   UNL     1     119.929  19.135  24.002  1.00  0.00    -0.000 C 
BRANCH  20  21
ATOM     21  C   UNL     1     119.139  19.601  22.765  1.00  0.00    -0.000 C 
BRANCH  21  22
ATOM     22  C   UNL     1     117.616  19.425  22.943  1.00  0.00    -0.000 C 
BRANCH  22  23
ATOM     23  C   UNL     1     117.119  19.729  24.369  1.00  0.00    -0.000 C 
BRANCH  23  24
ATOM     24  C   UNL     1     115.766  19.095  24.731  1.00  0.00    -0.000 C 
BRANCH  24  25
ATOM     25  C   UNL     1     115.743  18.514  26.153  1.00  0.00    -0.003 C 
ATOM     26  C   UNL     1     116.912  19.041  26.980  1.00  0.00     0.004 C 
ENDBRANCH  24  25
ENDBRANCH  23  24
ENDBRANCH  22  23
ENDBRANCH  21  22
ENDBRANCH  20  21
ENDBRANCH  19  20
ENDBRANCH  18  19
ENDBRANCH  17  18
ENDBRANCH  16  17
ENDBRANCH  15  16
ENDBRANCH   1  15
TORSDOF 22
ENDMDL
MODEL 5
REMARK VINA RESULT:    -1.769      2.976      6.910
REMARK INTER + INTRA:          -8.230
REMARK INTER:                  -3.288
REMARK INTRA:                  -4.942
REMARK UNBOUND:                -4.186
REMARK SMILES CCCCCCCCCCCCCCCCCCCCCCCC(=O)[O-]
REMARK SMILES IDX 13 1 14 2 15 3 16 4 17 5 18 6 19 7 20 8 21 9 22 10 23 11
REMARK SMILES IDX 24 12 25 13 26 14 12 15 11 16 10 17 9 18 8 19 7 20 6 21 5 22
REMARK SMILES IDX 4 23 3 24 2 25 1 26
REMARK H PARENT
REMARK Flexibility Score: inf
ROOT
ATOM      1  C   UNL     1     119.274  16.685  25.795  1.00  0.00     0.000 C 
ENDROOT
BRANCH   1   2
ATOM      2  C   UNL     1     118.621  16.305  27.129  1.00  0.00     0.000 C 
BRANCH   2   3
ATOM      3  C   UNL     1     118.108  17.554  27.863  1.00  0.00     0.000 C 
BRANCH   3   4
ATOM      4  C   UNL     1     116.686  17.370  28.416  1.00  0.00     0.000 C 
BRANCH   4   5
ATOM      5  C   UNL     1     115.665  18.301  27.740  1.00  0.00     0.000 C 
BRANCH   5   6
ATOM      6  C   UNL     1     116.276  19.101  26.574  1.00  0.00     0.000 C 
BRANCH   6   7
ATOM      7  C   UNL     1     115.856  18.619  25.171  1.00  0.00     0.000 C 
BRANCH   7   8
ATOM      8  C   UNL     1     114.946  17.374  25.150  1.00  0.00     0.000 C 
BRANCH   8   9
ATOM      9  C   UNL     1     115.666  16.049  24.841  1.00  0.00     0.000 C 
BRANCH   9  10
ATOM     10  C   UNL     1     115.323  14.936  25.846  1.00  0.00     0.006 C 
BRANCH  10  11
ATOM     11  C   UNL     1     116.321  13.772  25.781  1.00  0.00     0.053 C 
BRANCH  11  12
ATOM     12  C   UNL     1     115.805  12.648  24.935  1.00  0.00     0.041 C 
ATOM     13  O   UNL     1     116.567  12.067  24.118  1.00  0.00    -0.550 OA
ATOM     14  O   UNL     1     114.491  12.219  25.073  1.00  0.00    -0.550 OA
ENDBRANCH  11  12
ENDBRANCH  10  11
ENDBRANCH   9  10
ENDBRANCH   8   9
ENDBRANCH   7   8
ENDBRANCH   6   7
ENDBRANCH   5   6
ENDBRANCH   4   5
ENDBRANCH   3   4
ENDBRANCH   2   3
ENDBRANCH   1   2
BRANCH   1  15
ATOM     15  C   UNL     1     119.771  18.139  25.818  1.00  0.00     0.000 C 
BRANCH  15  16
ATOM     16  C   UNL     1     119.661  18.827  24.447  1.00  0.00     0.000 C 
BRANCH  16  17
ATOM     17  C   UNL     1     118.871  17.990  23.425  1.00  0.00     0.000 C 
BRANCH  17  18
ATOM     18  C   UNL     1     119.720  17.598  22.205  1.00  0.00    -0.000 C 
BRANCH  18  19
ATOM     19  C   UNL     1     120.079  16.102  22.188  1.00  0.00    -0.000 C 
BRANCH  19  20
ATOM     20  C   UNL     1     119.081  15.266  21.371  1.00  0.00    -0.000 C 
BRANCH  20  21
ATOM     21  C   UNL     1     117.952  14.681  22.238  1.00  0.00    -0.000 C 
BRANCH  21  22
ATOM     22  C   UNL     1     116.583  14.723  21.525  1.00  0.00    -0.000 C 
BRANCH  22  23
ATOM     23  C   UNL     1     116.388  15.964  20.632  1.00  0.00    -0.000 C 
BRANCH  23  24
ATOM     24  C   UNL     1     115.901  17.222  21.371  1.00  0.00    -0.000 C 
BRANCH  24  25
ATOM     25  C   UNL     1     114.370  17.315  21.440  1.00  0.00    -0.003 C 
ATOM     26  C   UNL     1     113.906  18.767  21.367  1.00  0.00     0.004 C 
ENDBRANCH  24  25
ENDBRANCH  23  24
ENDBRANCH  22  23
ENDBRANCH  21  22
ENDBRANCH  20  21
ENDBRANCH  19  20
ENDBRANCH  18  19
ENDBRANCH  17  18
ENDBRANCH  16  17
ENDBRANCH  15  16
ENDBRANCH   1  15
TORSDOF 22
ENDMDL
MODEL 6
REMARK VINA RESULT:    -1.760      2.593      5.199
REMARK INTER + INTRA:          -8.209
REMARK INTER:                  -3.700
REMARK INTRA:                  -4.509
REMARK UNBOUND:                -4.186
REMARK SMILES CCCCCCCCCCCCCCCCCCCCCCCC(=O)[O-]
REMARK SMILES IDX 13 1 14 2 15 3 16 4 17 5 18 6 19 7 20 8 21 9 22 10 23 11
REMARK SMILES IDX 24 12 25 13 26 14 12 15 11 16 10 17 9 18 8 19 7 20 6 21 5 22
REMARK SMILES IDX 4 23 3 24 2 25 1 26
REMARK H PARENT
REMARK Flexibility Score: inf
ROOT
ATOM      1  C   UNL     1     115.436  13.836  27.507  1.00  0.00     0.000 C 
ENDROOT
BRANCH   1   2
ATOM      2  C   UNL     1     116.402  13.469  28.638  1.00  0.00     0.000 C 
BRANCH   2   3
ATOM      3  C   UNL     1     117.479  14.551  28.812  1.00  0.00     0.000 C 
BRANCH   3   4
ATOM      4  C   UNL     1     117.304  15.720  27.830  1.00  0.00     0.000 C 
BRANCH   4   5
ATOM      5  C   UNL     1     118.646  16.240  27.287  1.00  0.00     0.000 C 
BRANCH   5   6
ATOM      6  C   UNL     1     118.549  17.680  26.751  1.00  0.00     0.000 C 
BRANCH   6   7
ATOM      7  C   UNL     1     119.208  17.903  25.376  1.00  0.00     0.000 C 
BRANCH   7   8
ATOM      8  C   UNL     1     120.137  16.767  24.901  1.00  0.00     0.000 C 
BRANCH   8   9
ATOM      9  C   UNL     1     120.656  16.912  23.459  1.00  0.00     0.000 C 
BRANCH   9  10
ATOM     10  C   UNL     1     119.970  15.947  22.478  1.00  0.00     0.006 C 
BRANCH  10  11
ATOM     11  C   UNL     1     119.337  16.684  21.290  1.00  0.00     0.053 C 
BRANCH  11  12
ATOM     12  C   UNL     1     118.492  15.768  20.458  1.00  0.00     0.041 C 
ATOM     13  O   UNL     1     118.002  16.170  19.371  1.00  0.00    -0.550 OA
ATOM     14  O   UNL     1     118.273  14.458  20.868  1.00  0.00    -0.550 OA
ENDBRANCH  11  12
ENDBRANCH  10  11
ENDBRANCH   9  10
ENDBRANCH   8   9
ENDBRANCH   7   8
ENDBRANCH   6   7
ENDBRANCH   5   6
ENDBRANCH   4   5
ENDBRANCH   3   4
ENDBRANCH   2   3
ENDBRANCH   1   2
BRANCH   1  15
ATOM     15  C   UNL     1     114.740  12.586  26.947  1.00  0.00     0.000 C 
BRANCH  15  16
ATOM     16  C   UNL     1     114.824  12.493  25.415  1.00  0.00     0.000 C 
BRANCH  16  17
ATOM     17  C   UNL     1     116.254  12.708  24.886  1.00  0.00     0.000 C 
BRANCH  17  18
ATOM     18  C   UNL     1     116.314  13.763  23.769  1.00  0.00    -0.000 C 
BRANCH  18  19
ATOM     19  C   UNL     1     116.837  15.122  24.264  1.00  0.00    -0.000 C 
BRANCH  19  20
ATOM     20  C   UNL     1     116.309  16.297  23.426  1.00  0.00    -0.000 C 
BRANCH  20  21
ATOM     21  C   UNL     1     115.705  17.417  24.293  1.00  0.00    -0.000 C 
BRANCH  21  22
ATOM     22  C   UNL     1     114.797  16.864  25.413  1.00  0.00    -0.000 C 
BRANCH  22  23
ATOM     23  C   UNL     1     113.315  16.750  25.008  1.00  0.00    -0.000 C 
BRANCH  23  24
ATOM     24  C   UNL     1     112.870  15.343  24.574  1.00  0.00    -0.000 C 
BRANCH  24  25
ATOM     25  C   UNL     1     111.648  14.838  25.354  1.00  0.00    -0.003 C 
ATOM     26  C   UNL     1     111.874  14.953  26.859  1.00  0.00     0.004 C 
ENDBRANCH  24  25
ENDBRANCH  23  24
ENDBRANCH  22  23
ENDBRANCH  21  22
ENDBRANCH  20  21
ENDBRANCH  19  20
ENDBRANCH  18  19
ENDBRANCH  17  18
ENDBRANCH  16  17
ENDBRANCH  15  16
ENDBRANCH   1  15
TORSDOF 22
ENDMDL
MODEL 7
REMARK VINA RESULT:    -1.747      2.210      5.233
REMARK INTER + INTRA:          -8.179
REMARK INTER:                  -3.324
REMARK INTRA:                  -4.855
REMARK UNBOUND:                -4.186
REMARK SMILES CCCCCCCCCCCCCCCCCCCCCCCC(=O)[O-]
REMARK SMILES IDX 13 1 14 2 15 3 16 4 17 5 18 6 19 7 20 8 21 9 22 10 23 11
REMARK SMILES IDX 24 12 25 13 26 14 12 15 11 16 10 17 9 18 8 19 7 20 6 21 5 22
REMARK SMILES IDX 4 23 3 24 2 25 1 26
REMARK H PARENT
REMARK Flexibility Score: inf
ROOT
ATOM      1  C   UNL     1     115.881  14.203  27.001  1.00  0.00     0.000 C 
ENDROOT
BRANCH   1   2
ATOM      2  C   UNL     1     116.909  14.507  28.097  1.00  0.00     0.000 C 
BRANCH   2   3
ATOM      3  C   UNL     1     117.897  15.590  27.636  1.00  0.00     0.000 C 
BRANCH   3   4
ATOM      4  C   UNL     1     117.225  16.959  27.445  1.00  0.00     0.000 C 
BRANCH   4   5
ATOM      5  C   UNL     1     117.774  17.721  26.227  1.00  0.00     0.000 C 
BRANCH   5   6
ATOM      6  C   UNL     1     118.616  16.826  25.300  1.00  0.00     0.000 C 
BRANCH   6   7
ATOM      7  C   UNL     1     120.012  17.383  24.958  1.00  0.00     0.000 C 
BRANCH   7   8
ATOM      8  C   UNL     1     120.828  16.539  23.957  1.00  0.00     0.000 C 
BRANCH   8   9
ATOM      9  C   UNL     1     120.026  16.001  22.758  1.00  0.00     0.000 C 
BRANCH   9  10
ATOM     10  C   UNL     1     120.523  16.554  21.411  1.00  0.00     0.006 C 
BRANCH  10  11
ATOM     11  C   UNL     1     119.483  17.463  20.742  1.00  0.00     0.053 C 
BRANCH  11  12
ATOM     12  C   UNL     1     119.588  18.876  21.230  1.00  0.00     0.041 C 
ATOM     13  O   UNL     1     120.383  19.681  20.677  1.00  0.00    -0.550 OA
ATOM     14  O   UNL     1     118.783  19.313  22.275  1.00  0.00    -0.550 OA
ENDBRANCH  11  12
ENDBRANCH  10  11
ENDBRANCH   9  10
ENDBRANCH   8   9
ENDBRANCH   7   8
ENDBRANCH   6   7
ENDBRANCH   5   6
ENDBRANCH   4   5
ENDBRANCH   3   4
ENDBRANCH   2   3
ENDBRANCH   1   2
BRANCH   1  15
ATOM     15  C   UNL     1     116.573  13.874  25.669  1.00  0.00     0.000 C 
BRANCH  15  16
ATOM     16  C   UNL     1     115.806  12.828  24.843  1.00  0.00     0.000 C 
BRANCH  16  17
ATOM     17  C   UNL     1     116.255  12.792  23.371  1.00  0.00     0.000 C 
BRANCH  17  18
ATOM     18  C   UNL     1     116.987  14.076  22.948  1.00  0.00    -0.000 C 
BRANCH  18  19
ATOM     19  C   UNL     1     116.756  14.431  21.469  1.00  0.00    -0.000 C 
BRANCH  19  20
ATOM     20  C   UNL     1     116.097  15.808  21.290  1.00  0.00    -0.000 C 
BRANCH  20  21
ATOM     21  C   UNL     1     116.348  16.744  22.486  1.00  0.00    -0.000 C 
BRANCH  21  22
ATOM     22  C   UNL     1     115.037  17.304  23.078  1.00  0.00    -0.000 C 
BRANCH  22  23
ATOM     23  C   UNL     1     114.685  16.725  24.462  1.00  0.00    -0.000 C 
BRANCH  23  24
ATOM     24  C   UNL     1     113.533  15.707  24.462  1.00  0.00    -0.000 C 
BRANCH  24  25
ATOM     25  C   UNL     1     112.855  15.575  23.090  1.00  0.00    -0.003 C 
ATOM     26  C   UNL     1     112.933  14.141  22.575  1.00  0.00     0.004 C 
ENDBRANCH  24  25
ENDBRANCH  23  24
ENDBRANCH  22  23
ENDBRANCH  21  22
ENDBRANCH  20  21
ENDBRANCH  19  20
ENDBRANCH  18  19
ENDBRANCH  17  18
ENDBRANCH  16  17
ENDBRANCH  15  16
ENDBRANCH   1  15
TORSDOF 22
ENDMDL
MODEL 8
REMARK VINA RESULT:    -1.726      2.245      6.561
REMARK INTER + INTRA:          -8.131
REMARK INTER:                  -4.156
REMARK INTRA:                  -3.975
REMARK UNBOUND:                -4.186
REMARK SMILES CCCCCCCCCCCCCCCCCCCCCCCC(=O)[O-]
REMARK SMILES IDX 13 1 14 2 15 3 16 4 17 5 18 6 19 7 20 8 21 9 22 10 23 11
REMARK SMILES IDX 24 12 25 13 26 14 12 15 11 16 10 17 9 18 8 19 7 20 6 21 5 22
REMARK SMILES IDX 4 23 3 24 2 25 1 26
REMARK H PARENT
REMARK Flexibility Score: inf
ROOT
ATOM      1  C   UNL     1     115.920  13.053  25.070  1.00  0.00     0.000 C 
ENDROOT
BRANCH   1   2
ATOM      2  C   UNL     1     114.820  12.641  26.055  1.00  0.00     0.000 C 
BRANCH   2   3
ATOM      3  C   UNL     1     115.303  12.784  27.506  1.00  0.00     0.000 C 
BRANCH   3   4
ATOM      4  C   UNL     1     114.703  14.012  28.210  1.00  0.00     0.000 C 
BRANCH   4   5
ATOM      5  C   UNL     1     115.780  14.990  28.709  1.00  0.00     0.000 C 
BRANCH   5   6
ATOM      6  C   UNL     1     117.195  14.598  28.248  1.00  0.00     0.000 C 
BRANCH   6   7
ATOM      7  C   UNL     1     118.250  15.714  28.379  1.00  0.00     0.000 C 
BRANCH   7   8
ATOM      8  C   UNL     1     118.666  16.383  27.053  1.00  0.00     0.000 C 
BRANCH   8   9
ATOM      9  C   UNL     1     117.814  15.989  25.832  1.00  0.00     0.000 C 
BRANCH   9  10
ATOM     10  C   UNL     1     116.955  17.149  25.304  1.00  0.00     0.006 C 
BRANCH  10  11
ATOM     11  C   UNL     1     115.760  16.654  24.478  1.00  0.00     0.053 C 
BRANCH  11  12
ATOM     12  C   UNL     1     114.467  17.217  24.984  1.00  0.00     0.041 C 
ATOM     13  O   UNL     1     113.906  18.165  24.373  1.00  0.00    -0.550 OA
ATOM     14  O   UNL     1     113.864  16.673  26.111  1.00  0.00    -0.550 OA
ENDBRANCH  11  12
ENDBRANCH  10  11
ENDBRANCH   9  10
ENDBRANCH   8   9
ENDBRANCH   7   8
ENDBRANCH   6   7
ENDBRANCH   5   6
ENDBRANCH   4   5
ENDBRANCH   3   4
ENDBRANCH   2   3
ENDBRANCH   1   2
BRANCH   1  15
ATOM     15  C   UNL     1     116.291  11.888  24.138  1.00  0.00     0.000 C 
BRANCH  15  16
ATOM     16  C   UNL     1     116.557  12.343  22.693  1.00  0.00     0.000 C 
BRANCH  16  17
ATOM     17  C   UNL     1     117.020  13.808  22.609  1.00  0.00     0.000 C 
BRANCH  17  18
ATOM     18  C   UNL     1     117.435  14.212  21.185  1.00  0.00    -0.000 C 
BRANCH  18  19
ATOM     19  C   UNL     1     118.697  15.091  21.162  1.00  0.00    -0.000 C 
BRANCH  19  20
ATOM     20  C   UNL     1     119.129  15.540  22.567  1.00  0.00    -0.000 C 
BRANCH  20  21
ATOM     21  C   UNL     1     120.302  16.537  22.534  1.00  0.00    -0.000 C 
BRANCH  21  22
ATOM     22  C   UNL     1     119.991  17.834  23.311  1.00  0.00    -0.000 C 
BRANCH  22  23
ATOM     23  C   UNL     1     119.562  19.008  22.411  1.00  0.00    -0.000 C 
BRANCH  23  24
ATOM     24  C   UNL     1     118.080  19.403  22.525  1.00  0.00    -0.000 C 
BRANCH  24  25
ATOM     25  C   UNL     1     117.161  18.511  21.678  1.00  0.00    -0.003 C 
ATOM     26  C   UNL     1     117.570  18.543  20.208  1.00  0.00     0.004 C 
ENDBRANCH  24  25
ENDBRANCH  23  24
ENDBRANCH  22  23
ENDBRANCH  21  22
ENDBRANCH  20  21
ENDBRANCH  19  20
ENDBRANCH  18  19
ENDBRANCH  17  18
ENDBRANCH  16  17
ENDBRANCH  15  16
ENDBRANCH   1  15
TORSDOF 22
ENDMDL
MODEL 9
REMARK VINA RESULT:    -1.718      2.673      6.890
REMARK INTER + INTRA:          -8.114
REMARK INTER:                  -3.283
REMARK INTRA:                  -4.831
REMARK UNBOUND:                -4.186
REMARK SMILES CCCCCCCCCCCCCCCCCCCCCCCC(=O)[O-]
REMARK SMILES IDX 13 1 14 2 15 3 16 4 17 5 18 6 19 7 20 8 21 9 22 10 23 11
REMARK SMILES IDX 24 12 25 13 26 14 12 15 11 16 10 17 9 18 8 19 7 20 6 21 5 22
REMARK SMILES IDX 4 23 3 24 2 25 1 26
REMARK H PARENT
REMARK Flexibility Score: inf
ROOT
ATOM      1  C   UNL     1     117.668  15.659  27.348  1.00  0.00     0.000 C 
ENDROOT
BRANCH   1   2
ATOM      2  C   UNL     1     117.287  16.326  28.674  1.00  0.00     0.000 C 
BRANCH   2   3
ATOM      3  C   UNL     1     115.770  16.254  28.907  1.00  0.00     0.000 C 
BRANCH   3   4
ATOM      4  C   UNL     1     114.964  16.470  27.617  1.00  0.00     0.000 C 
BRANCH   4   5
ATOM      5  C   UNL     1     114.782  17.960  27.278  1.00  0.00     0.000 C 
BRANCH   5   6
ATOM      6  C   UNL     1     115.298  18.314  25.872  1.00  0.00     0.000 C 
BRANCH   6   7
ATOM      7  C   UNL     1     114.873  17.332  24.762  1.00  0.00     0.000 C 
BRANCH   7   8
ATOM      8  C   UNL     1     116.029  16.565  24.086  1.00  0.00     0.000 C 
BRANCH   8   9
ATOM      9  C   UNL     1     115.721  15.097  23.743  1.00  0.00     0.000 C 
BRANCH   9  10
ATOM     10  C   UNL     1     116.698  14.111  24.406  1.00  0.00     0.006 C 
BRANCH  10  11
ATOM     11  C   UNL     1     116.093  12.708  24.551  1.00  0.00     0.053 C 
BRANCH  11  12
ATOM     12  C   UNL     1     115.154  12.630  25.716  1.00  0.00     0.041 C 
ATOM     13  O   UNL     1     115.535  12.980  26.864  1.00  0.00    -0.550 OA
ATOM     14  O   UNL     1     113.846  12.200  25.527  1.00  0.00    -0.550 OA
ENDBRANCH  11  12
ENDBRANCH  10  11
ENDBRANCH   9  10
ENDBRANCH   8   9
ENDBRANCH   7   8
ENDBRANCH   6   7
ENDBRANCH   5   6
ENDBRANCH   4   5
ENDBRANCH   3   4
ENDBRANCH   2   3
ENDBRANCH   1   2
BRANCH   1  15
ATOM     15  C   UNL     1     118.842  16.391  26.679  1.00  0.00     0.000 C 
BRANCH  15  16
ATOM     16  C   UNL     1     118.804  17.911  26.908  1.00  0.00     0.000 C 
BRANCH  16  17
ATOM     17  C   UNL     1     119.546  18.694  25.810  1.00  0.00     0.000 C 
BRANCH  17  18
ATOM     18  C   UNL     1     118.628  19.075  24.638  1.00  0.00    -0.000 C 
BRANCH  18  19
ATOM     19  C   UNL     1     119.137  18.541  23.288  1.00  0.00    -0.000 C 
BRANCH  19  20
ATOM     20  C   UNL     1     120.223  17.466  23.452  1.00  0.00    -0.000 C 
BRANCH  20  21
ATOM     21  C   UNL     1     119.716  16.056  23.098  1.00  0.00    -0.000 C 
BRANCH  21  22
ATOM     22  C   UNL     1     119.621  15.833  21.573  1.00  0.00    -0.000 C 
BRANCH  22  23
ATOM     23  C   UNL     1     118.457  14.917  21.153  1.00  0.00    -0.000 C 
BRANCH  23  24
ATOM     24  C   UNL     1     117.268  15.641  20.500  1.00  0.00    -0.000 C 
BRANCH  24  25
ATOM     25  C   UNL     1     117.570  17.113  20.181  1.00  0.00    -0.003 C 
ATOM     26  C   UNL     1     116.480  18.028  20.732  1.00  0.00     0.004 C 
ENDBRANCH  24  25
ENDBRANCH  23  24
ENDBRANCH  22  23
ENDBRANCH  21  22
ENDBRANCH  20  21
ENDBRANCH  19  20
ENDBRANCH  18  19
ENDBRANCH  17  18
ENDBRANCH  16  17
ENDBRANCH  15  16
ENDBRANCH   1  15
TORSDOF 22
ENDMDL
