MODEL 1
REMARK VINA RESULT:    -2.348      0.000      0.000
REMARK INTER + INTRA:          -2.786
REMARK INTER:                  -2.760
REMARK INTRA:                  -0.027
REMARK UNBOUND:                -0.027
REMARK SMILES CCCCC(=O)[O-]
REMARK SMILES IDX 4 1 5 2 6 3 7 4 3 5 2 6 1 7
REMARK H PARENT
REMARK Flexibility Score: inf
ROOT
ATOM      1  C   UNL     1     168.234 169.208 152.281  1.00  0.00     0.053 C 
ENDROOT
BRANCH   1   2
ATOM      2  C   UNL     1     168.959 169.185 150.973  1.00  0.00     0.041 C 
ATOM      3  O   UNL     1     168.433 169.694 149.948  1.00  0.00    -0.550 OA
ATOM      4  O   UNL     1     170.194 168.559 150.873  1.00  0.00    -0.550 OA
ENDBRANCH   1   2
BRANCH   1   5
ATOM      5  C   UNL     1     167.790 170.632 152.625  1.00  0.00     0.006 C 
BRANCH   5   6
ATOM      6  C   UNL     1     168.226 171.018 154.043  1.00  0.00    -0.003 C 
ATOM      7  C   UNL     1     167.708 170.017 155.071  1.00  0.00     0.004 C 
ENDBRANCH   5   6
ENDBRANCH   1   5
TORSDOF 3
ENDMDL
MODEL 2
REMARK VINA RESULT:    -2.326     15.291     16.231
REMARK INTER + INTRA:          -2.761
REMARK INTER:                  -2.738
REMARK INTRA:                  -0.023
REMARK UNBOUND:                -0.027
REMARK SMILES CCCCC(=O)[O-]
REMARK SMILES IDX 4 1 5 2 6 3 7 4 3 5 2 6 1 7
REMARK H PARENT
REMARK Flexibility Score: inf
ROOT
ATOM      1  C   UNL     1     171.949 153.806 150.786  1.00  0.00     0.053 C 
ENDROOT
BRANCH   1   2
ATOM      2  C   UNL     1     172.690 152.594 151.254  1.00  0.00     0.041 C 
ATOM      3  O   UNL     1     172.883 151.628 150.470  1.00  0.00    -0.550 OA
ATOM      4  O   UNL     1     173.125 152.508 152.570  1.00  0.00    -0.550 OA
ENDBRANCH   1   2
BRANCH   1   5
ATOM      5  C   UNL     1     172.240 155.000 151.700  1.00  0.00     0.006 C 
BRANCH   5   6
ATOM      6  C   UNL     1     171.141 156.063 151.583  1.00  0.00    -0.003 C 
ATOM      7  C   UNL     1     171.520 157.333 152.338  1.00  0.00     0.004 C 
ENDBRANCH   5   6
ENDBRANCH   1   5
TORSDOF 3
ENDMDL
MODEL 3
REMARK VINA RESULT:    -2.271     17.120     17.853
REMARK INTER + INTRA:          -2.695
REMARK INTER:                  -2.661
REMARK INTRA:                  -0.035
REMARK UNBOUND:                -0.027
REMARK SMILES CCCCC(=O)[O-]
REMARK SMILES IDX 4 1 5 2 6 3 7 4 3 5 2 6 1 7
REMARK H PARENT
REMARK Flexibility Score: inf
ROOT
ATOM      1  C   UNL     1     172.207 152.314 153.583  1.00  0.00     0.053 C 
ENDROOT
BRANCH   1   2
ATOM      2  C   UNL     1     172.775 152.950 152.354  1.00  0.00     0.041 C 
ATOM      3  O   UNL     1     173.121 152.238 151.375  1.00  0.00    -0.550 OA
ATOM      4  O   UNL     1     172.969 154.324 152.307  1.00  0.00    -0.550 OA
ENDBRANCH   1   2
BRANCH   1   5
ATOM      5  C   UNL     1     173.056 152.661 154.809  1.00  0.00     0.006 C 
BRANCH   5   6
ATOM      6  C   UNL     1     172.514 151.973 156.067  1.00  0.00    -0.003 C 
ATOM      7  C   UNL     1     171.224 151.216 155.769  1.00  0.00     0.004 C 
ENDBRANCH   5   6
ENDBRANCH   1   5
TORSDOF 3
ENDMDL
MODEL 4
REMARK VINA RESULT:    -2.260     10.074     11.169
REMARK INTER + INTRA:          -2.683
REMARK INTER:                  -2.623
REMARK INTRA:                  -0.059
REMARK UNBOUND:                -0.027
REMARK SMILES CCCCC(=O)[O-]
REMARK SMILES IDX 4 1 5 2 6 3 7 4 3 5 2 6 1 7
REMARK H PARENT
REMARK Flexibility Score: inf
ROOT
ATOM      1  C   UNL     1     172.028 160.347 145.928  1.00  0.00     0.053 C 
ENDROOT
BRANCH   1   2
ATOM      2  C   UNL     1     172.376 161.261 144.796  1.00  0.00     0.041 C 
ATOM      3  O   UNL     1     172.030 160.972 143.620  1.00  0.00    -0.550 OA
ATOM      4  O   UNL     1     173.125 162.407 145.031  1.00  0.00    -0.550 OA
ENDBRANCH   1   2
BRANCH   1   5
ATOM      5  C   UNL     1     170.542 160.467 146.277  1.00  0.00     0.006 C 
BRANCH   5   6
ATOM      6  C   UNL     1     170.307 161.575 147.311  1.00  0.00    -0.003 C 
ATOM      7  C   UNL     1     170.087 160.993 148.704  1.00  0.00     0.004 C 
ENDBRANCH   5   6
ENDBRANCH   1   5
TORSDOF 3
ENDMDL
MODEL 5
REMARK VINA RESULT:    -2.256      3.383      4.378
REMARK INTER + INTRA:          -2.679
REMARK INTER:                  -2.586
REMARK INTRA:                  -0.093
REMARK UNBOUND:                -0.027
REMARK SMILES CCCCC(=O)[O-]
REMARK SMILES IDX 4 1 5 2 6 3 7 4 3 5 2 6 1 7
REMARK H PARENT
REMARK Flexibility Score: inf
ROOT
ATOM      1  C   UNL     1     167.537 169.944 154.695  1.00  0.00     0.053 C 
ENDROOT
BRANCH   1   2
ATOM      2  C   UNL     1     166.140 170.283 155.107  1.00  0.00     0.041 C 
ATOM      3  O   UNL     1     165.846 170.385 156.327  1.00  0.00    -0.550 OA
ATOM      4  O   UNL     1     165.149 170.435 154.146  1.00  0.00    -0.550 OA
ENDBRANCH   1   2
BRANCH   1   5
ATOM      5  C   UNL     1     168.183 171.124 153.964  1.00  0.00     0.006 C 
BRANCH   5   6
ATOM      6  C   UNL     1     168.525 170.755 152.516  1.00  0.00    -0.003 C 
ATOM      7  C   UNL     1     168.245 169.280 152.242  1.00  0.00     0.004 C 
ENDBRANCH   5   6
ENDBRANCH   1   5
TORSDOF 3
ENDMDL
MODEL 6
REMARK VINA RESULT:    -2.245     17.338     18.048
REMARK INTER + INTRA:          -2.665
REMARK INTER:                  -2.630
REMARK INTRA:                  -0.035
REMARK UNBOUND:                -0.027
REMARK SMILES CCCCC(=O)[O-]
REMARK SMILES IDX 4 1 5 2 6 3 7 4 3 5 2 6 1 7
REMARK H PARENT
REMARK Flexibility Score: inf
ROOT
ATOM      1  C   UNL     1     171.979 152.063 153.541  1.00  0.00     0.053 C 
ENDROOT
BRANCH   1   2
ATOM      2  C   UNL     1     172.636 152.736 152.378  1.00  0.00     0.041 C 
ATOM      3  O   UNL     1     172.928 153.960 152.437  1.00  0.00    -0.550 OA
ATOM      4  O   UNL     1     172.882 152.026 151.210  1.00  0.00    -0.550 OA
ENDBRANCH   1   2
BRANCH   1   5
ATOM      5  C   UNL     1     172.640 152.492 154.854  1.00  0.00     0.006 C 
BRANCH   5   6
ATOM      6  C   UNL     1     172.158 151.623 156.022  1.00  0.00    -0.003 C 
ATOM      7  C   UNL     1     170.878 150.875 155.662  1.00  0.00     0.004 C 
ENDBRANCH   5   6
ENDBRANCH   1   5
TORSDOF 3
ENDMDL
MODEL 7
REMARK VINA RESULT:    -2.244      1.827      2.451
REMARK INTER + INTRA:          -2.664
REMARK INTER:                  -2.563
REMARK INTRA:                  -0.101
REMARK UNBOUND:                -0.027
REMARK SMILES CCCCC(=O)[O-]
REMARK SMILES IDX 4 1 5 2 6 3 7 4 3 5 2 6 1 7
REMARK H PARENT
REMARK Flexibility Score: inf
ROOT
ATOM      1  C   UNL     1     168.296 170.359 152.600  1.00  0.00     0.053 C 
ENDROOT
BRANCH   1   2
ATOM      2  C   UNL     1     167.217 170.755 151.642  1.00  0.00     0.041 C 
ATOM      3  O   UNL     1     167.512 171.124 150.474  1.00  0.00    -0.550 OA
ATOM      4  O   UNL     1     165.891 170.768 152.052  1.00  0.00    -0.550 OA
ENDBRANCH   1   2
BRANCH   1   5
ATOM      5  C   UNL     1     168.080 171.030 153.959  1.00  0.00     0.006 C 
BRANCH   5   6
ATOM      6  C   UNL     1     167.658 170.005 155.018  1.00  0.00    -0.003 C 
ATOM      7  C   UNL     1     166.280 170.332 155.585  1.00  0.00     0.004 C 
ENDBRANCH   5   6
ENDBRANCH   1   5
TORSDOF 3
ENDMDL
MODEL 8
REMARK VINA RESULT:    -2.210      9.934     11.753
REMARK INTER + INTRA:          -2.624
REMARK INTER:                  -2.589
REMARK INTRA:                  -0.035
REMARK UNBOUND:                -0.027
REMARK SMILES CCCCC(=O)[O-]
REMARK SMILES IDX 4 1 5 2 6 3 7 4 3 5 2 6 1 7
REMARK H PARENT
REMARK Flexibility Score: inf
ROOT
ATOM      1  C   UNL     1     170.328 160.553 146.394  1.00  0.00     0.053 C 
ENDROOT
BRANCH   1   2
ATOM      2  C   UNL     1     170.331 161.402 147.626  1.00  0.00     0.041 C 
ATOM      3  O   UNL     1     170.370 160.865 148.764  1.00  0.00    -0.550 OA
ATOM      4  O   UNL     1     170.239 162.783 147.520  1.00  0.00    -0.550 OA
ENDBRANCH   1   2
BRANCH   1   5
ATOM      5  C   UNL     1     171.761 160.268 145.934  1.00  0.00     0.006 C 
BRANCH   5   6
ATOM      6  C   UNL     1     171.785 159.190 144.844  1.00  0.00    -0.003 C 
ATOM      7  C   UNL     1     170.374 158.736 144.485  1.00  0.00     0.004 C 
ENDBRANCH   5   6
ENDBRANCH   1   5
TORSDOF 3
ENDMDL
MODEL 9
REMARK VINA RESULT:    -2.196     18.476     19.263
REMARK INTER + INTRA:          -2.608
REMARK INTER:                  -2.467
REMARK INTRA:                  -0.140
REMARK UNBOUND:                -0.027
REMARK SMILES CCCCC(=O)[O-]
REMARK SMILES IDX 4 1 5 2 6 3 7 4 3 5 2 6 1 7
REMARK H PARENT
REMARK Flexibility Score: inf
ROOT
ATOM      1  C   UNL     1     153.012 170.831 139.905  1.00  0.00     0.053 C 
ENDROOT
BRANCH   1   2
ATOM      2  C   UNL     1     153.604 170.234 141.143  1.00  0.00     0.041 C 
ATOM      3  O   UNL     1     154.169 170.971 141.993  1.00  0.00    -0.550 OA
ATOM      4  O   UNL     1     153.577 168.859 141.334  1.00  0.00    -0.550 OA
ENDBRANCH   1   2
BRANCH   1   5
ATOM      5  C   UNL     1     153.524 170.103 138.660  1.00  0.00     0.006 C 
BRANCH   5   6
ATOM      6  C   UNL     1     155.024 170.347 138.457  1.00  0.00    -0.003 C 
ATOM      7  C   UNL     1     155.781 169.031 138.306  1.00  0.00     0.004 C 
ENDBRANCH   5   6
ENDBRANCH   1   5
TORSDOF 3
ENDMDL
