MODEL 1
REMARK VINA RESULT:    -3.667      0.000      0.000
REMARK INTER + INTRA:          -4.920
REMARK INTER:                  -4.739
REMARK INTRA:                  -0.181
REMARK UNBOUND:                -0.181
REMARK SMILES CCCCCCC(=O)[O-]
REMARK SMILES IDX 5 1 6 2 7 3 8 4 9 5 4 6 3 7 2 8 1 9
REMARK H PARENT
REMARK Flexibility Score: inf
ROOT
ATOM      1  C   UNL     1      56.455  22.756  48.065  1.00  0.00     0.006 C 
ENDROOT
BRANCH   1   2
ATOM      2  C   UNL     1      56.866  21.326  47.701  1.00  0.00     0.053 C 
BRANCH   2   3
ATOM      3  C   UNL     1      56.248  20.346  48.649  1.00  0.00     0.041 C 
ATOM      4  O   UNL     1      56.124  19.137  48.318  1.00  0.00    -0.550 OA
ATOM      5  O   UNL     1      55.852  20.758  49.915  1.00  0.00    -0.550 OA
ENDBRANCH   2   3
ENDBRANCH   1   2
BRANCH   1   6
ATOM      6  C   UNL     1      57.189  23.779  47.191  1.00  0.00     0.000 C 
BRANCH   6   7
ATOM      7  C   UNL     1      56.266  24.950  46.822  1.00  0.00    -0.000 C 
BRANCH   7   8
ATOM      8  C   UNL     1      54.945  24.932  47.607  1.00  0.00    -0.003 C 
ATOM      9  C   UNL     1      53.720  24.817  46.701  1.00  0.00     0.004 C 
ENDBRANCH   7   8
ENDBRANCH   6   7
ENDBRANCH   1   6
TORSDOF 5
ENDMDL
MODEL 2
REMARK VINA RESULT:    -3.612      2.802      4.491
REMARK INTER + INTRA:          -4.849
REMARK INTER:                  -4.661
REMARK INTRA:                  -0.188
REMARK UNBOUND:                -0.181
REMARK SMILES CCCCCCC(=O)[O-]
REMARK SMILES IDX 5 1 6 2 7 3 8 4 9 5 4 6 3 7 2 8 1 9
REMARK H PARENT
REMARK Flexibility Score: inf
ROOT
ATOM      1  C   UNL     1      56.146  22.999  48.749  1.00  0.00     0.006 C 
ENDROOT
BRANCH   1   2
ATOM      2  C   UNL     1      55.771  23.861  47.540  1.00  0.00     0.053 C 
BRANCH   2   3
ATOM      3  C   UNL     1      54.301  24.144  47.533  1.00  0.00     0.041 C 
ATOM      4  O   UNL     1      53.786  24.796  46.587  1.00  0.00    -0.550 OA
ATOM      5  O   UNL     1      53.493  23.646  48.547  1.00  0.00    -0.550 OA
ENDBRANCH   2   3
ENDBRANCH   1   2
BRANCH   1   6
ATOM      6  C   UNL     1      56.307  21.529  48.348  1.00  0.00     0.000 C 
BRANCH   6   7
ATOM      7  C   UNL     1      55.937  20.597  49.511  1.00  0.00    -0.000 C 
BRANCH   7   8
ATOM      8  C   UNL     1      55.024  21.276  50.545  1.00  0.00    -0.003 C 
ATOM      9  C   UNL     1      55.711  21.485  51.893  1.00  0.00     0.004 C 
ENDBRANCH   7   8
ENDBRANCH   6   7
ENDBRANCH   1   6
TORSDOF 5
ENDMDL
MODEL 3
REMARK VINA RESULT:    -3.608      2.473      3.385
REMARK INTER + INTRA:          -4.844
REMARK INTER:                  -4.626
REMARK INTRA:                  -0.218
REMARK UNBOUND:                -0.181
REMARK SMILES CCCCCCC(=O)[O-]
REMARK SMILES IDX 5 1 6 2 7 3 8 4 9 5 4 6 3 7 2 8 1 9
REMARK H PARENT
REMARK Flexibility Score: inf
ROOT
ATOM      1  C   UNL     1      55.439  21.662  49.195  1.00  0.00     0.006 C 
ENDROOT
BRANCH   1   2
ATOM      2  C   UNL     1      55.259  20.986  50.557  1.00  0.00     0.053 C 
BRANCH   2   3
ATOM      3  C   UNL     1      55.632  21.924  51.662  1.00  0.00     0.041 C 
ATOM      4  O   UNL     1      56.197  23.019  51.399  1.00  0.00    -0.550 OA
ATOM      5  O   UNL     1      55.313  21.612  52.977  1.00  0.00    -0.550 OA
ENDBRANCH   2   3
ENDBRANCH   1   2
BRANCH   1   6
ATOM      6  C   UNL     1      56.488  20.930  48.351  1.00  0.00     0.000 C 
BRANCH   6   7
ATOM      7  C   UNL     1      57.092  21.865  47.293  1.00  0.00    -0.000 C 
BRANCH   7   8
ATOM      8  C   UNL     1      56.818  23.348  47.588  1.00  0.00    -0.003 C 
ATOM      9  C   UNL     1      57.614  24.287  46.682  1.00  0.00     0.004 C 
ENDBRANCH   7   8
ENDBRANCH   6   7
ENDBRANCH   1   6
TORSDOF 5
ENDMDL
MODEL 4
REMARK VINA RESULT:    -3.598      2.737      4.288
REMARK INTER + INTRA:          -4.830
REMARK INTER:                  -4.479
REMARK INTRA:                  -0.352
REMARK UNBOUND:                -0.181
REMARK SMILES CCCCCCC(=O)[O-]
REMARK SMILES IDX 5 1 6 2 7 3 8 4 9 5 4 6 3 7 2 8 1 9
REMARK H PARENT
REMARK Flexibility Score: inf
ROOT
ATOM      1  C   UNL     1      55.057  23.623  47.872  1.00  0.00     0.006 C 
ENDROOT
BRANCH   1   2
ATOM      2  C   UNL     1      56.415  24.289  48.109  1.00  0.00     0.053 C 
BRANCH   2   3
ATOM      3  C   UNL     1      57.375  23.926  47.019  1.00  0.00     0.041 C 
ATOM      4  O   UNL     1      57.483  22.728  46.644  1.00  0.00    -0.550 OA
ATOM      5  O   UNL     1      58.113  24.916  46.384  1.00  0.00    -0.550 OA
ENDBRANCH   2   3
ENDBRANCH   1   2
BRANCH   1   6
ATOM      6  C   UNL     1      54.516  23.001  49.164  1.00  0.00     0.000 C 
BRANCH   6   7
ATOM      7  C   UNL     1      55.632  22.286  49.940  1.00  0.00    -0.000 C 
BRANCH   7   8
ATOM      8  C   UNL     1      55.506  20.756  49.881  1.00  0.00    -0.003 C 
ATOM      9  C   UNL     1      56.303  20.140  48.732  1.00  0.00     0.004 C 
ENDBRANCH   7   8
ENDBRANCH   6   7
ENDBRANCH   1   6
TORSDOF 5
ENDMDL
MODEL 5
REMARK VINA RESULT:    -3.589      2.799      3.911
REMARK INTER + INTRA:          -4.819
REMARK INTER:                  -4.693
REMARK INTRA:                  -0.126
REMARK UNBOUND:                -0.181
REMARK SMILES CCCCCCC(=O)[O-]
REMARK SMILES IDX 5 1 6 2 7 3 8 4 9 5 4 6 3 7 2 8 1 9
REMARK H PARENT
REMARK Flexibility Score: inf
ROOT
ATOM      1  C   UNL     1      55.176  20.706  50.255  1.00  0.00     0.006 C 
ENDROOT
BRANCH   1   2
ATOM      2  C   UNL     1      55.385  21.888  51.206  1.00  0.00     0.053 C 
BRANCH   2   3
ATOM      3  C   UNL     1      54.843  21.570  52.564  1.00  0.00     0.041 C 
ATOM      4  O   UNL     1      53.605  21.408  52.730  1.00  0.00    -0.550 OA
ATOM      5  O   UNL     1      55.709  21.405  53.638  1.00  0.00    -0.550 OA
ENDBRANCH   2   3
ENDBRANCH   1   2
BRANCH   1   6
ATOM      6  C   UNL     1      56.075  20.828  49.019  1.00  0.00     0.000 C 
BRANCH   6   7
ATOM      7  C   UNL     1      56.080  22.267  48.484  1.00  0.00    -0.000 C 
BRANCH   7   8
ATOM      8  C   UNL     1      57.067  22.462  47.322  1.00  0.00    -0.003 C 
ATOM      9  C   UNL     1      57.364  23.934  47.038  1.00  0.00     0.004 C 
ENDBRANCH   7   8
ENDBRANCH   6   7
ENDBRANCH   1   6
TORSDOF 5
ENDMDL
MODEL 6
REMARK VINA RESULT:    -3.586      1.588      1.949
REMARK INTER + INTRA:          -4.815
REMARK INTER:                  -4.528
REMARK INTRA:                  -0.287
REMARK UNBOUND:                -0.181
REMARK SMILES CCCCCCC(=O)[O-]
REMARK SMILES IDX 5 1 6 2 7 3 8 4 9 5 4 6 3 7 2 8 1 9
REMARK H PARENT
REMARK Flexibility Score: inf
ROOT
ATOM      1  C   UNL     1      56.393  23.109  48.436  1.00  0.00     0.006 C 
ENDROOT
BRANCH   1   2
ATOM      2  C   UNL     1      56.657  21.743  47.794  1.00  0.00     0.053 C 
BRANCH   2   3
ATOM      3  C   UNL     1      56.338  20.642  48.756  1.00  0.00     0.041 C 
ATOM      4  O   UNL     1      56.885  19.514  48.632  1.00  0.00    -0.550 OA
ATOM      5  O   UNL     1      55.474  20.874  49.818  1.00  0.00    -0.550 OA
ENDBRANCH   2   3
ENDBRANCH   1   2
BRANCH   1   6
ATOM      6  C   UNL     1      55.396  23.924  47.605  1.00  0.00     0.000 C 
BRANCH   6   7
ATOM      7  C   UNL     1      53.962  23.726  48.117  1.00  0.00    -0.000 C 
BRANCH   7   8
ATOM      8  C   UNL     1      53.620  24.657  49.291  1.00  0.00    -0.003 C 
ATOM      9  C   UNL     1      53.322  23.896  50.582  1.00  0.00     0.004 C 
ENDBRANCH   7   8
ENDBRANCH   6   7
ENDBRANCH   1   6
TORSDOF 5
ENDMDL
MODEL 7
REMARK VINA RESULT:    -3.581      1.911      2.468
REMARK INTER + INTRA:          -4.808
REMARK INTER:                  -4.538
REMARK INTRA:                  -0.270
REMARK UNBOUND:                -0.181
REMARK SMILES CCCCCCC(=O)[O-]
REMARK SMILES IDX 5 1 6 2 7 3 8 4 9 5 4 6 3 7 2 8 1 9
REMARK H PARENT
REMARK Flexibility Score: inf
ROOT
ATOM      1  C   UNL     1      55.563  22.524  50.053  1.00  0.00     0.006 C 
ENDROOT
BRANCH   1   2
ATOM      2  C   UNL     1      55.558  20.999  49.903  1.00  0.00     0.053 C 
BRANCH   2   3
ATOM      3  C   UNL     1      56.346  20.588  48.699  1.00  0.00     0.041 C 
ATOM      4  O   UNL     1      56.515  19.368  48.438  1.00  0.00    -0.550 OA
ATOM      5  O   UNL     1      56.853  21.553  47.837  1.00  0.00    -0.550 OA
ENDBRANCH   2   3
ENDBRANCH   1   2
BRANCH   1   6
ATOM      6  C   UNL     1      54.163  23.048  50.391  1.00  0.00     0.000 C 
BRANCH   6   7
ATOM      7  C   UNL     1      53.749  24.172  49.430  1.00  0.00    -0.000 C 
BRANCH   7   8
ATOM      8  C   UNL     1      53.770  23.728  47.958  1.00  0.00    -0.003 C 
ATOM      9  C   UNL     1      54.354  24.791  47.029  1.00  0.00     0.004 C 
ENDBRANCH   7   8
ENDBRANCH   6   7
ENDBRANCH   1   6
TORSDOF 5
ENDMDL
MODEL 8
REMARK VINA RESULT:    -3.569      3.229      4.448
REMARK INTER + INTRA:          -4.794
REMARK INTER:                  -4.694
REMARK INTRA:                  -0.100
REMARK UNBOUND:                -0.181
REMARK SMILES CCCCCCC(=O)[O-]
REMARK SMILES IDX 5 1 6 2 7 3 8 4 9 5 4 6 3 7 2 8 1 9
REMARK H PARENT
REMARK Flexibility Score: inf
ROOT
ATOM      1  C   UNL     1      54.992  21.328  51.193  1.00  0.00     0.006 C 
ENDROOT
BRANCH   1   2
ATOM      2  C   UNL     1      56.024  21.840  52.201  1.00  0.00     0.053 C 
BRANCH   2   3
ATOM      3  C   UNL     1      55.684  21.372  53.582  1.00  0.00     0.041 C 
ATOM      4  O   UNL     1      54.512  21.503  54.025  1.00  0.00    -0.550 OA
ATOM      5  O   UNL     1      56.649  20.747  54.362  1.00  0.00    -0.550 OA
ENDBRANCH   2   3
ENDBRANCH   1   2
BRANCH   1   6
ATOM      6  C   UNL     1      55.659  20.951  49.865  1.00  0.00     0.000 C 
BRANCH   6   7
ATOM      7  C   UNL     1      55.661  22.141  48.894  1.00  0.00    -0.000 C 
BRANCH   7   8
ATOM      8  C   UNL     1      56.724  22.003  47.792  1.00  0.00    -0.003 C 
ATOM      9  C   UNL     1      57.152  23.350  47.212  1.00  0.00     0.004 C 
ENDBRANCH   7   8
ENDBRANCH   6   7
ENDBRANCH   1   6
TORSDOF 5
ENDMDL
MODEL 9
REMARK VINA RESULT:    -3.558      2.989      4.184
REMARK INTER + INTRA:          -4.779
REMARK INTER:                  -4.641
REMARK INTRA:                  -0.137
REMARK UNBOUND:                -0.181
REMARK SMILES CCCCCCC(=O)[O-]
REMARK SMILES IDX 5 1 6 2 7 3 8 4 9 5 4 6 3 7 2 8 1 9
REMARK H PARENT
REMARK Flexibility Score: inf
ROOT
ATOM      1  C   UNL     1      54.823  21.217  50.989  1.00  0.00     0.006 C 
ENDROOT
BRANCH   1   2
ATOM      2  C   UNL     1      55.531  22.175  51.952  1.00  0.00     0.053 C 
BRANCH   2   3
ATOM      3  C   UNL     1      56.052  21.431  53.142  1.00  0.00     0.041 C 
ATOM      4  O   UNL     1      57.230  20.982  53.143  1.00  0.00    -0.550 OA
ATOM      5  O   UNL     1      55.256  21.275  54.269  1.00  0.00    -0.550 OA
ENDBRANCH   2   3
ENDBRANCH   1   2
BRANCH   1   6
ATOM      6  C   UNL     1      55.676  20.961  49.742  1.00  0.00     0.000 C 
BRANCH   6   7
ATOM      7  C   UNL     1      55.739  22.212  48.853  1.00  0.00    -0.000 C 
BRANCH   7   8
ATOM      8  C   UNL     1      56.763  22.077  47.715  1.00  0.00    -0.003 C 
ATOM      9  C   UNL     1      57.223  23.429  47.170  1.00  0.00     0.004 C 
ENDBRANCH   7   8
ENDBRANCH   6   7
ENDBRANCH   1   6
TORSDOF 5
ENDMDL
