MODEL 1
REMARK VINA RESULT:    -3.266      0.000      0.000
REMARK INTER + INTRA:          -3.552
REMARK INTER:                  -3.552
REMARK INTRA:                   0.000
REMARK UNBOUND:                 0.000
REMARK SMILES [NH3+]CC(=O)[O-]
REMARK SMILES IDX 2 1 1 2 3 6 4 7 5 8
REMARK H PARENT 1 3 1 4 1 5
REMARK Flexibility Score: inf
ROOT
ATOM      1  C   UNL     1       0.612  14.048 -13.221  1.00  0.00     0.312 C 
ENDROOT
BRANCH   1   2
ATOM      2  N   UNL     1       1.261  15.088 -12.425  1.00  0.00    -0.353 N 
ATOM      3  H   UNL     1       1.960  14.659 -11.775  1.00  0.00     0.344 HD
ATOM      4  H   UNL     1       0.537  15.589 -11.861  1.00  0.00     0.344 HD
ATOM      5  H   UNL     1       1.737  15.776 -13.053  1.00  0.00     0.344 HD
ENDBRANCH   1   2
BRANCH   1   6
ATOM      6  C   UNL     1       1.327  12.742 -13.067  1.00  0.00     0.096 C 
ATOM      7  O   UNL     1       2.526  12.628 -13.435  1.00  0.00    -0.544 OA
ATOM      8  O   UNL     1       0.684  11.663 -12.471  1.00  0.00    -0.544 OA
ENDBRANCH   1   6
TORSDOF 2
ENDMDL
MODEL 2
REMARK VINA RESULT:    -2.868      9.177      9.452
REMARK INTER + INTRA:          -3.119
REMARK INTER:                  -3.119
REMARK INTRA:                   0.000
REMARK UNBOUND:                 0.000
REMARK SMILES [NH3+]CC(=O)[O-]
REMARK SMILES IDX 2 1 1 2 3 6 4 7 5 8
REMARK H PARENT 1 3 1 4 1 5
REMARK Flexibility Score: inf
ROOT
ATOM      1  C   UNL     1       5.691   7.173 -17.663  1.00  0.00     0.312 C 
ENDROOT
BRANCH   1   2
ATOM      2  N   UNL     1       4.494   6.337 -17.594  1.00  0.00    -0.353 N 
ATOM      3  H   UNL     1       4.359   5.982 -16.620  1.00  0.00     0.344 HD
ATOM      4  H   UNL     1       4.608   5.522 -18.239  1.00  0.00     0.344 HD
ATOM      5  H   UNL     1       3.654   6.887 -17.890  1.00  0.00     0.344 HD
ENDBRANCH   1   2
BRANCH   1   6
ATOM      6  C   UNL     1       6.750   6.656 -16.740  1.00  0.00     0.096 C 
ATOM      7  O   UNL     1       6.765   5.441 -16.410  1.00  0.00    -0.544 OA
ATOM      8  O   UNL     1       7.750   7.506 -16.283  1.00  0.00    -0.544 OA
ENDBRANCH   1   6
TORSDOF 2
ENDMDL
MODEL 3
REMARK VINA RESULT:    -2.696      8.462      8.918
REMARK INTER + INTRA:          -2.932
REMARK INTER:                  -2.932
REMARK INTRA:                   0.000
REMARK UNBOUND:                 0.000
REMARK SMILES [NH3+]CC(=O)[O-]
REMARK SMILES IDX 2 1 1 2 3 6 4 7 5 8
REMARK H PARENT 1 3 1 4 1 5
REMARK Flexibility Score: inf
ROOT
ATOM      1  C   UNL     1       5.620   6.523 -17.652  1.00  0.00     0.312 C 
ENDROOT
BRANCH   1   2
ATOM      2  N   UNL     1       6.207   6.265 -16.339  1.00  0.00    -0.353 N 
ATOM      3  H   UNL     1       5.642   5.547 -15.829  1.00  0.00     0.344 HD
ATOM      4  H   UNL     1       6.208   7.151 -15.784  1.00  0.00     0.344 HD
ATOM      5  H   UNL     1       7.193   5.931 -16.445  1.00  0.00     0.344 HD
ENDBRANCH   1   2
BRANCH   1   6
ATOM      6  C   UNL     1       5.510   7.996 -17.900  1.00  0.00     0.096 C 
ATOM      7  O   UNL     1       4.377   8.541 -17.981  1.00  0.00    -0.544 OA
ATOM      8  O   UNL     1       6.657   8.774 -17.992  1.00  0.00    -0.544 OA
ENDBRANCH   1   6
TORSDOF 2
ENDMDL
MODEL 4
REMARK VINA RESULT:    -2.690      8.459      8.459
REMARK INTER + INTRA:          -2.926
REMARK INTER:                  -2.926
REMARK INTRA:                   0.000
REMARK UNBOUND:                 0.000
REMARK SMILES [NH3+]CC(=O)[O-]
REMARK SMILES IDX 2 1 1 2 3 6 4 7 5 8
REMARK H PARENT 1 3 1 4 1 5
REMARK Flexibility Score: inf
ROOT
ATOM      1  C   UNL     1       4.977   7.811 -18.715  1.00  0.00     0.312 C 
ENDROOT
BRANCH   1   2
ATOM      2  N   UNL     1       3.896   8.729 -18.361  1.00  0.00    -0.353 N 
ATOM      3  H   UNL     1       3.673   9.350 -19.173  1.00  0.00     0.344 HD
ATOM      4  H   UNL     1       4.200   9.321 -17.555  1.00  0.00     0.344 HD
ATOM      5  H   UNL     1       3.043   8.190 -18.083  1.00  0.00     0.344 HD
ENDBRANCH   1   2
BRANCH   1   6
ATOM      6  C   UNL     1       5.816   7.498 -17.515  1.00  0.00     0.096 C 
ATOM      7  O   UNL     1       6.897   8.115 -17.319  1.00  0.00    -0.544 OA
ATOM      8  O   UNL     1       5.381   6.560 -16.586  1.00  0.00    -0.544 OA
ENDBRANCH   1   6
TORSDOF 2
ENDMDL
MODEL 5
REMARK VINA RESULT:    -2.659      9.689      9.995
REMARK INTER + INTRA:          -2.892
REMARK INTER:                  -2.892
REMARK INTRA:                   0.000
REMARK UNBOUND:                 0.000
REMARK SMILES [NH3+]CC(=O)[O-]
REMARK SMILES IDX 2 1 1 2 3 6 4 7 5 8
REMARK H PARENT 1 3 1 4 1 5
REMARK Flexibility Score: inf
ROOT
ATOM      1  C   UNL     1      -6.605  13.308 -16.464  1.00  0.00     0.312 C 
ENDROOT
BRANCH   1   2
ATOM      2  N   UNL     1      -6.625  11.855 -16.620  1.00  0.00    -0.353 N 
ATOM      3  H   UNL     1      -6.129  11.401 -15.819  1.00  0.00     0.344 HD
ATOM      4  H   UNL     1      -6.138  11.600 -17.509  1.00  0.00     0.344 HD
ATOM      5  H   UNL     1      -7.613  11.513 -16.665  1.00  0.00     0.344 HD
ENDBRANCH   1   2
BRANCH   1   6
ATOM      6  C   UNL     1      -7.598  13.951 -17.381  1.00  0.00     0.096 C 
ATOM      7  O   UNL     1      -8.047  15.100 -17.124  1.00  0.00    -0.544 OA
ATOM      8  O   UNL     1      -7.991  13.303 -18.546  1.00  0.00    -0.544 OA
ENDBRANCH   1   6
TORSDOF 2
ENDMDL
MODEL 6
REMARK VINA RESULT:    -2.567      9.125      9.454
REMARK INTER + INTRA:          -2.792
REMARK INTER:                  -2.792
REMARK INTRA:                   0.000
REMARK UNBOUND:                 0.000
REMARK SMILES [NH3+]CC(=O)[O-]
REMARK SMILES IDX 2 1 1 2 3 6 4 7 5 8
REMARK H PARENT 1 3 1 4 1 5
REMARK Flexibility Score: inf
ROOT
ATOM      1  C   UNL     1       7.469   7.346 -17.291  1.00  0.00     0.312 C 
ENDROOT
BRANCH   1   2
ATOM      2  N   UNL     1       6.817   8.250 -18.236  1.00  0.00    -0.353 N 
ATOM      3  H   UNL     1       7.532   8.710 -18.845  1.00  0.00     0.344 HD
ATOM      4  H   UNL     1       6.301   8.987 -17.704  1.00  0.00     0.344 HD
ATOM      5  H   UNL     1       6.135   7.721 -18.828  1.00  0.00     0.344 HD
ENDBRANCH   1   2
BRANCH   1   6
ATOM      6  C   UNL     1       6.495   6.334 -16.771  1.00  0.00     0.096 C 
ATOM      7  O   UNL     1       6.905   5.226 -16.334  1.00  0.00    -0.544 OA
ATOM      8  O   UNL     1       5.139   6.635 -16.721  1.00  0.00    -0.544 OA
ENDBRANCH   1   6
TORSDOF 2
ENDMDL
MODEL 7
REMARK VINA RESULT:    -2.457      8.873      9.227
REMARK INTER + INTRA:          -2.672
REMARK INTER:                  -2.672
REMARK INTRA:                   0.000
REMARK UNBOUND:                 0.000
REMARK SMILES [NH3+]CC(=O)[O-]
REMARK SMILES IDX 2 1 1 2 3 6 4 7 5 8
REMARK H PARENT 1 3 1 4 1 5
REMARK Flexibility Score: inf
ROOT
ATOM      1  C   UNL     1       0.903  12.273  -3.116  1.00  0.00     0.312 C 
ENDROOT
BRANCH   1   2
ATOM      2  N   UNL     1      -0.082  13.231  -2.618  1.00  0.00    -0.353 N 
ATOM      3  H   UNL     1       0.140  14.190  -2.970  1.00  0.00     0.344 HD
ATOM      4  H   UNL     1      -0.054  13.239  -1.573  1.00  0.00     0.344 HD
ATOM      5  H   UNL     1      -1.042  12.953  -2.929  1.00  0.00     0.344 HD
ENDBRANCH   1   2
BRANCH   1   6
ATOM      6  C   UNL     1       0.429  11.641  -4.388  1.00  0.00     0.096 C 
ATOM      7  O   UNL     1      -0.148  10.522  -4.363  1.00  0.00    -0.544 OA
ATOM      8  O   UNL     1       0.579  12.312  -5.596  1.00  0.00    -0.544 OA
ENDBRANCH   1   6
TORSDOF 2
ENDMDL
MODEL 8
REMARK VINA RESULT:    -2.436      9.112      9.465
REMARK INTER + INTRA:          -2.650
REMARK INTER:                  -2.650
REMARK INTRA:                   0.000
REMARK UNBOUND:                 0.000
REMARK SMILES [NH3+]CC(=O)[O-]
REMARK SMILES IDX 2 1 1 2 3 6 4 7 5 8
REMARK H PARENT 1 3 1 4 1 5
REMARK Flexibility Score: inf
ROOT
ATOM      1  C   UNL     1       1.047  12.135  -3.128  1.00  0.00     0.312 C 
ENDROOT
BRANCH   1   2
ATOM      2  N   UNL     1       0.893  11.175  -2.037  1.00  0.00    -0.353 N 
ATOM      3  H   UNL     1       0.469  11.643  -1.203  1.00  0.00     0.344 HD
ATOM      4  H   UNL     1       1.834  10.801  -1.775  1.00  0.00     0.344 HD
ATOM      5  H   UNL     1       0.286  10.378  -2.342  1.00  0.00     0.344 HD
ENDBRANCH   1   2
BRANCH   1   6
ATOM      6  C   UNL     1       0.467  11.589  -4.397  1.00  0.00     0.096 C 
ATOM      7  O   UNL     1      -0.175  10.506  -4.385  1.00  0.00    -0.544 OA
ATOM      8  O   UNL     1       0.592  12.303  -5.582  1.00  0.00    -0.544 OA
ENDBRANCH   1   6
TORSDOF 2
ENDMDL
MODEL 9
REMARK VINA RESULT:    -2.399     10.073     10.484
REMARK INTER + INTRA:          -2.610
REMARK INTER:                  -2.610
REMARK INTRA:                   0.000
REMARK UNBOUND:                 0.000
REMARK SMILES [NH3+]CC(=O)[O-]
REMARK SMILES IDX 2 1 1 2 3 6 4 7 5 8
REMARK H PARENT 1 3 1 4 1 5
REMARK Flexibility Score: inf
ROOT
ATOM      1  C   UNL     1       2.616  10.396  -3.280  1.00  0.00     0.312 C 
ENDROOT
BRANCH   1   2
ATOM      2  N   UNL     1       3.614   9.379  -3.605  1.00  0.00    -0.353 N 
ATOM      3  H   UNL     1       4.575   9.787  -3.547  1.00  0.00     0.344 HD
ATOM      4  H   UNL     1       3.449   9.036  -4.579  1.00  0.00     0.344 HD
ATOM      5  H   UNL     1       3.532   8.571  -2.944  1.00  0.00     0.344 HD
ENDBRANCH   1   2
BRANCH   1   6
ATOM      6  C   UNL     1       1.248   9.791  -3.215  1.00  0.00     0.096 C 
ATOM      7  O   UNL     1       0.958   8.977  -2.297  1.00  0.00    -0.544 OA
ATOM      8  O   UNL     1       0.277  10.163  -4.137  1.00  0.00    -0.544 OA
ENDBRANCH   1   6
TORSDOF 2
ENDMDL
