MODEL 1
REMARK VINA RESULT:    -4.068      0.000      0.000
REMARK INTER + INTRA:          -5.680
REMARK INTER:                  -6.208
REMARK INTRA:                   0.528
REMARK UNBOUND:                 0.528
REMARK SMILES CC1=CCC[C@H](C)C(=O)C[C@H](C(C)C)C(=O)C1
REMARK SMILES IDX 8 1 9 2 6 3 7 4 5 5 4 6 3 7 2 8 1 9 10 11 11 12 15 13 16 14
REMARK SMILES IDX 17 15 12 17 13 18 14 19
REMARK H PARENT
REMARK Flexibility Score: 70.00
ROOT
ATOM      1  C   UNL     1       2.705  12.444  -7.362  1.00  0.00     0.136 C 
ATOM      2  O   UNL     1       2.122  11.800  -6.501  1.00  0.00    -0.299 OA
ENDROOT
BRANCH   1   3
ATOM      3  C   UNL     1       3.728  11.723  -8.228  1.00  0.00     0.053 C 
ATOM      4  C   UNL     1       3.016  10.673  -9.087  1.00  0.00     0.016 C 
BRANCH   3   5
ATOM      5  C   UNL     1       4.500  12.714  -9.125  1.00  0.00     0.015 C 
BRANCH   5   6
ATOM      6  C   UNL     1       5.971  12.899  -8.719  1.00  0.00     0.028 C 
BRANCH   6   7
ATOM      7  C   UNL     1       6.268  12.307  -7.362  1.00  0.00    -0.028 C 
ATOM      8  C   UNL     1       6.107  12.917  -6.164  1.00  0.00    -0.070 CG0
ATOM      9  C   UNL     1       6.509  12.148  -4.929  1.00  0.00     0.039 C 
ATOM     10  G   UNL     1       5.522  14.308  -5.983  1.00  0.00     0.000 G0
ENDBRANCH   6   7
ENDBRANCH   5   6
ENDBRANCH   3   5
ENDBRANCH   1   3
BRANCH   1  11
ATOM     11  C   UNL     1       2.366  13.920  -7.464  1.00  0.00     0.087 C 
BRANCH  11  12
ATOM     12  C   UNL     1       2.908  14.853  -6.344  1.00  0.00     0.066 C 
BRANCH  12  13
ATOM     13  C   UNL     1       4.080  14.296  -5.536  1.00  0.00     0.140 C 
ATOM     14  O   UNL     1       3.831  13.830  -4.432  1.00  0.00    -0.299 OA
BRANCH  13  15
ATOM     15  C   UNL     1       5.528  14.323  -5.982  1.00  0.00     0.106 CG0
ATOM     16  G   UNL     1       6.070  12.917  -6.173  1.00  0.00     0.000 G0
ENDBRANCH  13  15
ENDBRANCH  12  13
BRANCH  12  17
ATOM     17  C   UNL     1       3.279  16.277  -6.870  1.00  0.00    -0.006 C 
ATOM     18  C   UNL     1       4.309  16.238  -8.012  1.00  0.00     0.008 C 
ATOM     19  C   UNL     1       3.750  17.228  -5.758  1.00  0.00     0.008 C 
ENDBRANCH  12  17
ENDBRANCH  11  12
ENDBRANCH   1  11
TORSDOF 1
ENDMDL
MODEL 2
REMARK VINA RESULT:    -3.927      1.970      3.463
REMARK INTER + INTRA:          -5.465
REMARK INTER:                  -5.919
REMARK INTRA:                   0.454
REMARK UNBOUND:                 0.528
REMARK SMILES CC1=CCC[C@H](C)C(=O)C[C@H](C(C)C)C(=O)C1
REMARK SMILES IDX 8 1 9 2 6 3 7 4 5 5 4 6 3 7 2 8 1 9 10 11 11 12 15 13 16 14
REMARK SMILES IDX 17 15 12 17 13 18 14 19
REMARK H PARENT
REMARK Flexibility Score: 70.00
ROOT
ATOM      1  C   UNL     1       6.020  13.953  -7.870  1.00  0.00     0.136 C 
ATOM      2  O   UNL     1       6.056  14.416  -9.001  1.00  0.00    -0.299 OA
ENDROOT
BRANCH   1   3
ATOM      3  C   UNL     1       6.364  12.482  -7.686  1.00  0.00     0.053 C 
ATOM      4  C   UNL     1       6.183  12.099  -6.213  1.00  0.00     0.016 C 
BRANCH   3   5
ATOM      5  C   UNL     1       5.485  11.585  -8.582  1.00  0.00     0.015 C 
BRANCH   5   6
ATOM      6  C   UNL     1       4.035  11.452  -8.090  1.00  0.00     0.028 C 
BRANCH   6   7
ATOM      7  C   UNL     1       3.127  12.494  -8.700  1.00  0.00    -0.028 C 
ATOM      8  C   UNL     1       2.273  13.308  -8.034  1.00  0.00    -0.070 CG0
ATOM      9  C   UNL     1       1.427  14.252  -8.852  1.00  0.00     0.039 C 
ATOM     10  G   UNL     1       2.137  13.352  -6.521  1.00  0.00     0.000 G0
ENDBRANCH   6   7
ENDBRANCH   5   6
ENDBRANCH   3   5
ENDBRANCH   1   3
BRANCH   1  11
ATOM     11  C   UNL     1       5.604  14.894  -6.755  1.00  0.00     0.087 C 
BRANCH  11  12
ATOM     12  C   UNL     1       4.086  15.207  -6.616  1.00  0.00     0.066 C 
BRANCH  12  13
ATOM     13  C   UNL     1       3.262  14.144  -5.891  1.00  0.00     0.140 C 
ATOM     14  O   UNL     1       3.564  13.893  -4.731  1.00  0.00    -0.299 OA
BRANCH  13  15
ATOM     15  C   UNL     1       2.134  13.349  -6.516  1.00  0.00     0.106 CG0
ATOM     16  G   UNL     1       2.263  13.310  -8.029  1.00  0.00     0.000 G0
ENDBRANCH  13  15
ENDBRANCH  12  13
BRANCH  12  17
ATOM     17  C   UNL     1       3.813  16.601  -5.966  1.00  0.00    -0.006 C 
ATOM     18  C   UNL     1       4.582  16.803  -4.649  1.00  0.00     0.008 C 
ATOM     19  C   UNL     1       2.316  16.889  -5.762  1.00  0.00     0.008 C 
ENDBRANCH  12  17
ENDBRANCH  11  12
ENDBRANCH   1  11
TORSDOF 1
ENDMDL
MODEL 3
REMARK VINA RESULT:    -3.327      1.460      2.253
REMARK INTER + INTRA:          -4.549
REMARK INTER:                  -5.983
REMARK INTRA:                   1.434
REMARK UNBOUND:                 0.528
REMARK SMILES CC1=CCC[C@H](C)C(=O)C[C@H](C(C)C)C(=O)C1
REMARK SMILES IDX 8 1 9 2 6 3 7 4 5 5 4 6 3 7 2 8 1 9 10 11 11 12 15 13 16 14
REMARK SMILES IDX 17 15 12 17 13 18 14 19
REMARK H PARENT
REMARK Flexibility Score: 70.00
ROOT
ATOM      1  C   UNL     1       2.700  12.793  -7.534  1.00  0.00     0.136 C 
ATOM      2  O   UNL     1       2.383  13.368  -8.565  1.00  0.00    -0.299 OA
ENDROOT
BRANCH   1   3
ATOM      3  C   UNL     1       3.362  11.426  -7.650  1.00  0.00     0.053 C 
ATOM      4  C   UNL     1       2.280  10.349  -7.788  1.00  0.00     0.016 C 
BRANCH   3   5
ATOM      5  C   UNL     1       4.326  11.371  -8.853  1.00  0.00     0.015 C 
BRANCH   5   6
ATOM      6  C   UNL     1       5.555  12.282  -8.702  1.00  0.00     0.028 C 
BRANCH   6   7
ATOM      7  C   UNL     1       5.269  13.703  -9.125  1.00  0.00    -0.028 C 
ATOM      8  C   UNL     1       5.343  14.807  -8.343  1.00  0.00    -0.070 CG0
ATOM      9  C   UNL     1       4.972  16.130  -8.967  1.00  0.00     0.039 C 
ATOM     10  G   UNL     1       5.805  14.802  -6.895  1.00  0.00     0.000 G0
ENDBRANCH   6   7
ENDBRANCH   5   6
ENDBRANCH   3   5
ENDBRANCH   1   3
BRANCH   1  11
ATOM     11  C   UNL     1       2.375  13.492  -6.227  1.00  0.00     0.087 C 
BRANCH  11  12
ATOM     12  C   UNL     1       3.497  14.358  -5.585  1.00  0.00     0.066 C 
BRANCH  12  13
ATOM     13  C   UNL     1       4.923  13.988  -5.990  1.00  0.00     0.140 C 
ATOM     14  O   UNL     1       5.393  12.960  -5.520  1.00  0.00    -0.299 OA
BRANCH  13  15
ATOM     15  C   UNL     1       5.811  14.824  -6.890  1.00  0.00     0.106 CG0
ATOM     16  G   UNL     1       5.321  14.790  -8.328  1.00  0.00     0.000 G0
ENDBRANCH  13  15
ENDBRANCH  12  13
BRANCH  12  17
ATOM     17  C   UNL     1       3.281  15.889  -5.809  1.00  0.00    -0.006 C 
ATOM     18  C   UNL     1       4.234  16.752  -4.965  1.00  0.00     0.008 C 
ATOM     19  C   UNL     1       1.825  16.332  -5.591  1.00  0.00     0.008 C 
ENDBRANCH  12  17
ENDBRANCH  11  12
ENDBRANCH   1  11
TORSDOF 1
ENDMDL
MODEL 4
REMARK VINA RESULT:    -3.063      1.753      3.721
REMARK INTER + INTRA:          -4.146
REMARK INTER:                  -4.658
REMARK INTRA:                   0.512
REMARK UNBOUND:                 0.528
REMARK SMILES CC1=CCC[C@H](C)C(=O)C[C@H](C(C)C)C(=O)C1
REMARK SMILES IDX 8 1 9 2 6 3 7 4 5 5 4 6 3 7 2 8 1 9 10 11 11 12 15 13 16 14
REMARK SMILES IDX 17 15 12 17 13 18 14 19
REMARK H PARENT
REMARK Flexibility Score: 70.00
ROOT
ATOM      1  C   UNL     1       4.536  12.099  -8.862  1.00  0.00     0.136 C 
ATOM      2  O   UNL     1       5.255  11.112  -8.929  1.00  0.00    -0.299 OA
ENDROOT
BRANCH   1   3
ATOM      3  C   UNL     1       3.032  11.900  -8.992  1.00  0.00     0.053 C 
ATOM      4  C   UNL     1       2.713  10.401  -8.946  1.00  0.00     0.016 C 
BRANCH   3   5
ATOM      5  C   UNL     1       2.270  12.643  -7.874  1.00  0.00     0.015 C 
BRANCH   5   6
ATOM      6  C   UNL     1       1.852  14.072  -8.257  1.00  0.00     0.028 C 
BRANCH   6   7
ATOM      7  C   UNL     1       1.804  14.993  -7.061  1.00  0.00    -0.028 C 
ATOM      8  C   UNL     1       2.802  15.798  -6.623  1.00  0.00    -0.070 CG0
ATOM      9  C   UNL     1       2.549  16.608  -5.376  1.00  0.00     0.039 C 
ATOM     10  G   UNL     1       4.141  15.959  -7.323  1.00  0.00     0.000 G0
ENDBRANCH   6   7
ENDBRANCH   5   6
ENDBRANCH   3   5
ENDBRANCH   1   3
BRANCH   1  11
ATOM     11  C   UNL     1       5.222  13.440  -8.681  1.00  0.00     0.087 C 
BRANCH  11  12
ATOM     12  C   UNL     1       5.730  13.793  -7.254  1.00  0.00     0.066 C 
BRANCH  12  13
ATOM     13  C   UNL     1       5.214  15.112  -6.682  1.00  0.00     0.140 C 
ATOM     14  O   UNL     1       5.675  15.478  -5.609  1.00  0.00    -0.299 OA
BRANCH  13  15
ATOM     15  C   UNL     1       4.142  15.971  -7.321  1.00  0.00     0.106 CG0
ATOM     16  G   UNL     1       2.804  15.789  -6.623  1.00  0.00     0.000 G0
ENDBRANCH  13  15
ENDBRANCH  12  13
BRANCH  12  17
ATOM     17  C   UNL     1       5.472  12.649  -6.221  1.00  0.00    -0.006 C 
ATOM     18  C   UNL     1       4.275  12.941  -5.299  1.00  0.00     0.008 C 
ATOM     19  C   UNL     1       6.715  12.296  -5.387  1.00  0.00     0.008 C 
ENDBRANCH  12  17
ENDBRANCH  11  12
ENDBRANCH   1  11
TORSDOF 1
ENDMDL
MODEL 5
REMARK VINA RESULT:    -3.033      1.554      4.274
REMARK INTER + INTRA:          -4.101
REMARK INTER:                  -4.237
REMARK INTRA:                   0.136
REMARK UNBOUND:                 0.528
REMARK SMILES CC1=CCC[C@H](C)C(=O)C[C@H](C(C)C)C(=O)C1
REMARK SMILES IDX 8 1 9 2 6 3 7 4 5 5 4 6 3 7 2 8 1 9 10 11 11 12 15 13 16 14
REMARK SMILES IDX 17 15 12 17 13 18 14 19
REMARK H PARENT
REMARK Flexibility Score: 70.00
ROOT
ATOM      1  C   UNL     1       3.198  13.726  -4.526  1.00  0.00     0.136 C 
ATOM      2  O   UNL     1       3.795  13.169  -3.617  1.00  0.00    -0.299 OA
ENDROOT
BRANCH   1   3
ATOM      3  C   UNL     1       2.824  15.191  -4.346  1.00  0.00     0.053 C 
ATOM      4  C   UNL     1       3.990  15.935  -3.685  1.00  0.00     0.016 C 
BRANCH   3   5
ATOM      5  C   UNL     1       2.468  15.848  -5.696  1.00  0.00     0.015 C 
BRANCH   5   6
ATOM      6  C   UNL     1       3.563  16.782  -6.236  1.00  0.00     0.028 C 
BRANCH   6   7
ATOM      7  C   UNL     1       4.131  16.299  -7.549  1.00  0.00    -0.028 C 
ATOM      8  C   UNL     1       5.152  15.425  -7.713  1.00  0.00    -0.070 CG0
ATOM      9  C   UNL     1       5.584  15.113  -9.125  1.00  0.00     0.039 C 
ATOM     10  G   UNL     1       5.865  14.718  -6.573  1.00  0.00     0.000 G0
ENDBRANCH   6   7
ENDBRANCH   5   6
ENDBRANCH   3   5
ENDBRANCH   1   3
BRANCH   1  11
ATOM     11  C   UNL     1       2.861  12.888  -5.745  1.00  0.00     0.087 C 
BRANCH  11  12
ATOM     12  C   UNL     1       3.914  12.841  -6.889  1.00  0.00     0.066 C 
BRANCH  12  13
ATOM     13  C   UNL     1       5.326  13.276  -6.499  1.00  0.00     0.140 C 
ATOM     14  O   UNL     1       6.068  12.424  -6.029  1.00  0.00    -0.299 OA
BRANCH  13  15
ATOM     15  C   UNL     1       5.855  14.692  -6.607  1.00  0.00     0.106 CG0
ATOM     16  G   UNL     1       5.148  15.459  -7.713  1.00  0.00     0.000 G0
ENDBRANCH  13  15
ENDBRANCH  12  13
BRANCH  12  17
ATOM     17  C   UNL     1       3.983  11.446  -7.590  1.00  0.00    -0.006 C 
ATOM     18  C   UNL     1       4.736  11.492  -8.931  1.00  0.00     0.008 C 
ATOM     19  C   UNL     1       2.603  10.793  -7.774  1.00  0.00     0.008 C 
ENDBRANCH  12  17
ENDBRANCH  11  12
ENDBRANCH   1  11
TORSDOF 1
ENDMDL
MODEL 6
REMARK VINA RESULT:    -2.999      1.802      4.744
REMARK INTER + INTRA:          -4.049
REMARK INTER:                  -5.046
REMARK INTRA:                   0.997
REMARK UNBOUND:                 0.528
REMARK SMILES CC1=CCC[C@H](C)C(=O)C[C@H](C(C)C)C(=O)C1
REMARK SMILES IDX 8 1 9 2 6 3 7 4 5 5 4 6 3 7 2 8 1 9 10 11 11 12 15 13 16 14
REMARK SMILES IDX 17 15 12 17 13 18 14 19
REMARK H PARENT
REMARK Flexibility Score: 70.00
ROOT
ATOM      1  C   UNL     1       4.559  16.114  -6.577  1.00  0.00     0.136 C 
ATOM      2  O   UNL     1       4.319  16.413  -7.738  1.00  0.00    -0.299 OA
ENDROOT
BRANCH   1   3
ATOM      3  C   UNL     1       3.734  16.775  -5.482  1.00  0.00     0.053 C 
ATOM      4  C   UNL     1       4.212  18.219  -5.288  1.00  0.00     0.016 C 
BRANCH   3   5
ATOM      5  C   UNL     1       2.229  16.753  -5.823  1.00  0.00     0.015 C 
BRANCH   5   6
ATOM      6  C   UNL     1       1.632  15.338  -5.891  1.00  0.00     0.028 C 
BRANCH   6   7
ATOM      7  C   UNL     1       1.678  14.764  -7.286  1.00  0.00    -0.028 C 
ATOM      8  C   UNL     1       2.233  13.584  -7.655  1.00  0.00    -0.070 CG0
ATOM      9  C   UNL     1       2.202  13.225  -9.120  1.00  0.00     0.039 C 
ATOM     10  G   UNL     1       2.854  12.591  -6.687  1.00  0.00     0.000 G0
ENDBRANCH   6   7
ENDBRANCH   5   6
ENDBRANCH   3   5
ENDBRANCH   1   3
BRANCH   1  11
ATOM     11  C   UNL     1       5.685  15.125  -6.339  1.00  0.00     0.087 C 
BRANCH  11  12
ATOM     12  C   UNL     1       5.331  13.612  -6.422  1.00  0.00     0.066 C 
BRANCH  12  13
ATOM     13  C   UNL     1       3.954  13.230  -5.883  1.00  0.00     0.140 C 
ATOM     14  O   UNL     1       3.740  13.429  -4.694  1.00  0.00    -0.299 OA
BRANCH  13  15
ATOM     15  C   UNL     1       2.855  12.581  -6.700  1.00  0.00     0.106 CG0
ATOM     16  G   UNL     1       2.233  13.573  -7.669  1.00  0.00     0.000 G0
ENDBRANCH  13  15
ENDBRANCH  12  13
BRANCH  12  17
ATOM     17  C   UNL     1       5.498  13.030  -7.863  1.00  0.00    -0.006 C 
ATOM     18  C   UNL     1       6.016  11.582  -7.862  1.00  0.00     0.008 C 
ATOM     19  C   UNL     1       6.370  13.911  -8.772  1.00  0.00     0.008 C 
ENDBRANCH  12  17
ENDBRANCH  11  12
ENDBRANCH   1  11
TORSDOF 1
ENDMDL
MODEL 7
REMARK VINA RESULT:    -2.699      1.711      3.754
REMARK INTER + INTRA:          -3.591
REMARK INTER:                  -5.604
REMARK INTRA:                   2.013
REMARK UNBOUND:                 0.528
REMARK SMILES CC1=CCC[C@H](C)C(=O)C[C@H](C(C)C)C(=O)C1
REMARK SMILES IDX 8 1 9 2 6 3 7 4 5 5 4 6 3 7 2 8 1 9 10 11 11 12 15 13 16 14
REMARK SMILES IDX 17 15 12 17 13 18 14 19
REMARK H PARENT
REMARK Flexibility Score: 70.00
ROOT
ATOM      1  C   UNL     1       3.539  15.153  -4.860  1.00  0.00     0.136 C 
ATOM      2  O   UNL     1       3.598  14.457  -3.857  1.00  0.00    -0.299 OA
ENDROOT
BRANCH   1   3
ATOM      3  C   UNL     1       2.163  15.481  -5.425  1.00  0.00     0.053 C 
ATOM      4  C   UNL     1       2.215  16.841  -6.129  1.00  0.00     0.016 C 
BRANCH   3   5
ATOM      5  C   UNL     1       1.686  14.389  -6.406  1.00  0.00     0.015 C 
BRANCH   5   6
ATOM      6  C   UNL     1       1.998  14.703  -7.878  1.00  0.00     0.028 C 
BRANCH   6   7
ATOM      7  C   UNL     1       2.569  13.510  -8.608  1.00  0.00    -0.028 C 
ATOM      8  C   UNL     1       3.408  12.578  -8.096  1.00  0.00    -0.070 CG0
ATOM      9  C   UNL     1       3.889  11.488  -9.022  1.00  0.00     0.039 C 
ATOM     10  G   UNL     1       3.868  12.542  -6.648  1.00  0.00     0.000 G0
ENDBRANCH   6   7
ENDBRANCH   5   6
ENDBRANCH   3   5
ENDBRANCH   1   3
BRANCH   1  11
ATOM     11  C   UNL     1       4.855  15.603  -5.465  1.00  0.00     0.087 C 
BRANCH  11  12
ATOM     12  C   UNL     1       5.461  14.717  -6.590  1.00  0.00     0.066 C 
BRANCH  12  13
ATOM     13  C   UNL     1       5.214  13.216  -6.447  1.00  0.00     0.140 C 
ATOM     14  O   UNL     1       6.181  12.508  -6.199  1.00  0.00    -0.299 OA
BRANCH  13  15
ATOM     15  C   UNL     1       3.872  12.538  -6.637  1.00  0.00     0.106 CG0
ATOM     16  G   UNL     1       3.430  12.596  -8.090  1.00  0.00     0.000 G0
ENDBRANCH  13  15
ENDBRANCH  12  13
BRANCH  12  17
ATOM     17  C   UNL     1       5.026  15.174  -8.020  1.00  0.00    -0.006 C 
ATOM     18  C   UNL     1       6.001  14.708  -9.114  1.00  0.00     0.008 C 
ATOM     19  C   UNL     1       4.791  16.690  -8.123  1.00  0.00     0.008 C 
ENDBRANCH  12  17
ENDBRANCH  11  12
ENDBRANCH   1  11
TORSDOF 1
ENDMDL
MODEL 8
REMARK VINA RESULT:    -2.616      1.862      3.513
REMARK INTER + INTRA:          -3.464
REMARK INTER:                  -5.788
REMARK INTRA:                   2.323
REMARK UNBOUND:                 0.528
REMARK SMILES CC1=CCC[C@H](C)C(=O)C[C@H](C(C)C)C(=O)C1
REMARK SMILES IDX 8 1 9 2 6 3 7 4 5 5 4 6 3 7 2 8 1 9 10 11 11 12 15 13 16 14
REMARK SMILES IDX 17 15 12 17 13 18 14 19
REMARK H PARENT
REMARK Flexibility Score: 70.00
ROOT
ATOM      1  C   UNL     1       5.028  15.032  -7.596  1.00  0.00     0.136 C 
ATOM      2  O   UNL     1       5.574  15.217  -6.518  1.00  0.00    -0.299 OA
ENDROOT
BRANCH   1   3
ATOM      3  C   UNL     1       5.754  14.182  -8.630  1.00  0.00     0.053 C 
ATOM      4  C   UNL     1       6.995  14.934  -9.124  1.00  0.00     0.016 C 
BRANCH   3   5
ATOM      5  C   UNL     1       6.158  12.812  -8.045  1.00  0.00     0.015 C 
BRANCH   5   6
ATOM      6  C   UNL     1       5.177  12.277  -6.990  1.00  0.00     0.028 C 
BRANCH   6   7
ATOM      7  C   UNL     1       4.256  11.220  -7.551  1.00  0.00    -0.028 C 
ATOM      8  C   UNL     1       3.065  11.430  -8.162  1.00  0.00    -0.070 CG0
ATOM      9  C   UNL     1       2.288  10.217  -8.611  1.00  0.00     0.039 C 
ATOM     10  G   UNL     1       2.482  12.803  -8.452  1.00  0.00     0.000 G0
ENDBRANCH   6   7
ENDBRANCH   5   6
ENDBRANCH   3   5
ENDBRANCH   1   3
BRANCH   1  11
ATOM     11  C   UNL     1       3.681  15.696  -7.810  1.00  0.00     0.087 C 
BRANCH  11  12
ATOM     12  C   UNL     1       2.465  15.102  -7.043  1.00  0.00     0.066 C 
BRANCH  12  13
ATOM     13  C   UNL     1       2.297  13.587  -7.154  1.00  0.00     0.140 C 
ATOM     14  O   UNL     1       2.047  12.972  -6.125  1.00  0.00    -0.299 OA
BRANCH  13  15
ATOM     15  C   UNL     1       2.466  12.789  -8.431  1.00  0.00     0.106 CG0
ATOM     16  G   UNL     1       3.092  11.433  -8.152  1.00  0.00     0.000 G0
ENDBRANCH  13  15
ENDBRANCH  12  13
BRANCH  12  17
ATOM     17  C   UNL     1       2.443  15.511  -5.535  1.00  0.00    -0.006 C 
ATOM     18  C   UNL     1       2.856  16.976  -5.312  1.00  0.00     0.008 C 
ATOM     19  C   UNL     1       3.279  14.578  -4.644  1.00  0.00     0.008 C 
ENDBRANCH  12  17
ENDBRANCH  11  12
ENDBRANCH   1  11
TORSDOF 1
ENDMDL
MODEL 9
REMARK VINA RESULT:    -2.083      1.920      4.008
REMARK INTER + INTRA:          -2.650
REMARK INTER:                  -3.258
REMARK INTRA:                   0.608
REMARK UNBOUND:                 0.528
REMARK SMILES CC1=CCC[C@H](C)C(=O)C[C@H](C(C)C)C(=O)C1
REMARK SMILES IDX 8 1 9 2 6 3 7 4 5 5 4 6 3 7 2 8 1 9 10 11 11 12 15 13 16 14
REMARK SMILES IDX 17 15 12 17 13 18 14 19
REMARK H PARENT
REMARK Flexibility Score: 70.00
ROOT
ATOM      1  C   UNL     1       3.550  14.308  -9.105  1.00  0.00     0.136 C 
ATOM      2  O   UNL     1       3.593  15.530  -9.108  1.00  0.00    -0.299 OA
ENDROOT
BRANCH   1   3
ATOM      3  C   UNL     1       2.183  13.639  -9.104  1.00  0.00     0.053 C 
ATOM      4  C   UNL     1       2.350  12.143  -8.816  1.00  0.00     0.016 C 
BRANCH   3   5
ATOM      5  C   UNL     1       1.245  14.282  -8.061  1.00  0.00     0.015 C 
BRANCH   5   6
ATOM      6  C   UNL     1       1.784  14.217  -6.623  1.00  0.00     0.028 C 
BRANCH   6   7
ATOM      7  C   UNL     1       2.269  15.560  -6.132  1.00  0.00    -0.028 C 
ATOM      8  C   UNL     1       3.503  15.844  -5.650  1.00  0.00    -0.070 CG0
ATOM      9  C   UNL     1       3.758  17.253  -5.174  1.00  0.00     0.039 C 
ATOM     10  G   UNL     1       4.648  14.848  -5.587  1.00  0.00     0.000 G0
ENDBRANCH   6   7
ENDBRANCH   5   6
ENDBRANCH   3   5
ENDBRANCH   1   3
BRANCH   1  11
ATOM     11  C   UNL     1       4.877  13.572  -9.074  1.00  0.00     0.087 C 
BRANCH  11  12
ATOM     12  C   UNL     1       5.676  13.603  -7.739  1.00  0.00     0.066 C 
BRANCH  12  13
ATOM     13  C   UNL     1       5.443  14.833  -6.864  1.00  0.00     0.140 C 
ATOM     14  O   UNL     1       5.983  15.877  -7.206  1.00  0.00    -0.299 OA
BRANCH  13  15
ATOM     15  C   UNL     1       4.635  14.842  -5.582  1.00  0.00     0.106 CG0
ATOM     16  G   UNL     1       3.500  15.850  -5.656  1.00  0.00     0.000 G0
ENDBRANCH  13  15
ENDBRANCH  12  13
BRANCH  12  17
ATOM     17  C   UNL     1       5.466  12.315  -6.880  1.00  0.00    -0.006 C 
ATOM     18  C   UNL     1       6.563  12.124  -5.819  1.00  0.00     0.008 C 
ATOM     19  C   UNL     1       5.314  11.041  -7.728  1.00  0.00     0.008 C 
ENDBRANCH  12  17
ENDBRANCH  11  12
ENDBRANCH   1  11
TORSDOF 1
ENDMDL
