MODEL 1
REMARK VINA RESULT:    -7.709      0.000      0.000
REMARK INTER + INTRA:          -9.857
REMARK INTER:                  -9.512
REMARK INTRA:                  -0.345
REMARK UNBOUND:                -0.345
REMARK SMILES COc1cc(-c2oc3cc(O)cc(O)c3c(=O)c2O)ccc1O
REMARK SMILES IDX 6 1 18 2 16 3 17 4 15 5 13 6 12 7 10 8 9 9 8 10 7 11 5 12
REMARK SMILES IDX 3 13 22 14 4 15 21 16 20 17 2 18 1 19 23 20 19 22 14 24
REMARK SMILES IDX 11 26
REMARK H PARENT 23 21 19 23 14 25 11 27
REMARK Flexibility Score: inf
ROOT
ATOM      1  C   UNL     1      17.377  25.634  -0.123  1.00  0.00     0.180 A 
ATOM      2  C   UNL     1      18.202  25.808  -1.251  1.00  0.00     0.208 A 
ATOM      3  C   UNL     1      19.055  26.920  -1.302  1.00  0.00     0.238 A 
ATOM      4  O   UNL     1      19.807  27.081  -2.303  1.00  0.00    -0.285 OA
ATOM      5  C   UNL     1      19.057  27.848  -0.239  1.00  0.00     0.111 A 
ATOM      6  C   UNL     1      19.883  28.997  -0.215  1.00  0.00     0.134 A 
ATOM      7  C   UNL     1      19.819  29.876   0.876  1.00  0.00     0.093 A 
ATOM      8  C   UNL     1      18.946  29.631   1.939  1.00  0.00     0.123 A 
ATOM      9  C   UNL     1      18.128  28.498   1.920  1.00  0.00     0.094 A 
ATOM     10  C   UNL     1      18.178  27.608   0.843  1.00  0.00     0.146 A 
ATOM     11  O   UNL     1      17.394  26.536   0.854  1.00  0.00    -0.452 OA
ENDROOT
BRANCH   1  12
ATOM     12  C   UNL     1      16.464  24.476   0.012  1.00  0.00     0.025 A 
ATOM     13  C   UNL     1      16.063  22.108   0.481  1.00  0.00     0.161 A 
ATOM     14  C   UNL     1      14.687  22.317   0.313  1.00  0.00     0.157 A 
ATOM     15  C   UNL     1      16.948  23.195   0.336  1.00  0.00     0.062 A 
ATOM     16  C   UNL     1      14.201  23.594   0.013  1.00  0.00     0.051 A 
ATOM     17  C   UNL     1      15.082  24.668  -0.130  1.00  0.00     0.016 A 
BRANCH  13  18
ATOM     18  O   UNL     1      16.511  20.815   0.793  1.00  0.00    -0.493 OA
ATOM     19  C   UNL     1      17.768  20.279   0.391  1.00  0.00     0.278 C 
ENDBRANCH  13  18
BRANCH  14  20
ATOM     20  O   UNL     1      13.806  21.245   0.452  1.00  0.00    -0.504 OA
ATOM     21  H   UNL     1      13.899  20.576   1.208  1.00  0.00     0.293 HD
ENDBRANCH  14  20
ENDBRANCH   1  12
BRANCH   2  22
ATOM     22  O   UNL     1      18.146  24.900  -2.313  1.00  0.00    -0.502 OA
ATOM     23  H   UNL     1      17.368  24.869  -2.960  1.00  0.00     0.293 HD
ENDBRANCH   2  22
BRANCH   6  24
ATOM     24  O   UNL     1      20.765  29.270  -1.262  1.00  0.00    -0.507 OA
ATOM     25  H   UNL     1      20.445  29.350  -2.220  1.00  0.00     0.293 HD
ENDBRANCH   6  24
BRANCH   8  26
ATOM     26  O   UNL     1      18.902  30.522   3.009  1.00  0.00    -0.508 OA
ATOM     27  H   UNL     1      19.235  31.475   2.918  1.00  0.00     0.293 HD
ENDBRANCH   8  26
TORSDOF 6
ENDMDL
MODEL 2
REMARK VINA RESULT:    -7.590      1.782      7.396
REMARK INTER + INTRA:          -9.710
REMARK INTER:                  -9.691
REMARK INTRA:                  -0.018
REMARK UNBOUND:                -0.345
REMARK SMILES COc1cc(-c2oc3cc(O)cc(O)c3c(=O)c2O)ccc1O
REMARK SMILES IDX 6 1 18 2 16 3 17 4 15 5 13 6 12 7 10 8 9 9 8 10 7 11 5 12
REMARK SMILES IDX 3 13 22 14 4 15 21 16 20 17 2 18 1 19 23 20 19 22 14 24
REMARK SMILES IDX 11 26
REMARK H PARENT 23 21 19 23 14 25 11 27
REMARK Flexibility Score: inf
ROOT
ATOM      1  C   UNL     1      16.943  26.792   0.179  1.00  0.00     0.180 A 
ATOM      2  C   UNL     1      15.640  26.888  -0.344  1.00  0.00     0.208 A 
ATOM      3  C   UNL     1      14.877  25.720  -0.483  1.00  0.00     0.238 A 
ATOM      4  O   UNL     1      13.704  25.795  -0.941  1.00  0.00    -0.285 OA
ATOM      5  C   UNL     1      15.432  24.476  -0.118  1.00  0.00     0.111 A 
ATOM      6  C   UNL     1      14.731  23.251  -0.231  1.00  0.00     0.134 A 
ATOM      7  C   UNL     1      15.358  22.054   0.146  1.00  0.00     0.093 A 
ATOM      8  C   UNL     1      16.668  22.057   0.631  1.00  0.00     0.123 A 
ATOM      9  C   UNL     1      17.365  23.264   0.745  1.00  0.00     0.094 A 
ATOM     10  C   UNL     1      16.758  24.468   0.376  1.00  0.00     0.146 A 
ATOM     11  O   UNL     1      17.441  25.600   0.500  1.00  0.00    -0.452 OA
ENDROOT
BRANCH   1  12
ATOM     12  C   UNL     1      17.803  27.982   0.374  1.00  0.00     0.025 A 
ATOM     13  C   UNL     1      18.135  30.281   1.141  1.00  0.00     0.161 A 
ATOM     14  C   UNL     1      19.486  30.198   0.775  1.00  0.00     0.157 A 
ATOM     15  C   UNL     1      17.298  29.164   0.944  1.00  0.00     0.062 A 
ATOM     16  C   UNL     1      19.996  29.015   0.229  1.00  0.00     0.051 A 
ATOM     17  C   UNL     1      19.163  27.912   0.036  1.00  0.00     0.016 A 
BRANCH  13  18
ATOM     18  O   UNL     1      17.665  31.481   1.696  1.00  0.00    -0.493 OA
ATOM     19  C   UNL     1      16.568  32.231   1.183  1.00  0.00     0.278 C 
ENDBRANCH  13  18
BRANCH  14  20
ATOM     20  O   UNL     1      20.319  31.301   0.964  1.00  0.00    -0.504 OA
ATOM     21  H   UNL     1      20.829  31.438   1.829  1.00  0.00     0.293 HD
ENDBRANCH  14  20
ENDBRANCH   1  12
BRANCH   2  22
ATOM     22  O   UNL     1      15.130  28.127  -0.744  1.00  0.00    -0.502 OA
ATOM     23  H   UNL     1      15.722  28.935  -0.892  1.00  0.00     0.293 HD
ENDBRANCH   2  22
BRANCH   6  24
ATOM     24  O   UNL     1      13.422  23.214  -0.712  1.00  0.00    -0.507 OA
ATOM     25  H   UNL     1      13.087  23.882  -1.397  1.00  0.00     0.293 HD
ENDBRANCH   6  24
BRANCH   8  26
ATOM     26  O   UNL     1      17.267  20.853   0.997  1.00  0.00    -0.508 OA
ATOM     27  H   UNL     1      18.086  20.830   1.592  1.00  0.00     0.293 HD
ENDBRANCH   8  26
TORSDOF 6
ENDMDL
MODEL 3
REMARK VINA RESULT:    -7.090      3.712      6.367
REMARK INTER + INTRA:          -9.093
REMARK INTER:                  -8.777
REMARK INTRA:                  -0.316
REMARK UNBOUND:                -0.345
REMARK SMILES COc1cc(-c2oc3cc(O)cc(O)c3c(=O)c2O)ccc1O
REMARK SMILES IDX 6 1 18 2 16 3 17 4 15 5 13 6 12 7 10 8 9 9 8 10 7 11 5 12
REMARK SMILES IDX 3 13 22 14 4 15 21 16 20 17 2 18 1 19 23 20 19 22 14 24
REMARK SMILES IDX 11 26
REMARK H PARENT 23 21 19 23 14 25 11 27
REMARK Flexibility Score: inf
ROOT
ATOM      1  C   UNL     1      17.241  26.609  -2.545  1.00  0.00     0.180 A 
ATOM      2  C   UNL     1      18.453  26.601  -3.261  1.00  0.00     0.208 A 
ATOM      3  C   UNL     1      18.413  26.645  -4.663  1.00  0.00     0.238 A 
ATOM      4  O   UNL     1      19.493  26.649  -5.315  1.00  0.00    -0.285 OA
ATOM      5  C   UNL     1      17.168  26.677  -5.325  1.00  0.00     0.111 A 
ATOM      6  C   UNL     1      17.040  26.718  -6.734  1.00  0.00     0.134 A 
ATOM      7  C   UNL     1      15.764  26.738  -7.316  1.00  0.00     0.093 A 
ATOM      8  C   UNL     1      14.617  26.716  -6.520  1.00  0.00     0.123 A 
ATOM      9  C   UNL     1      14.737  26.676  -5.127  1.00  0.00     0.094 A 
ATOM     10  C   UNL     1      15.999  26.657  -4.527  1.00  0.00     0.146 A 
ATOM     11  O   UNL     1      16.085  26.624  -3.202  1.00  0.00    -0.452 OA
ENDROOT
BRANCH   1  12
ATOM     12  C   UNL     1      17.202  26.583  -1.065  1.00  0.00     0.025 A 
ATOM     13  C   UNL     1      17.538  27.662   1.105  1.00  0.00     0.161 A 
ATOM     14  C   UNL     1      17.059  26.509   1.742  1.00  0.00     0.157 A 
ATOM     15  C   UNL     1      17.601  27.696  -0.303  1.00  0.00     0.062 A 
ATOM     16  C   UNL     1      16.640  25.409   0.985  1.00  0.00     0.051 A 
ATOM     17  C   UNL     1      16.704  25.448  -0.409  1.00  0.00     0.016 A 
BRANCH  13  18
ATOM     18  O   UNL     1      17.938  28.748   1.899  1.00  0.00    -0.493 OA
ATOM     19  C   UNL     1      19.161  29.460   1.734  1.00  0.00     0.278 C 
ENDBRANCH  13  18
BRANCH  14  20
ATOM     20  O   UNL     1      16.997  26.467   3.135  1.00  0.00    -0.504 OA
ATOM     21  H   UNL     1      17.783  26.750   3.709  1.00  0.00     0.293 HD
ENDBRANCH  14  20
ENDBRANCH   1  12
BRANCH   2  22
ATOM     22  O   UNL     1      19.673  26.520  -2.583  1.00  0.00    -0.502 OA
ATOM     23  H   UNL     1      19.821  26.952  -1.680  1.00  0.00     0.293 HD
ENDBRANCH   2  22
BRANCH   6  24
ATOM     24  O   UNL     1      18.167  26.739  -7.557  1.00  0.00    -0.507 OA
ATOM     25  H   UNL     1      18.981  26.168  -7.361  1.00  0.00     0.293 HD
ENDBRANCH   6  24
BRANCH   8  26
ATOM     26  O   UNL     1      13.362  26.736  -7.124  1.00  0.00    -0.508 OA
ATOM     27  H   UNL     1      13.255  26.627  -8.126  1.00  0.00     0.293 HD
ENDBRANCH   8  26
TORSDOF 6
ENDMDL
MODEL 4
REMARK VINA RESULT:    -7.075      3.799      5.864
REMARK INTER + INTRA:          -9.074
REMARK INTER:                  -8.783
REMARK INTRA:                  -0.292
REMARK UNBOUND:                -0.345
REMARK SMILES COc1cc(-c2oc3cc(O)cc(O)c3c(=O)c2O)ccc1O
REMARK SMILES IDX 6 1 18 2 16 3 17 4 15 5 13 6 12 7 10 8 9 9 8 10 7 11 5 12
REMARK SMILES IDX 3 13 22 14 4 15 21 16 20 17 2 18 1 19 23 20 19 22 14 24
REMARK SMILES IDX 11 26
REMARK H PARENT 23 21 19 23 14 25 11 27
REMARK Flexibility Score: inf
ROOT
ATOM      1  C   UNL     1      17.055  26.626  -2.541  1.00  0.00     0.180 A 
ATOM      2  C   UNL     1      18.301  26.536  -3.190  1.00  0.00     0.208 A 
ATOM      3  C   UNL     1      18.344  26.620  -4.590  1.00  0.00     0.238 A 
ATOM      4  O   UNL     1      19.455  26.552  -5.183  1.00  0.00    -0.285 OA
ATOM      5  C   UNL     1      17.145  26.772  -5.317  1.00  0.00     0.111 A 
ATOM      6  C   UNL     1      17.100  26.860  -6.729  1.00  0.00     0.134 A 
ATOM      7  C   UNL     1      15.865  27.001  -7.378  1.00  0.00     0.093 A 
ATOM      8  C   UNL     1      14.676  27.053  -6.646  1.00  0.00     0.123 A 
ATOM      9  C   UNL     1      14.714  26.966  -5.251  1.00  0.00     0.094 A 
ATOM     10  C   UNL     1      15.935  26.827  -4.585  1.00  0.00     0.146 A 
ATOM     11  O   UNL     1      15.943  26.753  -3.258  1.00  0.00    -0.452 OA
ENDROOT
BRANCH   1  12
ATOM     12  C   UNL     1      16.931  26.565  -1.066  1.00  0.00     0.025 A 
ATOM     13  C   UNL     1      16.316  25.380   0.983  1.00  0.00     0.161 A 
ATOM     14  C   UNL     1      16.765  26.471   1.739  1.00  0.00     0.157 A 
ATOM     15  C   UNL     1      16.408  25.429  -0.422  1.00  0.00     0.062 A 
ATOM     16  C   UNL     1      17.306  27.593   1.102  1.00  0.00     0.051 A 
ATOM     17  C   UNL     1      17.396  27.638  -0.291  1.00  0.00     0.016 A 
BRANCH  13  18
ATOM     18  O   UNL     1      15.790  24.268   1.661  1.00  0.00    -0.493 OA
ATOM     19  C   UNL     1      14.785  23.406   1.136  1.00  0.00     0.278 C 
ENDBRANCH  13  18
BRANCH  14  20
ATOM     20  O   UNL     1      16.673  26.430   3.130  1.00  0.00    -0.504 OA
ATOM     21  H   UNL     1      16.322  25.612   3.615  1.00  0.00     0.293 HD
ENDBRANCH  14  20
ENDBRANCH   1  12
BRANCH   2  22
ATOM     22  O   UNL     1      19.470  26.337  -2.450  1.00  0.00    -0.502 OA
ATOM     23  H   UNL     1      19.473  26.309  -1.438  1.00  0.00     0.293 HD
ENDBRANCH   2  22
BRANCH   6  24
ATOM     24  O   UNL     1      18.270  26.809  -7.489  1.00  0.00    -0.507 OA
ATOM     25  H   UNL     1      18.336  27.259  -8.394  1.00  0.00     0.293 HD
ENDBRANCH   6  24
BRANCH   8  26
ATOM     26  O   UNL     1      13.463  27.192  -7.317  1.00  0.00    -0.508 OA
ATOM     27  H   UNL     1      13.090  26.448  -7.894  1.00  0.00     0.293 HD
ENDBRANCH   8  26
TORSDOF 6
ENDMDL
MODEL 5
REMARK VINA RESULT:    -6.841      6.909      8.780
REMARK INTER + INTRA:          -8.786
REMARK INTER:                  -8.391
REMARK INTRA:                  -0.395
REMARK UNBOUND:                -0.345
REMARK SMILES COc1cc(-c2oc3cc(O)cc(O)c3c(=O)c2O)ccc1O
REMARK SMILES IDX 6 1 18 2 16 3 17 4 15 5 13 6 12 7 10 8 9 9 8 10 7 11 5 12
REMARK SMILES IDX 3 13 22 14 4 15 21 16 20 17 2 18 1 19 23 20 19 22 14 24
REMARK SMILES IDX 11 26
REMARK H PARENT 23 21 19 23 14 25 11 27
REMARK Flexibility Score: inf
ROOT
ATOM      1  C   UNL     1      15.254  26.715  -6.576  1.00  0.00     0.180 A 
ATOM      2  C   UNL     1      15.196  26.706  -5.170  1.00  0.00     0.208 A 
ATOM      3  C   UNL     1      16.394  26.703  -4.441  1.00  0.00     0.238 A 
ATOM      4  O   UNL     1      16.355  26.705  -3.180  1.00  0.00    -0.285 OA
ATOM      5  C   UNL     1      17.627  26.687  -5.126  1.00  0.00     0.111 A 
ATOM      6  C   UNL     1      18.880  26.678  -4.467  1.00  0.00     0.134 A 
ATOM      7  C   UNL     1      20.062  26.654  -5.221  1.00  0.00     0.093 A 
ATOM      8  C   UNL     1      20.017  26.636  -6.617  1.00  0.00     0.123 A 
ATOM      9  C   UNL     1      18.782  26.646  -7.273  1.00  0.00     0.094 A 
ATOM     10  C   UNL     1      17.593  26.672  -6.540  1.00  0.00     0.146 A 
ATOM     11  O   UNL     1      16.434  26.686  -7.189  1.00  0.00    -0.452 OA
ENDROOT
BRANCH   1  12
ATOM     12  C   UNL     1      14.033  26.739  -7.414  1.00  0.00     0.025 A 
ATOM     13  C   UNL     1      12.243  27.954  -8.555  1.00  0.00     0.161 A 
ATOM     14  C   UNL     1      11.748  26.741  -9.053  1.00  0.00     0.157 A 
ATOM     15  C   UNL     1      13.392  27.948  -7.740  1.00  0.00     0.062 A 
ATOM     16  C   UNL     1      12.397  25.539  -8.749  1.00  0.00     0.051 A 
ATOM     17  C   UNL     1      13.536  25.538  -7.940  1.00  0.00     0.016 A 
BRANCH  13  18
ATOM     18  O   UNL     1      11.570  29.140  -8.892  1.00  0.00    -0.493 OA
ATOM     19  C   UNL     1      12.040  30.448  -8.583  1.00  0.00     0.278 C 
ENDBRANCH  13  18
BRANCH  14  20
ATOM     20  O   UNL     1      10.609  26.740  -9.858  1.00  0.00    -0.504 OA
ATOM     21  H   UNL     1      10.151  27.602 -10.131  1.00  0.00     0.293 HD
ENDBRANCH  14  20
ENDBRANCH   1  12
BRANCH   2  22
ATOM     22  O   UNL     1      13.961  26.673  -4.514  1.00  0.00    -0.502 OA
ATOM     23  H   UNL     1      13.102  26.421  -4.988  1.00  0.00     0.293 HD
ENDBRANCH   2  22
BRANCH   6  24
ATOM     24  O   UNL     1      18.959  26.693  -3.073  1.00  0.00    -0.507 OA
ATOM     25  H   UNL     1      18.739  27.524  -2.537  1.00  0.00     0.293 HD
ENDBRANCH   6  24
BRANCH   8  26
ATOM     26  O   UNL     1      21.207  26.611  -7.342  1.00  0.00    -0.508 OA
ATOM     27  H   UNL     1      21.503  27.404  -7.899  1.00  0.00     0.293 HD
ENDBRANCH   8  26
TORSDOF 6
ENDMDL
MODEL 6
REMARK VINA RESULT:    -6.835      3.541      6.244
REMARK INTER + INTRA:          -8.778
REMARK INTER:                  -8.516
REMARK INTRA:                  -0.262
REMARK UNBOUND:                -0.345
REMARK SMILES COc1cc(-c2oc3cc(O)cc(O)c3c(=O)c2O)ccc1O
REMARK SMILES IDX 6 1 18 2 16 3 17 4 15 5 13 6 12 7 10 8 9 9 8 10 7 11 5 12
REMARK SMILES IDX 3 13 22 14 4 15 21 16 20 17 2 18 1 19 23 20 19 22 14 24
REMARK SMILES IDX 11 26
REMARK H PARENT 23 21 19 23 14 25 11 27
REMARK Flexibility Score: inf
ROOT
ATOM      1  C   UNL     1      17.125  26.533  -2.539  1.00  0.00     0.180 A 
ATOM      2  C   UNL     1      15.928  26.574  -3.279  1.00  0.00     0.208 A 
ATOM      3  C   UNL     1      15.998  26.628  -4.679  1.00  0.00     0.238 A 
ATOM      4  O   UNL     1      14.932  26.654  -5.354  1.00  0.00    -0.285 OA
ATOM      5  C   UNL     1      17.257  26.660  -5.315  1.00  0.00     0.111 A 
ATOM      6  C   UNL     1      17.414  26.719  -6.720  1.00  0.00     0.134 A 
ATOM      7  C   UNL     1      18.702  26.756  -7.275  1.00  0.00     0.093 A 
ATOM      8  C   UNL     1      19.833  26.739  -6.454  1.00  0.00     0.123 A 
ATOM      9  C   UNL     1      19.683  26.681  -5.065  1.00  0.00     0.094 A 
ATOM     10  C   UNL     1      18.408  26.641  -4.492  1.00  0.00     0.146 A 
ATOM     11  O   UNL     1      18.295  26.580  -3.170  1.00  0.00    -0.452 OA
ENDROOT
BRANCH   1  12
ATOM     12  C   UNL     1      17.133  26.457  -1.060  1.00  0.00     0.025 A 
ATOM     13  C   UNL     1      17.536  27.461   1.134  1.00  0.00     0.161 A 
ATOM     14  C   UNL     1      17.079  26.287   1.746  1.00  0.00     0.157 A 
ATOM     15  C   UNL     1      17.555  27.544  -0.273  1.00  0.00     0.062 A 
ATOM     16  C   UNL     1      16.637  25.212   0.965  1.00  0.00     0.051 A 
ATOM     17  C   UNL     1      16.657  25.298  -0.428  1.00  0.00     0.016 A 
BRANCH  13  18
ATOM     18  O   UNL     1      17.960  28.521   1.951  1.00  0.00    -0.493 OA
ATOM     19  C   UNL     1      19.062  29.374   1.658  1.00  0.00     0.278 C 
ENDBRANCH  13  18
BRANCH  14  20
ATOM     20  O   UNL     1      17.062  26.197   3.138  1.00  0.00    -0.504 OA
ATOM     21  H   UNL     1      16.820  26.993   3.717  1.00  0.00     0.293 HD
ENDBRANCH  14  20
ENDBRANCH   1  12
BRANCH   2  22
ATOM     22  O   UNL     1      14.693  26.591  -2.624  1.00  0.00    -0.502 OA
ATOM     23  H   UNL     1      14.191  27.449  -2.435  1.00  0.00     0.293 HD
ENDBRANCH   2  22
BRANCH   6  24
ATOM     24  O   UNL     1      16.305  26.738  -7.567  1.00  0.00    -0.507 OA
ATOM     25  H   UNL     1      15.655  25.962  -7.612  1.00  0.00     0.293 HD
ENDBRANCH   6  24
BRANCH   8  26
ATOM     26  O   UNL     1      21.100  26.779  -7.031  1.00  0.00    -0.508 OA
ATOM     27  H   UNL     1      21.552  27.658  -7.255  1.00  0.00     0.293 HD
ENDBRANCH   8  26
TORSDOF 6
ENDMDL
MODEL 7
REMARK VINA RESULT:    -6.789      3.579      5.768
REMARK INTER + INTRA:          -8.721
REMARK INTER:                  -8.537
REMARK INTRA:                  -0.184
REMARK UNBOUND:                -0.345
REMARK SMILES COc1cc(-c2oc3cc(O)cc(O)c3c(=O)c2O)ccc1O
REMARK SMILES IDX 6 1 18 2 16 3 17 4 15 5 13 6 12 7 10 8 9 9 8 10 7 11 5 12
REMARK SMILES IDX 3 13 22 14 4 15 21 16 20 17 2 18 1 19 23 20 19 22 14 24
REMARK SMILES IDX 11 26
REMARK H PARENT 23 21 19 23 14 25 11 27
REMARK Flexibility Score: inf
ROOT
ATOM      1  C   UNL     1      17.076  26.532  -2.616  1.00  0.00     0.180 A 
ATOM      2  C   UNL     1      15.918  26.534  -3.416  1.00  0.00     0.208 A 
ATOM      3  C   UNL     1      16.057  26.602  -4.810  1.00  0.00     0.238 A 
ATOM      4  O   UNL     1      15.027  26.594  -5.538  1.00  0.00    -0.285 OA
ATOM      5  C   UNL     1      17.344  26.688  -5.380  1.00  0.00     0.111 A 
ATOM      6  C   UNL     1      17.571  26.765  -6.775  1.00  0.00     0.134 A 
ATOM      7  C   UNL     1      18.883  26.857  -7.263  1.00  0.00     0.093 A 
ATOM      8  C   UNL     1      19.970  26.875  -6.385  1.00  0.00     0.123 A 
ATOM      9  C   UNL     1      19.752  26.799  -5.006  1.00  0.00     0.094 A 
ATOM     10  C   UNL     1      18.452  26.705  -4.500  1.00  0.00     0.146 A 
ATOM     11  O   UNL     1      18.274  26.629  -3.186  1.00  0.00    -0.452 OA
ENDROOT
BRANCH   1  12
ATOM     12  C   UNL     1      17.012  26.442  -1.139  1.00  0.00     0.025 A 
ATOM     13  C   UNL     1      16.363  25.272   0.909  1.00  0.00     0.161 A 
ATOM     14  C   UNL     1      16.962  26.287   1.668  1.00  0.00     0.157 A 
ATOM     15  C   UNL     1      16.398  25.352  -0.498  1.00  0.00     0.062 A 
ATOM     16  C   UNL     1      17.593  27.362   1.032  1.00  0.00     0.051 A 
ATOM     17  C   UNL     1      17.625  27.437  -0.362  1.00  0.00     0.016 A 
BRANCH  13  18
ATOM     18  O   UNL     1      15.750  24.205   1.584  1.00  0.00    -0.493 OA
ATOM     19  C   UNL     1      14.806  23.316   0.996  1.00  0.00     0.278 C 
ENDBRANCH  13  18
BRANCH  14  20
ATOM     20  O   UNL     1      16.928  26.217   3.061  1.00  0.00    -0.504 OA
ATOM     21  H   UNL     1      17.688  25.804   3.589  1.00  0.00     0.293 HD
ENDBRANCH  14  20
ENDBRANCH   1  12
BRANCH   2  22
ATOM     22  O   UNL     1      14.652  26.498  -2.825  1.00  0.00    -0.502 OA
ATOM     23  H   UNL     1      13.822  26.830  -3.300  1.00  0.00     0.293 HD
ENDBRANCH   2  22
BRANCH   6  24
ATOM     24  O   UNL     1      16.506  26.751  -7.678  1.00  0.00    -0.507 OA
ATOM     25  H   UNL     1      15.827  25.999  -7.687  1.00  0.00     0.293 HD
ENDBRANCH   6  24
BRANCH   8  26
ATOM     26  O   UNL     1      21.263  26.968  -6.896  1.00  0.00    -0.508 OA
ATOM     27  H   UNL     1      21.618  27.835  -7.281  1.00  0.00     0.293 HD
ENDBRANCH   8  26
TORSDOF 6
ENDMDL
MODEL 8
REMARK VINA RESULT:    -6.689      6.214      9.311
REMARK INTER + INTRA:          -8.599
REMARK INTER:                  -8.202
REMARK INTRA:                  -0.397
REMARK UNBOUND:                -0.345
REMARK SMILES COc1cc(-c2oc3cc(O)cc(O)c3c(=O)c2O)ccc1O
REMARK SMILES IDX 6 1 18 2 16 3 17 4 15 5 13 6 12 7 10 8 9 9 8 10 7 11 5 12
REMARK SMILES IDX 3 13 22 14 4 15 21 16 20 17 2 18 1 19 23 20 19 22 14 24
REMARK SMILES IDX 11 26
REMARK H PARENT 23 21 19 23 14 25 11 27
REMARK Flexibility Score: inf
ROOT
ATOM      1  C   UNL     1      19.358  26.743  -6.526  1.00  0.00     0.180 A 
ATOM      2  C   UNL     1      19.373  26.652  -5.122  1.00  0.00     0.208 A 
ATOM      3  C   UNL     1      18.153  26.606  -4.431  1.00  0.00     0.238 A 
ATOM      4  O   UNL     1      18.154  26.514  -3.173  1.00  0.00    -0.285 OA
ATOM      5  C   UNL     1      16.941  26.672  -5.151  1.00  0.00     0.111 A 
ATOM      6  C   UNL     1      15.669  26.636  -4.531  1.00  0.00     0.134 A 
ATOM      7  C   UNL     1      14.510  26.715  -5.318  1.00  0.00     0.093 A 
ATOM      8  C   UNL     1      14.598  26.832  -6.707  1.00  0.00     0.123 A 
ATOM      9  C   UNL     1      15.852  26.867  -7.324  1.00  0.00     0.094 A 
ATOM     10  C   UNL     1      17.019  26.788  -6.559  1.00  0.00     0.146 A 
ATOM     11  O   UNL     1      18.197  26.818  -7.171  1.00  0.00    -0.452 OA
ENDROOT
BRANCH   1  12
ATOM     12  C   UNL     1      20.604  26.777  -7.326  1.00  0.00     0.025 A 
ATOM     13  C   UNL     1      22.399  25.645  -8.542  1.00  0.00     0.161 A 
ATOM     14  C   UNL     1      22.939  26.891  -8.889  1.00  0.00     0.157 A 
ATOM     15  C   UNL     1      21.225  25.594  -7.765  1.00  0.00     0.062 A 
ATOM     16  C   UNL     1      22.311  28.071  -8.472  1.00  0.00     0.051 A 
ATOM     17  C   UNL     1      21.147  28.015  -7.702  1.00  0.00     0.016 A 
BRANCH  13  18
ATOM     18  O   UNL     1      23.052  24.486  -8.989  1.00  0.00    -0.493 OA
ATOM     19  C   UNL     1      22.509  23.172  -8.906  1.00  0.00     0.278 C 
ENDBRANCH  13  18
BRANCH  14  20
ATOM     20  O   UNL     1      24.103  26.949  -9.655  1.00  0.00    -0.504 OA
ATOM     21  H   UNL     1      24.414  27.813 -10.082  1.00  0.00     0.293 HD
ENDBRANCH  14  20
ENDBRANCH   1  12
BRANCH   2  22
ATOM     22  O   UNL     1      20.587  26.637  -4.428  1.00  0.00    -0.502 OA
ATOM     23  H   UNL     1      21.177  25.816  -4.385  1.00  0.00     0.293 HD
ENDBRANCH   2  22
BRANCH   6  24
ATOM     24  O   UNL     1      15.548  26.522  -3.146  1.00  0.00    -0.507 OA
ATOM     25  H   UNL     1      14.803  26.983  -2.637  1.00  0.00     0.293 HD
ENDBRANCH   6  24
BRANCH   8  26
ATOM     26  O   UNL     1      13.431  26.910  -7.464  1.00  0.00    -0.508 OA
ATOM     27  H   UNL     1      13.318  27.608  -8.190  1.00  0.00     0.293 HD
ENDBRANCH   8  26
TORSDOF 6
ENDMDL
MODEL 9
REMARK VINA RESULT:    -6.652      3.466      5.886
REMARK INTER + INTRA:          -8.553
REMARK INTER:                  -8.153
REMARK INTRA:                  -0.400
REMARK UNBOUND:                -0.345
REMARK SMILES COc1cc(-c2oc3cc(O)cc(O)c3c(=O)c2O)ccc1O
REMARK SMILES IDX 6 1 18 2 16 3 17 4 15 5 13 6 12 7 10 8 9 9 8 10 7 11 5 12
REMARK SMILES IDX 3 13 22 14 4 15 21 16 20 17 2 18 1 19 23 20 19 22 14 24
REMARK SMILES IDX 11 26
REMARK H PARENT 23 21 19 23 14 25 11 27
REMARK Flexibility Score: inf
ROOT
ATOM      1  C   UNL     1      17.956  26.136  -2.603  1.00  0.00     0.180 A 
ATOM      2  C   UNL     1      18.122  25.037  -1.738  1.00  0.00     0.208 A 
ATOM      3  C   UNL     1      17.691  25.150  -0.408  1.00  0.00     0.238 A 
ATOM      4  O   UNL     1      17.825  24.169   0.374  1.00  0.00    -0.285 OA
ATOM      5  C   UNL     1      17.123  26.360   0.042  1.00  0.00     0.111 A 
ATOM      6  C   UNL     1      16.669  26.558   1.368  1.00  0.00     0.134 A 
ATOM      7  C   UNL     1      16.123  27.796   1.739  1.00  0.00     0.093 A 
ATOM      8  C   UNL     1      16.026  28.838   0.813  1.00  0.00     0.123 A 
ATOM      9  C   UNL     1      16.473  28.648  -0.498  1.00  0.00     0.094 A 
ATOM     10  C   UNL     1      17.018  27.422  -0.888  1.00  0.00     0.146 A 
ATOM     11  O   UNL     1      17.430  27.267  -2.141  1.00  0.00    -0.452 OA
ENDROOT
BRANCH   1  12
ATOM     12  C   UNL     1      18.367  26.086  -4.025  1.00  0.00     0.025 A 
ATOM     13  C   UNL     1      17.918  25.536  -6.365  1.00  0.00     0.161 A 
ATOM     14  C   UNL     1      19.168  26.064  -6.720  1.00  0.00     0.157 A 
ATOM     15  C   UNL     1      17.519  25.557  -5.014  1.00  0.00     0.062 A 
ATOM     16  C   UNL     1      20.003  26.612  -5.741  1.00  0.00     0.051 A 
ATOM     17  C   UNL     1      19.604  26.630  -4.403  1.00  0.00     0.016 A 
BRANCH  13  18
ATOM     18  O   UNL     1      17.104  25.006  -7.378  1.00  0.00    -0.493 OA
ATOM     19  C   UNL     1      15.743  25.368  -7.592  1.00  0.00     0.278 C 
ENDBRANCH  13  18
BRANCH  14  20
ATOM     20  O   UNL     1      19.570  26.044  -8.055  1.00  0.00    -0.504 OA
ATOM     21  H   UNL     1      19.120  25.442  -8.736  1.00  0.00     0.293 HD
ENDBRANCH  14  20
ENDBRANCH   1  12
BRANCH   2  22
ATOM     22  O   UNL     1      18.732  23.865  -2.195  1.00  0.00    -0.502 OA
ATOM     23  H   UNL     1      19.728  23.706  -2.114  1.00  0.00     0.293 HD
ENDBRANCH   2  22
BRANCH   6  24
ATOM     24  O   UNL     1      16.754  25.537   2.316  1.00  0.00    -0.507 OA
ATOM     25  H   UNL     1      17.200  25.681   3.214  1.00  0.00     0.293 HD
ENDBRANCH   6  24
BRANCH   8  26
ATOM     26  O   UNL     1      15.481  30.058   1.208  1.00  0.00    -0.508 OA
ATOM     27  H   UNL     1      14.565  30.114   1.638  1.00  0.00     0.293 HD
ENDBRANCH   8  26
TORSDOF 6
ENDMDL
