MODEL 1
REMARK VINA RESULT:     0.573      0.000      0.000
REMARK INTER + INTRA:           0.986
REMARK INTER:                   0.674
REMARK INTRA:                   0.312
REMARK UNBOUND:                 0.312
REMARK SMILES CCCCC(=O)[O-]
REMARK SMILES IDX 4 1 5 2 6 3 7 4 3 5 2 6 1 7
REMARK H PARENT
REMARK Flexibility Score: inf
ROOT
ATOM      1  C   UNL     1      29.714   8.259  14.079  1.00  0.00     0.053 C 
ENDROOT
BRANCH   1   2
ATOM      2  C   UNL     1      29.286   6.841  14.289  1.00  0.00     0.041 C 
ATOM      3  O   UNL     1      30.065   5.895  14.001  1.00  0.00    -0.550 OA
ATOM      4  O   UNL     1      28.008   6.562  14.757  1.00  0.00    -0.550 OA
ENDBRANCH   1   2
BRANCH   1   5
ATOM      5  C   UNL     1      31.003   8.550  14.854  1.00  0.00     0.006 C 
BRANCH   5   6
ATOM      6  C   UNL     1      31.124   7.638  16.080  1.00  0.00    -0.003 C 
ATOM      7  C   UNL     1      31.012   8.435  17.376  1.00  0.00     0.004 C 
ENDBRANCH   5   6
ENDBRANCH   1   5
TORSDOF 3
ENDMDL
MODEL 2
REMARK VINA RESULT:     1.704      1.493      2.464
REMARK INTER + INTRA:           2.315
REMARK INTER:                   2.310
REMARK INTRA:                   0.005
REMARK UNBOUND:                 0.312
REMARK SMILES CCCCC(=O)[O-]
REMARK SMILES IDX 4 1 5 2 6 3 7 4 3 5 2 6 1 7
REMARK H PARENT
REMARK Flexibility Score: inf
ROOT
ATOM      1  C   UNL     1      29.616   7.931  16.050  1.00  0.00     0.053 C 
ENDROOT
BRANCH   1   2
ATOM      2  C   UNL     1      28.337   7.230  15.721  1.00  0.00     0.041 C 
ATOM      3  O   UNL     1      27.238   7.688  16.133  1.00  0.00    -0.550 OA
ATOM      4  O   UNL     1      28.360   6.043  14.998  1.00  0.00    -0.550 OA
ENDBRANCH   1   2
BRANCH   1   5
ATOM      5  C   UNL     1      30.812   7.157  15.488  1.00  0.00     0.006 C 
BRANCH   5   6
ATOM      6  C   UNL     1      31.120   7.591  14.051  1.00  0.00    -0.003 C 
ATOM      7  C   UNL     1      30.932   9.095  13.875  1.00  0.00     0.004 C 
ENDBRANCH   5   6
ENDBRANCH   1   5
TORSDOF 3
ENDMDL
MODEL 3
REMARK VINA RESULT:     2.029     15.761     16.305
REMARK INTER + INTRA:           2.697
REMARK INTER:                   2.713
REMARK INTRA:                  -0.016
REMARK UNBOUND:                 0.312
REMARK SMILES CCCCC(=O)[O-]
REMARK SMILES IDX 4 1 5 2 6 3 7 4 3 5 2 6 1 7
REMARK H PARENT
REMARK Flexibility Score: inf
ROOT
ATOM      1  C   UNL     1      16.604  17.453  15.656  1.00  0.00     0.053 C 
ENDROOT
BRANCH   1   2
ATOM      2  C   UNL     1      17.516  17.339  14.476  1.00  0.00     0.041 C 
ATOM      3  O   UNL     1      18.015  18.373  13.958  1.00  0.00    -0.550 OA
ATOM      4  O   UNL     1      17.777  16.094  13.916  1.00  0.00    -0.550 OA
ENDBRANCH   1   2
BRANCH   1   5
ATOM      5  C   UNL     1      17.410  17.447  16.958  1.00  0.00     0.006 C 
BRANCH   5   6
ATOM      6  C   UNL     1      16.484  17.504  18.178  1.00  0.00    -0.003 C 
ATOM      7  C   UNL     1      17.260  17.280  19.472  1.00  0.00     0.004 C 
ENDBRANCH   5   6
ENDBRANCH   1   5
TORSDOF 3
ENDMDL
MODEL 4
REMARK VINA RESULT:     2.311     15.683     16.500
REMARK INTER + INTRA:           3.028
REMARK INTER:                   3.052
REMARK INTRA:                  -0.024
REMARK UNBOUND:                 0.312
REMARK SMILES CCCCC(=O)[O-]
REMARK SMILES IDX 4 1 5 2 6 3 7 4 3 5 2 6 1 7
REMARK H PARENT
REMARK Flexibility Score: inf
ROOT
ATOM      1  C   UNL     1      18.174  18.079  13.887  1.00  0.00     0.053 C 
ENDROOT
BRANCH   1   2
ATOM      2  C   UNL     1      17.299  16.934  14.288  1.00  0.00     0.041 C 
ATOM      3  O   UNL     1      16.275  17.135  14.992  1.00  0.00    -0.550 OA
ATOM      4  O   UNL     1      17.640  15.637  13.924  1.00  0.00    -0.550 OA
ENDBRANCH   1   2
BRANCH   1   5
ATOM      5  C   UNL     1      17.680  19.380  14.526  1.00  0.00     0.006 C 
BRANCH   5   6
ATOM      6  C   UNL     1      18.345  20.599  13.875  1.00  0.00    -0.003 C 
ATOM      7  C   UNL     1      19.701  20.893  14.509  1.00  0.00     0.004 C 
ENDBRANCH   5   6
ENDBRANCH   1   5
TORSDOF 3
ENDMDL
MODEL 5
REMARK VINA RESULT:     2.921     15.968     16.799
REMARK INTER + INTRA:           3.746
REMARK INTER:                   3.762
REMARK INTRA:                  -0.016
REMARK UNBOUND:                 0.312
REMARK SMILES CCCCC(=O)[O-]
REMARK SMILES IDX 4 1 5 2 6 3 7 4 3 5 2 6 1 7
REMARK H PARENT
REMARK Flexibility Score: inf
ROOT
ATOM      1  C   UNL     1      16.478  17.796  17.868  1.00  0.00     0.053 C 
ENDROOT
BRANCH   1   2
ATOM      2  C   UNL     1      16.813  17.131  19.165  1.00  0.00     0.041 C 
ATOM      3  O   UNL     1      15.990  16.348  19.708  1.00  0.00    -0.550 OA
ATOM      4  O   UNL     1      18.015  17.414  19.802  1.00  0.00    -0.550 OA
ENDBRANCH   1   2
BRANCH   1   5
ATOM      5  C   UNL     1      17.443  17.343  16.769  1.00  0.00     0.006 C 
BRANCH   5   6
ATOM      6  C   UNL     1      16.828  17.546  15.380  1.00  0.00    -0.003 C 
ATOM      7  C   UNL     1      17.648  16.841  14.303  1.00  0.00     0.004 C 
ENDBRANCH   5   6
ENDBRANCH   1   5
TORSDOF 3
ENDMDL
MODEL 6
REMARK VINA RESULT:     3.449     16.077     16.721
REMARK INTER + INTRA:           4.366
REMARK INTER:                   4.399
REMARK INTRA:                  -0.033
REMARK UNBOUND:                 0.312
REMARK SMILES CCCCC(=O)[O-]
REMARK SMILES IDX 4 1 5 2 6 3 7 4 3 5 2 6 1 7
REMARK H PARENT
REMARK Flexibility Score: inf
ROOT
ATOM      1  C   UNL     1      18.052  17.154  20.366  1.00  0.00     0.053 C 
ENDROOT
BRANCH   1   2
ATOM      2  C   UNL     1      19.330  17.931  20.390  1.00  0.00     0.041 C 
ATOM      3  O   UNL     1      20.217  17.720  19.521  1.00  0.00    -0.550 OA
ATOM      4  O   UNL     1      19.564  18.854  21.401  1.00  0.00    -0.550 OA
ENDBRANCH   1   2
BRANCH   1   5
ATOM      5  C   UNL     1      17.195  17.569  19.166  1.00  0.00     0.006 C 
BRANCH   5   6
ATOM      6  C   UNL     1      15.833  16.867  19.194  1.00  0.00    -0.003 C 
ATOM      7  C   UNL     1      15.847  15.672  20.143  1.00  0.00     0.004 C 
ENDBRANCH   5   6
ENDBRANCH   1   5
TORSDOF 3
ENDMDL
MODEL 7
REMARK VINA RESULT:     3.512     16.004     16.626
REMARK INTER + INTRA:           4.440
REMARK INTER:                   4.481
REMARK INTRA:                  -0.040
REMARK UNBOUND:                 0.312
REMARK SMILES CCCCC(=O)[O-]
REMARK SMILES IDX 4 1 5 2 6 3 7 4 3 5 2 6 1 7
REMARK H PARENT
REMARK Flexibility Score: inf
ROOT
ATOM      1  C   UNL     1      18.092  17.149  19.732  1.00  0.00     0.053 C 
ENDROOT
BRANCH   1   2
ATOM      2  C   UNL     1      16.654  17.146  19.321  1.00  0.00     0.041 C 
ATOM      3  O   UNL     1      16.196  18.080  18.611  1.00  0.00    -0.550 OA
ATOM      4  O   UNL     1      15.806  16.138  19.762  1.00  0.00    -0.550 OA
ENDBRANCH   1   2
BRANCH   1   5
ATOM      5  C   UNL     1      18.274  17.922  21.041  1.00  0.00     0.006 C 
BRANCH   5   6
ATOM      6  C   UNL     1      19.679  18.528  21.131  1.00  0.00    -0.003 C 
ATOM      7  C   UNL     1      20.587  17.984  20.031  1.00  0.00     0.004 C 
ENDBRANCH   5   6
ENDBRANCH   1   5
TORSDOF 3
ENDMDL
