MODEL 1
REMARK VINA RESULT:    -4.252      0.000      0.000
REMARK INTER + INTRA:          -5.326
REMARK INTER:                  -5.494
REMARK INTRA:                   0.168
REMARK UNBOUND:                 0.168
REMARK SMILES CCO[C@@H]1O[C@@H](CO)[C@@H](O)[C@H](O)[C@H]1O
REMARK SMILES IDX 4 1 13 2 11 3 9 4 6 5 5 6 3 7 2 8 1 9 14 10 12 12 7 14 8 15
REMARK SMILES IDX 10 17
REMARK H PARENT 14 11 12 13 8 16 10 18
REMARK Flexibility Score: inf
ROOT
ATOM      1  C   UNL     1      29.135  -0.613  41.295  1.00  0.00     0.281 C 
ATOM      2  C   UNL     1      30.553  -0.651  41.920  1.00  0.00     0.202 C 
ATOM      3  C   UNL     1      31.655  -0.386  40.860  1.00  0.00     0.179 C 
ATOM      4  C   UNL     1      31.104   0.473  39.710  1.00  0.00     0.177 C 
ATOM      5  C   UNL     1      29.865  -0.235  39.078  1.00  0.00     0.178 C 
ATOM      6  O   UNL     1      29.176  -1.108  39.969  1.00  0.00    -0.341 OA
ENDROOT
BRANCH   1   7
ATOM      7  O   UNL     1      28.274  -1.457  42.043  1.00  0.00    -0.350 OA
BRANCH   7   8
ATOM      8  C   UNL     1      27.949  -0.880  43.291  1.00  0.00     0.160 C 
ATOM      9  C   UNL     1      28.416  -1.802  44.405  1.00  0.00     0.035 C 
ENDBRANCH   7   8
ENDBRANCH   1   7
BRANCH   2  10
ATOM     10  O   UNL     1      30.629   0.313  42.939  1.00  0.00    -0.385 OA
ATOM     11  H   UNL     1      29.796   0.236  43.472  1.00  0.00     0.211 HD
ENDBRANCH   2  10
BRANCH   3  12
ATOM     12  O   UNL     1      32.125  -1.604  40.337  1.00  0.00    -0.387 OA
ATOM     13  H   UNL     1      31.339  -2.075  39.956  1.00  0.00     0.211 HD
ENDBRANCH   3  12
BRANCH   5  14
ATOM     14  C   UNL     1      28.877   0.729  38.399  1.00  0.00     0.191 C 
BRANCH  14  15
ATOM     15  O   UNL     1      29.484   1.335  37.291  1.00  0.00    -0.394 OA
ATOM     16  H   UNL     1      29.826   2.211  37.609  1.00  0.00     0.210 HD
ENDBRANCH  14  15
ENDBRANCH   5  14
BRANCH   4  17
ATOM     17  O   UNL     1      30.764   1.750  40.192  1.00  0.00    -0.387 OA
ATOM     18  H   UNL     1      30.490   1.638  41.140  1.00  0.00     0.211 HD
ENDBRANCH   4  17
TORSDOF 7
ENDMDL
MODEL 2
REMARK VINA RESULT:    -3.820      1.693      4.530
REMARK INTER + INTRA:          -4.769
REMARK INTER:                  -4.441
REMARK INTRA:                  -0.328
REMARK UNBOUND:                 0.168
REMARK SMILES CCO[C@@H]1O[C@@H](CO)[C@@H](O)[C@H](O)[C@H]1O
REMARK SMILES IDX 4 1 13 2 11 3 9 4 6 5 5 6 3 7 2 8 1 9 14 10 12 12 7 14 8 15
REMARK SMILES IDX 10 17
REMARK H PARENT 14 11 12 13 8 16 10 18
REMARK Flexibility Score: inf
ROOT
ATOM      1  C   UNL     1      30.653   0.248  39.544  1.00  0.00     0.281 C 
ATOM      2  C   UNL     1      29.309   0.155  38.777  1.00  0.00     0.202 C 
ATOM      3  C   UNL     1      28.338  -0.857  39.441  1.00  0.00     0.179 C 
ATOM      4  C   UNL     1      28.627  -0.977  40.946  1.00  0.00     0.177 C 
ATOM      5  C   UNL     1      30.116  -1.393  41.159  1.00  0.00     0.178 C 
ATOM      6  O   UNL     1      30.985  -1.013  40.095  1.00  0.00    -0.341 OA
ENDROOT
BRANCH   1   7
ATOM      7  O   UNL     1      31.683   0.607  38.637  1.00  0.00    -0.350 OA
BRANCH   7   8
ATOM      8  C   UNL     1      32.125   1.930  38.862  1.00  0.00     0.160 C 
ATOM      9  C   UNL     1      31.643   2.393  40.227  1.00  0.00     0.035 C 
ENDBRANCH   7   8
ENDBRANCH   1   7
BRANCH   2  10
ATOM     10  O   UNL     1      28.717   1.428  38.737  1.00  0.00    -0.385 OA
ATOM     11  H   UNL     1      27.852   1.330  38.260  1.00  0.00     0.211 HD
ENDBRANCH   2  10
BRANCH   3  12
ATOM     12  O   UNL     1      28.478  -2.123  38.846  1.00  0.00    -0.387 OA
ATOM     13  H   UNL     1      27.644  -2.626  39.038  1.00  0.00     0.211 HD
ENDBRANCH   3  12
BRANCH   5  14
ATOM     14  C   UNL     1      30.698  -0.953  42.512  1.00  0.00     0.191 C 
BRANCH  14  15
ATOM     15  O   UNL     1      29.959  -1.518  43.560  1.00  0.00    -0.394 OA
ATOM     16  H   UNL     1      29.442  -0.774  43.965  1.00  0.00     0.210 HD
ENDBRANCH  14  15
ENDBRANCH   5  14
BRANCH   4  17
ATOM     17  O   UNL     1      28.350   0.246  41.583  1.00  0.00    -0.387 OA
ATOM     18  H   UNL     1      27.548   0.102  42.150  1.00  0.00     0.211 HD
ENDBRANCH   4  17
TORSDOF 7
ENDMDL
MODEL 3
REMARK VINA RESULT:    -3.275      1.442      3.483
REMARK INTER + INTRA:          -4.065
REMARK INTER:                  -4.141
REMARK INTRA:                   0.076
REMARK UNBOUND:                 0.168
REMARK SMILES CCO[C@@H]1O[C@@H](CO)[C@@H](O)[C@H](O)[C@H]1O
REMARK SMILES IDX 4 1 13 2 11 3 9 4 6 5 5 6 3 7 2 8 1 9 14 10 12 12 7 14 8 15
REMARK SMILES IDX 10 17
REMARK H PARENT 14 11 12 13 8 16 10 18
REMARK Flexibility Score: inf
ROOT
ATOM      1  C   UNL     1      29.357  -0.092  40.060  1.00  0.00     0.281 C 
ATOM      2  C   UNL     1      29.432   0.928  38.896  1.00  0.00     0.202 C 
ATOM      3  C   UNL     1      30.784   1.690  38.885  1.00  0.00     0.179 C 
ATOM      4  C   UNL     1      31.892   0.836  39.523  1.00  0.00     0.177 C 
ATOM      5  C   UNL     1      31.473   0.439  40.974  1.00  0.00     0.178 C 
ATOM      6  O   UNL     1      30.063   0.402  41.184  1.00  0.00    -0.341 OA
ENDROOT
BRANCH   1   7
ATOM      7  O   UNL     1      28.003  -0.263  40.444  1.00  0.00    -0.350 OA
BRANCH   7   8
ATOM      8  C   UNL     1      27.846  -1.389  41.282  1.00  0.00     0.160 C 
ATOM      9  C   UNL     1      27.883  -0.941  42.734  1.00  0.00     0.035 C 
ENDBRANCH   7   8
ENDBRANCH   1   7
BRANCH   2  10
ATOM     10  O   UNL     1      29.260   0.247  37.679  1.00  0.00    -0.385 OA
ATOM     11  H   UNL     1      30.157  -0.061  37.390  1.00  0.00     0.211 HD
ENDBRANCH   2  10
BRANCH   3  12
ATOM     12  O   UNL     1      30.665   2.894  39.601  1.00  0.00    -0.387 OA
ATOM     13  H   UNL     1      31.133   3.591  39.072  1.00  0.00     0.211 HD
ENDBRANCH   3  12
BRANCH   5  14
ATOM     14  C   UNL     1      32.125  -0.860  41.476  1.00  0.00     0.191 C 
BRANCH  14  15
ATOM     15  O   UNL     1      31.406  -1.367  42.567  1.00  0.00    -0.394 OA
ATOM     16  H   UNL     1      31.329  -2.345  42.416  1.00  0.00     0.210 HD
ENDBRANCH  14  15
ENDBRANCH   5  14
BRANCH   4  17
ATOM     17  O   UNL     1      32.125  -0.306  38.736  1.00  0.00    -0.387 OA
ATOM     18  H   UNL     1      33.086  -0.291  38.483  1.00  0.00     0.211 HD
ENDBRANCH   4  17
TORSDOF 7
ENDMDL
MODEL 4
REMARK VINA RESULT:    -3.260     15.862     16.996
REMARK INTER + INTRA:          -4.045
REMARK INTER:                  -3.886
REMARK INTRA:                  -0.159
REMARK UNBOUND:                 0.168
REMARK SMILES CCO[C@@H]1O[C@@H](CO)[C@@H](O)[C@H](O)[C@H]1O
REMARK SMILES IDX 4 1 13 2 11 3 9 4 6 5 5 6 3 7 2 8 1 9 14 10 12 12 7 14 8 15
REMARK SMILES IDX 10 17
REMARK H PARENT 14 11 12 13 8 16 10 18
REMARK Flexibility Score: inf
ROOT
ATOM      1  C   UNL     1      29.499  15.318  48.012  1.00  0.00     0.281 C 
ATOM      2  C   UNL     1      28.223  15.330  48.892  1.00  0.00     0.202 C 
ATOM      3  C   UNL     1      27.684  13.897  49.144  1.00  0.00     0.179 C 
ATOM      4  C   UNL     1      28.826  12.870  49.074  1.00  0.00     0.177 C 
ATOM      5  C   UNL     1      29.538  12.976  47.689  1.00  0.00     0.178 C 
ATOM      6  O   UNL     1      29.432  14.258  47.075  1.00  0.00    -0.341 OA
ENDROOT
BRANCH   1   7
ATOM      7  O   UNL     1      29.575  16.532  47.284  1.00  0.00    -0.350 OA
BRANCH   7   8
ATOM      8  C   UNL     1      28.287  17.029  46.981  1.00  0.00     0.160 C 
ATOM      9  C   UNL     1      28.391  18.023  45.835  1.00  0.00     0.035 C 
ENDBRANCH   7   8
ENDBRANCH   1   7
BRANCH   2  10
ATOM     10  O   UNL     1      28.519  15.951  50.117  1.00  0.00    -0.385 OA
ATOM     11  H   UNL     1      28.311  16.915  50.010  1.00  0.00     0.211 HD
ENDBRANCH   2  10
BRANCH   3  12
ATOM     12  O   UNL     1      26.714  13.569  48.180  1.00  0.00    -0.387 OA
ATOM     13  H   UNL     1      26.894  14.138  47.387  1.00  0.00     0.211 HD
ENDBRANCH   3  12
BRANCH   5  14
ATOM     14  C   UNL     1      31.002  12.507  47.704  1.00  0.00     0.191 C 
BRANCH  14  15
ATOM     15  O   UNL     1      31.394  12.115  46.417  1.00  0.00    -0.394 OA
ATOM     16  H   UNL     1      32.381  12.214  46.387  1.00  0.00     0.210 HD
ENDBRANCH  14  15
ENDBRANCH   5  14
BRANCH   4  17
ATOM     17  O   UNL     1      29.734  13.095  50.125  1.00  0.00    -0.387 OA
ATOM     18  H   UNL     1      29.774  12.256  50.656  1.00  0.00     0.211 HD
ENDBRANCH   4  17
TORSDOF 7
ENDMDL
MODEL 5
REMARK VINA RESULT:    -3.244     16.002     17.061
REMARK INTER + INTRA:          -4.024
REMARK INTER:                  -3.802
REMARK INTRA:                  -0.222
REMARK UNBOUND:                 0.168
REMARK SMILES CCO[C@@H]1O[C@@H](CO)[C@@H](O)[C@H](O)[C@H]1O
REMARK SMILES IDX 4 1 13 2 11 3 9 4 6 5 5 6 3 7 2 8 1 9 14 10 12 12 7 14 8 15
REMARK SMILES IDX 10 17
REMARK H PARENT 14 11 12 13 8 16 10 18
REMARK Flexibility Score: inf
ROOT
ATOM      1  C   UNL     1      29.356  13.885  49.177  1.00  0.00     0.281 C 
ATOM      2  C   UNL     1      29.934  15.299  48.913  1.00  0.00     0.202 C 
ATOM      3  C   UNL     1      28.873  16.247  48.292  1.00  0.00     0.179 C 
ATOM      4  C   UNL     1      27.456  15.821  48.709  1.00  0.00     0.177 C 
ATOM      5  C   UNL     1      27.213  14.338  48.286  1.00  0.00     0.178 C 
ATOM      6  O   UNL     1      28.402  13.559  48.183  1.00  0.00    -0.341 OA
ENDROOT
BRANCH   1   7
ATOM      7  O   UNL     1      30.403  12.932  49.097  1.00  0.00    -0.350 OA
BRANCH   7   8
ATOM      8  C   UNL     1      30.629  12.530  47.762  1.00  0.00     0.160 C 
ATOM      9  C   UNL     1      32.123  12.559  47.477  1.00  0.00     0.035 C 
ENDBRANCH   7   8
ENDBRANCH   1   7
BRANCH   2  10
ATOM     10  O   UNL     1      30.401  15.835  50.125  1.00  0.00    -0.385 OA
ATOM     11  H   UNL     1      29.776  16.561  50.380  1.00  0.00     0.211 HD
ENDBRANCH   2  10
BRANCH   3  12
ATOM     12  O   UNL     1      28.965  16.221  46.890  1.00  0.00    -0.387 OA
ATOM     13  H   UNL     1      29.719  15.617  46.662  1.00  0.00     0.211 HD
ENDBRANCH   3  12
BRANCH   5  14
ATOM     14  C   UNL     1      26.166  13.610  49.145  1.00  0.00     0.191 C 
BRANCH  14  15
ATOM     15  O   UNL     1      25.133  13.123  48.332  1.00  0.00    -0.394 OA
ATOM     16  H   UNL     1      25.374  13.372  47.403  1.00  0.00     0.210 HD
ENDBRANCH  14  15
ENDBRANCH   5  14
BRANCH   4  17
ATOM     17  O   UNL     1      27.301  15.980  50.099  1.00  0.00    -0.387 OA
ATOM     18  H   UNL     1      27.401  16.949  50.291  1.00  0.00     0.211 HD
ENDBRANCH   4  17
TORSDOF 7
ENDMDL
MODEL 6
REMARK VINA RESULT:    -3.099     17.213     18.161
REMARK INTER + INTRA:          -3.837
REMARK INTER:                  -3.402
REMARK INTRA:                  -0.435
REMARK UNBOUND:                 0.168
REMARK SMILES CCO[C@@H]1O[C@@H](CO)[C@@H](O)[C@H](O)[C@H]1O
REMARK SMILES IDX 4 1 13 2 11 3 9 4 6 5 5 6 3 7 2 8 1 9 14 10 12 12 7 14 8 15
REMARK SMILES IDX 10 17
REMARK H PARENT 14 11 12 13 8 16 10 18
REMARK Flexibility Score: inf
ROOT
ATOM      1  C   UNL     1      28.917  15.133  48.864  1.00  0.00     0.281 C 
ATOM      2  C   UNL     1      29.919  15.957  48.016  1.00  0.00     0.202 C 
ATOM      3  C   UNL     1      29.224  17.144  47.298  1.00  0.00     0.179 C 
ATOM      4  C   UNL     1      27.985  17.601  48.085  1.00  0.00     0.177 C 
ATOM      5  C   UNL     1      27.010  16.396  48.268  1.00  0.00     0.178 C 
ATOM      6  O   UNL     1      27.647  15.122  48.239  1.00  0.00    -0.341 OA
ENDROOT
BRANCH   1   7
ATOM      7  O   UNL     1      29.369  13.790  48.945  1.00  0.00    -0.350 OA
BRANCH   7   8
ATOM      8  C   UNL     1      29.441  13.197  47.665  1.00  0.00     0.160 C 
ATOM      9  C   UNL     1      30.753  12.439  47.539  1.00  0.00     0.035 C 
ENDBRANCH   7   8
ENDBRANCH   1   7
BRANCH   2  10
ATOM     10  O   UNL     1      30.940  16.437  48.854  1.00  0.00    -0.385 OA
ATOM     11  H   UNL     1      30.681  16.210  49.784  1.00  0.00     0.211 HD
ENDBRANCH   2  10
BRANCH   3  12
ATOM     12  O   UNL     1      28.829  16.761  46.004  1.00  0.00    -0.387 OA
ATOM     13  H   UNL     1      29.298  17.364  45.370  1.00  0.00     0.211 HD
ENDBRANCH   3  12
BRANCH   5  14
ATOM     14  C   UNL     1      26.100  16.514  49.502  1.00  0.00     0.191 C 
BRANCH  14  15
ATOM     15  O   UNL     1      25.480  17.771  49.522  1.00  0.00    -0.394 OA
ATOM     16  H   UNL     1      25.147  17.899  50.448  1.00  0.00     0.210 HD
ENDBRANCH  14  15
ENDBRANCH   5  14
BRANCH   4  17
ATOM     17  O   UNL     1      28.379  18.124  49.330  1.00  0.00    -0.387 OA
ATOM     18  H   UNL     1      28.416  17.361  49.965  1.00  0.00     0.211 HD
ENDBRANCH   4  17
TORSDOF 7
ENDMDL
MODEL 7
REMARK VINA RESULT:    -3.055     16.315     17.526
REMARK INTER + INTRA:          -3.780
REMARK INTER:                  -3.387
REMARK INTRA:                  -0.394
REMARK UNBOUND:                 0.168
REMARK SMILES CCO[C@@H]1O[C@@H](CO)[C@@H](O)[C@H](O)[C@H]1O
REMARK SMILES IDX 4 1 13 2 11 3 9 4 6 5 5 6 3 7 2 8 1 9 14 10 12 12 7 14 8 15
REMARK SMILES IDX 10 17
REMARK H PARENT 14 11 12 13 8 16 10 18
REMARK Flexibility Score: inf
ROOT
ATOM      1  C   UNL     1      28.815  15.249  47.920  1.00  0.00     0.281 C 
ATOM      2  C   UNL     1      29.352  13.796  47.874  1.00  0.00     0.202 C 
ATOM      3  C   UNL     1      28.708  12.910  48.974  1.00  0.00     0.179 C 
ATOM      4  C   UNL     1      27.312  13.436  49.343  1.00  0.00     0.177 C 
ATOM      5  C   UNL     1      27.420  14.924  49.801  1.00  0.00     0.178 C 
ATOM      6  O   UNL     1      28.538  15.621  49.258  1.00  0.00    -0.341 OA
ENDROOT
BRANCH   1   7
ATOM      7  O   UNL     1      29.810  16.129  47.425  1.00  0.00    -0.350 OA
BRANCH   7   8
ATOM      8  C   UNL     1      29.327  17.454  47.343  1.00  0.00     0.160 C 
ATOM      9  C   UNL     1      28.450  17.591  46.108  1.00  0.00     0.035 C 
ENDBRANCH   7   8
ENDBRANCH   1   7
BRANCH   2  10
ATOM     10  O   UNL     1      29.087  13.250  46.607  1.00  0.00    -0.385 OA
ATOM     11  H   UNL     1      28.103  13.146  46.537  1.00  0.00     0.211 HD
ENDBRANCH   2  10
BRANCH   3  12
ATOM     12  O   UNL     1      29.515  12.906  50.125  1.00  0.00    -0.387 OA
ATOM     13  H   UNL     1      29.426  13.803  50.541  1.00  0.00     0.211 HD
ENDBRANCH   3  12
BRANCH   5  14
ATOM     14  C   UNL     1      26.129  15.734  49.595  1.00  0.00     0.191 C 
BRANCH  14  15
ATOM     15  O   UNL     1      25.026  15.005  50.059  1.00  0.00    -0.394 OA
ATOM     16  H   UNL     1      24.276  15.651  50.124  1.00  0.00     0.210 HD
ENDBRANCH  14  15
ENDBRANCH   5  14
BRANCH   4  17
ATOM     17  O   UNL     1      26.448  13.310  48.240  1.00  0.00    -0.387 OA
ATOM     18  H   UNL     1      26.334  12.338  48.071  1.00  0.00     0.211 HD
ENDBRANCH   4  17
TORSDOF 7
ENDMDL
MODEL 8
REMARK VINA RESULT:    -3.050     16.386     17.407
REMARK INTER + INTRA:          -3.774
REMARK INTER:                  -3.395
REMARK INTRA:                  -0.379
REMARK UNBOUND:                 0.168
REMARK SMILES CCO[C@@H]1O[C@@H](CO)[C@@H](O)[C@H](O)[C@H]1O
REMARK SMILES IDX 4 1 13 2 11 3 9 4 6 5 5 6 3 7 2 8 1 9 14 10 12 12 7 14 8 15
REMARK SMILES IDX 10 17
REMARK H PARENT 14 11 12 13 8 16 10 18
REMARK Flexibility Score: inf
ROOT
ATOM      1  C   UNL     1      27.016  14.870  49.060  1.00  0.00     0.281 C 
ATOM      2  C   UNL     1      27.376  16.377  48.991  1.00  0.00     0.202 C 
ATOM      3  C   UNL     1      28.906  16.597  48.855  1.00  0.00     0.179 C 
ATOM      4  C   UNL     1      29.567  15.391  48.168  1.00  0.00     0.177 C 
ATOM      5  C   UNL     1      29.247  14.092  48.974  1.00  0.00     0.178 C 
ATOM      6  O   UNL     1      28.040  14.158  49.730  1.00  0.00    -0.341 OA
ENDROOT
BRANCH   1   7
ATOM      7  O   UNL     1      25.821  14.711  49.807  1.00  0.00    -0.350 OA
BRANCH   7   8
ATOM      8  C   UNL     1      24.807  14.109  49.029  1.00  0.00     0.160 C 
ATOM      9  C   UNL     1      24.988  12.600  49.052  1.00  0.00     0.035 C 
ENDBRANCH   7   8
ENDBRANCH   1   7
BRANCH   2  10
ATOM     10  O   UNL     1      26.712  16.955  47.896  1.00  0.00    -0.385 OA
ATOM     11  H   UNL     1      27.078  16.530  47.078  1.00  0.00     0.211 HD
ENDBRANCH   2  10
BRANCH   3  12
ATOM     12  O   UNL     1      29.483  16.773  50.125  1.00  0.00    -0.387 OA
ATOM     13  H   UNL     1      28.736  16.800  50.779  1.00  0.00     0.211 HD
ENDBRANCH   3  12
BRANCH   5  14
ATOM     14  C   UNL     1      29.282  12.809  48.127  1.00  0.00     0.191 C 
BRANCH  14  15
ATOM     15  O   UNL     1      30.498  12.725  47.435  1.00  0.00    -0.394 OA
ATOM     16  H   UNL     1      30.286  12.322  46.554  1.00  0.00     0.210 HD
ENDBRANCH  14  15
ENDBRANCH   5  14
BRANCH   4  17
ATOM     17  O   UNL     1      29.107  15.286  46.843  1.00  0.00    -0.387 OA
ATOM     18  H   UNL     1      28.800  14.350  46.717  1.00  0.00     0.211 HD
ENDBRANCH   4  17
TORSDOF 7
ENDMDL
MODEL 9
REMARK VINA RESULT:    -2.881     17.336     18.359
REMARK INTER + INTRA:          -3.556
REMARK INTER:                  -3.312
REMARK INTRA:                  -0.244
REMARK UNBOUND:                 0.168
REMARK SMILES CCO[C@@H]1O[C@@H](CO)[C@@H](O)[C@H](O)[C@H]1O
REMARK SMILES IDX 4 1 13 2 11 3 9 4 6 5 5 6 3 7 2 8 1 9 14 10 12 12 7 14 8 15
REMARK SMILES IDX 10 17
REMARK H PARENT 14 11 12 13 8 16 10 18
REMARK Flexibility Score: inf
ROOT
ATOM      1  C   UNL     1      29.502  15.517  47.725  1.00  0.00     0.281 C 
ATOM      2  C   UNL     1      28.614  16.695  47.251  1.00  0.00     0.202 C 
ATOM      3  C   UNL     1      28.896  17.990  48.058  1.00  0.00     0.179 C 
ATOM      4  C   UNL     1      30.339  17.992  48.589  1.00  0.00     0.177 C 
ATOM      5  C   UNL     1      30.577  16.716  49.457  1.00  0.00     0.178 C 
ATOM      6  O   UNL     1      29.736  15.616  49.118  1.00  0.00    -0.341 OA
ENDROOT
BRANCH   1   7
ATOM      7  O   UNL     1      28.821  14.295  47.489  1.00  0.00    -0.350 OA
BRANCH   7   8
ATOM      8  C   UNL     1      29.331  13.259  48.303  1.00  0.00     0.160 C 
ATOM      9  C   UNL     1      30.485  12.580  47.584  1.00  0.00     0.035 C 
ENDBRANCH   7   8
ENDBRANCH   1   7
BRANCH   2  10
ATOM     10  O   UNL     1      28.849  16.924  45.885  1.00  0.00    -0.385 OA
ATOM     11  H   UNL     1      28.899  16.035  45.447  1.00  0.00     0.211 HD
ENDBRANCH   2  10
BRANCH   3  12
ATOM     12  O   UNL     1      28.009  18.085  49.145  1.00  0.00    -0.387 OA
ATOM     13  H   UNL     1      28.547  18.357  49.933  1.00  0.00     0.211 HD
ENDBRANCH   3  12
BRANCH   5  14
ATOM     14  C   UNL     1      32.047  16.269  49.517  1.00  0.00     0.191 C 
BRANCH  14  15
ATOM     15  O   UNL     1      32.124  14.924  49.901  1.00  0.00    -0.394 OA
ATOM     16  H   UNL     1      31.982  14.393  49.075  1.00  0.00     0.210 HD
ENDBRANCH  14  15
ENDBRANCH   5  14
BRANCH   4  17
ATOM     17  O   UNL     1      31.243  18.044  47.512  1.00  0.00    -0.387 OA
ATOM     18  H   UNL     1      30.747  17.745  46.705  1.00  0.00     0.211 HD
ENDBRANCH   4  17
TORSDOF 7
ENDMDL
