MODEL 1
REMARK VINA RESULT:    -3.814      0.000      0.000
REMARK INTER + INTRA:          -4.470
REMARK INTER:                  -4.260
REMARK INTRA:                  -0.210
REMARK UNBOUND:                -0.210
REMARK SMILES CC(C)c1ccc(C(=O)[O-])cc1
REMARK SMILES IDX 7 1 6 2 11 3 5 4 12 5 4 6 8 7 9 8 10 9 2 10 1 11 3 12
REMARK H PARENT
REMARK Flexibility Score: inf
ROOT
ATOM      1  C   UNL     1       5.293 -35.750  23.532  1.00  0.00    -0.003 A 
ATOM      2  C   UNL     1       5.351 -36.764  22.562  1.00  0.00     0.010 A 
ATOM      3  C   UNL     1       5.060 -34.426  23.121  1.00  0.00     0.010 A 
ATOM      4  C   UNL     1       5.179 -36.461  21.208  1.00  0.00     0.004 A 
ATOM      5  C   UNL     1       4.888 -34.123  21.768  1.00  0.00     0.004 A 
ATOM      6  C   UNL     1       4.945 -35.139  20.795  1.00  0.00    -0.045 A 
ENDROOT
BRANCH   1   7
ATOM      7  C   UNL     1       5.476 -36.075  24.964  1.00  0.00     0.071 C 
ATOM      8  O   UNL     1       6.125 -35.301  25.719  1.00  0.00    -0.545 OA
ATOM      9  O   UNL     1       4.936 -37.239  25.497  1.00  0.00    -0.545 OA
ENDBRANCH   1   7
BRANCH   6  10
ATOM     10  C   UNL     1       4.761 -34.824  19.322  1.00  0.00     0.013 C 
ATOM     11  C   UNL     1       6.042 -34.235  18.719  1.00  0.00     0.012 C 
ATOM     12  C   UNL     1       4.305 -36.064  18.545  1.00  0.00     0.012 C 
ENDBRANCH   6  10
TORSDOF 2
ENDMDL
MODEL 2
REMARK VINA RESULT:    -3.718      0.245      1.419
REMARK INTER + INTRA:          -4.363
REMARK INTER:                  -4.154
REMARK INTRA:                  -0.209
REMARK UNBOUND:                -0.210
REMARK SMILES CC(C)c1ccc(C(=O)[O-])cc1
REMARK SMILES IDX 7 1 6 2 11 3 5 4 12 5 4 6 8 7 9 8 10 9 2 10 1 11 3 12
REMARK H PARENT
REMARK Flexibility Score: inf
ROOT
ATOM      1  C   UNL     1       5.311 -35.649  23.315  1.00  0.00    -0.003 A 
ATOM      2  C   UNL     1       5.049 -34.334  22.897  1.00  0.00     0.010 A 
ATOM      3  C   UNL     1       5.374 -36.670  22.351  1.00  0.00     0.010 A 
ATOM      4  C   UNL     1       4.856 -34.045  21.543  1.00  0.00     0.004 A 
ATOM      5  C   UNL     1       5.181 -36.382  20.997  1.00  0.00     0.004 A 
ATOM      6  C   UNL     1       4.919 -35.064  20.578  1.00  0.00    -0.045 A 
ENDROOT
BRANCH   1   7
ATOM      7  C   UNL     1       5.516 -35.951  24.749  1.00  0.00     0.071 C 
ATOM      8  O   UNL     1       6.125 -35.137  25.494  1.00  0.00    -0.545 OA
ATOM      9  O   UNL     1       5.040 -37.137  25.294  1.00  0.00    -0.545 OA
ENDBRANCH   1   7
BRANCH   6  10
ATOM     10  C   UNL     1       4.706 -34.736  19.112  1.00  0.00     0.013 C 
ATOM     11  C   UNL     1       5.970 -34.126  18.494  1.00  0.00     0.012 C 
ATOM     12  C   UNL     1       4.249 -35.972  18.329  1.00  0.00     0.012 C 
ENDBRANCH   6  10
TORSDOF 2
ENDMDL
MODEL 3
REMARK VINA RESULT:    -3.591      3.079      5.215
REMARK INTER + INTRA:          -4.220
REMARK INTER:                  -4.000
REMARK INTRA:                  -0.220
REMARK UNBOUND:                -0.210
REMARK SMILES CC(C)c1ccc(C(=O)[O-])cc1
REMARK SMILES IDX 7 1 6 2 11 3 5 4 12 5 4 6 8 7 9 8 10 9 2 10 1 11 3 12
REMARK H PARENT
REMARK Flexibility Score: inf
ROOT
ATOM      1  C   UNL     1       5.079 -35.491  20.513  1.00  0.00    -0.003 A 
ATOM      2  C   UNL     1       5.419 -34.373  21.293  1.00  0.00     0.010 A 
ATOM      3  C   UNL     1       5.053 -36.760  21.116  1.00  0.00     0.010 A 
ATOM      4  C   UNL     1       5.725 -34.521  22.649  1.00  0.00     0.004 A 
ATOM      5  C   UNL     1       5.359 -36.908  22.472  1.00  0.00     0.004 A 
ATOM      6  C   UNL     1       5.699 -35.789  23.254  1.00  0.00    -0.045 A 
ENDROOT
BRANCH   1   7
ATOM      7  C   UNL     1       4.756 -35.330  19.078  1.00  0.00     0.071 C 
ATOM      8  O   UNL     1       4.253 -36.283  18.423  1.00  0.00    -0.545 OA
ATOM      9  O   UNL     1       5.002 -34.125  18.431  1.00  0.00    -0.545 OA
ENDBRANCH   1   7
BRANCH   6  10
ATOM     10  C   UNL     1       6.034 -35.934  24.727  1.00  0.00     0.013 C 
ATOM     11  C   UNL     1       6.124 -34.565  25.410  1.00  0.00     0.012 C 
ATOM     12  C   UNL     1       5.023 -36.841  25.438  1.00  0.00     0.012 C 
ENDBRANCH   6  10
TORSDOF 2
ENDMDL
MODEL 4
REMARK VINA RESULT:    -3.181      2.605      3.561
REMARK INTER + INTRA:          -3.763
REMARK INTER:                  -3.551
REMARK INTRA:                  -0.212
REMARK UNBOUND:                -0.210
REMARK SMILES CC(C)c1ccc(C(=O)[O-])cc1
REMARK SMILES IDX 7 1 6 2 11 3 5 4 12 5 4 6 8 7 9 8 10 9 2 10 1 11 3 12
REMARK H PARENT
REMARK Flexibility Score: inf
ROOT
ATOM      1  C   UNL     1       5.275 -38.619  21.385  1.00  0.00    -0.003 A 
ATOM      2  C   UNL     1       5.035 -38.262  20.048  1.00  0.00     0.010 A 
ATOM      3  C   UNL     1       5.424 -37.603  22.345  1.00  0.00     0.010 A 
ATOM      4  C   UNL     1       4.945 -36.918  19.677  1.00  0.00     0.004 A 
ATOM      5  C   UNL     1       5.333 -36.258  21.975  1.00  0.00     0.004 A 
ATOM      6  C   UNL     1       5.093 -35.901  20.635  1.00  0.00    -0.045 A 
ENDROOT
BRANCH   1   7
ATOM      7  C   UNL     1       5.370 -40.044  21.773  1.00  0.00     0.071 C 
ATOM      8  O   UNL     1       4.787 -40.466  22.809  1.00  0.00    -0.545 OA
ATOM      9  O   UNL     1       6.103 -40.937  21.002  1.00  0.00    -0.545 OA
ENDBRANCH   1   7
BRANCH   6  10
ATOM     10  C   UNL     1       4.993 -34.445  20.218  1.00  0.00     0.013 C 
ATOM     11  C   UNL     1       4.864 -34.315  18.696  1.00  0.00     0.012 C 
ATOM     12  C   UNL     1       3.834 -33.743  20.933  1.00  0.00     0.012 C 
ENDBRANCH   6  10
TORSDOF 2
ENDMDL
MODEL 5
REMARK VINA RESULT:    -1.647      2.526      3.851
REMARK INTER + INTRA:          -2.049
REMARK INTER:                  -1.834
REMARK INTRA:                  -0.215
REMARK UNBOUND:                -0.210
REMARK SMILES CC(C)c1ccc(C(=O)[O-])cc1
REMARK SMILES IDX 7 1 6 2 11 3 5 4 12 5 4 6 8 7 9 8 10 9 2 10 1 11 3 12
REMARK H PARENT
REMARK Flexibility Score: inf
ROOT
ATOM      1  C   UNL     1       4.938 -35.141  22.017  1.00  0.00    -0.003 A 
ATOM      2  C   UNL     1       5.058 -36.096  23.040  1.00  0.00     0.010 A 
ATOM      3  C   UNL     1       4.864 -35.577  20.683  1.00  0.00     0.010 A 
ATOM      4  C   UNL     1       5.103 -37.460  22.736  1.00  0.00     0.004 A 
ATOM      5  C   UNL     1       4.909 -36.941  20.378  1.00  0.00     0.004 A 
ATOM      6  C   UNL     1       5.029 -37.898  21.403  1.00  0.00    -0.045 A 
ENDROOT
BRANCH   1   7
ATOM      7  C   UNL     1       4.890 -33.698  22.343  1.00  0.00     0.071 C 
ATOM      8  O   UNL     1       5.711 -33.199  23.160  1.00  0.00    -0.545 OA
ATOM      9  O   UNL     1       3.939 -32.874  21.755  1.00  0.00    -0.545 OA
ENDBRANCH   1   7
BRANCH   6  10
ATOM     10  C   UNL     1       5.080 -39.381  21.087  1.00  0.00     0.013 C 
ATOM     11  C   UNL     1       6.085 -39.673  19.967  1.00  0.00     0.012 C 
ATOM     12  C   UNL     1       5.398 -40.203  22.342  1.00  0.00     0.012 C 
ENDBRANCH   6  10
TORSDOF 2
ENDMDL
