MODEL 1
REMARK VINA RESULT:    -5.134      0.000      0.000
REMARK INTER + INTRA:          -5.807
REMARK INTER:                  -5.584
REMARK INTRA:                  -0.223
REMARK UNBOUND:                -0.223
REMARK SMILES O=C([O-])c1ccccc1O
REMARK SMILES IDX 4 1 9 2 5 3 8 4 6 5 7 6 2 7 1 8 3 9 10 10
REMARK H PARENT 10 11
REMARK Flexibility Score: inf
ROOT
ATOM      1  C   UNL     1      31.459  19.268  11.498  1.00  0.00     0.039 A 
ATOM      2  C   UNL     1      31.362  18.986  12.882  1.00  0.00     0.124 A 
ATOM      3  C   UNL     1      32.625  19.895  11.015  1.00  0.00     0.014 A 
ATOM      4  C   UNL     1      32.415  19.333  13.742  1.00  0.00     0.047 A 
ATOM      5  C   UNL     1      33.665  20.234  11.883  1.00  0.00     0.001 A 
ATOM      6  C   UNL     1      33.560  19.954  13.244  1.00  0.00     0.004 A 
ENDROOT
BRANCH   1   7
ATOM      7  C   UNL     1      30.369  18.917  10.551  1.00  0.00     0.075 C 
ATOM      8  O   UNL     1      30.070  17.710  10.344  1.00  0.00    -0.545 OA
ATOM      9  O   UNL     1      29.660  19.903   9.876  1.00  0.00    -0.545 OA
ENDBRANCH   1   7
BRANCH   2  10
ATOM     10  O   UNL     1      30.228  18.365  13.406  1.00  0.00    -0.507 OA
ATOM     11  H   UNL     1      29.929  18.520  14.362  1.00  0.00     0.293 HD
ENDBRANCH   2  10
TORSDOF 2
ENDMDL
MODEL 2
REMARK VINA RESULT:    -4.955      2.354      2.933
REMARK INTER + INTRA:          -5.612
REMARK INTER:                  -5.366
REMARK INTRA:                  -0.247
REMARK UNBOUND:                -0.223
REMARK SMILES O=C([O-])c1ccccc1O
REMARK SMILES IDX 4 1 9 2 5 3 8 4 6 5 7 6 2 7 1 8 3 9 10 10
REMARK H PARENT 10 11
REMARK Flexibility Score: inf
ROOT
ATOM      1  C   UNL     1      32.476  20.586  13.178  1.00  0.00     0.039 A 
ATOM      2  C   UNL     1      31.762  21.710  13.657  1.00  0.00     0.124 A 
ATOM      3  C   UNL     1      33.796  20.381  13.628  1.00  0.00     0.014 A 
ATOM      4  C   UNL     1      32.371  22.594  14.560  1.00  0.00     0.047 A 
ATOM      5  C   UNL     1      34.390  21.270  14.527  1.00  0.00     0.001 A 
ATOM      6  C   UNL     1      33.679  22.374  14.992  1.00  0.00     0.004 A 
ENDROOT
BRANCH   1   7
ATOM      7  C   UNL     1      31.870  19.624  12.222  1.00  0.00     0.075 C 
ATOM      8  O   UNL     1      30.784  19.048  12.502  1.00  0.00    -0.545 OA
ATOM      9  O   UNL     1      32.481  19.337  11.008  1.00  0.00    -0.545 OA
ENDBRANCH   1   7
BRANCH   2  10
ATOM     10  O   UNL     1      30.452  21.954  13.241  1.00  0.00    -0.507 OA
ATOM     11  H   UNL     1      30.217  22.750  12.660  1.00  0.00     0.293 HD
ENDBRANCH   2  10
TORSDOF 2
ENDMDL
MODEL 3
REMARK VINA RESULT:    -4.760      3.059      3.796
REMARK INTER + INTRA:          -5.400
REMARK INTER:                  -5.151
REMARK INTRA:                  -0.249
REMARK UNBOUND:                -0.223
REMARK SMILES O=C([O-])c1ccccc1O
REMARK SMILES IDX 4 1 9 2 5 3 8 4 6 5 7 6 2 7 1 8 3 9 10 10
REMARK H PARENT 10 11
REMARK Flexibility Score: inf
ROOT
ATOM      1  C   UNL     1      33.197  20.895  13.212  1.00  0.00     0.039 A 
ATOM      2  C   UNL     1      34.433  20.937  13.901  1.00  0.00     0.124 A 
ATOM      3  C   UNL     1      32.152  21.737  13.645  1.00  0.00     0.014 A 
ATOM      4  C   UNL     1      34.597  21.803  14.992  1.00  0.00     0.047 A 
ATOM      5  C   UNL     1      32.330  22.594  14.733  1.00  0.00     0.001 A 
ATOM      6  C   UNL     1      33.550  22.627  15.406  1.00  0.00     0.004 A 
ENDROOT
BRANCH   1   7
ATOM      7  C   UNL     1      32.980  19.994  12.051  1.00  0.00     0.075 C 
ATOM      8  O   UNL     1      33.768  20.022  11.068  1.00  0.00    -0.545 OA
ATOM      9  O   UNL     1      31.911  19.107  12.021  1.00  0.00    -0.545 OA
ENDBRANCH   1   7
BRANCH   2  10
ATOM     10  O   UNL     1      35.497  20.124  13.509  1.00  0.00    -0.507 OA
ATOM     11  H   UNL     1      35.455  19.115  13.592  1.00  0.00     0.293 HD
ENDBRANCH   2  10
TORSDOF 2
ENDMDL
MODEL 4
REMARK VINA RESULT:    -4.746      2.693      4.192
REMARK INTER + INTRA:          -5.385
REMARK INTER:                  -5.134
REMARK INTRA:                  -0.251
REMARK UNBOUND:                -0.223
REMARK SMILES O=C([O-])c1ccccc1O
REMARK SMILES IDX 4 1 9 2 5 3 8 4 6 5 7 6 2 7 1 8 3 9 10 10
REMARK H PARENT 10 11
REMARK Flexibility Score: inf
ROOT
ATOM      1  C   UNL     1      32.702  19.891  12.565  1.00  0.00     0.039 A 
ATOM      2  C   UNL     1      33.010  19.628  11.209  1.00  0.00     0.124 A 
ATOM      3  C   UNL     1      31.451  19.479  13.068  1.00  0.00     0.014 A 
ATOM      4  C   UNL     1      32.076  18.970  10.394  1.00  0.00     0.047 A 
ATOM      5  C   UNL     1      30.532  18.826  12.245  1.00  0.00     0.001 A 
ATOM      6  C   UNL     1      30.843  18.572  10.911  1.00  0.00     0.004 A 
ENDROOT
BRANCH   1   7
ATOM      7  C   UNL     1      33.661  20.583  13.464  1.00  0.00     0.075 C 
ATOM      8  O   UNL     1      34.857  20.193  13.540  1.00  0.00    -0.545 OA
ATOM      9  O   UNL     1      33.266  21.669  14.236  1.00  0.00    -0.545 OA
ENDBRANCH   1   7
BRANCH   2  10
ATOM     10  O   UNL     1      34.235  20.015  10.667  1.00  0.00    -0.507 OA
ATOM     11  H   UNL     1      35.097  19.538  10.903  1.00  0.00     0.293 HD
ENDBRANCH   2  10
TORSDOF 2
ENDMDL
MODEL 5
REMARK VINA RESULT:    -4.688      3.275      4.772
REMARK INTER + INTRA:          -5.323
REMARK INTER:                  -5.127
REMARK INTRA:                  -0.196
REMARK UNBOUND:                -0.223
REMARK SMILES O=C([O-])c1ccccc1O
REMARK SMILES IDX 4 1 9 2 5 3 8 4 6 5 7 6 2 7 1 8 3 9 10 10
REMARK H PARENT 10 11
REMARK Flexibility Score: inf
ROOT
ATOM      1  C   UNL     1      33.015  20.930  13.763  1.00  0.00     0.039 A 
ATOM      2  C   UNL     1      32.556  21.619  12.615  1.00  0.00     0.124 A 
ATOM      3  C   UNL     1      32.563  19.614  13.989  1.00  0.00     0.014 A 
ATOM      4  C   UNL     1      31.667  20.990  11.730  1.00  0.00     0.047 A 
ATOM      5  C   UNL     1      31.678  19.001  13.100  1.00  0.00     0.001 A 
ATOM      6  C   UNL     1      31.231  19.687  11.973  1.00  0.00     0.004 A 
ENDROOT
BRANCH   1   7
ATOM      7  C   UNL     1      33.957  21.557  14.726  1.00  0.00     0.075 C 
ATOM      8  O   UNL     1      35.126  21.105  14.858  1.00  0.00    -0.545 OA
ATOM      9  O   UNL     1      33.574  22.646  15.499  1.00  0.00    -0.545 OA
ENDBRANCH   1   7
BRANCH   2  10
ATOM     10  O   UNL     1      32.976  22.922  12.349  1.00  0.00    -0.507 OA
ATOM     11  H   UNL     1      33.942  23.136  12.130  1.00  0.00     0.293 HD
ENDBRANCH   2  10
TORSDOF 2
ENDMDL
MODEL 6
REMARK VINA RESULT:    -4.620      1.777      2.430
REMARK INTER + INTRA:          -5.249
REMARK INTER:                  -5.006
REMARK INTRA:                  -0.242
REMARK UNBOUND:                -0.223
REMARK SMILES O=C([O-])c1ccccc1O
REMARK SMILES IDX 4 1 9 2 5 3 8 4 6 5 7 6 2 7 1 8 3 9 10 10
REMARK H PARENT 10 11
REMARK Flexibility Score: inf
ROOT
ATOM      1  C   UNL     1      32.156  19.420  11.651  1.00  0.00     0.039 A 
ATOM      2  C   UNL     1      33.483  19.914  11.660  1.00  0.00     0.124 A 
ATOM      3  C   UNL     1      31.397  19.498  12.836  1.00  0.00     0.014 A 
ATOM      4  C   UNL     1      34.016  20.467  12.834  1.00  0.00     0.047 A 
ATOM      5  C   UNL     1      31.941  20.050  13.998  1.00  0.00     0.001 A 
ATOM      6  C   UNL     1      33.248  20.534  13.997  1.00  0.00     0.004 A 
ENDROOT
BRANCH   1   7
ATOM      7  C   UNL     1      31.551  18.828  10.430  1.00  0.00     0.075 C 
ATOM      8  O   UNL     1      32.086  17.831   9.875  1.00  0.00    -0.545 OA
ATOM      9  O   UNL     1      30.391  19.355   9.875  1.00  0.00    -0.545 OA
ENDBRANCH   1   7
BRANCH   2  10
ATOM     10  O   UNL     1      34.272  19.860  10.511  1.00  0.00    -0.507 OA
ATOM     11  H   UNL     1      34.774  20.672  10.171  1.00  0.00     0.293 HD
ENDBRANCH   2  10
TORSDOF 2
ENDMDL
MODEL 7
REMARK VINA RESULT:    -4.499      2.485      3.781
REMARK INTER + INTRA:          -5.117
REMARK INTER:                  -4.943
REMARK INTRA:                  -0.174
REMARK UNBOUND:                -0.223
REMARK SMILES O=C([O-])c1ccccc1O
REMARK SMILES IDX 4 1 9 2 5 3 8 4 6 5 7 6 2 7 1 8 3 9 10 10
REMARK H PARENT 10 11
REMARK Flexibility Score: inf
ROOT
ATOM      1  C   UNL     1      32.385  20.464  12.816  1.00  0.00     0.039 A 
ATOM      2  C   UNL     1      31.588  19.300  12.934  1.00  0.00     0.124 A 
ATOM      3  C   UNL     1      32.048  21.418  11.834  1.00  0.00     0.014 A 
ATOM      4  C   UNL     1      30.488  19.115  12.083  1.00  0.00     0.047 A 
ATOM      5  C   UNL     1      30.950  21.220  10.993  1.00  0.00     0.001 A 
ATOM      6  C   UNL     1      30.172  20.071  11.117  1.00  0.00     0.004 A 
ENDROOT
BRANCH   1   7
ATOM      7  C   UNL     1      33.557  20.702  13.696  1.00  0.00     0.075 C 
ATOM      8  O   UNL     1      34.622  20.048  13.527  1.00  0.00    -0.545 OA
ATOM      9  O   UNL     1      33.509  21.641  14.719  1.00  0.00    -0.545 OA
ENDBRANCH   1   7
BRANCH   2  10
ATOM     10  O   UNL     1      31.882  18.329  13.891  1.00  0.00    -0.507 OA
ATOM     11  H   UNL     1      32.002  17.354  13.642  1.00  0.00     0.293 HD
ENDBRANCH   2  10
TORSDOF 2
ENDMDL
MODEL 8
REMARK VINA RESULT:    -4.412      2.227      3.661
REMARK INTER + INTRA:          -5.022
REMARK INTER:                  -4.773
REMARK INTRA:                  -0.249
REMARK UNBOUND:                -0.223
REMARK SMILES O=C([O-])c1ccccc1O
REMARK SMILES IDX 4 1 9 2 5 3 8 4 6 5 7 6 2 7 1 8 3 9 10 10
REMARK H PARENT 10 11
REMARK Flexibility Score: inf
ROOT
ATOM      1  C   UNL     1      31.712  19.723  11.339  1.00  0.00     0.039 A 
ATOM      2  C   UNL     1      30.327  19.856  11.600  1.00  0.00     0.124 A 
ATOM      3  C   UNL     1      32.142  18.701  10.468  1.00  0.00     0.014 A 
ATOM      4  C   UNL     1      29.413  18.978  10.997  1.00  0.00     0.047 A 
ATOM      5  C   UNL     1      31.220  17.834   9.876  1.00  0.00     0.001 A 
ATOM      6  C   UNL     1      29.859  17.972  10.140  1.00  0.00     0.004 A 
ENDROOT
BRANCH   1   7
ATOM      7  C   UNL     1      32.714  20.630  11.954  1.00  0.00     0.075 C 
ATOM      8  O   UNL     1      32.603  21.880  11.828  1.00  0.00    -0.545 OA
ATOM      9  O   UNL     1      33.790  20.128  12.677  1.00  0.00    -0.545 OA
ENDBRANCH   1   7
BRANCH   2  10
ATOM     10  O   UNL     1      29.854  20.853  12.454  1.00  0.00    -0.507 OA
ATOM     11  H   UNL     1      30.389  21.166  13.256  1.00  0.00     0.293 HD
ENDBRANCH   2  10
TORSDOF 2
ENDMDL
