MODEL 1
REMARK VINA RESULT:    -4.675      0.000      0.000
REMARK INTER + INTRA:          -6.622
REMARK INTER:                  -6.315
REMARK INTRA:                  -0.307
REMARK UNBOUND:                -0.307
REMARK SMILES CCCCCCCC(=O)[O-]
REMARK SMILES IDX 5 1 6 2 7 3 8 4 9 5 10 6 4 7 3 8 2 9 1 10
REMARK H PARENT
REMARK Flexibility Score: inf
ROOT
ATOM      1  C   UNL     1      46.393  -7.258  24.366  1.00  0.00     0.000 C 
ENDROOT
BRANCH   1   2
ATOM      2  C   UNL     1      45.309  -7.846  25.281  1.00  0.00     0.006 C 
BRANCH   2   3
ATOM      3  C   UNL     1      45.470  -7.394  26.738  1.00  0.00     0.053 C 
BRANCH   3   4
ATOM      4  C   UNL     1      44.953  -6.003  26.947  1.00  0.00     0.041 C 
ATOM      5  O   UNL     1      43.923  -5.611  26.338  1.00  0.00    -0.550 OA
ATOM      6  O   UNL     1      45.592  -5.149  27.837  1.00  0.00    -0.550 OA
ENDBRANCH   3   4
ENDBRANCH   2   3
ENDBRANCH   1   2
BRANCH   1   7
ATOM      7  C   UNL     1      47.778  -7.363  25.016  1.00  0.00     0.000 C 
BRANCH   7   8
ATOM      8  C   UNL     1      48.889  -7.276  23.960  1.00  0.00    -0.000 C 
BRANCH   8   9
ATOM      9  C   UNL     1      48.339  -7.038  22.544  1.00  0.00    -0.003 C 
ATOM     10  C   UNL     1      48.956  -7.974  21.505  1.00  0.00     0.004 C 
ENDBRANCH   8   9
ENDBRANCH   7   8
ENDBRANCH   1   7
TORSDOF 6
ENDMDL
MODEL 2
REMARK VINA RESULT:    -4.664      1.762      2.285
REMARK INTER + INTRA:          -6.607
REMARK INTER:                  -6.335
REMARK INTRA:                  -0.272
REMARK UNBOUND:                -0.307
REMARK SMILES CCCCCCCC(=O)[O-]
REMARK SMILES IDX 5 1 6 2 7 3 8 4 9 5 10 6 4 7 3 8 2 9 1 10
REMARK H PARENT
REMARK Flexibility Score: inf
ROOT
ATOM      1  C   UNL     1      45.469  -7.495  25.722  1.00  0.00     0.000 C 
ENDROOT
BRANCH   1   2
ATOM      2  C   UNL     1      45.004  -6.081  26.100  1.00  0.00     0.006 C 
BRANCH   2   3
ATOM      3  C   UNL     1      45.954  -5.403  27.095  1.00  0.00     0.053 C 
BRANCH   3   4
ATOM      4  C   UNL     1      46.986  -4.570  26.397  1.00  0.00     0.041 C 
ATOM      5  O   UNL     1      46.759  -3.357  26.150  1.00  0.00    -0.550 OA
ATOM      6  O   UNL     1      48.209  -5.128  26.047  1.00  0.00    -0.550 OA
ENDBRANCH   3   4
ENDBRANCH   2   3
ENDBRANCH   1   2
BRANCH   1   7
ATOM      7  C   UNL     1      45.561  -7.656  24.199  1.00  0.00     0.000 C 
BRANCH   7   8
ATOM      8  C   UNL     1      46.980  -7.348  23.700  1.00  0.00    -0.000 C 
BRANCH   8   9
ATOM      9  C   UNL     1      47.195  -7.769  22.237  1.00  0.00    -0.003 C 
ATOM     10  C   UNL     1      48.674  -7.845  21.855  1.00  0.00     0.004 C 
ENDBRANCH   8   9
ENDBRANCH   7   8
ENDBRANCH   1   7
TORSDOF 6
ENDMDL
MODEL 3
REMARK VINA RESULT:    -4.659      2.706      4.578
REMARK INTER + INTRA:          -6.600
REMARK INTER:                  -6.038
REMARK INTRA:                  -0.562
REMARK UNBOUND:                -0.307
REMARK SMILES CCCCCCCC(=O)[O-]
REMARK SMILES IDX 5 1 6 2 7 3 8 4 9 5 10 6 4 7 3 8 2 9 1 10
REMARK H PARENT
REMARK Flexibility Score: inf
ROOT
ATOM      1  C   UNL     1      45.503  -7.714  24.766  1.00  0.00     0.000 C 
ENDROOT
BRANCH   1   2
ATOM      2  C   UNL     1      46.830  -7.249  24.148  1.00  0.00     0.006 C 
BRANCH   2   3
ATOM      3  C   UNL     1      48.012  -7.422  25.111  1.00  0.00     0.053 C 
BRANCH   3   4
ATOM      4  C   UNL     1      49.097  -6.423  24.843  1.00  0.00     0.041 C 
ATOM      5  O   UNL     1      48.860  -5.404  24.142  1.00  0.00    -0.550 OA
ATOM      6  O   UNL     1      50.360  -6.603  25.392  1.00  0.00    -0.550 OA
ENDBRANCH   3   4
ENDBRANCH   2   3
ENDBRANCH   1   2
BRANCH   1   7
ATOM      7  C   UNL     1      45.555  -7.643  26.298  1.00  0.00     0.000 C 
BRANCH   7   8
ATOM      8  C   UNL     1      44.790  -6.417  26.816  1.00  0.00    -0.000 C 
BRANCH   8   9
ATOM      9  C   UNL     1      45.698  -5.430  27.568  1.00  0.00    -0.003 C 
ATOM     10  C   UNL     1      46.320  -4.379  26.648  1.00  0.00     0.004 C 
ENDBRANCH   8   9
ENDBRANCH   7   8
ENDBRANCH   1   7
TORSDOF 6
ENDMDL
MODEL 4
REMARK VINA RESULT:    -4.606      1.505      2.094
REMARK INTER + INTRA:          -6.528
REMARK INTER:                  -6.231
REMARK INTRA:                  -0.297
REMARK UNBOUND:                -0.307
REMARK SMILES CCCCCCCC(=O)[O-]
REMARK SMILES IDX 5 1 6 2 7 3 8 4 9 5 10 6 4 7 3 8 2 9 1 10
REMARK H PARENT
REMARK Flexibility Score: inf
ROOT
ATOM      1  C   UNL     1      46.061  -7.721  26.284  1.00  0.00     0.000 C 
ENDROOT
BRANCH   1   2
ATOM      2  C   UNL     1      45.303  -6.624  27.046  1.00  0.00     0.006 C 
BRANCH   2   3
ATOM      3  C   UNL     1      45.216  -5.316  26.248  1.00  0.00     0.053 C 
BRANCH   3   4
ATOM      4  C   UNL     1      46.306  -4.361  26.631  1.00  0.00     0.041 C 
ATOM      5  O   UNL     1      47.459  -4.486  26.142  1.00  0.00    -0.550 OA
ATOM      6  O   UNL     1      46.038  -3.315  27.504  1.00  0.00    -0.550 OA
ENDBRANCH   3   4
ENDBRANCH   2   3
ENDBRANCH   1   2
BRANCH   1   7
ATOM      7  C   UNL     1      45.883  -7.562  24.768  1.00  0.00     0.000 C 
BRANCH   7   8
ATOM      8  C   UNL     1      47.242  -7.418  24.068  1.00  0.00    -0.000 C 
BRANCH   8   9
ATOM      9  C   UNL     1      47.127  -7.480  22.537  1.00  0.00    -0.003 C 
ATOM     10  C   UNL     1      48.440  -7.873  21.860  1.00  0.00     0.004 C 
ENDBRANCH   8   9
ENDBRANCH   7   8
ENDBRANCH   1   7
TORSDOF 6
ENDMDL
MODEL 5
REMARK VINA RESULT:    -4.526      2.990      4.588
REMARK INTER + INTRA:          -6.420
REMARK INTER:                  -5.885
REMARK INTRA:                  -0.534
REMARK UNBOUND:                -0.307
REMARK SMILES CCCCCCCC(=O)[O-]
REMARK SMILES IDX 5 1 6 2 7 3 8 4 9 5 10 6 4 7 3 8 2 9 1 10
REMARK H PARENT
REMARK Flexibility Score: inf
ROOT
ATOM      1  C   UNL     1      46.245  -4.643  26.285  1.00  0.00     0.000 C 
ENDROOT
BRANCH   1   2
ATOM      2  C   UNL     1      47.774  -4.729  26.161  1.00  0.00     0.006 C 
BRANCH   2   3
ATOM      3  C   UNL     1      48.213  -5.451  24.880  1.00  0.00     0.053 C 
BRANCH   3   4
ATOM      4  C   UNL     1      49.194  -6.546  25.170  1.00  0.00     0.041 C 
ATOM      5  O   UNL     1      48.927  -7.736  24.858  1.00  0.00    -0.550 OA
ATOM      6  O   UNL     1      50.418  -6.246  25.756  1.00  0.00    -0.550 OA
ENDBRANCH   3   4
ENDBRANCH   2   3
ENDBRANCH   1   2
BRANCH   1   7
ATOM      7  C   UNL     1      45.741  -5.485  27.464  1.00  0.00     0.000 C 
BRANCH   7   8
ATOM      8  C   UNL     1      44.796  -6.595  26.980  1.00  0.00    -0.000 C 
BRANCH   8   9
ATOM      9  C   UNL     1      45.540  -7.732  26.263  1.00  0.00    -0.003 C 
ATOM     10  C   UNL     1      45.235  -7.788  24.766  1.00  0.00     0.004 C 
ENDBRANCH   8   9
ENDBRANCH   7   8
ENDBRANCH   1   7
TORSDOF 6
ENDMDL
MODEL 6
REMARK VINA RESULT:    -4.520      1.493      2.304
REMARK INTER + INTRA:          -6.412
REMARK INTER:                  -5.989
REMARK INTRA:                  -0.423
REMARK UNBOUND:                -0.307
REMARK SMILES CCCCCCCC(=O)[O-]
REMARK SMILES IDX 5 1 6 2 7 3 8 4 9 5 10 6 4 7 3 8 2 9 1 10
REMARK H PARENT
REMARK Flexibility Score: inf
ROOT
ATOM      1  C   UNL     1      46.113  -7.401  24.145  1.00  0.00     0.000 C 
ENDROOT
BRANCH   1   2
ATOM      2  C   UNL     1      45.928  -7.226  25.660  1.00  0.00     0.006 C 
BRANCH   2   3
ATOM      3  C   UNL     1      45.023  -6.034  26.000  1.00  0.00     0.053 C 
BRANCH   3   4
ATOM      4  C   UNL     1      45.804  -4.893  26.576  1.00  0.00     0.041 C 
ATOM      5  O   UNL     1      45.518  -4.439  27.716  1.00  0.00    -0.550 OA
ATOM      6  O   UNL     1      46.868  -4.350  25.867  1.00  0.00    -0.550 OA
ENDBRANCH   3   4
ENDBRANCH   2   3
ENDBRANCH   1   2
BRANCH   1   7
ATOM      7  C   UNL     1      47.599  -7.386  23.766  1.00  0.00     0.000 C 
BRANCH   7   8
ATOM      8  C   UNL     1      48.485  -7.404  25.020  1.00  0.00    -0.000 C 
BRANCH   8   9
ATOM      9  C   UNL     1      49.887  -6.829  24.761  1.00  0.00    -0.003 C 
ATOM     10  C   UNL     1      50.311  -5.808  25.816  1.00  0.00     0.004 C 
ENDBRANCH   8   9
ENDBRANCH   7   8
ENDBRANCH   1   7
TORSDOF 6
ENDMDL
MODEL 7
REMARK VINA RESULT:    -4.478      2.176      4.582
REMARK INTER + INTRA:          -6.355
REMARK INTER:                  -5.910
REMARK INTRA:                  -0.445
REMARK UNBOUND:                -0.307
REMARK SMILES CCCCCCCC(=O)[O-]
REMARK SMILES IDX 5 1 6 2 7 3 8 4 9 5 10 6 4 7 3 8 2 9 1 10
REMARK H PARENT
REMARK Flexibility Score: inf
ROOT
ATOM      1  C   UNL     1      45.553  -7.372  24.603  1.00  0.00     0.000 C 
ENDROOT
BRANCH   1   2
ATOM      2  C   UNL     1      46.964  -7.378  23.996  1.00  0.00     0.006 C 
BRANCH   2   3
ATOM      3  C   UNL     1      48.059  -7.357  25.070  1.00  0.00     0.053 C 
BRANCH   3   4
ATOM      4  C   UNL     1      48.655  -5.991  25.227  1.00  0.00     0.041 C 
ATOM      5  O   UNL     1      49.884  -5.808  25.026  1.00  0.00    -0.550 OA
ATOM      6  O   UNL     1      47.845  -4.914  25.566  1.00  0.00    -0.550 OA
ENDBRANCH   3   4
ENDBRANCH   2   3
ENDBRANCH   1   2
BRANCH   1   7
ATOM      7  C   UNL     1      45.576  -7.878  26.051  1.00  0.00     0.000 C 
BRANCH   7   8
ATOM      8  C   UNL     1      45.124  -6.780  27.024  1.00  0.00    -0.000 C 
BRANCH   8   9
ATOM      9  C   UNL     1      44.451  -5.597  26.308  1.00  0.00    -0.003 C 
ATOM     10  C   UNL     1      42.997  -5.398  26.735  1.00  0.00     0.004 C 
ENDBRANCH   8   9
ENDBRANCH   7   8
ENDBRANCH   1   7
TORSDOF 6
ENDMDL
MODEL 8
REMARK VINA RESULT:    -4.478      1.374      2.059
REMARK INTER + INTRA:          -6.355
REMARK INTER:                  -5.992
REMARK INTRA:                  -0.362
REMARK UNBOUND:                -0.307
REMARK SMILES CCCCCCCC(=O)[O-]
REMARK SMILES IDX 5 1 6 2 7 3 8 4 9 5 10 6 4 7 3 8 2 9 1 10
REMARK H PARENT
REMARK Flexibility Score: inf
ROOT
ATOM      1  C   UNL     1      47.809  -5.948  25.249  1.00  0.00     0.000 C 
ENDROOT
BRANCH   1   2
ATOM      2  C   UNL     1      47.551  -7.385  25.726  1.00  0.00     0.006 C 
BRANCH   2   3
ATOM      3  C   UNL     1      46.146  -7.558  26.317  1.00  0.00     0.053 C 
BRANCH   3   4
ATOM      4  C   UNL     1      45.081  -7.188  25.330  1.00  0.00     0.041 C 
ATOM      5  O   UNL     1      44.322  -6.208  25.553  1.00  0.00    -0.550 OA
ATOM      6  O   UNL     1      44.947  -7.907  24.149  1.00  0.00    -0.550 OA
ENDBRANCH   3   4
ENDBRANCH   2   3
ENDBRANCH   1   2
BRANCH   1   7
ATOM      7  C   UNL     1      48.753  -5.931  24.040  1.00  0.00     0.000 C 
BRANCH   7   8
ATOM      8  C   UNL     1      48.918  -7.340  23.452  1.00  0.00    -0.000 C 
BRANCH   8   9
ATOM      9  C   UNL     1      48.308  -7.468  22.047  1.00  0.00    -0.003 C 
ATOM     10  C   UNL     1      49.286  -8.056  21.030  1.00  0.00     0.004 C 
ENDBRANCH   8   9
ENDBRANCH   7   8
ENDBRANCH   1   7
TORSDOF 6
ENDMDL
MODEL 9
REMARK VINA RESULT:    -4.331      3.121      4.960
REMARK INTER + INTRA:          -6.157
REMARK INTER:                  -5.677
REMARK INTRA:                  -0.480
REMARK UNBOUND:                -0.307
REMARK SMILES CCCCCCCC(=O)[O-]
REMARK SMILES IDX 5 1 6 2 7 3 8 4 9 5 10 6 4 7 3 8 2 9 1 10
REMARK H PARENT
REMARK Flexibility Score: inf
ROOT
ATOM      1  C   UNL     1      48.278  -5.334  25.654  1.00  0.00     0.000 C 
ENDROOT
BRANCH   1   2
ATOM      2  C   UNL     1      48.382  -5.600  24.145  1.00  0.00     0.006 C 
BRANCH   2   3
ATOM      3  C   UNL     1      48.608  -7.084  23.830  1.00  0.00     0.053 C 
BRANCH   3   4
ATOM      4  C   UNL     1      48.050  -7.458  22.490  1.00  0.00     0.041 C 
ATOM      5  O   UNL     1      48.818  -7.838  21.567  1.00  0.00    -0.550 OA
ATOM      6  O   UNL     1      46.679  -7.416  22.272  1.00  0.00    -0.550 OA
ENDBRANCH   3   4
ENDBRANCH   2   3
ENDBRANCH   1   2
BRANCH   1   7
ATOM      7  C   UNL     1      46.983  -4.584  25.993  1.00  0.00     0.000 C 
BRANCH   7   8
ATOM      8  C   UNL     1      46.035  -5.470  26.814  1.00  0.00    -0.000 C 
BRANCH   8   9
ATOM      9  C   UNL     1      45.110  -6.322  25.931  1.00  0.00    -0.003 C 
ATOM     10  C   UNL     1      45.517  -7.795  25.896  1.00  0.00     0.004 C 
ENDBRANCH   8   9
ENDBRANCH   7   8
ENDBRANCH   1   7
TORSDOF 6
ENDMDL
