MODEL 1
REMARK VINA RESULT:     1.129      0.000      0.000
REMARK INTER + INTRA:           1.267
REMARK INTER:                   1.360
REMARK INTRA:                  -0.094
REMARK UNBOUND:                -0.094
REMARK SMILES O=c1c(O)c(-c2ccc(O)c(O)c2)oc2cc(O)cc(O)c12
REMARK SMILES IDX 5 1 3 2 2 3 1 4 22 5 20 6 19 7 17 8 16 9 15 10 14 11 6 12
REMARK SMILES IDX 7 13 8 14 9 15 13 16 11 17 10 18 12 20 4 22 21 24 18 26
REMARK H PARENT 10 19 12 21 4 23 21 25 18 27
REMARK Flexibility Score: inf
ROOT
ATOM      1  C   UNL     1      -9.364 -34.649   1.054  1.00  0.00     0.180 A 
ATOM      2  C   UNL     1      -8.206 -35.328   1.468  1.00  0.00     0.208 A 
ATOM      3  C   UNL     1      -7.798 -35.223   2.808  1.00  0.00     0.238 A 
ATOM      4  O   UNL     1      -6.791 -35.877   3.185  1.00  0.00    -0.285 OA
ATOM      5  C   UNL     1      -8.543 -34.428   3.711  1.00  0.00     0.111 A 
ATOM      6  C   UNL     1      -8.199 -34.218   5.080  1.00  0.00     0.134 A 
ATOM      7  C   UNL     1      -9.079 -33.519   5.915  1.00  0.00     0.093 A 
ATOM      8  C   UNL     1     -10.260 -32.967   5.413  1.00  0.00     0.123 A 
ATOM      9  C   UNL     1     -10.576 -33.115   4.065  1.00  0.00     0.094 A 
ATOM     10  C   UNL     1      -9.735 -33.838   3.216  1.00  0.00     0.146 A 
ATOM     11  O   UNL     1     -10.078 -33.965   1.940  1.00  0.00    -0.452 OA
ENDROOT
BRANCH   1  12
ATOM     12  C   UNL     1      -9.844 -34.691  -0.346  1.00  0.00     0.025 A 
ATOM     13  C   UNL     1     -10.172 -35.907  -0.971  1.00  0.00     0.016 A 
ATOM     14  C   UNL     1     -10.600 -35.926  -2.301  1.00  0.00     0.051 A 
ATOM     15  C   UNL     1     -10.694 -34.732  -3.029  1.00  0.00     0.157 A 
ATOM     16  C   UNL     1      -9.920 -33.500  -1.088  1.00  0.00     0.062 A 
ATOM     17  C   UNL     1     -10.351 -33.518  -2.422  1.00  0.00     0.158 A 
BRANCH  15  18
ATOM     18  O   UNL     1     -11.122 -34.747  -4.355  1.00  0.00    -0.504 OA
ATOM     19  H   UNL     1     -10.718 -34.129  -5.050  1.00  0.00     0.293 HD
ENDBRANCH  15  18
BRANCH  17  20
ATOM     20  O   UNL     1     -10.438 -32.334  -3.151  1.00  0.00    -0.504 OA
ATOM     21  H   UNL     1     -10.955 -31.534  -2.803  1.00  0.00     0.293 HD
ENDBRANCH  17  20
ENDBRANCH   1  12
BRANCH   2  22
ATOM     22  O   UNL     1      -7.497 -36.125   0.566  1.00  0.00    -0.502 OA
ATOM     23  H   UNL     1      -7.927 -36.530  -0.257  1.00  0.00     0.293 HD
ENDBRANCH   2  22
BRANCH   6  24
ATOM     24  O   UNL     1      -7.001 -34.648   5.659  1.00  0.00    -0.507 OA
ATOM     25  H   UNL     1      -6.777 -34.576   6.640  1.00  0.00     0.293 HD
ENDBRANCH   6  24
BRANCH   8  26
ATOM     26  O   UNL     1     -11.124 -32.258   6.248  1.00  0.00    -0.508 OA
ATOM     27  H   UNL     1     -11.579 -32.701   7.036  1.00  0.00     0.293 HD
ENDBRANCH   8  26
TORSDOF 6
ENDMDL
