MODEL 1
REMARK VINA RESULT:    -3.128      0.000      0.000
REMARK INTER + INTRA:          -6.351
REMARK INTER:                  -5.687
REMARK INTRA:                  -0.664
REMARK UNBOUND:                -0.664
REMARK SMILES CCCCCCCCCCCCCCCC(=O)[O-]
REMARK SMILES IDX 9 1 10 2 11 3 12 4 13 5 14 6 15 7 16 8 17 9 18 10 8 11 7 12
REMARK SMILES IDX 6 13 5 14 4 15 3 16 2 17 1 18
REMARK H PARENT
REMARK Flexibility Score: inf
ROOT
ATOM      1  C   UNL     1      -3.900  37.488  20.071  1.00  0.00     0.000 C 
ENDROOT
BRANCH   1   2
ATOM      2  C   UNL     1      -3.296  36.872  18.792  1.00  0.00     0.000 C 
BRANCH   2   3
ATOM      3  C   UNL     1      -1.955  37.482  18.347  1.00  0.00     0.000 C 
BRANCH   3   4
ATOM      4  C   UNL     1      -1.587  37.124  16.900  1.00  0.00     0.000 C 
BRANCH   4   5
ATOM      5  C   UNL     1      -2.262  35.811  16.472  1.00  0.00     0.000 C 
BRANCH   5   6
ATOM      6  C   UNL     1      -3.360  36.027  15.418  1.00  0.00     0.006 C 
BRANCH   6   7
ATOM      7  C   UNL     1      -3.136  37.295  14.582  1.00  0.00     0.053 C 
BRANCH   7   8
ATOM      8  C   UNL     1      -4.447  37.889  14.173  1.00  0.00     0.041 C 
ATOM      9  O   UNL     1      -5.416  37.142  13.875  1.00  0.00    -0.550 OA
ATOM     10  O   UNL     1      -4.615  39.267  14.171  1.00  0.00    -0.550 OA
ENDBRANCH   7   8
ENDBRANCH   6   7
ENDBRANCH   5   6
ENDBRANCH   4   5
ENDBRANCH   3   4
ENDBRANCH   2   3
ENDBRANCH   1   2
BRANCH   1  11
ATOM     11  C   UNL     1      -5.409  37.246  20.265  1.00  0.00     0.000 C 
BRANCH  11  12
ATOM     12  C   UNL     1      -5.779  35.833  20.751  1.00  0.00    -0.000 C 
BRANCH  12  13
ATOM     13  C   UNL     1      -4.551  35.009  21.175  1.00  0.00    -0.000 C 
BRANCH  13  14
ATOM     14  C   UNL     1      -4.743  34.329  22.540  1.00  0.00    -0.000 C 
BRANCH  14  15
ATOM     15  C   UNL     1      -6.013  34.811  23.265  1.00  0.00    -0.000 C 
BRANCH  15  16
ATOM     16  C   UNL     1      -5.752  35.196  24.731  1.00  0.00    -0.000 C 
BRANCH  16  17
ATOM     17  C   UNL     1      -6.021  36.673  25.067  1.00  0.00    -0.003 C 
ATOM     18  C   UNL     1      -4.963  37.279  25.988  1.00  0.00     0.004 C 
ENDBRANCH  16  17
ENDBRANCH  15  16
ENDBRANCH  14  15
ENDBRANCH  13  14
ENDBRANCH  12  13
ENDBRANCH  11  12
ENDBRANCH   1  11
TORSDOF 14
ENDMDL
MODEL 2
REMARK VINA RESULT:    -2.644      4.127      8.407
REMARK INTER + INTRA:          -5.472
REMARK INTER:                  -5.169
REMARK INTRA:                  -0.303
REMARK UNBOUND:                -0.664
REMARK SMILES CCCCCCCCCCCCCCCC(=O)[O-]
REMARK SMILES IDX 9 1 10 2 11 3 12 4 13 5 14 6 15 7 16 8 17 9 18 10 8 11 7 12
REMARK SMILES IDX 6 13 5 14 4 15 3 16 2 17 1 18
REMARK H PARENT
REMARK Flexibility Score: inf
ROOT
ATOM      1  C   UNL     1      -2.894  37.154  19.304  1.00  0.00     0.000 C 
ENDROOT
BRANCH   1   2
ATOM      2  C   UNL     1      -3.021  36.293  20.577  1.00  0.00     0.000 C 
BRANCH   2   3
ATOM      3  C   UNL     1      -3.700  34.926  20.373  1.00  0.00     0.000 C 
BRANCH   3   4
ATOM      4  C   UNL     1      -5.216  35.040  20.156  1.00  0.00     0.000 C 
BRANCH   4   5
ATOM      5  C   UNL     1      -5.816  36.141  21.045  1.00  0.00     0.000 C 
BRANCH   5   6
ATOM      6  C   UNL     1      -6.085  35.660  22.480  1.00  0.00     0.006 C 
BRANCH   6   7
ATOM      7  C   UNL     1      -5.743  36.723  23.533  1.00  0.00     0.053 C 
BRANCH   7   8
ATOM      8  C   UNL     1      -5.743  36.120  24.902  1.00  0.00     0.041 C 
ATOM      9  O   UNL     1      -6.015  34.899  25.057  1.00  0.00    -0.550 OA
ATOM     10  O   UNL     1      -5.395  36.892  26.002  1.00  0.00    -0.550 OA
ENDBRANCH   7   8
ENDBRANCH   6   7
ENDBRANCH   5   6
ENDBRANCH   4   5
ENDBRANCH   3   4
ENDBRANCH   2   3
ENDBRANCH   1   2
BRANCH   1  11
ATOM     11  C   UNL     1      -3.447  36.508  18.018  1.00  0.00     0.000 C 
BRANCH  11  12
ATOM     12  C   UNL     1      -2.699  36.892  16.729  1.00  0.00    -0.000 C 
BRANCH  12  13
ATOM     13  C   UNL     1      -2.951  35.903  15.578  1.00  0.00    -0.000 C 
BRANCH  13  14
ATOM     14  C   UNL     1      -3.033  36.601  14.212  1.00  0.00    -0.000 C 
BRANCH  14  15
ATOM     15  C   UNL     1      -4.370  37.336  14.006  1.00  0.00    -0.000 C 
BRANCH  15  16
ATOM     16  C   UNL     1      -4.344  38.780  14.536  1.00  0.00    -0.000 C 
BRANCH  16  17
ATOM     17  C   UNL     1      -5.362  39.727  13.875  1.00  0.00    -0.003 C 
ATOM     18  C   UNL     1      -5.142  41.193  14.246  1.00  0.00     0.004 C 
ENDBRANCH  16  17
ENDBRANCH  15  16
ENDBRANCH  14  15
ENDBRANCH  13  14
ENDBRANCH  12  13
ENDBRANCH  11  12
ENDBRANCH   1  11
TORSDOF 14
ENDMDL
MODEL 3
REMARK VINA RESULT:    -2.482      2.005      3.840
REMARK INTER + INTRA:          -5.178
REMARK INTER:                  -3.845
REMARK INTRA:                  -1.333
REMARK UNBOUND:                -0.664
REMARK SMILES CCCCCCCCCCCCCCCC(=O)[O-]
REMARK SMILES IDX 9 1 10 2 11 3 12 4 13 5 14 6 15 7 16 8 17 9 18 10 8 11 7 12
REMARK SMILES IDX 6 13 5 14 4 15 3 16 2 17 1 18
REMARK H PARENT
REMARK Flexibility Score: inf
ROOT
ATOM      1  C   UNL     1      -6.125  34.909  22.390  1.00  0.00     0.000 C 
ENDROOT
BRANCH   1   2
ATOM      2  C   UNL     1      -5.967  35.717  21.086  1.00  0.00     0.000 C 
BRANCH   2   3
ATOM      3  C   UNL     1      -4.544  35.734  20.498  1.00  0.00     0.000 C 
BRANCH   3   4
ATOM      4  C   UNL     1      -4.353  36.816  19.426  1.00  0.00     0.000 C 
BRANCH   4   5
ATOM      5  C   UNL     1      -2.870  37.194  19.288  1.00  0.00     0.000 C 
BRANCH   5   6
ATOM      6  C   UNL     1      -2.433  37.345  17.822  1.00  0.00     0.006 C 
BRANCH   6   7
ATOM      7  C   UNL     1      -3.173  36.383  16.882  1.00  0.00     0.053 C 
BRANCH   7   8
ATOM      8  C   UNL     1      -3.099  36.873  15.470  1.00  0.00     0.041 C 
ATOM      9  O   UNL     1      -3.724  37.911  15.126  1.00  0.00    -0.550 OA
ATOM     10  O   UNL     1      -2.300  36.213  14.546  1.00  0.00    -0.550 OA
ENDBRANCH   7   8
ENDBRANCH   6   7
ENDBRANCH   5   6
ENDBRANCH   4   5
ENDBRANCH   3   4
ENDBRANCH   2   3
ENDBRANCH   1   2
BRANCH   1  11
ATOM     11  C   UNL     1      -4.874  34.867  23.289  1.00  0.00     0.000 C 
BRANCH  11  12
ATOM     12  C   UNL     1      -5.054  35.506  24.678  1.00  0.00    -0.000 C 
BRANCH  12  13
ATOM     13  C   UNL     1      -5.903  36.788  24.637  1.00  0.00    -0.000 C 
BRANCH  13  14
ATOM     14  C   UNL     1      -5.147  38.010  25.183  1.00  0.00    -0.000 C 
BRANCH  14  15
ATOM     15  C   UNL     1      -5.253  39.232  24.252  1.00  0.00    -0.000 C 
BRANCH  15  16
ATOM     16  C   UNL     1      -5.461  38.843  22.778  1.00  0.00    -0.000 C 
BRANCH  16  17
ATOM     17  C   UNL     1      -6.020  39.967  21.888  1.00  0.00    -0.003 C 
ATOM     18  C   UNL     1      -6.117  41.310  22.611  1.00  0.00     0.004 C 
ENDBRANCH  16  17
ENDBRANCH  15  16
ENDBRANCH  14  15
ENDBRANCH  13  14
ENDBRANCH  12  13
ENDBRANCH  11  12
ENDBRANCH   1  11
TORSDOF 14
ENDMDL
MODEL 4
REMARK VINA RESULT:    -2.150      3.165      7.857
REMARK INTER + INTRA:          -4.573
REMARK INTER:                  -3.522
REMARK INTRA:                  -1.050
REMARK UNBOUND:                -0.664
REMARK SMILES CCCCCCCCCCCCCCCC(=O)[O-]
REMARK SMILES IDX 9 1 10 2 11 3 12 4 13 5 14 6 15 7 16 8 17 9 18 10 8 11 7 12
REMARK SMILES IDX 6 13 5 14 4 15 3 16 2 17 1 18
REMARK H PARENT
REMARK Flexibility Score: inf
ROOT
ATOM      1  C   UNL     1      -6.022  35.301  21.366  1.00  0.00     0.000 C 
ENDROOT
BRANCH   1   2
ATOM      2  C   UNL     1      -5.777  34.321  22.532  1.00  0.00     0.000 C 
BRANCH   2   3
ATOM      3  C   UNL     1      -5.243  34.968  23.823  1.00  0.00     0.000 C 
BRANCH   3   4
ATOM      4  C   UNL     1      -6.124  36.123  24.321  1.00  0.00     0.000 C 
BRANCH   4   5
ATOM      5  C   UNL     1      -5.318  37.082  25.211  1.00  0.00     0.000 C 
BRANCH   5   6
ATOM      6  C   UNL     1      -5.321  38.525  24.680  1.00  0.00     0.006 C 
BRANCH   6   7
ATOM      7  C   UNL     1      -5.492  38.593  23.156  1.00  0.00     0.053 C 
BRANCH   7   8
ATOM      8  C   UNL     1      -5.750  40.002  22.723  1.00  0.00     0.041 C 
ATOM      9  O   UNL     1      -5.584  40.954  23.531  1.00  0.00    -0.550 OA
ATOM     10  O   UNL     1      -6.125  40.269  21.413  1.00  0.00    -0.550 OA
ENDBRANCH   7   8
ENDBRANCH   6   7
ENDBRANCH   5   6
ENDBRANCH   4   5
ENDBRANCH   3   4
ENDBRANCH   2   3
ENDBRANCH   1   2
BRANCH   1  11
ATOM     11  C   UNL     1      -4.859  35.430  20.364  1.00  0.00     0.000 C 
BRANCH  11  12
ATOM     12  C   UNL     1      -4.319  36.860  20.181  1.00  0.00    -0.000 C 
BRANCH  12  13
ATOM     13  C   UNL     1      -2.931  36.892  19.518  1.00  0.00    -0.000 C 
BRANCH  13  14
ATOM     14  C   UNL     1      -2.977  37.451  18.087  1.00  0.00    -0.000 C 
BRANCH  14  15
ATOM     15  C   UNL     1      -1.836  36.912  17.206  1.00  0.00    -0.000 C 
BRANCH  15  16
ATOM     16  C   UNL     1      -2.301  35.817  16.231  1.00  0.00    -0.000 C 
BRANCH  16  17
ATOM     17  C   UNL     1      -3.487  36.213  15.335  1.00  0.00    -0.003 C 
ATOM     18  C   UNL     1      -3.064  36.588  13.915  1.00  0.00     0.004 C 
ENDBRANCH  16  17
ENDBRANCH  15  16
ENDBRANCH  14  15
ENDBRANCH  13  14
ENDBRANCH  12  13
ENDBRANCH  11  12
ENDBRANCH   1  11
TORSDOF 14
ENDMDL
MODEL 5
REMARK VINA RESULT:    -1.759      1.737      2.817
REMARK INTER + INTRA:          -3.862
REMARK INTER:                  -2.776
REMARK INTRA:                  -1.086
REMARK UNBOUND:                -0.664
REMARK SMILES CCCCCCCCCCCCCCCC(=O)[O-]
REMARK SMILES IDX 9 1 10 2 11 3 12 4 13 5 14 6 15 7 16 8 17 9 18 10 8 11 7 12
REMARK SMILES IDX 6 13 5 14 4 15 3 16 2 17 1 18
REMARK H PARENT
REMARK Flexibility Score: inf
ROOT
ATOM      1  C   UNL     1      -5.693  35.445  20.596  1.00  0.00     0.000 C 
ENDROOT
BRANCH   1   2
ATOM      2  C   UNL     1      -5.268  36.775  19.939  1.00  0.00     0.000 C 
BRANCH   2   3
ATOM      3  C   UNL     1      -3.873  36.762  19.289  1.00  0.00     0.000 C 
BRANCH   3   4
ATOM      4  C   UNL     1      -3.905  37.133  17.799  1.00  0.00     0.000 C 
BRANCH   4   5
ATOM      5  C   UNL     1      -3.133  36.103  16.961  1.00  0.00     0.000 C 
BRANCH   5   6
ATOM      6  C   UNL     1      -2.197  36.758  15.932  1.00  0.00     0.006 C 
BRANCH   6   7
ATOM      7  C   UNL     1      -2.688  36.580  14.489  1.00  0.00     0.053 C 
BRANCH   7   8
ATOM      8  C   UNL     1      -3.954  37.346  14.270  1.00  0.00     0.041 C 
ATOM      9  O   UNL     1      -3.951  38.605  14.323  1.00  0.00    -0.550 OA
ATOM     10  O   UNL     1      -5.128  36.674  13.956  1.00  0.00    -0.550 OA
ENDBRANCH   7   8
ENDBRANCH   6   7
ENDBRANCH   5   6
ENDBRANCH   4   5
ENDBRANCH   3   4
ENDBRANCH   2   3
ENDBRANCH   1   2
BRANCH   1  11
ATOM     11  C   UNL     1      -4.653  34.823  21.548  1.00  0.00     0.000 C 
BRANCH  11  12
ATOM     12  C   UNL     1      -5.142  34.615  22.992  1.00  0.00    -0.000 C 
BRANCH  12  13
ATOM     13  C   UNL     1      -6.125  35.706  23.451  1.00  0.00    -0.000 C 
BRANCH  13  14
ATOM     14  C   UNL     1      -5.547  36.584  24.573  1.00  0.00    -0.000 C 
BRANCH  14  15
ATOM     15  C   UNL     1      -5.935  38.065  24.421  1.00  0.00    -0.000 C 
BRANCH  15  16
ATOM     16  C   UNL     1      -5.267  38.736  23.209  1.00  0.00    -0.000 C 
BRANCH  16  17
ATOM     17  C   UNL     1      -6.125  39.805  22.509  1.00  0.00    -0.003 C 
ATOM     18  C   UNL     1      -5.655  41.231  22.797  1.00  0.00     0.004 C 
ENDBRANCH  16  17
ENDBRANCH  15  16
ENDBRANCH  14  15
ENDBRANCH  13  14
ENDBRANCH  12  13
ENDBRANCH  11  12
ENDBRANCH   1  11
TORSDOF 14
ENDMDL
MODEL 6
REMARK VINA RESULT:    -1.663      3.730      8.209
REMARK INTER + INTRA:          -3.688
REMARK INTER:                  -3.198
REMARK INTRA:                  -0.490
REMARK UNBOUND:                -0.664
REMARK SMILES CCCCCCCCCCCCCCCC(=O)[O-]
REMARK SMILES IDX 9 1 10 2 11 3 12 4 13 5 14 6 15 7 16 8 17 9 18 10 8 11 7 12
REMARK SMILES IDX 6 13 5 14 4 15 3 16 2 17 1 18
REMARK H PARENT
REMARK Flexibility Score: inf
ROOT
ATOM      1  C   UNL     1      -3.982  37.629  20.725  1.00  0.00     0.000 C 
ENDROOT
BRANCH   1   2
ATOM      2  C   UNL     1      -5.505  37.844  20.607  1.00  0.00     0.000 C 
BRANCH   2   3
ATOM      3  C   UNL     1      -6.068  38.992  21.464  1.00  0.00     0.000 C 
BRANCH   3   4
ATOM      4  C   UNL     1      -5.043  39.550  22.462  1.00  0.00     0.000 C 
BRANCH   4   5
ATOM      5  C   UNL     1      -5.195  38.880  23.836  1.00  0.00     0.000 C 
BRANCH   5   6
ATOM      6  C   UNL     1      -6.110  37.644  23.794  1.00  0.00     0.006 C 
BRANCH   6   7
ATOM      7  C   UNL     1      -5.644  36.531  24.741  1.00  0.00     0.053 C 
BRANCH   7   8
ATOM      8  C   UNL     1      -5.739  35.199  24.068  1.00  0.00     0.041 C 
ATOM      9  O   UNL     1      -5.426  35.078  22.854  1.00  0.00    -0.550 OA
ATOM     10  O   UNL     1      -6.125  34.079  24.793  1.00  0.00    -0.550 OA
ENDBRANCH   7   8
ENDBRANCH   6   7
ENDBRANCH   5   6
ENDBRANCH   4   5
ENDBRANCH   3   4
ENDBRANCH   2   3
ENDBRANCH   1   2
BRANCH   1  11
ATOM     11  C   UNL     1      -3.300  37.064  19.463  1.00  0.00     0.000 C 
BRANCH  11  12
ATOM     12  C   UNL     1      -3.975  35.815  18.869  1.00  0.00    -0.000 C 
BRANCH  12  13
ATOM     13  C   UNL     1      -3.878  35.759  17.335  1.00  0.00    -0.000 C 
BRANCH  13  14
ATOM     14  C   UNL     1      -2.821  36.726  16.778  1.00  0.00    -0.000 C 
BRANCH  14  15
ATOM     15  C   UNL     1      -2.038  36.126  15.597  1.00  0.00    -0.000 C 
BRANCH  15  16
ATOM     16  C   UNL     1      -2.621  36.525  14.230  1.00  0.00    -0.000 C 
BRANCH  16  17
ATOM     17  C   UNL     1      -4.118  36.880  14.247  1.00  0.00    -0.003 C 
ATOM     18  C   UNL     1      -4.375  38.387  14.221  1.00  0.00     0.004 C 
ENDBRANCH  16  17
ENDBRANCH  15  16
ENDBRANCH  14  15
ENDBRANCH  13  14
ENDBRANCH  12  13
ENDBRANCH  11  12
ENDBRANCH   1  11
TORSDOF 14
ENDMDL
