MODEL 1
REMARK VINA RESULT:    -5.421      0.000      0.000
REMARK INTER + INTRA:          -8.137
REMARK INTER:                  -6.689
REMARK INTRA:                  -1.449
REMARK UNBOUND:                -1.449
REMARK SMILES CC(C)=CCC[C@H](C)c1ccc(C)cc1
REMARK SMILES IDX 6 1 7 2 8 3 9 4 13 5 12 6 11 7 14 8 10 9 15 10 5 11 4 12
REMARK SMILES IDX 2 13 1 14 3 15
REMARK H PARENT
REMARK Flexibility Score: inf
ROOT
ATOM      1  C   UNL     1     -95.281 194.081 -15.601  1.00  0.00     0.012 C 
ENDROOT
BRANCH   1   2
ATOM      2  C   UNL     1     -96.634 194.127 -14.853  1.00  0.00     0.016 C 
ATOM      3  C   UNL     1     -97.771 193.463 -15.645  1.00  0.00     0.013 C 
BRANCH   2   4
ATOM      4  C   UNL     1     -96.996 195.562 -14.513  1.00  0.00    -0.045 A 
ATOM      5  C   UNL     1     -98.068 199.623 -13.497  1.00  0.00     0.044 C 
ATOM      6  C   UNL     1     -97.688 198.222 -13.877  1.00  0.00    -0.051 A 
ATOM      7  C   UNL     1     -98.651 197.344 -14.395  1.00  0.00     0.004 A 
ATOM      8  C   UNL     1     -96.384 197.758 -13.652  1.00  0.00     0.004 A 
ATOM      9  C   UNL     1     -98.307 196.027 -14.714  1.00  0.00     0.004 A 
ATOM     10  C   UNL     1     -96.038 196.442 -13.972  1.00  0.00     0.004 A 
ENDBRANCH   2   4
ENDBRANCH   1   2
BRANCH   1  11
ATOM     11  C   UNL     1     -95.358 194.569 -17.062  1.00  0.00     0.028 C 
BRANCH  11  12
ATOM     12  C   UNL     1     -94.342 195.645 -17.364  1.00  0.00    -0.028 C 
ATOM     13  C   UNL     1     -94.647 196.938 -17.610  1.00  0.00    -0.080 C 
ATOM     14  C   UNL     1     -96.068 197.452 -17.556  1.00  0.00     0.039 C 
ATOM     15  C   UNL     1     -93.523 197.895 -17.914  1.00  0.00     0.039 C 
ENDBRANCH  11  12
ENDBRANCH   1  11
TORSDOF 4
ENDMDL
MODEL 2
REMARK VINA RESULT:    -5.314      1.014      1.608
REMARK INTER + INTRA:          -8.005
REMARK INTER:                  -6.839
REMARK INTRA:                  -1.166
REMARK UNBOUND:                -1.449
REMARK SMILES CC(C)=CCC[C@H](C)c1ccc(C)cc1
REMARK SMILES IDX 6 1 7 2 8 3 9 4 13 5 12 6 11 7 14 8 10 9 15 10 5 11 4 12
REMARK SMILES IDX 2 13 1 14 3 15
REMARK H PARENT
REMARK Flexibility Score: inf
ROOT
ATOM      1  C   UNL     1     -97.721 194.713 -16.742  1.00  0.00     0.012 C 
ENDROOT
BRANCH   1   2
ATOM      2  C   UNL     1     -97.401 194.675 -15.229  1.00  0.00     0.016 C 
ATOM      3  C   UNL     1     -98.330 193.731 -14.452  1.00  0.00     0.013 C 
BRANCH   2   4
ATOM      4  C   UNL     1     -97.460 196.075 -14.646  1.00  0.00    -0.045 A 
ATOM      5  C   UNL     1     -97.674 200.037 -12.937  1.00  0.00     0.044 C 
ATOM      6  C   UNL     1     -97.593 198.673 -13.557  1.00  0.00    -0.051 A 
ATOM      7  C   UNL     1     -98.738 198.074 -14.099  1.00  0.00     0.004 A 
ATOM      8  C   UNL     1     -96.386 197.959 -13.535  1.00  0.00     0.004 A 
ATOM      9  C   UNL     1     -98.672 196.788 -14.643  1.00  0.00     0.004 A 
ATOM     10  C   UNL     1     -96.318 196.673 -14.079  1.00  0.00     0.004 A 
ENDBRANCH   2   4
ENDBRANCH   1   2
BRANCH   1  11
ATOM     11  C   UNL     1     -96.473 194.818 -17.642  1.00  0.00     0.028 C 
BRANCH  11  12
ATOM     12  C   UNL     1     -95.202 194.466 -16.907  1.00  0.00    -0.028 C 
ATOM     13  C   UNL     1     -94.163 195.311 -16.729  1.00  0.00    -0.080 C 
ATOM     14  C   UNL     1     -94.196 196.741 -17.219  1.00  0.00     0.039 C 
ATOM     15  C   UNL     1     -92.950 194.810 -15.987  1.00  0.00     0.039 C 
ENDBRANCH  11  12
ENDBRANCH   1  11
TORSDOF 4
ENDMDL
MODEL 3
REMARK VINA RESULT:    -5.108      1.733      4.577
REMARK INTER + INTRA:          -7.752
REMARK INTER:                  -6.202
REMARK INTRA:                  -1.549
REMARK UNBOUND:                -1.449
REMARK SMILES CC(C)=CCC[C@H](C)c1ccc(C)cc1
REMARK SMILES IDX 6 1 7 2 8 3 9 4 13 5 12 6 11 7 14 8 10 9 15 10 5 11 4 12
REMARK SMILES IDX 2 13 1 14 3 15
REMARK H PARENT
REMARK Flexibility Score: inf
ROOT
ATOM      1  C   UNL     1     -97.631 197.866 -13.973  1.00  0.00     0.012 C 
ENDROOT
BRANCH   1   2
ATOM      2  C   UNL     1     -96.380 196.968 -13.831  1.00  0.00     0.016 C 
ATOM      3  C   UNL     1     -95.113 197.626 -14.398  1.00  0.00     0.013 C 
BRANCH   2   4
ATOM      4  C   UNL     1     -96.621 195.625 -14.497  1.00  0.00    -0.045 A 
ATOM      5  C   UNL     1     -97.355 191.832 -16.431  1.00  0.00     0.044 C 
ATOM      6  C   UNL     1     -97.092 193.135 -15.735  1.00  0.00    -0.051 A 
ATOM      7  C   UNL     1     -98.122 193.789 -15.044  1.00  0.00     0.004 A 
ATOM      8  C   UNL     1     -95.832 193.743 -15.828  1.00  0.00     0.004 A 
ATOM      9  C   UNL     1     -97.888 195.020 -14.427  1.00  0.00     0.004 A 
ATOM     10  C   UNL     1     -95.596 194.975 -15.210  1.00  0.00     0.004 A 
ENDBRANCH   2   4
ENDBRANCH   1   2
BRANCH   1  11
ATOM     11  C   UNL     1     -97.751 198.558 -15.346  1.00  0.00     0.028 C 
BRANCH  11  12
ATOM     12  C   UNL     1     -98.928 198.050 -16.145  1.00  0.00    -0.028 C 
ATOM     13  C   UNL     1     -98.826 197.299 -17.263  1.00  0.00    -0.080 C 
ATOM     14  C   UNL     1     -97.491 196.843 -17.806  1.00  0.00     0.039 C 
ATOM     15  C   UNL     1    -100.093 196.881 -17.964  1.00  0.00     0.039 C 
ENDBRANCH  11  12
ENDBRANCH   1  11
TORSDOF 4
ENDMDL
MODEL 4
REMARK VINA RESULT:    -5.053      1.698      4.481
REMARK INTER + INTRA:          -7.683
REMARK INTER:                  -6.351
REMARK INTRA:                  -1.332
REMARK UNBOUND:                -1.449
REMARK SMILES CC(C)=CCC[C@H](C)c1ccc(C)cc1
REMARK SMILES IDX 6 1 7 2 8 3 9 4 13 5 12 6 11 7 14 8 10 9 15 10 5 11 4 12
REMARK SMILES IDX 2 13 1 14 3 15
REMARK H PARENT
REMARK Flexibility Score: inf
ROOT
ATOM      1  C   UNL     1     -97.345 197.721 -13.988  1.00  0.00     0.012 C 
ENDROOT
BRANCH   1   2
ATOM      2  C   UNL     1     -97.572 197.357 -15.474  1.00  0.00     0.016 C 
ATOM      3  C   UNL     1     -98.878 197.941 -16.033  1.00  0.00     0.013 C 
BRANCH   2   4
ATOM      4  C   UNL     1     -97.547 195.850 -15.654  1.00  0.00    -0.045 A 
ATOM      5  C   UNL     1     -97.406 191.562 -16.163  1.00  0.00     0.044 C 
ATOM      6  C   UNL     1     -97.481 193.051 -16.000  1.00  0.00    -0.051 A 
ATOM      7  C   UNL     1     -96.920 193.898 -16.966  1.00  0.00     0.004 A 
ATOM      8  C   UNL     1     -98.052 193.607 -14.846  1.00  0.00     0.004 A 
ATOM      9  C   UNL     1     -96.956 195.284 -16.797  1.00  0.00     0.004 A 
ATOM     10  C   UNL     1     -98.090 194.994 -14.676  1.00  0.00     0.004 A 
ENDBRANCH   2   4
ENDBRANCH   1   2
BRANCH   1  11
ATOM     11  C   UNL     1     -95.877 198.038 -13.640  1.00  0.00     0.028 C 
BRANCH  11  12
ATOM     12  C   UNL     1     -95.058 196.790 -13.411  1.00  0.00    -0.028 C 
ATOM     13  C   UNL     1     -94.171 196.284 -14.296  1.00  0.00    -0.080 C 
ATOM     14  C   UNL     1     -93.873 196.965 -15.613  1.00  0.00     0.039 C 
ATOM     15  C   UNL     1     -93.438 195.018 -13.933  1.00  0.00     0.039 C 
ENDBRANCH  11  12
ENDBRANCH   1  11
TORSDOF 4
ENDMDL
MODEL 5
REMARK VINA RESULT:    -4.936      1.744      4.535
REMARK INTER + INTRA:          -7.539
REMARK INTER:                  -6.075
REMARK INTRA:                  -1.464
REMARK UNBOUND:                -1.449
REMARK SMILES CC(C)=CCC[C@H](C)c1ccc(C)cc1
REMARK SMILES IDX 6 1 7 2 8 3 9 4 13 5 12 6 11 7 14 8 10 9 15 10 5 11 4 12
REMARK SMILES IDX 2 13 1 14 3 15
REMARK H PARENT
REMARK Flexibility Score: inf
ROOT
ATOM      1  C   UNL     1     -95.210 197.274 -13.816  1.00  0.00     0.012 C 
ENDROOT
BRANCH   1   2
ATOM      2  C   UNL     1     -95.112 195.741 -13.636  1.00  0.00     0.016 C 
ATOM      3  C   UNL     1     -93.661 195.237 -13.631  1.00  0.00     0.013 C 
BRANCH   2   4
ATOM      4  C   UNL     1     -95.914 195.034 -14.715  1.00  0.00    -0.045 A 
ATOM      5  C   UNL     1     -98.138 192.991 -17.804  1.00  0.00     0.044 C 
ATOM      6  C   UNL     1     -97.385 193.723 -16.733  1.00  0.00    -0.051 A 
ATOM      7  C   UNL     1     -96.314 194.565 -17.070  1.00  0.00     0.004 A 
ATOM      8  C   UNL     1     -97.700 193.518 -15.382  1.00  0.00     0.004 A 
ATOM      9  C   UNL     1     -95.589 195.218 -16.070  1.00  0.00     0.004 A 
ATOM     10  C   UNL     1     -96.975 194.171 -14.381  1.00  0.00     0.004 A 
ENDBRANCH   2   4
ENDBRANCH   1   2
BRANCH   1  11
ATOM     11  C   UNL     1     -96.634 197.835 -13.624  1.00  0.00     0.028 C 
BRANCH  11  12
ATOM     12  C   UNL     1     -97.234 198.336 -14.917  1.00  0.00    -0.028 C 
ATOM     13  C   UNL     1     -98.377 197.864 -15.462  1.00  0.00    -0.080 C 
ATOM     14  C   UNL     1     -99.210 196.799 -14.786  1.00  0.00     0.039 C 
ATOM     15  C   UNL     1     -98.844 198.452 -16.769  1.00  0.00     0.039 C 
ENDBRANCH  11  12
ENDBRANCH   1  11
TORSDOF 4
ENDMDL
MODEL 6
REMARK VINA RESULT:    -4.730      1.911      3.457
REMARK INTER + INTRA:          -7.285
REMARK INTER:                  -6.114
REMARK INTRA:                  -1.170
REMARK UNBOUND:                -1.449
REMARK SMILES CC(C)=CCC[C@H](C)c1ccc(C)cc1
REMARK SMILES IDX 6 1 7 2 8 3 9 4 13 5 12 6 11 7 14 8 10 9 15 10 5 11 4 12
REMARK SMILES IDX 2 13 1 14 3 15
REMARK H PARENT
REMARK Flexibility Score: inf
ROOT
ATOM      1  C   UNL     1     -99.011 196.325 -15.063  1.00  0.00     0.012 C 
ENDROOT
BRANCH   1   2
ATOM      2  C   UNL     1     -97.821 195.337 -15.050  1.00  0.00     0.016 C 
ATOM      3  C   UNL     1     -98.169 194.002 -14.374  1.00  0.00     0.013 C 
BRANCH   2   4
ATOM      4  C   UNL     1     -96.619 195.973 -14.376  1.00  0.00    -0.045 A 
ATOM      5  C   UNL     1     -93.162 197.777 -12.516  1.00  0.00     0.044 C 
ATOM      6  C   UNL     1     -94.372 197.141 -13.135  1.00  0.00    -0.051 A 
ATOM      7  C   UNL     1     -94.323 195.814 -13.582  1.00  0.00     0.004 A 
ATOM      8  C   UNL     1     -95.539 197.893 -13.334  1.00  0.00     0.004 A 
ATOM      9  C   UNL     1     -95.438 195.233 -14.193  1.00  0.00     0.004 A 
ATOM     10  C   UNL     1     -96.655 197.313 -13.945  1.00  0.00     0.004 A 
ENDBRANCH   2   4
ENDBRANCH   1   2
BRANCH   1  11
ATOM     11  C   UNL     1     -99.344 196.883 -16.461  1.00  0.00     0.028 C 
BRANCH  11  12
ATOM     12  C   UNL     1     -98.834 198.292 -16.655  1.00  0.00    -0.028 C 
ATOM     13  C   UNL     1     -97.648 198.604 -17.222  1.00  0.00    -0.080 C 
ATOM     14  C   UNL     1     -96.719 197.548 -17.775  1.00  0.00     0.039 C 
ATOM     15  C   UNL     1     -97.266 200.059 -17.332  1.00  0.00     0.039 C 
ENDBRANCH  11  12
ENDBRANCH   1  11
TORSDOF 4
ENDMDL
MODEL 7
REMARK VINA RESULT:    -4.609      1.538      2.659
REMARK INTER + INTRA:          -7.135
REMARK INTER:                  -6.050
REMARK INTRA:                  -1.085
REMARK UNBOUND:                -1.449
REMARK SMILES CC(C)=CCC[C@H](C)c1ccc(C)cc1
REMARK SMILES IDX 6 1 7 2 8 3 9 4 13 5 12 6 11 7 14 8 10 9 15 10 5 11 4 12
REMARK SMILES IDX 2 13 1 14 3 15
REMARK H PARENT
REMARK Flexibility Score: inf
ROOT
ATOM      1  C   UNL     1     -95.924 194.277 -14.545  1.00  0.00     0.012 C 
ENDROOT
BRANCH   1   2
ATOM      2  C   UNL     1     -95.068 195.566 -14.539  1.00  0.00     0.016 C 
ATOM      3  C   UNL     1     -93.844 195.458 -13.617  1.00  0.00     0.013 C 
BRANCH   2   4
ATOM      4  C   UNL     1     -95.921 196.759 -14.147  1.00  0.00    -0.045 A 
ATOM      5  C   UNL     1     -98.380 200.117 -12.987  1.00  0.00     0.044 C 
ATOM      6  C   UNL     1     -97.523 198.963 -13.417  1.00  0.00    -0.051 A 
ATOM      7  C   UNL     1     -98.107 197.815 -13.971  1.00  0.00     0.004 A 
ATOM      8  C   UNL     1     -96.137 198.995 -13.204  1.00  0.00     0.004 A 
ATOM      9  C   UNL     1     -97.313 196.725 -14.337  1.00  0.00     0.004 A 
ATOM     10  C   UNL     1     -95.341 197.906 -13.570  1.00  0.00     0.004 A 
ENDBRANCH   2   4
ENDBRANCH   1   2
BRANCH   1  11
ATOM     11  C   UNL     1     -96.058 193.623 -15.935  1.00  0.00     0.028 C 
BRANCH  11  12
ATOM     12  C   UNL     1     -97.352 193.989 -16.621  1.00  0.00    -0.028 C 
ATOM     13  C   UNL     1     -97.480 194.972 -17.538  1.00  0.00    -0.080 C 
ATOM     14  C   UNL     1     -96.298 195.787 -18.013  1.00  0.00     0.039 C 
ATOM     15  C   UNL     1     -98.844 195.234 -18.125  1.00  0.00     0.039 C 
ENDBRANCH  11  12
ENDBRANCH   1  11
TORSDOF 4
ENDMDL
MODEL 8
REMARK VINA RESULT:    -4.588      1.792      2.831
REMARK INTER + INTRA:          -7.109
REMARK INTER:                  -5.845
REMARK INTRA:                  -1.263
REMARK UNBOUND:                -1.449
REMARK SMILES CC(C)=CCC[C@H](C)c1ccc(C)cc1
REMARK SMILES IDX 6 1 7 2 8 3 9 4 13 5 12 6 11 7 14 8 10 9 15 10 5 11 4 12
REMARK SMILES IDX 2 13 1 14 3 15
REMARK H PARENT
REMARK Flexibility Score: inf
ROOT
ATOM      1  C   UNL     1     -95.610 194.326 -14.993  1.00  0.00     0.012 C 
ENDROOT
BRANCH   1   2
ATOM      2  C   UNL     1     -96.984 194.781 -14.450  1.00  0.00     0.016 C 
ATOM      3  C   UNL     1     -98.096 193.756 -14.719  1.00  0.00     0.013 C 
BRANCH   2   4
ATOM      4  C   UNL     1     -97.358 196.132 -15.034  1.00  0.00    -0.045 A 
ATOM      5  C   UNL     1     -98.380 200.005 -16.652  1.00  0.00     0.044 C 
ATOM      6  C   UNL     1     -98.051 198.649 -16.101  1.00  0.00    -0.051 A 
ATOM      7  C   UNL     1     -98.400 198.317 -14.784  1.00  0.00     0.004 A 
ATOM      8  C   UNL     1     -97.330 197.728 -16.875  1.00  0.00     0.004 A 
ATOM      9  C   UNL     1     -98.060 197.068 -14.257  1.00  0.00     0.004 A 
ATOM     10  C   UNL     1     -96.990 196.478 -16.349  1.00  0.00     0.004 A 
ENDBRANCH   2   4
ENDBRANCH   1   2
BRANCH   1  11
ATOM     11  C   UNL     1     -94.438 194.585 -14.024  1.00  0.00     0.028 C 
BRANCH  11  12
ATOM     12  C   UNL     1     -94.590 195.887 -13.273  1.00  0.00    -0.028 C 
ATOM     13  C   UNL     1     -94.161 197.086 -13.727  1.00  0.00    -0.080 C 
ATOM     14  C   UNL     1     -93.517 197.248 -15.085  1.00  0.00     0.039 C 
ATOM     15  C   UNL     1     -94.368 198.298 -12.855  1.00  0.00     0.039 C 
ENDBRANCH  11  12
ENDBRANCH   1  11
TORSDOF 4
ENDMDL
