MODEL 1
REMARK VINA RESULT:    -5.107      0.000      0.000
REMARK INTER + INTRA:         -10.787
REMARK INTER:                  -9.884
REMARK INTRA:                  -0.903
REMARK UNBOUND:                -0.903
REMARK SMILES CCCCCCCCCCCCCCCCCC(=O)[O-]
REMARK SMILES IDX 10 1 11 2 12 3 13 4 14 5 15 6 16 7 17 8 18 9 19 10 20 11
REMARK SMILES IDX 9 12 8 13 7 14 6 15 5 16 4 17 3 18 2 19 1 20
REMARK H PARENT
REMARK Flexibility Score: inf
ROOT
ATOM      1  C   UNL     1       8.040   1.921  68.316  1.00  0.00     0.000 C 
ENDROOT
BRANCH   1   2
ATOM      2  C   UNL     1       8.887   2.980  67.587  1.00  0.00     0.000 C 
BRANCH   2   3
ATOM      3  C   UNL     1      10.209   2.461  66.987  1.00  0.00     0.000 C 
BRANCH   3   4
ATOM      4  C   UNL     1      10.309   2.539  65.451  1.00  0.00     0.000 C 
BRANCH   4   5
ATOM      5  C   UNL     1      11.711   2.262  64.880  1.00  0.00     0.000 C 
BRANCH   5   6
ATOM      6  C   UNL     1      12.348   0.986  65.458  1.00  0.00     0.000 C 
BRANCH   6   7
ATOM      7  C   UNL     1      11.936  -0.284  64.689  1.00  0.00     0.006 C 
BRANCH   7   8
ATOM      8  C   UNL     1      11.758  -1.526  65.576  1.00  0.00     0.053 C 
BRANCH   8   9
ATOM      9  C   UNL     1      10.933  -2.581  64.905  1.00  0.00     0.041 C 
ATOM     10  O   UNL     1      10.415  -2.360  63.779  1.00  0.00    -0.550 OA
ATOM     11  O   UNL     1      10.761  -3.818  65.511  1.00  0.00    -0.550 OA
ENDBRANCH   8   9
ENDBRANCH   7   8
ENDBRANCH   6   7
ENDBRANCH   5   6
ENDBRANCH   4   5
ENDBRANCH   3   4
ENDBRANCH   2   3
ENDBRANCH   1   2
BRANCH   1  12
ATOM     12  C   UNL     1       6.559   2.319  68.430  1.00  0.00     0.000 C 
BRANCH  12  13
ATOM     13  C   UNL     1       5.782   1.425  69.409  1.00  0.00    -0.000 C 
BRANCH  13  14
ATOM     14  C   UNL     1       5.237   0.150  68.740  1.00  0.00    -0.000 C 
BRANCH  14  15
ATOM     15  C   UNL     1       4.669  -0.853  69.757  1.00  0.00    -0.000 C 
BRANCH  15  16
ATOM     16  C   UNL     1       3.580  -1.758  69.153  1.00  0.00    -0.000 C 
BRANCH  16  17
ATOM     17  C   UNL     1       4.108  -3.152  68.779  1.00  0.00    -0.000 C 
BRANCH  17  18
ATOM     18  C   UNL     1       4.424  -3.280  67.280  1.00  0.00    -0.000 C 
BRANCH  18  19
ATOM     19  C   UNL     1       3.164  -3.189  66.403  1.00  0.00    -0.003 C 
ATOM     20  C   UNL     1       3.208  -2.020  65.420  1.00  0.00     0.004 C 
ENDBRANCH  18  19
ENDBRANCH  17  18
ENDBRANCH  16  17
ENDBRANCH  15  16
ENDBRANCH  14  15
ENDBRANCH  13  14
ENDBRANCH  12  13
ENDBRANCH   1  12
TORSDOF 16
ENDMDL
MODEL 2
REMARK VINA RESULT:    -5.086      2.881      7.396
REMARK INTER + INTRA:         -10.746
REMARK INTER:                  -9.912
REMARK INTRA:                  -0.835
REMARK UNBOUND:                -0.903
REMARK SMILES CCCCCCCCCCCCCCCCCC(=O)[O-]
REMARK SMILES IDX 10 1 11 2 12 3 13 4 14 5 15 6 16 7 17 8 18 9 19 10 20 11
REMARK SMILES IDX 9 12 8 13 7 14 6 15 5 16 4 17 3 18 2 19 1 20
REMARK H PARENT
REMARK Flexibility Score: inf
ROOT
ATOM      1  C   UNL     1       8.428   2.014  68.133  1.00  0.00     0.000 C 
ENDROOT
BRANCH   1   2
ATOM      2  C   UNL     1       7.069   2.657  68.465  1.00  0.00     0.000 C 
BRANCH   2   3
ATOM      3  C   UNL     1       5.935   1.662  68.784  1.00  0.00     0.000 C 
BRANCH   3   4
ATOM      4  C   UNL     1       4.565   2.011  68.172  1.00  0.00     0.000 C 
BRANCH   4   5
ATOM      5  C   UNL     1       3.786   0.811  67.605  1.00  0.00     0.000 C 
BRANCH   5   6
ATOM      6  C   UNL     1       3.541  -0.288  68.654  1.00  0.00     0.000 C 
BRANCH   6   7
ATOM      7  C   UNL     1       4.157  -1.641  68.253  1.00  0.00     0.006 C 
BRANCH   7   8
ATOM      8  C   UNL     1       4.002  -1.987  66.764  1.00  0.00     0.053 C 
BRANCH   8   9
ATOM      9  C   UNL     1       2.862  -2.927  66.522  1.00  0.00     0.041 C 
ATOM     10  O   UNL     1       2.900  -3.736  65.558  1.00  0.00    -0.550 OA
ATOM     11  O   UNL     1       1.770  -2.931  67.381  1.00  0.00    -0.550 OA
ENDBRANCH   8   9
ENDBRANCH   7   8
ENDBRANCH   6   7
ENDBRANCH   5   6
ENDBRANCH   4   5
ENDBRANCH   3   4
ENDBRANCH   2   3
ENDBRANCH   1   2
BRANCH   1  12
ATOM     12  C   UNL     1       9.333   2.933  67.296  1.00  0.00     0.000 C 
BRANCH  12  13
ATOM     13  C   UNL     1      10.609   2.224  66.813  1.00  0.00    -0.000 C 
BRANCH  13  14
ATOM     14  C   UNL     1      10.850   2.407  65.305  1.00  0.00    -0.000 C 
BRANCH  14  15
ATOM     15  C   UNL     1      12.126   1.698  64.822  1.00  0.00    -0.000 C 
BRANCH  15  16
ATOM     16  C   UNL     1      12.349   0.341  65.515  1.00  0.00    -0.000 C 
BRANCH  16  17
ATOM     17  C   UNL     1      11.702  -0.827  64.753  1.00  0.00    -0.000 C 
BRANCH  17  18
ATOM     18  C   UNL     1      11.540  -2.082  65.626  1.00  0.00    -0.000 C 
BRANCH  18  19
ATOM     19  C   UNL     1      10.739  -3.189  64.921  1.00  0.00    -0.003 C 
ATOM     20  C   UNL     1      10.062  -2.707  63.638  1.00  0.00     0.004 C 
ENDBRANCH  18  19
ENDBRANCH  17  18
ENDBRANCH  16  17
ENDBRANCH  15  16
ENDBRANCH  14  15
ENDBRANCH  13  14
ENDBRANCH  12  13
ENDBRANCH   1  12
TORSDOF 16
ENDMDL
MODEL 3
REMARK VINA RESULT:    -4.426      9.635     14.075
REMARK INTER + INTRA:          -9.468
REMARK INTER:                  -8.446
REMARK INTRA:                  -1.022
REMARK UNBOUND:                -0.903
REMARK SMILES CCCCCCCCCCCCCCCCCC(=O)[O-]
REMARK SMILES IDX 10 1 11 2 12 3 13 4 14 5 15 6 16 7 17 8 18 9 19 10 20 11
REMARK SMILES IDX 9 12 8 13 7 14 6 15 5 16 4 17 3 18 2 19 1 20
REMARK H PARENT
REMARK Flexibility Score: inf
ROOT
ATOM      1  C   UNL     1      -0.594  -0.636  57.838  1.00  0.00     0.000 C 
ENDROOT
BRANCH   1   2
ATOM      2  C   UNL     1      -1.686  -0.480  56.765  1.00  0.00     0.000 C 
BRANCH   2   3
ATOM      3  C   UNL     1      -3.134  -0.524  57.294  1.00  0.00     0.000 C 
BRANCH   3   4
ATOM      4  C   UNL     1      -3.764  -1.928  57.368  1.00  0.00     0.000 C 
BRANCH   4   5
ATOM      5  C   UNL     1      -3.999  -2.456  58.794  1.00  0.00     0.000 C 
BRANCH   5   6
ATOM      6  C   UNL     1      -3.911  -1.349  59.860  1.00  0.00     0.000 C 
BRANCH   6   7
ATOM      7  C   UNL     1      -3.253  -1.832  61.166  1.00  0.00     0.006 C 
BRANCH   7   8
ATOM      8  C   UNL     1      -2.749  -3.283  61.117  1.00  0.00     0.053 C 
BRANCH   8   9
ATOM      9  C   UNL     1      -3.107  -4.042  62.358  1.00  0.00     0.041 C 
ATOM     10  O   UNL     1      -3.468  -5.246  62.282  1.00  0.00    -0.550 OA
ATOM     11  O   UNL     1      -3.012  -3.428  63.600  1.00  0.00    -0.550 OA
ENDBRANCH   8   9
ENDBRANCH   7   8
ENDBRANCH   6   7
ENDBRANCH   5   6
ENDBRANCH   4   5
ENDBRANCH   3   4
ENDBRANCH   2   3
ENDBRANCH   1   2
BRANCH   1  12
ATOM     12  C   UNL     1       0.554  -1.556  57.390  1.00  0.00     0.000 C 
BRANCH  12  13
ATOM     13  C   UNL     1       1.923  -1.087  57.909  1.00  0.00    -0.000 C 
BRANCH  13  14
ATOM     14  C   UNL     1       2.236   0.368  57.518  1.00  0.00    -0.000 C 
BRANCH  14  15
ATOM     15  C   UNL     1       3.738   0.685  57.580  1.00  0.00    -0.000 C 
BRANCH  15  16
ATOM     16  C   UNL     1       4.092   2.019  56.897  1.00  0.00    -0.000 C 
BRANCH  16  17
ATOM     17  C   UNL     1       5.576   2.387  57.050  1.00  0.00    -0.000 C 
BRANCH  17  18
ATOM     18  C   UNL     1       6.221   1.738  58.285  1.00  0.00    -0.000 C 
BRANCH  18  19
ATOM     19  C   UNL     1       7.532   2.429  58.697  1.00  0.00    -0.003 C 
ATOM     20  C   UNL     1       8.574   2.438  57.578  1.00  0.00     0.004 C 
ENDBRANCH  18  19
ENDBRANCH  17  18
ENDBRANCH  16  17
ENDBRANCH  15  16
ENDBRANCH  14  15
ENDBRANCH  13  14
ENDBRANCH  12  13
ENDBRANCH   1  12
TORSDOF 16
ENDMDL
MODEL 4
REMARK VINA RESULT:    -4.217      1.574      2.182
REMARK INTER + INTRA:          -9.064
REMARK INTER:                  -8.276
REMARK INTRA:                  -0.788
REMARK UNBOUND:                -0.903
REMARK SMILES CCCCCCCCCCCCCCCCCC(=O)[O-]
REMARK SMILES IDX 10 1 11 2 12 3 13 4 14 5 15 6 16 7 17 8 18 9 19 10 20 11
REMARK SMILES IDX 9 12 8 13 7 14 6 15 5 16 4 17 3 18 2 19 1 20
REMARK H PARENT
REMARK Flexibility Score: inf
ROOT
ATOM      1  C   UNL     1       9.379   2.219  67.579  1.00  0.00     0.000 C 
ENDROOT
BRANCH   1   2
ATOM      2  C   UNL     1      10.686   3.012  67.400  1.00  0.00     0.000 C 
BRANCH   2   3
ATOM      3  C   UNL     1      11.978   2.208  67.651  1.00  0.00     0.000 C 
BRANCH   3   4
ATOM      4  C   UNL     1      12.975   2.185  66.477  1.00  0.00     0.000 C 
BRANCH   4   5
ATOM      5  C   UNL     1      12.344   1.923  65.098  1.00  0.00     0.000 C 
BRANCH   5   6
ATOM      6  C   UNL     1      12.410   0.442  64.686  1.00  0.00     0.000 C 
BRANCH   6   7
ATOM      7  C   UNL     1      11.472  -0.450  65.521  1.00  0.00     0.006 C 
BRANCH   7   8
ATOM      8  C   UNL     1      11.842  -1.941  65.505  1.00  0.00     0.053 C 
BRANCH   8   9
ATOM      9  C   UNL     1      10.783  -2.775  64.853  1.00  0.00     0.041 C 
ATOM     10  O   UNL     1      10.322  -2.449  63.727  1.00  0.00    -0.550 OA
ATOM     11  O   UNL     1      10.327  -3.930  65.475  1.00  0.00    -0.550 OA
ENDBRANCH   8   9
ENDBRANCH   7   8
ENDBRANCH   6   7
ENDBRANCH   5   6
ENDBRANCH   4   5
ENDBRANCH   3   4
ENDBRANCH   2   3
ENDBRANCH   1   2
BRANCH   1  12
ATOM     12  C   UNL     1       8.163   3.125  67.837  1.00  0.00     0.000 C 
BRANCH  12  13
ATOM     13  C   UNL     1       7.011   2.382  68.532  1.00  0.00    -0.000 C 
BRANCH  13  14
ATOM     14  C   UNL     1       5.651   2.641  67.860  1.00  0.00    -0.000 C 
BRANCH  14  15
ATOM     15  C   UNL     1       4.508   1.853  68.519  1.00  0.00    -0.000 C 
BRANCH  15  16
ATOM     16  C   UNL     1       3.879   0.815  67.571  1.00  0.00    -0.000 C 
BRANCH  16  17
ATOM     17  C   UNL     1       2.459   0.409  67.996  1.00  0.00    -0.000 C 
BRANCH  17  18
ATOM     18  C   UNL     1       1.583  -0.009  66.803  1.00  0.00    -0.000 C 
BRANCH  18  19
ATOM     19  C   UNL     1       2.356  -0.847  65.771  1.00  0.00    -0.003 C 
ATOM     20  C   UNL     1       2.500  -2.312  66.185  1.00  0.00     0.004 C 
ENDBRANCH  18  19
ENDBRANCH  17  18
ENDBRANCH  16  17
ENDBRANCH  15  16
ENDBRANCH  14  15
ENDBRANCH  13  14
ENDBRANCH  12  13
ENDBRANCH   1  12
TORSDOF 16
ENDMDL
MODEL 5
REMARK VINA RESULT:    -4.127      1.486      2.133
REMARK INTER + INTRA:          -8.890
REMARK INTER:                  -7.845
REMARK INTRA:                  -1.045
REMARK UNBOUND:                -0.903
REMARK SMILES CCCCCCCCCCCCCCCCCC(=O)[O-]
REMARK SMILES IDX 10 1 11 2 12 3 13 4 14 5 15 6 16 7 17 8 18 9 19 10 20 11
REMARK SMILES IDX 9 12 8 13 7 14 6 15 5 16 4 17 3 18 2 19 1 20
REMARK H PARENT
REMARK Flexibility Score: inf
ROOT
ATOM      1  C   UNL     1       7.174   1.854  68.514  1.00  0.00     0.000 C 
ENDROOT
BRANCH   1   2
ATOM      2  C   UNL     1       7.791   2.997  67.689  1.00  0.00     0.000 C 
BRANCH   2   3
ATOM      3  C   UNL     1       9.325   3.115  67.779  1.00  0.00     0.000 C 
BRANCH   3   4
ATOM      4  C   UNL     1      10.101   1.809  67.522  1.00  0.00     0.000 C 
BRANCH   4   5
ATOM      5  C   UNL     1      11.592   1.997  67.192  1.00  0.00     0.000 C 
BRANCH   5   6
ATOM      6  C   UNL     1      11.837   2.311  65.705  1.00  0.00     0.000 C 
BRANCH   6   7
ATOM      7  C   UNL     1      11.658   1.079  64.800  1.00  0.00     0.006 C 
BRANCH   7   8
ATOM      8  C   UNL     1      12.475  -0.147  65.236  1.00  0.00     0.053 C 
BRANCH   8   9
ATOM      9  C   UNL     1      11.644  -1.393  65.270  1.00  0.00     0.041 C 
ATOM     10  O   UNL     1      11.005  -1.757  64.248  1.00  0.00    -0.550 OA
ATOM     11  O   UNL     1      11.601  -2.168  66.422  1.00  0.00    -0.550 OA
ENDBRANCH   8   9
ENDBRANCH   7   8
ENDBRANCH   6   7
ENDBRANCH   5   6
ENDBRANCH   4   5
ENDBRANCH   3   4
ENDBRANCH   2   3
ENDBRANCH   1   2
BRANCH   1  12
ATOM     12  C   UNL     1       5.755   2.179  69.014  1.00  0.00     0.000 C 
BRANCH  12  13
ATOM     13  C   UNL     1       4.766   2.421  67.863  1.00  0.00    -0.000 C 
BRANCH  13  14
ATOM     14  C   UNL     1       4.063   1.130  67.407  1.00  0.00    -0.000 C 
BRANCH  14  15
ATOM     15  C   UNL     1       2.538   1.292  67.309  1.00  0.00    -0.000 C 
BRANCH  15  16
ATOM     16  C   UNL     1       1.783   0.443  68.348  1.00  0.00    -0.000 C 
BRANCH  16  17
ATOM     17  C   UNL     1       2.719  -0.456  69.171  1.00  0.00    -0.000 C 
BRANCH  17  18
ATOM     18  C   UNL     1       2.770  -1.898  68.638  1.00  0.00    -0.000 C 
BRANCH  18  19
ATOM     19  C   UNL     1       4.200  -2.463  68.608  1.00  0.00    -0.003 C 
ATOM     20  C   UNL     1       4.452  -3.374  67.406  1.00  0.00     0.004 C 
ENDBRANCH  18  19
ENDBRANCH  17  18
ENDBRANCH  16  17
ENDBRANCH  15  16
ENDBRANCH  14  15
ENDBRANCH  13  14
ENDBRANCH  12  13
ENDBRANCH   1  12
TORSDOF 16
ENDMDL
MODEL 6
REMARK VINA RESULT:    -4.092      6.027      8.831
REMARK INTER + INTRA:          -8.822
REMARK INTER:                  -6.244
REMARK INTRA:                  -2.577
REMARK UNBOUND:                -0.903
REMARK SMILES CCCCCCCCCCCCCCCCCC(=O)[O-]
REMARK SMILES IDX 10 1 11 2 12 3 13 4 14 5 15 6 16 7 17 8 18 9 19 10 20 11
REMARK SMILES IDX 9 12 8 13 7 14 6 15 5 16 4 17 3 18 2 19 1 20
REMARK H PARENT
REMARK Flexibility Score: inf
ROOT
ATOM      1  C   UNL     1       3.022  -2.160  65.410  1.00  0.00     0.000 C 
ENDROOT
BRANCH   1   2
ATOM      2  C   UNL     1       2.897  -0.779  66.079  1.00  0.00     0.000 C 
BRANCH   2   3
ATOM      3  C   UNL     1       1.629   0.015  65.706  1.00  0.00     0.000 C 
BRANCH   3   4
ATOM      4  C   UNL     1       0.589   0.160  66.834  1.00  0.00     0.000 C 
BRANCH   4   5
ATOM      5  C   UNL     1       1.008  -0.455  68.182  1.00  0.00     0.000 C 
BRANCH   5   6
ATOM      6  C   UNL     1       0.579  -1.926  68.324  1.00  0.00     0.000 C 
BRANCH   6   7
ATOM      7  C   UNL     1      -0.554  -2.311  67.355  1.00  0.00     0.006 C 
BRANCH   7   8
ATOM      8  C   UNL     1      -0.346  -3.658  66.645  1.00  0.00     0.053 C 
BRANCH   8   9
ATOM      9  C   UNL     1      -1.571  -4.098  65.906  1.00  0.00     0.041 C 
ATOM     10  O   UNL     1      -1.844  -5.323  65.803  1.00  0.00    -0.550 OA
ATOM     11  O   UNL     1      -2.428  -3.153  65.356  1.00  0.00    -0.550 OA
ENDBRANCH   8   9
ENDBRANCH   7   8
ENDBRANCH   6   7
ENDBRANCH   5   6
ENDBRANCH   4   5
ENDBRANCH   3   4
ENDBRANCH   2   3
ENDBRANCH   1   2
BRANCH   1  12
ATOM     12  C   UNL     1       3.402  -3.271  66.403  1.00  0.00     0.000 C 
BRANCH  12  13
ATOM     13  C   UNL     1       4.429  -2.803  67.447  1.00  0.00    -0.000 C 
BRANCH  13  14
ATOM     14  C   UNL     1       4.814  -3.917  68.436  1.00  0.00    -0.000 C 
BRANCH  14  15
ATOM     15  C   UNL     1       4.402  -3.592  69.881  1.00  0.00    -0.000 C 
BRANCH  15  16
ATOM     16  C   UNL     1       3.686  -2.234  70.002  1.00  0.00    -0.000 C 
BRANCH  16  17
ATOM     17  C   UNL     1       4.518  -1.192  70.766  1.00  0.00    -0.000 C 
BRANCH  17  18
ATOM     18  C   UNL     1       4.376   0.222  70.178  1.00  0.00    -0.000 C 
BRANCH  18  19
ATOM     19  C   UNL     1       5.160   0.395  68.867  1.00  0.00    -0.003 C 
ATOM     20  C   UNL     1       4.775   1.665  68.109  1.00  0.00     0.004 C 
ENDBRANCH  18  19
ENDBRANCH  17  18
ENDBRANCH  16  17
ENDBRANCH  15  16
ENDBRANCH  14  15
ENDBRANCH  13  14
ENDBRANCH  12  13
ENDBRANCH   1  12
TORSDOF 16
ENDMDL
MODEL 7
REMARK VINA RESULT:    -4.035     11.548     13.772
REMARK INTER + INTRA:          -8.713
REMARK INTER:                  -5.912
REMARK INTRA:                  -2.801
REMARK UNBOUND:                -0.903
REMARK SMILES CCCCCCCCCCCCCCCCCC(=O)[O-]
REMARK SMILES IDX 10 1 11 2 12 3 13 4 14 5 15 6 16 7 17 8 18 9 19 10 20 11
REMARK SMILES IDX 9 12 8 13 7 14 6 15 5 16 4 17 3 18 2 19 1 20
REMARK H PARENT
REMARK Flexibility Score: inf
ROOT
ATOM      1  C   UNL     1       0.015   1.528  59.195  1.00  0.00     0.000 C 
ENDROOT
BRANCH   1   2
ATOM      2  C   UNL     1      -1.310   2.210  58.811  1.00  0.00     0.000 C 
BRANCH   2   3
ATOM      3  C   UNL     1      -2.415   2.145  59.884  1.00  0.00     0.000 C 
BRANCH   3   4
ATOM      4  C   UNL     1      -2.681   0.744  60.468  1.00  0.00     0.000 C 
BRANCH   4   5
ATOM      5  C   UNL     1      -4.129   0.245  60.315  1.00  0.00     0.000 C 
BRANCH   5   6
ATOM      6  C   UNL     1      -4.404  -1.038  61.118  1.00  0.00     0.000 C 
BRANCH   6   7
ATOM      7  C   UNL     1      -3.144  -1.904  61.305  1.00  0.00     0.006 C 
BRANCH   7   8
ATOM      8  C   UNL     1      -3.400  -3.416  61.208  1.00  0.00     0.053 C 
BRANCH   8   9
ATOM      9  C   UNL     1      -3.282  -4.091  62.540  1.00  0.00     0.041 C 
ATOM     10  O   UNL     1      -3.059  -3.413  63.577  1.00  0.00    -0.550 OA
ATOM     11  O   UNL     1      -3.449  -5.467  62.638  1.00  0.00    -0.550 OA
ENDBRANCH   8   9
ENDBRANCH   7   8
ENDBRANCH   6   7
ENDBRANCH   5   6
ENDBRANCH   4   5
ENDBRANCH   3   4
ENDBRANCH   2   3
ENDBRANCH   1   2
BRANCH   1  12
ATOM     12  C   UNL     1       1.002   1.438  58.019  1.00  0.00     0.000 C 
BRANCH  12  13
ATOM     13  C   UNL     1       1.616   0.036  57.869  1.00  0.00    -0.000 C 
BRANCH  13  14
ATOM     14  C   UNL     1       0.722  -0.915  57.053  1.00  0.00    -0.000 C 
BRANCH  14  15
ATOM     15  C   UNL     1       0.111  -2.033  57.912  1.00  0.00    -0.000 C 
BRANCH  15  16
ATOM     16  C   UNL     1      -1.400  -1.849  58.138  1.00  0.00    -0.000 C 
BRANCH  16  17
ATOM     17  C   UNL     1      -2.043  -0.908  57.107  1.00  0.00    -0.000 C 
BRANCH  17  18
ATOM     18  C   UNL     1      -3.562  -1.112  56.988  1.00  0.00    -0.000 C 
BRANCH  18  19
ATOM     19  C   UNL     1      -3.967  -2.592  57.090  1.00  0.00    -0.003 C 
ATOM     20  C   UNL     1      -5.216  -2.808  57.944  1.00  0.00     0.004 C 
ENDBRANCH  18  19
ENDBRANCH  17  18
ENDBRANCH  16  17
ENDBRANCH  15  16
ENDBRANCH  14  15
ENDBRANCH  13  14
ENDBRANCH  12  13
ENDBRANCH   1  12
TORSDOF 16
ENDMDL
MODEL 8
REMARK VINA RESULT:    -4.031     13.543     17.353
REMARK INTER + INTRA:          -8.704
REMARK INTER:                  -5.948
REMARK INTRA:                  -2.757
REMARK UNBOUND:                -0.903
REMARK SMILES CCCCCCCCCCCCCCCCCC(=O)[O-]
REMARK SMILES IDX 10 1 11 2 12 3 13 4 14 5 15 6 16 7 17 8 18 9 19 10 20 11
REMARK SMILES IDX 9 12 8 13 7 14 6 15 5 16 4 17 3 18 2 19 1 20
REMARK H PARENT
REMARK Flexibility Score: inf
ROOT
ATOM      1  C   UNL     1      -4.844 -14.550  67.166  1.00  0.00     0.000 C 
ENDROOT
BRANCH   1   2
ATOM      2  C   UNL     1      -4.431 -14.578  65.683  1.00  0.00     0.000 C 
BRANCH   2   3
ATOM      3  C   UNL     1      -5.517 -14.112  64.693  1.00  0.00     0.000 C 
BRANCH   3   4
ATOM      4  C   UNL     1      -5.103 -12.957  63.760  1.00  0.00     0.000 C 
BRANCH   4   5
ATOM      5  C   UNL     1      -4.065 -11.988  64.354  1.00  0.00     0.000 C 
BRANCH   5   6
ATOM      6  C   UNL     1      -4.549 -10.527  64.358  1.00  0.00     0.000 C 
BRANCH   6   7
ATOM      7  C   UNL     1      -3.412  -9.525  64.632  1.00  0.00     0.006 C 
BRANCH   7   8
ATOM      8  C   UNL     1      -3.886  -8.173  65.187  1.00  0.00     0.053 C 
BRANCH   8   9
ATOM      9  C   UNL     1      -2.964  -7.056  64.806  1.00  0.00     0.041 C 
ATOM     10  O   UNL     1      -2.880  -6.683  63.606  1.00  0.00    -0.550 OA
ATOM     11  O   UNL     1      -2.219  -6.407  65.782  1.00  0.00    -0.550 OA
ENDBRANCH   8   9
ENDBRANCH   7   8
ENDBRANCH   6   7
ENDBRANCH   5   6
ENDBRANCH   4   5
ENDBRANCH   3   4
ENDBRANCH   2   3
ENDBRANCH   1   2
BRANCH   1  12
ATOM     12  C   UNL     1      -6.226 -13.913  67.387  1.00  0.00     0.000 C 
BRANCH  12  13
ATOM     13  C   UNL     1      -6.171 -12.694  68.322  1.00  0.00    -0.000 C 
BRANCH  13  14
ATOM     14  C   UNL     1      -5.953 -11.375  67.560  1.00  0.00    -0.000 C 
BRANCH  14  15
ATOM     15  C   UNL     1      -4.784 -10.553  68.127  1.00  0.00    -0.000 C 
BRANCH  15  16
ATOM     16  C   UNL     1      -3.417 -11.216  67.879  1.00  0.00    -0.000 C 
BRANCH  16  17
ATOM     17  C   UNL     1      -2.660 -11.518  69.182  1.00  0.00    -0.000 C 
BRANCH  17  18
ATOM     18  C   UNL     1      -2.321 -13.010  69.336  1.00  0.00    -0.000 C 
BRANCH  18  19
ATOM     19  C   UNL     1      -3.228 -13.717  70.357  1.00  0.00    -0.003 C 
ATOM     20  C   UNL     1      -2.864 -15.188  70.554  1.00  0.00     0.004 C 
ENDBRANCH  18  19
ENDBRANCH  17  18
ENDBRANCH  16  17
ENDBRANCH  15  16
ENDBRANCH  14  15
ENDBRANCH  13  14
ENDBRANCH  12  13
ENDBRANCH   1  12
TORSDOF 16
ENDMDL
