MODEL 1
REMARK VINA RESULT:    -4.439      0.000      0.000
REMARK INTER + INTRA:         -13.900
REMARK INTER:                  -9.630
REMARK INTRA:                  -4.270
REMARK UNBOUND:                -4.270
REMARK SMILES CCCCCCCCCCCCCCCCCCCCCC(=O)[O-]
REMARK SMILES IDX 12 1 11 2 10 3 9 4 8 5 7 6 6 7 5 8 4 9 3 10 2 11 1 12 13 13
REMARK SMILES IDX 14 14 15 15 16 16 17 17 18 18 19 19 20 20 21 21 22 22 23 23
REMARK SMILES IDX 24 24
REMARK H PARENT
REMARK Flexibility Score: inf
ROOT
ATOM      1  C   UNL     1      18.180 -36.940  21.489  1.00  0.00     0.000 C 
ENDROOT
BRANCH   1   2
ATOM      2  C   UNL     1      17.964 -36.586  20.004  1.00  0.00     0.000 C 
BRANCH   2   3
ATOM      3  C   UNL     1      16.529 -36.159  19.637  1.00  0.00     0.000 C 
BRANCH   3   4
ATOM      4  C   UNL     1      16.264 -34.643  19.684  1.00  0.00    -0.000 C 
BRANCH   4   5
ATOM      5  C   UNL     1      17.537 -33.808  19.463  1.00  0.00    -0.000 C 
BRANCH   5   6
ATOM      6  C   UNL     1      17.705 -32.700  20.516  1.00  0.00    -0.000 C 
BRANCH   6   7
ATOM      7  C   UNL     1      19.144 -32.597  21.043  1.00  0.00    -0.000 C 
BRANCH   7   8
ATOM      8  C   UNL     1      19.240 -31.558  22.170  1.00  0.00    -0.000 C 
BRANCH   8   9
ATOM      9  C   UNL     1      17.863 -31.106  22.688  1.00  0.00    -0.000 C 
BRANCH   9  10
ATOM     10  C   UNL     1      17.764 -30.930  24.217  1.00  0.00    -0.000 C 
BRANCH  10  11
ATOM     11  C   UNL     1      19.075 -31.178  24.985  1.00  0.00    -0.003 C 
ATOM     12  C   UNL     1      19.035 -32.446  25.836  1.00  0.00     0.004 C 
ENDBRANCH  10  11
ENDBRANCH   9  10
ENDBRANCH   8   9
ENDBRANCH   7   8
ENDBRANCH   6   7
ENDBRANCH   5   6
ENDBRANCH   4   5
ENDBRANCH   3   4
ENDBRANCH   2   3
ENDBRANCH   1   2
BRANCH   1  13
ATOM     13  C   UNL     1      19.100 -35.972  22.258  1.00  0.00     0.000 C 
BRANCH  13  14
ATOM     14  C   UNL     1      18.447 -35.272  23.468  1.00  0.00     0.000 C 
BRANCH  14  15
ATOM     15  C   UNL     1      16.943 -34.974  23.324  1.00  0.00     0.000 C 
BRANCH  15  16
ATOM     16  C   UNL     1      16.330 -34.356  24.591  1.00  0.00     0.000 C 
BRANCH  16  17
ATOM     17  C   UNL     1      15.053 -33.549  24.303  1.00  0.00     0.000 C 
BRANCH  17  18
ATOM     18  C   UNL     1      14.848 -33.224  22.808  1.00  0.00     0.000 C 
BRANCH  18  19
ATOM     19  C   UNL     1      13.985 -31.967  22.602  1.00  0.00     0.000 C 
BRANCH  19  20
ATOM     20  C   UNL     1      14.151 -30.937  23.735  1.00  0.00     0.006 C 
BRANCH  20  21
ATOM     21  C   UNL     1      13.797 -29.497  23.334  1.00  0.00     0.053 C 
BRANCH  21  22
ATOM     22  C   UNL     1      14.968 -28.780  22.736  1.00  0.00     0.041 C 
ATOM     23  O   UNL     1      15.292 -28.984  21.537  1.00  0.00    -0.550 OA
ATOM     24  O   UNL     1      15.680 -27.858  23.494  1.00  0.00    -0.550 OA
ENDBRANCH  21  22
ENDBRANCH  20  21
ENDBRANCH  19  20
ENDBRANCH  18  19
ENDBRANCH  17  18
ENDBRANCH  16  17
ENDBRANCH  15  16
ENDBRANCH  14  15
ENDBRANCH  13  14
ENDBRANCH   1  13
TORSDOF 20
ENDMDL
MODEL 2
REMARK VINA RESULT:    -4.333      1.690      3.763
REMARK INTER + INTRA:         -13.670
REMARK INTER:                  -9.995
REMARK INTRA:                  -3.675
REMARK UNBOUND:                -4.270
REMARK SMILES CCCCCCCCCCCCCCCCCCCCCC(=O)[O-]
REMARK SMILES IDX 12 1 11 2 10 3 9 4 8 5 7 6 6 7 5 8 4 9 3 10 2 11 1 12 13 13
REMARK SMILES IDX 14 14 15 15 16 16 17 17 18 18 19 19 20 20 21 21 22 22 23 23
REMARK SMILES IDX 24 24
REMARK H PARENT
REMARK Flexibility Score: inf
ROOT
ATOM      1  C   UNL     1      18.665 -33.656  20.833  1.00  0.00     0.000 C 
ENDROOT
BRANCH   1   2
ATOM      2  C   UNL     1      18.831 -32.129  20.959  1.00  0.00     0.000 C 
BRANCH   2   3
ATOM      3  C   UNL     1      17.530 -31.353  21.252  1.00  0.00     0.000 C 
BRANCH   3   4
ATOM      4  C   UNL     1      16.950 -31.558  22.663  1.00  0.00    -0.000 C 
BRANCH   4   5
ATOM      5  C   UNL     1      17.396 -30.471  23.656  1.00  0.00    -0.000 C 
BRANCH   5   6
ATOM      6  C   UNL     1      18.147 -31.052  24.865  1.00  0.00    -0.000 C 
BRANCH   6   7
ATOM      7  C   UNL     1      19.652 -31.216  24.605  1.00  0.00    -0.000 C 
BRANCH   7   8
ATOM      8  C   UNL     1      20.020 -32.698  24.436  1.00  0.00    -0.000 C 
BRANCH   8   9
ATOM      9  C   UNL     1      19.082 -33.640  25.212  1.00  0.00    -0.000 C 
BRANCH   9  10
ATOM     10  C   UNL     1      18.739 -34.960  24.493  1.00  0.00    -0.000 C 
BRANCH  10  11
ATOM     11  C   UNL     1      17.290 -35.066  23.986  1.00  0.00    -0.003 C 
ATOM     12  C   UNL     1      16.300 -34.282  24.846  1.00  0.00     0.004 C 
ENDBRANCH  10  11
ENDBRANCH   9  10
ENDBRANCH   8   9
ENDBRANCH   7   8
ENDBRANCH   6   7
ENDBRANCH   5   6
ENDBRANCH   4   5
ENDBRANCH   3   4
ENDBRANCH   2   3
ENDBRANCH   1   2
BRANCH   1  13
ATOM     13  C   UNL     1      18.207 -34.146  19.445  1.00  0.00     0.000 C 
BRANCH  13  14
ATOM     14  C   UNL     1      16.713 -34.516  19.342  1.00  0.00     0.000 C 
BRANCH  14  15
ATOM     15  C   UNL     1      16.061 -34.996  20.652  1.00  0.00     0.000 C 
BRANCH  15  16
ATOM     16  C   UNL     1      14.931 -34.071  21.134  1.00  0.00     0.000 C 
BRANCH  16  17
ATOM     17  C   UNL     1      14.337 -33.217  20.001  1.00  0.00     0.000 C 
BRANCH  17  18
ATOM     18  C   UNL     1      13.452 -32.055  20.499  1.00  0.00     0.000 C 
BRANCH  18  19
ATOM     19  C   UNL     1      13.715 -31.719  21.977  1.00  0.00     0.000 C 
BRANCH  19  20
ATOM     20  C   UNL     1      12.707 -30.703  22.546  1.00  0.00     0.006 C 
BRANCH  20  21
ATOM     21  C   UNL     1      13.186 -29.985  23.817  1.00  0.00     0.053 C 
BRANCH  21  22
ATOM     22  C   UNL     1      12.649 -28.590  23.907  1.00  0.00     0.041 C 
ATOM     23  O   UNL     1      13.392 -27.647  24.285  1.00  0.00    -0.550 OA
ATOM     24  O   UNL     1      11.335 -28.325  23.539  1.00  0.00    -0.550 OA
ENDBRANCH  21  22
ENDBRANCH  20  21
ENDBRANCH  19  20
ENDBRANCH  18  19
ENDBRANCH  17  18
ENDBRANCH  16  17
ENDBRANCH  15  16
ENDBRANCH  14  15
ENDBRANCH  13  14
ENDBRANCH   1  13
TORSDOF 20
ENDMDL
MODEL 3
REMARK VINA RESULT:    -4.319      2.815      5.692
REMARK INTER + INTRA:         -13.640
REMARK INTER:                  -9.747
REMARK INTRA:                  -3.893
REMARK UNBOUND:                -4.270
REMARK SMILES CCCCCCCCCCCCCCCCCCCCCC(=O)[O-]
REMARK SMILES IDX 12 1 11 2 10 3 9 4 8 5 7 6 6 7 5 8 4 9 3 10 2 11 1 12 13 13
REMARK SMILES IDX 14 14 15 15 16 16 17 17 18 18 19 19 20 20 21 21 22 22 23 23
REMARK SMILES IDX 24 24
REMARK H PARENT
REMARK Flexibility Score: inf
ROOT
ATOM      1  C   UNL     1      13.879 -32.387  20.475  1.00  0.00     0.000 C 
ENDROOT
BRANCH   1   2
ATOM      2  C   UNL     1      13.530 -31.146  21.321  1.00  0.00     0.000 C 
BRANCH   2   3
ATOM      3  C   UNL     1      13.218 -31.434  22.803  1.00  0.00     0.000 C 
BRANCH   3   4
ATOM      4  C   UNL     1      14.249 -30.888  23.808  1.00  0.00    -0.000 C 
BRANCH   4   5
ATOM      5  C   UNL     1      15.320 -31.925  24.186  1.00  0.00    -0.000 C 
BRANCH   5   6
ATOM      6  C   UNL     1      16.749 -31.405  23.956  1.00  0.00    -0.000 C 
BRANCH   6   7
ATOM      7  C   UNL     1      16.800 -30.230  22.968  1.00  0.00    -0.000 C 
BRANCH   7   8
ATOM      8  C   UNL     1      17.243 -30.704  21.576  1.00  0.00    -0.000 C 
BRANCH   8   9
ATOM      9  C   UNL     1      18.036 -32.023  21.616  1.00  0.00    -0.000 C 
BRANCH   9  10
ATOM     10  C   UNL     1      19.395 -31.992  20.888  1.00  0.00    -0.000 C 
BRANCH  10  11
ATOM     11  C   UNL     1      20.624 -32.154  21.799  1.00  0.00    -0.003 C 
ATOM     12  C   UNL     1      20.267 -32.156  23.285  1.00  0.00     0.004 C 
ENDBRANCH  10  11
ENDBRANCH   9  10
ENDBRANCH   8   9
ENDBRANCH   7   8
ENDBRANCH   6   7
ENDBRANCH   5   6
ENDBRANCH   4   5
ENDBRANCH   3   4
ENDBRANCH   2   3
ENDBRANCH   1   2
BRANCH   1  13
ATOM     13  C   UNL     1      14.673 -33.477  21.221  1.00  0.00     0.000 C 
BRANCH  13  14
ATOM     14  C   UNL     1      15.198 -34.626  20.335  1.00  0.00     0.000 C 
BRANCH  14  15
ATOM     15  C   UNL     1      16.302 -34.235  19.335  1.00  0.00     0.000 C 
BRANCH  15  16
ATOM     16  C   UNL     1      17.446 -35.260  19.274  1.00  0.00     0.000 C 
BRANCH  16  17
ATOM     17  C   UNL     1      17.076 -36.605  19.924  1.00  0.00     0.000 C 
BRANCH  17  18
ATOM     18  C   UNL     1      18.013 -37.014  21.080  1.00  0.00     0.000 C 
BRANCH  18  19
ATOM     19  C   UNL     1      18.610 -35.792  21.801  1.00  0.00     0.000 C 
BRANCH  19  20
ATOM     20  C   UNL     1      17.762 -35.336  23.004  1.00  0.00     0.006 C 
BRANCH  20  21
ATOM     21  C   UNL     1      18.524 -35.312  24.338  1.00  0.00     0.053 C 
BRANCH  21  22
ATOM     22  C   UNL     1      17.703 -35.868  25.460  1.00  0.00     0.041 C 
ATOM     23  O   UNL     1      16.761 -35.192  25.952  1.00  0.00    -0.550 OA
ATOM     24  O   UNL     1      17.955 -37.147  25.940  1.00  0.00    -0.550 OA
ENDBRANCH  21  22
ENDBRANCH  20  21
ENDBRANCH  19  20
ENDBRANCH  18  19
ENDBRANCH  17  18
ENDBRANCH  16  17
ENDBRANCH  15  16
ENDBRANCH  14  15
ENDBRANCH  13  14
ENDBRANCH   1  13
TORSDOF 20
ENDMDL
MODEL 4
REMARK VINA RESULT:    -4.283      3.402      6.694
REMARK INTER + INTRA:         -13.562
REMARK INTER:                 -10.587
REMARK INTRA:                  -2.975
REMARK UNBOUND:                -4.270
REMARK SMILES CCCCCCCCCCCCCCCCCCCCCC(=O)[O-]
REMARK SMILES IDX 12 1 11 2 10 3 9 4 8 5 7 6 6 7 5 8 4 9 3 10 2 11 1 12 13 13
REMARK SMILES IDX 14 14 15 15 16 16 17 17 18 18 19 19 20 20 21 21 22 22 23 23
REMARK SMILES IDX 24 24
REMARK H PARENT
REMARK Flexibility Score: inf
ROOT
ATOM      1  C   UNL     1      17.073 -30.088  22.829  1.00  0.00     0.000 C 
ENDROOT
BRANCH   1   2
ATOM      2  C   UNL     1      15.986 -29.088  23.269  1.00  0.00     0.000 C 
BRANCH   2   3
ATOM      3  C   UNL     1      14.647 -29.204  22.512  1.00  0.00     0.000 C 
BRANCH   3   4
ATOM      4  C   UNL     1      13.451 -29.667  23.363  1.00  0.00    -0.000 C 
BRANCH   4   5
ATOM      5  C   UNL     1      13.111 -31.153  23.155  1.00  0.00    -0.000 C 
BRANCH   5   6
ATOM      6  C   UNL     1      13.909 -32.075  24.092  1.00  0.00    -0.000 C 
BRANCH   6   7
ATOM      7  C   UNL     1      14.770 -33.093  23.327  1.00  0.00    -0.000 C 
BRANCH   7   8
ATOM      8  C   UNL     1      14.581 -32.939  21.810  1.00  0.00    -0.000 C 
BRANCH   8   9
ATOM      9  C   UNL     1      15.346 -34.001  21.001  1.00  0.00    -0.000 C 
BRANCH   9  10
ATOM     10  C   UNL     1      16.499 -34.694  21.756  1.00  0.00    -0.000 C 
BRANCH  10  11
ATOM     11  C   UNL     1      17.179 -35.842  20.989  1.00  0.00    -0.003 C 
ATOM     12  C   UNL     1      16.563 -36.086  19.612  1.00  0.00     0.004 C 
ENDBRANCH  10  11
ENDBRANCH   9  10
ENDBRANCH   8   9
ENDBRANCH   7   8
ENDBRANCH   6   7
ENDBRANCH   5   6
ENDBRANCH   4   5
ENDBRANCH   3   4
ENDBRANCH   2   3
ENDBRANCH   1   2
BRANCH   1  13
ATOM     13  C   UNL     1      17.228 -30.247  21.304  1.00  0.00     0.000 C 
BRANCH  13  14
ATOM     14  C   UNL     1      18.062 -31.465  20.854  1.00  0.00     0.000 C 
BRANCH  14  15
ATOM     15  C   UNL     1      19.250 -31.822  21.767  1.00  0.00     0.000 C 
BRANCH  15  16
ATOM     16  C   UNL     1      20.601 -31.349  21.206  1.00  0.00     0.000 C 
BRANCH  16  17
ATOM     17  C   UNL     1      21.340 -30.395  22.159  1.00  0.00     0.000 C 
BRANCH  17  18
ATOM     18  C   UNL     1      20.671 -29.011  22.295  1.00  0.00     0.000 C 
BRANCH  18  19
ATOM     19  C   UNL     1      20.401 -28.362  20.926  1.00  0.00     0.000 C 
BRANCH  19  20
ATOM     20  C   UNL     1      20.018 -26.874  21.037  1.00  0.00     0.006 C 
BRANCH  20  21
ATOM     21  C   UNL     1      20.872 -25.938  20.168  1.00  0.00     0.053 C 
BRANCH  21  22
ATOM     22  C   UNL     1      21.738 -25.041  20.997  1.00  0.00     0.041 C 
ATOM     23  O   UNL     1      22.986 -25.031  20.829  1.00  0.00    -0.550 OA
ATOM     24  O   UNL     1      21.163 -24.188  21.931  1.00  0.00    -0.550 OA
ENDBRANCH  21  22
ENDBRANCH  20  21
ENDBRANCH  19  20
ENDBRANCH  18  19
ENDBRANCH  17  18
ENDBRANCH  16  17
ENDBRANCH  15  16
ENDBRANCH  14  15
ENDBRANCH  13  14
ENDBRANCH   1  13
TORSDOF 20
ENDMDL
MODEL 5
REMARK VINA RESULT:    -4.242      3.350      5.371
REMARK INTER + INTRA:         -13.473
REMARK INTER:                 -10.520
REMARK INTRA:                  -2.952
REMARK UNBOUND:                -4.270
REMARK SMILES CCCCCCCCCCCCCCCCCCCCCC(=O)[O-]
REMARK SMILES IDX 12 1 11 2 10 3 9 4 8 5 7 6 6 7 5 8 4 9 3 10 2 11 1 12 13 13
REMARK SMILES IDX 14 14 15 15 16 16 17 17 18 18 19 19 20 20 21 21 22 22 23 23
REMARK SMILES IDX 24 24
REMARK H PARENT
REMARK Flexibility Score: inf
ROOT
ATOM      1  C   UNL     1      18.520 -34.564  20.920  1.00  0.00     0.000 C 
ENDROOT
BRANCH   1   2
ATOM      2  C   UNL     1      17.747 -35.773  20.358  1.00  0.00     0.000 C 
BRANCH   2   3
ATOM      3  C   UNL     1      16.337 -35.454  19.821  1.00  0.00     0.000 C 
BRANCH   3   4
ATOM      4  C   UNL     1      15.372 -34.827  20.844  1.00  0.00    -0.000 C 
BRANCH   4   5
ATOM      5  C   UNL     1      14.610 -33.615  20.281  1.00  0.00    -0.000 C 
BRANCH   5   6
ATOM      6  C   UNL     1      14.262 -32.583  21.366  1.00  0.00    -0.000 C 
BRANCH   6   7
ATOM      7  C   UNL     1      14.760 -32.997  22.759  1.00  0.00    -0.000 C 
BRANCH   7   8
ATOM      8  C   UNL     1      14.349 -31.962  23.817  1.00  0.00    -0.000 C 
BRANCH   8   9
ATOM      9  C   UNL     1      13.174 -31.077  23.365  1.00  0.00    -0.000 C 
BRANCH   9  10
ATOM     10  C   UNL     1      13.431 -29.558  23.443  1.00  0.00    -0.000 C 
BRANCH  10  11
ATOM     11  C   UNL     1      14.894 -29.135  23.220  1.00  0.00    -0.003 C 
ATOM     12  C   UNL     1      15.259 -29.014  21.741  1.00  0.00     0.004 C 
ENDBRANCH  10  11
ENDBRANCH   9  10
ENDBRANCH   8   9
ENDBRANCH   7   8
ENDBRANCH   6   7
ENDBRANCH   5   6
ENDBRANCH   4   5
ENDBRANCH   3   4
ENDBRANCH   2   3
ENDBRANCH   1   2
BRANCH   1  13
ATOM     13  C   UNL     1      18.365 -33.263  20.110  1.00  0.00     0.000 C 
BRANCH  13  14
ATOM     14  C   UNL     1      18.028 -32.009  20.942  1.00  0.00     0.000 C 
BRANCH  14  15
ATOM     15  C   UNL     1      18.331 -32.118  22.448  1.00  0.00     0.000 C 
BRANCH  15  16
ATOM     16  C   UNL     1      18.131 -30.790  23.198  1.00  0.00     0.000 C 
BRANCH  16  17
ATOM     17  C   UNL     1      19.258 -29.778  22.929  1.00  0.00     0.000 C 
BRANCH  17  18
ATOM     18  C   UNL     1      18.791 -28.515  22.175  1.00  0.00     0.000 C 
BRANCH  18  19
ATOM     19  C   UNL     1      19.399 -28.425  20.764  1.00  0.00     0.000 C 
BRANCH  19  20
ATOM     20  C   UNL     1      20.709 -27.615  20.730  1.00  0.00     0.006 C 
BRANCH  20  21
ATOM     21  C   UNL     1      20.518 -26.121  20.427  1.00  0.00     0.053 C 
BRANCH  21  22
ATOM     22  C   UNL     1      21.780 -25.343  20.634  1.00  0.00     0.041 C 
ATOM     23  O   UNL     1      22.106 -24.958  21.787  1.00  0.00    -0.550 OA
ATOM     24  O   UNL     1      22.615 -25.073  19.556  1.00  0.00    -0.550 OA
ENDBRANCH  21  22
ENDBRANCH  20  21
ENDBRANCH  19  20
ENDBRANCH  18  19
ENDBRANCH  17  18
ENDBRANCH  16  17
ENDBRANCH  15  16
ENDBRANCH  14  15
ENDBRANCH  13  14
ENDBRANCH   1  13
TORSDOF 20
ENDMDL
MODEL 6
REMARK VINA RESULT:    -4.238      1.762      3.597
REMARK INTER + INTRA:         -13.463
REMARK INTER:                  -9.680
REMARK INTRA:                  -3.784
REMARK UNBOUND:                -4.270
REMARK SMILES CCCCCCCCCCCCCCCCCCCCCC(=O)[O-]
REMARK SMILES IDX 12 1 11 2 10 3 9 4 8 5 7 6 6 7 5 8 4 9 3 10 2 11 1 12 13 13
REMARK SMILES IDX 14 14 15 15 16 16 17 17 18 18 19 19 20 20 21 21 22 22 23 23
REMARK SMILES IDX 24 24
REMARK H PARENT
REMARK Flexibility Score: inf
ROOT
ATOM      1  C   UNL     1      18.492 -34.138  21.044  1.00  0.00     0.000 C 
ENDROOT
BRANCH   1   2
ATOM      2  C   UNL     1      18.956 -32.683  20.833  1.00  0.00     0.000 C 
BRANCH   2   3
ATOM      3  C   UNL     1      17.835 -31.625  20.900  1.00  0.00     0.000 C 
BRANCH   3   4
ATOM      4  C   UNL     1      18.301 -30.198  21.241  1.00  0.00    -0.000 C 
BRANCH   4   5
ATOM      5  C   UNL     1      18.522 -29.987  22.749  1.00  0.00    -0.000 C 
BRANCH   5   6
ATOM      6  C   UNL     1      17.636 -30.904  23.607  1.00  0.00    -0.000 C 
BRANCH   6   7
ATOM      7  C   UNL     1      18.204 -31.126  25.018  1.00  0.00    -0.000 C 
BRANCH   7   8
ATOM      8  C   UNL     1      18.042 -32.591  25.449  1.00  0.00    -0.000 C 
BRANCH   8   9
ATOM      9  C   UNL     1      18.861 -33.564  24.582  1.00  0.00    -0.000 C 
BRANCH   9  10
ATOM     10  C   UNL     1      20.375 -33.585  24.875  1.00  0.00    -0.000 C 
BRANCH  10  11
ATOM     11  C   UNL     1      21.278 -33.446  23.636  1.00  0.00    -0.003 C 
ATOM     12  C   UNL     1      21.582 -31.992  23.281  1.00  0.00     0.004 C 
ENDBRANCH  10  11
ENDBRANCH   9  10
ENDBRANCH   8   9
ENDBRANCH   7   8
ENDBRANCH   6   7
ENDBRANCH   5   6
ENDBRANCH   4   5
ENDBRANCH   3   4
ENDBRANCH   2   3
ENDBRANCH   1   2
BRANCH   1  13
ATOM     13  C   UNL     1      18.371 -34.973  19.755  1.00  0.00     0.000 C 
BRANCH  13  14
ATOM     14  C   UNL     1      16.932 -35.370  19.366  1.00  0.00     0.000 C 
BRANCH  14  15
ATOM     15  C   UNL     1      15.869 -35.148  20.458  1.00  0.00     0.000 C 
BRANCH  15  16
ATOM     16  C   UNL     1      14.924 -33.977  20.145  1.00  0.00     0.000 C 
BRANCH  16  17
ATOM     17  C   UNL     1      14.609 -33.118  21.382  1.00  0.00     0.000 C 
BRANCH  17  18
ATOM     18  C   UNL     1      15.186 -33.687  22.695  1.00  0.00     0.000 C 
BRANCH  18  19
ATOM     19  C   UNL     1      14.708 -32.899  23.928  1.00  0.00     0.000 C 
BRANCH  19  20
ATOM     20  C   UNL     1      13.590 -31.893  23.595  1.00  0.00     0.006 C 
BRANCH  20  21
ATOM     21  C   UNL     1      13.935 -30.434  23.931  1.00  0.00     0.053 C 
BRANCH  21  22
ATOM     22  C   UNL     1      12.771 -29.519  23.710  1.00  0.00     0.041 C 
ATOM     23  O   UNL     1      12.579 -28.539  24.478  1.00  0.00    -0.550 OA
ATOM     24  O   UNL     1      11.916 -29.727  22.635  1.00  0.00    -0.550 OA
ENDBRANCH  21  22
ENDBRANCH  20  21
ENDBRANCH  19  20
ENDBRANCH  18  19
ENDBRANCH  17  18
ENDBRANCH  16  17
ENDBRANCH  15  16
ENDBRANCH  14  15
ENDBRANCH  13  14
ENDBRANCH   1  13
TORSDOF 20
ENDMDL
MODEL 7
REMARK VINA RESULT:    -4.224      2.317      3.428
REMARK INTER + INTRA:         -13.433
REMARK INTER:                 -10.485
REMARK INTRA:                  -2.948
REMARK UNBOUND:                -4.270
REMARK SMILES CCCCCCCCCCCCCCCCCCCCCC(=O)[O-]
REMARK SMILES IDX 12 1 11 2 10 3 9 4 8 5 7 6 6 7 5 8 4 9 3 10 2 11 1 12 13 13
REMARK SMILES IDX 14 14 15 15 16 16 17 17 18 18 19 19 20 20 21 21 22 22 23 23
REMARK SMILES IDX 24 24
REMARK H PARENT
REMARK Flexibility Score: inf
ROOT
ATOM      1  C   UNL     1      17.376 -36.755  20.466  1.00  0.00     0.000 C 
ENDROOT
BRANCH   1   2
ATOM      2  C   UNL     1      18.361 -36.621  21.645  1.00  0.00     0.000 C 
BRANCH   2   3
ATOM      3  C   UNL     1      19.235 -35.351  21.624  1.00  0.00     0.000 C 
BRANCH   3   4
ATOM      4  C   UNL     1      18.772 -34.221  22.561  1.00  0.00    -0.000 C 
BRANCH   4   5
ATOM      5  C   UNL     1      19.381 -32.856  22.197  1.00  0.00    -0.000 C 
BRANCH   5   6
ATOM      6  C   UNL     1      18.828 -32.299  20.874  1.00  0.00    -0.000 C 
BRANCH   6   7
ATOM      7  C   UNL     1      18.192 -30.910  21.037  1.00  0.00    -0.000 C 
BRANCH   7   8
ATOM      8  C   UNL     1      18.778 -30.179  22.255  1.00  0.00    -0.000 C 
BRANCH   8   9
ATOM      9  C   UNL     1      19.870 -29.164  21.876  1.00  0.00    -0.000 C 
BRANCH   9  10
ATOM     10  C   UNL     1      19.469 -28.146  20.788  1.00  0.00    -0.000 C 
BRANCH  10  11
ATOM     11  C   UNL     1      20.260 -26.827  20.809  1.00  0.00    -0.003 C 
ATOM     12  C   UNL     1      21.762 -27.037  20.997  1.00  0.00     0.004 C 
ENDBRANCH  10  11
ENDBRANCH   9  10
ENDBRANCH   8   9
ENDBRANCH   7   8
ENDBRANCH   6   7
ENDBRANCH   5   6
ENDBRANCH   4   5
ENDBRANCH   3   4
ENDBRANCH   2   3
ENDBRANCH   1   2
BRANCH   1  13
ATOM     13  C   UNL     1      17.458 -35.624  19.422  1.00  0.00     0.000 C 
BRANCH  13  14
ATOM     14  C   UNL     1      16.340 -34.566  19.516  1.00  0.00     0.000 C 
BRANCH  14  15
ATOM     15  C   UNL     1      15.408 -34.699  20.734  1.00  0.00     0.000 C 
BRANCH  15  16
ATOM     16  C   UNL     1      15.282 -33.393  21.537  1.00  0.00     0.000 C 
BRANCH  16  17
ATOM     17  C   UNL     1      15.034 -33.637  23.036  1.00  0.00     0.000 C 
BRANCH  17  18
ATOM     18  C   UNL     1      15.843 -32.702  23.958  1.00  0.00     0.000 C 
BRANCH  18  19
ATOM     19  C   UNL     1      15.596 -31.216  23.638  1.00  0.00     0.000 C 
BRANCH  19  20
ATOM     20  C   UNL     1      14.125 -30.802  23.827  1.00  0.00     0.006 C 
BRANCH  20  21
ATOM     21  C   UNL     1      13.665 -29.669  22.897  1.00  0.00     0.053 C 
BRANCH  21  22
ATOM     22  C   UNL     1      12.180 -29.480  22.939  1.00  0.00     0.041 C 
ATOM     23  O   UNL     1      11.434 -30.143  22.171  1.00  0.00    -0.550 OA
ATOM     24  O   UNL     1      11.617 -28.598  23.852  1.00  0.00    -0.550 OA
ENDBRANCH  21  22
ENDBRANCH  20  21
ENDBRANCH  19  20
ENDBRANCH  18  19
ENDBRANCH  17  18
ENDBRANCH  16  17
ENDBRANCH  15  16
ENDBRANCH  14  15
ENDBRANCH  13  14
ENDBRANCH   1  13
TORSDOF 20
ENDMDL
MODEL 8
REMARK VINA RESULT:    -4.222      2.166      4.344
REMARK INTER + INTRA:         -13.428
REMARK INTER:                  -9.234
REMARK INTRA:                  -4.193
REMARK UNBOUND:                -4.270
REMARK SMILES CCCCCCCCCCCCCCCCCCCCCC(=O)[O-]
REMARK SMILES IDX 12 1 11 2 10 3 9 4 8 5 7 6 6 7 5 8 4 9 3 10 2 11 1 12 13 13
REMARK SMILES IDX 14 14 15 15 16 16 17 17 18 18 19 19 20 20 21 21 22 22 23 23
REMARK SMILES IDX 24 24
REMARK H PARENT
REMARK Flexibility Score: inf
ROOT
ATOM      1  C   UNL     1      17.613 -31.011  20.886  1.00  0.00     0.000 C 
ENDROOT
BRANCH   1   2
ATOM      2  C   UNL     1      17.077 -30.553  22.257  1.00  0.00     0.000 C 
BRANCH   2   3
ATOM      3  C   UNL     1      18.089 -30.647  23.417  1.00  0.00     0.000 C 
BRANCH   3   4
ATOM      4  C   UNL     1      17.768 -31.711  24.482  1.00  0.00    -0.000 C 
BRANCH   4   5
ATOM      5  C   UNL     1      18.923 -32.704  24.700  1.00  0.00    -0.000 C 
BRANCH   5   6
ATOM      6  C   UNL     1      20.293 -32.097  24.356  1.00  0.00    -0.000 C 
BRANCH   6   7
ATOM      7  C   UNL     1      21.083 -32.950  23.351  1.00  0.00    -0.000 C 
BRANCH   7   8
ATOM      8  C   UNL     1      21.910 -32.060  22.410  1.00  0.00    -0.000 C 
BRANCH   8   9
ATOM      9  C   UNL     1      21.659 -30.558  22.632  1.00  0.00    -0.000 C 
BRANCH   9  10
ATOM     10  C   UNL     1      21.120 -29.797  21.403  1.00  0.00    -0.000 C 
BRANCH  10  11
ATOM     11  C   UNL     1      20.700 -28.342  21.674  1.00  0.00    -0.003 C 
ATOM     12  C   UNL     1      19.571 -27.869  20.758  1.00  0.00     0.004 C 
ENDBRANCH  10  11
ENDBRANCH   9  10
ENDBRANCH   8   9
ENDBRANCH   7   8
ENDBRANCH   6   7
ENDBRANCH   5   6
ENDBRANCH   4   5
ENDBRANCH   3   4
ENDBRANCH   2   3
ENDBRANCH   1   2
BRANCH   1  13
ATOM     13  C   UNL     1      18.606 -32.188  20.938  1.00  0.00     0.000 C 
BRANCH  13  14
ATOM     14  C   UNL     1      18.207 -33.420  20.100  1.00  0.00     0.000 C 
BRANCH  14  15
ATOM     15  C   UNL     1      18.176 -34.755  20.867  1.00  0.00     0.000 C 
BRANCH  15  16
ATOM     16  C   UNL     1      16.764 -35.143  21.338  1.00  0.00     0.000 C 
BRANCH  16  17
ATOM     17  C   UNL     1      16.401 -34.528  22.700  1.00  0.00     0.000 C 
BRANCH  17  18
ATOM     18  C   UNL     1      15.113 -33.678  22.673  1.00  0.00     0.000 C 
BRANCH  18  19
ATOM     19  C   UNL     1      14.708 -33.285  21.241  1.00  0.00     0.000 C 
BRANCH  19  20
ATOM     20  C   UNL     1      13.766 -32.067  21.202  1.00  0.00     0.006 C 
BRANCH  20  21
ATOM     21  C   UNL     1      13.441 -31.477  22.582  1.00  0.00     0.053 C 
BRANCH  21  22
ATOM     22  C   UNL     1      12.417 -30.388  22.497  1.00  0.00     0.041 C 
ATOM     23  O   UNL     1      12.640 -29.265  23.021  1.00  0.00    -0.550 OA
ATOM     24  O   UNL     1      11.229 -30.602  21.809  1.00  0.00    -0.550 OA
ENDBRANCH  21  22
ENDBRANCH  20  21
ENDBRANCH  19  20
ENDBRANCH  18  19
ENDBRANCH  17  18
ENDBRANCH  16  17
ENDBRANCH  15  16
ENDBRANCH  14  15
ENDBRANCH  13  14
ENDBRANCH   1  13
TORSDOF 20
ENDMDL
MODEL 9
REMARK VINA RESULT:    -4.183      3.148      5.967
REMARK INTER + INTRA:         -13.344
REMARK INTER:                 -10.110
REMARK INTRA:                  -3.234
REMARK UNBOUND:                -4.270
REMARK SMILES CCCCCCCCCCCCCCCCCCCCCC(=O)[O-]
REMARK SMILES IDX 12 1 11 2 10 3 9 4 8 5 7 6 6 7 5 8 4 9 3 10 2 11 1 12 13 13
REMARK SMILES IDX 14 14 15 15 16 16 17 17 18 18 19 19 20 20 21 21 22 22 23 23
REMARK SMILES IDX 24 24
REMARK H PARENT
REMARK Flexibility Score: inf
ROOT
ATOM      1  C   UNL     1      14.621 -33.258  21.882  1.00  0.00     0.000 C 
ENDROOT
BRANCH   1   2
ATOM      2  C   UNL     1      13.872 -32.328  20.907  1.00  0.00     0.000 C 
BRANCH   2   3
ATOM      3  C   UNL     1      13.124 -31.154  21.570  1.00  0.00     0.000 C 
BRANCH   3   4
ATOM      4  C   UNL     1      13.238 -31.088  23.104  1.00  0.00    -0.000 C 
BRANCH   4   5
ATOM      5  C   UNL     1      13.921 -29.801  23.597  1.00  0.00    -0.000 C 
BRANCH   5   6
ATOM      6  C   UNL     1      14.649 -29.052  22.468  1.00  0.00    -0.000 C 
BRANCH   6   7
ATOM      7  C   UNL     1      15.942 -28.372  22.945  1.00  0.00    -0.000 C 
BRANCH   7   8
ATOM      8  C   UNL     1      17.161 -28.922  22.188  1.00  0.00    -0.000 C 
BRANCH   8   9
ATOM      9  C   UNL     1      16.984 -30.388  21.753  1.00  0.00    -0.000 C 
BRANCH   9  10
ATOM     10  C   UNL     1      17.692 -31.425  22.648  1.00  0.00    -0.000 C 
BRANCH  10  11
ATOM     11  C   UNL     1      17.138 -31.531  24.081  1.00  0.00    -0.003 C 
ATOM     12  C   UNL     1      17.140 -32.963  24.614  1.00  0.00     0.004 C 
ENDBRANCH  10  11
ENDBRANCH   9  10
ENDBRANCH   8   9
ENDBRANCH   7   8
ENDBRANCH   6   7
ENDBRANCH   5   6
ENDBRANCH   4   5
ENDBRANCH   3   4
ENDBRANCH   2   3
ENDBRANCH   1   2
BRANCH   1  13
ATOM     13  C   UNL     1      15.438 -34.378  21.210  1.00  0.00     0.000 C 
BRANCH  13  14
ATOM     14  C   UNL     1      16.324 -33.925  20.030  1.00  0.00     0.000 C 
BRANCH  14  15
ATOM     15  C   UNL     1      17.259 -35.006  19.458  1.00  0.00     0.000 C 
BRANCH  15  16
ATOM     16  C   UNL     1      16.805 -36.435  19.800  1.00  0.00     0.000 C 
BRANCH  16  17
ATOM     17  C   UNL     1      17.788 -37.166  20.730  1.00  0.00     0.000 C 
BRANCH  17  18
ATOM     18  C   UNL     1      18.728 -36.220  21.506  1.00  0.00     0.000 C 
BRANCH  18  19
ATOM     19  C   UNL     1      18.257 -35.996  22.954  1.00  0.00     0.000 C 
BRANCH  19  20
ATOM     20  C   UNL     1      19.113 -36.757  23.984  1.00  0.00     0.006 C 
BRANCH  20  21
ATOM     21  C   UNL     1      19.234 -36.055  25.345  1.00  0.00     0.053 C 
BRANCH  21  22
ATOM     22  C   UNL     1      18.284 -36.622  26.353  1.00  0.00     0.041 C 
ATOM     23  O   UNL     1      18.716 -37.317  27.311  1.00  0.00    -0.550 OA
ATOM     24  O   UNL     1      16.925 -36.353  26.256  1.00  0.00    -0.550 OA
ENDBRANCH  21  22
ENDBRANCH  20  21
ENDBRANCH  19  20
ENDBRANCH  18  19
ENDBRANCH  17  18
ENDBRANCH  16  17
ENDBRANCH  15  16
ENDBRANCH  14  15
ENDBRANCH  13  14
ENDBRANCH   1  13
TORSDOF 20
ENDMDL
