MODEL 1
REMARK VINA RESULT:    -2.970      0.000      0.000
REMARK INTER + INTRA:          -4.409
REMARK INTER:                  -4.880
REMARK INTRA:                   0.470
REMARK UNBOUND:                 0.470
REMARK SMILES COc1ccc([C@H]2CC(=O)c3c(O)cc(O[C@@H]4O[C@@H](CO[C@@H]5O[C@@H](C)[C@@H](O)[C@@H](O)[C@H]5O)[C@@H](O)[C@@H](O)[C@@H]4O)cc3O2)cc1O
REMARK SMILES IDX 19 1 32 2 34 3 36 4 17 5 18 6 20 7 21 8 22 9 25 10 24 11
REMARK SMILES IDX 26 12 23 13 28 14 30 15 27 16 29 18 31 20 33 22 35 24 16 26
REMARK SMILES IDX 15 27 14 28 38 29 12 30 39 31 11 32 40 33 9 34 7 35 10 36
REMARK SMILES IDX 8 37 13 38 6 40 41 41 5 42 42 43 4 44 3 45 43 46 2 48 1 49
REMARK SMILES IDX 37 50
REMARK H PARENT 27 17 29 19 31 21 33 23 35 25 13 39 43 47 37 51
REMARK Flexibility Score: inf
ROOT
ATOM      1  C   UNL     1       8.250  -2.044  19.915  1.00  0.00     0.180 C 
ATOM      2  C   UNL     1       7.110  -3.065  20.116  1.00  0.00     0.177 C 
ATOM      3  C   UNL     1       7.708  -4.484  20.076  1.00  0.00     0.180 C 
ATOM      4  C   UNL     1       8.532  -4.671  18.793  1.00  0.00     0.214 C 
ATOM      5  C   UNL     1       9.550  -3.518  18.626  1.00  0.00     0.339 C 
ATOM      6  O   UNL     1       8.903  -2.255  18.670  1.00  0.00    -0.332 OA
ENDROOT
BRANCH   1   7
ATOM      7  C   UNL     1       7.731  -0.602  19.974  1.00  0.00     0.198 C 
BRANCH   7   8
ATOM      8  O   UNL     1       6.737  -0.407  18.980  1.00  0.00    -0.347 OA
BRANCH   8   9
ATOM      9  C   UNL     1       7.125   0.559  18.010  1.00  0.00     0.281 C 
ATOM     10  C   UNL     1      10.247   1.605  19.665  1.00  0.00     0.041 C 
ATOM     11  C   UNL     1       8.738   1.468  19.460  1.00  0.00     0.150 C 
ATOM     12  C   UNL     1       8.030   2.834  19.584  1.00  0.00     0.174 C 
ATOM     13  O   UNL     1       8.499   0.886  18.185  1.00  0.00    -0.344 OA
ATOM     14  C   UNL     1       6.517   2.646  19.352  1.00  0.00     0.179 C 
ATOM     15  C   UNL     1       6.242   1.840  18.065  1.00  0.00     0.202 C 
BRANCH  12  16
ATOM     16  O   UNL     1       8.573   3.746  18.661  1.00  0.00    -0.388 OA
ATOM     17  H   UNL     1       7.813   4.269  18.291  1.00  0.00     0.211 HD
ENDBRANCH  12  16
BRANCH  14  18
ATOM     18  O   UNL     1       5.876   3.895  19.306  1.00  0.00    -0.387 OA
ATOM     19  H   UNL     1       6.010   4.322  20.196  1.00  0.00     0.211 HD
ENDBRANCH  14  18
BRANCH  15  20
ATOM     20  O   UNL     1       6.417   2.639  16.917  1.00  0.00    -0.385 OA
ATOM     21  H   UNL     1       6.720   3.540  17.203  1.00  0.00     0.211 HD
ENDBRANCH  15  20
ENDBRANCH   8   9
ENDBRANCH   7   8
ENDBRANCH   1   7
BRANCH   2  22
ATOM     22  O   UNL     1       6.145  -2.916  19.102  1.00  0.00    -0.387 OA
ATOM     23  H   UNL     1       5.829  -3.825  18.863  1.00  0.00     0.211 HD
ENDBRANCH   2  22
BRANCH   3  24
ATOM     24  O   UNL     1       6.687  -5.447  20.124  1.00  0.00    -0.387 OA
ATOM     25  H   UNL     1       6.436  -5.646  19.182  1.00  0.00     0.211 HD
ENDBRANCH   3  24
BRANCH   5  26
ATOM     26  O   UNL     1      10.581  -3.575  19.622  1.00  0.00    -0.462 OA
BRANCH  26  27
ATOM     27  C   UNL     1      11.867  -3.019  19.531  1.00  0.00     0.130 A 
ATOM     28  C   UNL     1      12.105  -1.644  19.363  1.00  0.00     0.093 A 
ATOM     29  C   UNL     1      12.954  -3.886  19.634  1.00  0.00     0.094 A 
ATOM     30  C   UNL     1      13.411  -1.137  19.308  1.00  0.00     0.133 A 
ATOM     31  C   UNL     1      14.262  -3.402  19.598  1.00  0.00     0.138 A 
ATOM     32  C   UNL     1      14.516  -2.030  19.384  1.00  0.00     0.102 A 
ATOM     33  O   UNL     1      15.320  -4.299  19.781  1.00  0.00    -0.484 OA
ATOM     34  C   UNL     1      15.943  -1.633  19.185  1.00  0.00     0.174 C 
ATOM     35  C   UNL     1      16.628  -3.842  20.121  1.00  0.00     0.211 C 
ATOM     36  O   UNL     1      16.266  -0.454  18.895  1.00  0.00    -0.294 OA
ATOM     37  C   UNL     1      17.027  -2.677  19.209  1.00  0.00     0.131 C 
BRANCH  30  38
ATOM     38  O   UNL     1      13.544   0.250  19.202  1.00  0.00    -0.507 OA
ATOM     39  H   UNL     1      14.388   0.764  19.405  1.00  0.00     0.293 HD
ENDBRANCH  30  38
BRANCH  35  40
ATOM     40  C   UNL     1      17.621  -4.975  20.025  1.00  0.00    -0.003 A 
ATOM     41  C   UNL     1      19.002  -4.724  20.034  1.00  0.00     0.057 A 
ATOM     42  C   UNL     1      17.170  -6.302  19.974  1.00  0.00     0.011 A 
ATOM     43  C   UNL     1      19.922  -5.777  19.959  1.00  0.00     0.158 A 
ATOM     44  C   UNL     1      18.082  -7.359  19.899  1.00  0.00     0.051 A 
ATOM     45  C   UNL     1      19.468  -7.106  19.883  1.00  0.00     0.160 A 
BRANCH  43  46
ATOM     46  O   UNL     1      21.287  -5.481  19.956  1.00  0.00    -0.504 OA
ATOM     47  H   UNL     1      21.823  -5.398  19.099  1.00  0.00     0.293 HD
ENDBRANCH  43  46
BRANCH  45  48
ATOM     48  O   UNL     1      20.412  -8.142  19.789  1.00  0.00    -0.493 OA
ATOM     49  C   UNL     1      20.258  -9.303  18.980  1.00  0.00     0.278 C 
ENDBRANCH  45  48
ENDBRANCH  35  40
ENDBRANCH  26  27
ENDBRANCH   5  26
BRANCH   4  50
ATOM     50  O   UNL     1       9.186  -5.912  18.841  1.00  0.00    -0.384 OA
ATOM     51  H   UNL     1       9.554  -6.007  19.753  1.00  0.00     0.211 HD
ENDBRANCH   4  50
TORSDOF 15
ENDMDL
