MODEL 1
REMARK VINA RESULT:    -4.533      0.000      0.000
REMARK INTER + INTRA:          -5.327
REMARK INTER:                  -5.195
REMARK INTRA:                  -0.132
REMARK UNBOUND:                -0.132
REMARK SMILES COC(=O)c1ccccc1O
REMARK SMILES IDX 5 1 6 2 7 3 8 4 9 5 10 6 3 7 4 8 2 9 1 10 11 11
REMARK H PARENT 11 12
REMARK Flexibility Score: inf
ROOT
ATOM      1  C   UNL     1     146.442 146.526 144.325  1.00  0.00     0.101 A 
ATOM      2  C   UNL     1     146.247 145.665 143.230  1.00  0.00     0.019 A 
ATOM      3  C   UNL     1     147.219 144.729 142.875  1.00  0.00     0.001 A 
ATOM      4  C   UNL     1     148.402 144.638 143.608  1.00  0.00     0.004 A 
ATOM      5  C   UNL     1     148.623 145.497 144.686  1.00  0.00     0.047 A 
ATOM      6  C   UNL     1     147.666 146.457 145.041  1.00  0.00     0.130 A 
ENDROOT
BRANCH   1   7
ATOM      7  C   UNL     1     145.346 147.444 144.701  1.00  0.00     0.341 C 
ATOM      8  O   UNL     1     145.091 148.460 143.997  1.00  0.00    -0.246 OA
BRANCH   7   9
ATOM      9  O   UNL     1     144.629 147.211 145.880  1.00  0.00    -0.465 OA
ATOM     10  C   UNL     1     143.494 147.984 146.254  1.00  0.00     0.282 C 
ENDBRANCH   7   9
ENDBRANCH   1   7
BRANCH   6  11
ATOM     11  O   UNL     1     147.982 147.336 146.079  1.00  0.00    -0.507 OA
ATOM     12  H   UNL     1     147.596 148.266 146.161  1.00  0.00     0.293 HD
ENDBRANCH   6  11
TORSDOF 3
ENDMDL
MODEL 2
REMARK VINA RESULT:    -4.476      8.953     10.410
REMARK INTER + INTRA:          -5.263
REMARK INTER:                  -4.992
REMARK INTRA:                  -0.271
REMARK UNBOUND:                -0.132
REMARK SMILES COC(=O)c1ccccc1O
REMARK SMILES IDX 5 1 6 2 7 3 8 4 9 5 10 6 3 7 4 8 2 9 1 10 11 11
REMARK H PARENT 11 12
REMARK Flexibility Score: inf
ROOT
ATOM      1  C   UNL     1     153.269 141.965 149.478  1.00  0.00     0.101 A 
ATOM      2  C   UNL     1     152.735 142.121 150.770  1.00  0.00     0.019 A 
ATOM      3  C   UNL     1     151.471 141.617 151.085  1.00  0.00     0.001 A 
ATOM      4  C   UNL     1     150.723 140.951 150.115  1.00  0.00     0.004 A 
ATOM      5  C   UNL     1     151.228 140.804 148.822  1.00  0.00     0.047 A 
ATOM      6  C   UNL     1     152.485 141.323 148.484  1.00  0.00     0.130 A 
ENDROOT
BRANCH   1   7
ATOM      7  C   UNL     1     154.642 142.451 149.224  1.00  0.00     0.341 C 
ATOM      8  O   UNL     1     155.161 143.325 149.971  1.00  0.00    -0.246 OA
BRANCH   7   9
ATOM      9  O   UNL     1     155.343 141.978 148.108  1.00  0.00    -0.465 OA
ATOM     10  C   UNL     1     156.754 141.799 148.107  1.00  0.00     0.282 C 
ENDBRANCH   7   9
ENDBRANCH   1   7
BRANCH   6  11
ATOM     11  O   UNL     1     152.898 141.210 147.155  1.00  0.00    -0.507 OA
ATOM     12  H   UNL     1     153.833 140.946 146.881  1.00  0.00     0.293 HD
ENDBRANCH   6  11
TORSDOF 3
ENDMDL
MODEL 3
REMARK VINA RESULT:    -4.340     20.040     21.113
REMARK INTER + INTRA:          -5.106
REMARK INTER:                  -4.856
REMARK INTRA:                  -0.250
REMARK UNBOUND:                -0.132
REMARK SMILES COC(=O)c1ccccc1O
REMARK SMILES IDX 5 1 6 2 7 3 8 4 9 5 10 6 3 7 4 8 2 9 1 10 11 11
REMARK H PARENT 11 12
REMARK Flexibility Score: inf
ROOT
ATOM      1  C   UNL     1     157.529 138.244 160.286  1.00  0.00     0.101 A 
ATOM      2  C   UNL     1     157.532 138.167 161.691  1.00  0.00     0.019 A 
ATOM      3  C   UNL     1     157.817 139.293 162.466  1.00  0.00     0.001 A 
ATOM      4  C   UNL     1     158.104 140.511 161.851  1.00  0.00     0.004 A 
ATOM      5  C   UNL     1     158.125 140.601 160.459  1.00  0.00     0.047 A 
ATOM      6  C   UNL     1     157.863 139.476 159.666  1.00  0.00     0.130 A 
ENDROOT
BRANCH   1   7
ATOM      7  C   UNL     1     157.145 137.039 159.519  1.00  0.00     0.341 C 
ATOM      8  O   UNL     1     157.391 136.961 158.284  1.00  0.00    -0.246 OA
BRANCH   7   9
ATOM      9  O   UNL     1     156.449 136.009 160.162  1.00  0.00    -0.465 OA
ATOM     10  C   UNL     1     155.936 134.879 159.466  1.00  0.00     0.282 C 
ENDBRANCH   7   9
ENDBRANCH   1   7
BRANCH   6  11
ATOM     11  O   UNL     1     157.977 139.616 158.281  1.00  0.00    -0.507 OA
ATOM     12  H   UNL     1     158.369 140.432 157.832  1.00  0.00     0.293 HD
ENDBRANCH   6  11
TORSDOF 3
ENDMDL
MODEL 4
REMARK VINA RESULT:    -4.290      9.314     10.331
REMARK INTER + INTRA:          -5.049
REMARK INTER:                  -4.786
REMARK INTRA:                  -0.263
REMARK UNBOUND:                -0.132
REMARK SMILES COC(=O)c1ccccc1O
REMARK SMILES IDX 5 1 6 2 7 3 8 4 9 5 10 6 3 7 4 8 2 9 1 10 11 11
REMARK H PARENT 11 12
REMARK Flexibility Score: inf
ROOT
ATOM      1  C   UNL     1     153.226 141.902 149.484  1.00  0.00     0.101 A 
ATOM      2  C   UNL     1     152.543 141.209 148.468  1.00  0.00     0.019 A 
ATOM      3  C   UNL     1     151.245 140.737 148.674  1.00  0.00     0.001 A 
ATOM      4  C   UNL     1     150.610 140.948 149.897  1.00  0.00     0.004 A 
ATOM      5  C   UNL     1     151.279 141.616 150.924  1.00  0.00     0.047 A 
ATOM      6  C   UNL     1     152.589 142.077 150.741  1.00  0.00     0.130 A 
ENDROOT
BRANCH   1   7
ATOM      7  C   UNL     1     154.567 142.445 149.183  1.00  0.00     0.341 C 
ATOM      8  O   UNL     1     155.079 143.333 149.919  1.00  0.00    -0.246 OA
BRANCH   7   9
ATOM      9  O   UNL     1     155.242 142.011 148.036  1.00  0.00    -0.465 OA
ATOM     10  C   UNL     1     156.649 141.798 148.008  1.00  0.00     0.282 C 
ENDBRANCH   7   9
ENDBRANCH   1   7
BRANCH   6  11
ATOM     11  O   UNL     1     153.229 142.667 151.833  1.00  0.00    -0.507 OA
ATOM     12  H   UNL     1     153.657 142.141 152.582  1.00  0.00     0.293 HD
ENDBRANCH   6  11
TORSDOF 3
ENDMDL
MODEL 5
REMARK VINA RESULT:    -4.090     19.940     21.605
REMARK INTER + INTRA:          -4.820
REMARK INTER:                  -4.507
REMARK INTRA:                  -0.313
REMARK UNBOUND:                -0.132
REMARK SMILES COC(=O)c1ccccc1O
REMARK SMILES IDX 5 1 6 2 7 3 8 4 9 5 10 6 3 7 4 8 2 9 1 10 11 11
REMARK H PARENT 11 12
REMARK Flexibility Score: inf
ROOT
ATOM      1  C   UNL     1     157.641 138.345 160.841  1.00  0.00     0.101 A 
ATOM      2  C   UNL     1     158.057 139.688 160.793  1.00  0.00     0.019 A 
ATOM      3  C   UNL     1     158.117 140.374 159.579  1.00  0.00     0.001 A 
ATOM      4  C   UNL     1     157.763 139.730 158.394  1.00  0.00     0.004 A 
ATOM      5  C   UNL     1     157.367 138.392 158.419  1.00  0.00     0.047 A 
ATOM      6  C   UNL     1     157.323 137.683 159.626  1.00  0.00     0.130 A 
ENDROOT
BRANCH   1   7
ATOM      7  C   UNL     1     157.524 137.694 162.163  1.00  0.00     0.341 C 
ATOM      8  O   UNL     1     156.968 138.292 163.125  1.00  0.00    -0.246 OA
BRANCH   7   9
ATOM      9  O   UNL     1     158.090 136.429 162.358  1.00  0.00    -0.465 OA
ATOM     10  C   UNL     1     157.349 135.327 162.870  1.00  0.00     0.282 C 
ENDBRANCH   7   9
ENDBRANCH   1   7
BRANCH   6  11
ATOM     11  O   UNL     1     156.993 136.327 159.572  1.00  0.00    -0.507 OA
ATOM     12  H   UNL     1     157.271 135.714 158.818  1.00  0.00     0.293 HD
ENDBRANCH   6  11
TORSDOF 3
ENDMDL
MODEL 6
REMARK VINA RESULT:    -3.923      9.283     10.286
REMARK INTER + INTRA:          -4.629
REMARK INTER:                  -4.335
REMARK INTRA:                  -0.293
REMARK UNBOUND:                -0.132
REMARK SMILES COC(=O)c1ccccc1O
REMARK SMILES IDX 5 1 6 2 7 3 8 4 9 5 10 6 3 7 4 8 2 9 1 10 11 11
REMARK H PARENT 11 12
REMARK Flexibility Score: inf
ROOT
ATOM      1  C   UNL     1     153.366 141.711 148.844  1.00  0.00     0.101 A 
ATOM      2  C   UNL     1     152.251 140.875 148.652  1.00  0.00     0.019 A 
ATOM      3  C   UNL     1     151.271 140.755 149.640  1.00  0.00     0.001 A 
ATOM      4  C   UNL     1     151.391 141.466 150.834  1.00  0.00     0.004 A 
ATOM      5  C   UNL     1     152.501 142.285 151.050  1.00  0.00     0.047 A 
ATOM      6  C   UNL     1     153.503 142.399 150.078  1.00  0.00     0.130 A 
ENDROOT
BRANCH   1   7
ATOM      7  C   UNL     1     154.331 141.858 147.733  1.00  0.00     0.341 C 
ATOM      8  O   UNL     1     153.925 142.030 146.551  1.00  0.00    -0.246 OA
BRANCH   7   9
ATOM      9  O   UNL     1     155.701 141.743 147.994  1.00  0.00    -0.465 OA
ATOM     10  C   UNL     1     156.697 142.160 147.066  1.00  0.00     0.282 C 
ENDBRANCH   7   9
ENDBRANCH   1   7
BRANCH   6  11
ATOM     11  O   UNL     1     154.624 143.173 150.388  1.00  0.00    -0.507 OA
ATOM     12  H   UNL     1     154.603 143.956 151.026  1.00  0.00     0.293 HD
ENDBRANCH   6  11
TORSDOF 3
ENDMDL
MODEL 7
REMARK VINA RESULT:    -3.574      2.250      3.557
REMARK INTER + INTRA:          -4.228
REMARK INTER:                  -3.953
REMARK INTRA:                  -0.275
REMARK UNBOUND:                -0.132
REMARK SMILES COC(=O)c1ccccc1O
REMARK SMILES IDX 5 1 6 2 7 3 8 4 9 5 10 6 3 7 4 8 2 9 1 10 11 11
REMARK H PARENT 11 12
REMARK Flexibility Score: inf
ROOT
ATOM      1  C   UNL     1     147.800 146.556 145.159  1.00  0.00     0.101 A 
ATOM      2  C   UNL     1     146.636 147.306 144.909  1.00  0.00     0.019 A 
ATOM      3  C   UNL     1     145.858 147.059 143.776  1.00  0.00     0.001 A 
ATOM      4  C   UNL     1     146.230 146.061 142.876  1.00  0.00     0.004 A 
ATOM      5  C   UNL     1     147.391 145.320 143.097  1.00  0.00     0.047 A 
ATOM      6  C   UNL     1     148.195 145.570 144.217  1.00  0.00     0.130 A 
ENDROOT
BRANCH   1   7
ATOM      7  C   UNL     1     148.542 146.809 146.413  1.00  0.00     0.341 C 
ATOM      8  O   UNL     1     149.205 145.887 146.962  1.00  0.00    -0.246 OA
BRANCH   7   9
ATOM      9  O   UNL     1     148.452 148.066 147.021  1.00  0.00    -0.465 OA
ATOM     10  C   UNL     1     149.158 148.394 148.213  1.00  0.00     0.282 C 
ENDBRANCH   7   9
ENDBRANCH   1   7
BRANCH   6  11
ATOM     11  O   UNL     1     149.384 144.846 144.338  1.00  0.00    -0.507 OA
ATOM     12  H   UNL     1     150.213 145.206 144.789  1.00  0.00     0.293 HD
ENDBRANCH   6  11
TORSDOF 3
ENDMDL
MODEL 8
REMARK VINA RESULT:    -3.258      1.600      3.408
REMARK INTER + INTRA:          -3.867
REMARK INTER:                  -3.576
REMARK INTRA:                  -0.290
REMARK UNBOUND:                -0.132
REMARK SMILES COC(=O)c1ccccc1O
REMARK SMILES IDX 5 1 6 2 7 3 8 4 9 5 10 6 3 7 4 8 2 9 1 10 11 11
REMARK H PARENT 11 12
REMARK Flexibility Score: inf
ROOT
ATOM      1  C   UNL     1     147.762 146.409 145.266  1.00  0.00     0.101 A 
ATOM      2  C   UNL     1     148.404 145.548 144.357  1.00  0.00     0.019 A 
ATOM      3  C   UNL     1     147.774 145.165 143.171  1.00  0.00     0.001 A 
ATOM      4  C   UNL     1     146.495 145.634 142.876  1.00  0.00     0.004 A 
ATOM      5  C   UNL     1     145.834 146.472 143.775  1.00  0.00     0.047 A 
ATOM      6  C   UNL     1     146.443 146.849 144.979  1.00  0.00     0.130 A 
ENDROOT
BRANCH   1   7
ATOM      7  C   UNL     1     148.507 146.842 146.467  1.00  0.00     0.341 C 
ATOM      8  O   UNL     1     149.190 146.014 147.131  1.00  0.00    -0.246 OA
BRANCH   7   9
ATOM      9  O   UNL     1     148.398 148.168 146.901  1.00  0.00    -0.465 OA
ATOM     10  C   UNL     1     149.054 148.650 148.069  1.00  0.00     0.282 C 
ENDBRANCH   7   9
ENDBRANCH   1   7
BRANCH   6  11
ATOM     11  O   UNL     1     145.698 147.626 145.868  1.00  0.00    -0.507 OA
ATOM     12  H   UNL     1     144.942 148.232 145.583  1.00  0.00     0.293 HD
ENDBRANCH   6  11
TORSDOF 3
ENDMDL
