MODEL 1
REMARK VINA RESULT:    -3.186      0.000      0.000
REMARK INTER + INTRA:          -3.564
REMARK INTER:                  -3.559
REMARK INTRA:                  -0.005
REMARK UNBOUND:                -0.005
REMARK SMILES CCCC(=O)[O-]
REMARK SMILES IDX 3 1 4 2 5 3 6 4 2 5 1 6
REMARK H PARENT
REMARK Flexibility Score: inf
ROOT
ATOM      1  C   UNL     1      -6.125  35.345  21.331  1.00  0.00     0.052 C 
ENDROOT
BRANCH   1   2
ATOM      2  C   UNL     1      -5.352  36.083  20.282  1.00  0.00     0.041 C 
ATOM      3  O   UNL     1      -5.383  37.342  20.240  1.00  0.00    -0.550 OA
ATOM      4  O   UNL     1      -4.624  35.380  19.330  1.00  0.00    -0.550 OA
ENDBRANCH   1   2
BRANCH   1   5
ATOM      5  C   UNL     1      -5.364  35.284  22.661  1.00  0.00     0.003 C 
ATOM      6  C   UNL     1      -5.961  34.260  23.626  1.00  0.00     0.004 C 
ENDBRANCH   1   5
TORSDOF 2
ENDMDL
MODEL 2
REMARK VINA RESULT:    -3.166      0.318      1.360
REMARK INTER + INTRA:          -3.541
REMARK INTER:                  -3.535
REMARK INTRA:                  -0.006
REMARK UNBOUND:                -0.005
REMARK SMILES CCCC(=O)[O-]
REMARK SMILES IDX 3 1 4 2 5 3 6 4 2 5 1 6
REMARK H PARENT
REMARK Flexibility Score: inf
ROOT
ATOM      1  C   UNL     1      -6.125  35.311  21.163  1.00  0.00     0.052 C 
ENDROOT
BRANCH   1   2
ATOM      2  C   UNL     1      -5.357  36.077  20.130  1.00  0.00     0.041 C 
ATOM      3  O   UNL     1      -4.666  35.466  19.272  1.00  0.00    -0.550 OA
ATOM      4  O   UNL     1      -5.376  37.467  20.136  1.00  0.00    -0.550 OA
ENDBRANCH   1   2
BRANCH   1   5
ATOM      5  C   UNL     1      -5.752  35.745  22.586  1.00  0.00     0.003 C 
ATOM      6  C   UNL     1      -5.754  34.574  23.569  1.00  0.00     0.004 C 
ENDBRANCH   1   5
TORSDOF 2
ENDMDL
MODEL 3
REMARK VINA RESULT:    -3.055      2.886      3.842
REMARK INTER + INTRA:          -3.417
REMARK INTER:                  -3.411
REMARK INTRA:                  -0.006
REMARK UNBOUND:                -0.005
REMARK SMILES CCCC(=O)[O-]
REMARK SMILES IDX 3 1 4 2 5 3 6 4 2 5 1 6
REMARK H PARENT
REMARK Flexibility Score: inf
ROOT
ATOM      1  C   UNL     1      -6.054  35.746  22.357  1.00  0.00     0.052 C 
ENDROOT
BRANCH   1   2
ATOM      2  C   UNL     1      -5.810  35.061  23.666  1.00  0.00     0.041 C 
ATOM      3  O   UNL     1      -5.937  33.812  23.762  1.00  0.00    -0.550 OA
ATOM      4  O   UNL     1      -5.475  35.807  24.790  1.00  0.00    -0.550 OA
ENDBRANCH   1   2
BRANCH   1   5
ATOM      5  C   UNL     1      -4.920  35.484  21.358  1.00  0.00     0.003 C 
ATOM      6  C   UNL     1      -5.281  35.924  19.939  1.00  0.00     0.004 C 
ENDBRANCH   1   5
TORSDOF 2
ENDMDL
MODEL 4
REMARK VINA RESULT:    -3.031     13.104     13.994
REMARK INTER + INTRA:          -3.391
REMARK INTER:                  -3.377
REMARK INTRA:                  -0.014
REMARK UNBOUND:                -0.005
REMARK SMILES CCCC(=O)[O-]
REMARK SMILES IDX 3 1 4 2 5 3 6 4 2 5 1 6
REMARK H PARENT
REMARK Flexibility Score: inf
ROOT
ATOM      1  C   UNL     1      -5.744  25.066  28.875  1.00  0.00     0.052 C 
ENDROOT
BRANCH   1   2
ATOM      2  C   UNL     1      -5.475  23.671  29.350  1.00  0.00     0.041 C 
ATOM      3  O   UNL     1      -4.962  22.824  28.571  1.00  0.00    -0.550 OA
ATOM      4  O   UNL     1      -5.822  23.296  30.642  1.00  0.00    -0.550 OA
ENDBRANCH   1   2
BRANCH   1   5
ATOM      5  C   UNL     1      -4.933  26.102  29.663  1.00  0.00     0.003 C 
ATOM      6  C   UNL     1      -5.716  27.392  29.905  1.00  0.00     0.004 C 
ENDBRANCH   1   5
TORSDOF 2
ENDMDL
MODEL 5
REMARK VINA RESULT:    -2.993     12.455     13.341
REMARK INTER + INTRA:          -3.348
REMARK INTER:                  -3.338
REMARK INTRA:                  -0.011
REMARK UNBOUND:                -0.005
REMARK SMILES CCCC(=O)[O-]
REMARK SMILES IDX 3 1 4 2 5 3 6 4 2 5 1 6
REMARK H PARENT
REMARK Flexibility Score: inf
ROOT
ATOM      1  C   UNL     1      -4.511  25.299  29.985  1.00  0.00     0.052 C 
ENDROOT
BRANCH   1   2
ATOM      2  C   UNL     1      -4.917  26.718  30.235  1.00  0.00     0.041 C 
ATOM      3  O   UNL     1      -5.742  27.286  29.470  1.00  0.00    -0.550 OA
ATOM      4  O   UNL     1      -4.360  27.426  31.293  1.00  0.00    -0.550 OA
ENDBRANCH   1   2
BRANCH   1   5
ATOM      5  C   UNL     1      -5.581  24.531  29.199  1.00  0.00     0.003 C 
ATOM      6  C   UNL     1      -5.111  23.135  28.789  1.00  0.00     0.004 C 
ENDBRANCH   1   5
TORSDOF 2
ENDMDL
MODEL 6
REMARK VINA RESULT:    -2.945      2.476      3.418
REMARK INTER + INTRA:          -3.295
REMARK INTER:                  -3.258
REMARK INTRA:                  -0.036
REMARK UNBOUND:                -0.005
REMARK SMILES CCCC(=O)[O-]
REMARK SMILES IDX 3 1 4 2 5 3 6 4 2 5 1 6
REMARK H PARENT
REMARK Flexibility Score: inf
ROOT
ATOM      1  C   UNL     1      -4.784  35.318  21.718  1.00  0.00     0.052 C 
ENDROOT
BRANCH   1   2
ATOM      2  C   UNL     1      -5.582  35.230  22.982  1.00  0.00     0.041 C 
ATOM      3  O   UNL     1      -6.125  36.260  23.462  1.00  0.00    -0.550 OA
ATOM      4  O   UNL     1      -5.699  34.016  23.649  1.00  0.00    -0.550 OA
ENDBRANCH   1   2
BRANCH   1   5
ATOM      5  C   UNL     1      -5.635  35.812  20.541  1.00  0.00     0.003 C 
ATOM      6  C   UNL     1      -5.309  37.254  20.152  1.00  0.00     0.004 C 
ENDBRANCH   1   5
TORSDOF 2
ENDMDL
MODEL 7
REMARK VINA RESULT:    -2.819      1.404      1.672
REMARK INTER + INTRA:          -3.154
REMARK INTER:                  -3.146
REMARK INTRA:                  -0.008
REMARK UNBOUND:                -0.005
REMARK SMILES CCCC(=O)[O-]
REMARK SMILES IDX 3 1 4 2 5 3 6 4 2 5 1 6
REMARK H PARENT
REMARK Flexibility Score: inf
ROOT
ATOM      1  C   UNL     1      -5.331  36.034  20.763  1.00  0.00     0.052 C 
ENDROOT
BRANCH   1   2
ATOM      2  C   UNL     1      -5.206  35.307  19.460  1.00  0.00     0.041 C 
ATOM      3  O   UNL     1      -4.288  35.608  18.652  1.00  0.00    -0.550 OA
ATOM      4  O   UNL     1      -6.125  34.321  19.122  1.00  0.00    -0.550 OA
ENDBRANCH   1   2
BRANCH   1   5
ATOM      5  C   UNL     1      -5.945  35.147  21.853  1.00  0.00     0.003 C 
ATOM      6  C   UNL     1      -6.125  35.891  23.176  1.00  0.00     0.004 C 
ENDBRANCH   1   5
TORSDOF 2
ENDMDL
MODEL 8
REMARK VINA RESULT:    -2.595      2.104      3.129
REMARK INTER + INTRA:          -2.903
REMARK INTER:                  -2.895
REMARK INTRA:                  -0.008
REMARK UNBOUND:                -0.005
REMARK SMILES CCCC(=O)[O-]
REMARK SMILES IDX 3 1 4 2 5 3 6 4 2 5 1 6
REMARK H PARENT
REMARK Flexibility Score: inf
ROOT
ATOM      1  C   UNL     1      -4.875  35.390  20.502  1.00  0.00     0.052 C 
ENDROOT
BRANCH   1   2
ATOM      2  C   UNL     1      -5.426  36.572  21.239  1.00  0.00     0.041 C 
ATOM      3  O   UNL     1      -5.953  36.422  22.373  1.00  0.00    -0.550 OA
ATOM      4  O   UNL     1      -5.389  37.834  20.658  1.00  0.00    -0.550 OA
ENDBRANCH   1   2
BRANCH   1   5
ATOM      5  C   UNL     1      -5.801  34.947  19.362  1.00  0.00     0.003 C 
ATOM      6  C   UNL     1      -5.038  34.273  18.222  1.00  0.00     0.004 C 
ENDBRANCH   1   5
TORSDOF 2
ENDMDL
