MODEL 1
REMARK VINA RESULT:    -2.434      0.000      0.000
REMARK INTER + INTRA:          -5.743
REMARK INTER:                  -4.425
REMARK INTRA:                  -1.317
REMARK UNBOUND:                -1.317
REMARK SMILES CCCCCCCCCCCCCCCC(=O)[O-]
REMARK SMILES IDX 9 1 10 2 11 3 12 4 13 5 14 6 15 7 16 8 17 9 18 10 8 11 7 12
REMARK SMILES IDX 6 13 5 14 4 15 3 16 2 17 1 18
REMARK H PARENT
REMARK Flexibility Score: inf
ROOT
ATOM      1  C   UNL     1      -7.017 -22.607  18.652  1.00  0.00     0.000 C 
ENDROOT
BRANCH   1   2
ATOM      2  C   UNL     1      -8.420 -23.120  18.283  1.00  0.00     0.000 C 
BRANCH   2   3
ATOM      3  C   UNL     1      -9.514 -22.563  19.209  1.00  0.00     0.000 C 
BRANCH   3   4
ATOM      4  C   UNL     1      -9.396 -21.046  19.421  1.00  0.00     0.000 C 
BRANCH   4   5
ATOM      5  C   UNL     1     -10.370 -20.564  20.505  1.00  0.00     0.000 C 
BRANCH   5   6
ATOM      6  C   UNL     1     -10.728 -21.660  21.526  1.00  0.00     0.006 C 
BRANCH   6   7
ATOM      7  C   UNL     1     -10.150 -21.416  22.932  1.00  0.00     0.053 C 
BRANCH   7   8
ATOM      8  C   UNL     1      -8.859 -22.141  23.158  1.00  0.00     0.041 C 
ATOM      9  O   UNL     1      -7.890 -21.969  22.372  1.00  0.00    -0.550 OA
ATOM     10  O   UNL     1      -8.734 -23.034  24.215  1.00  0.00    -0.550 OA
ENDBRANCH   7   8
ENDBRANCH   6   7
ENDBRANCH   5   6
ENDBRANCH   4   5
ENDBRANCH   3   4
ENDBRANCH   2   3
ENDBRANCH   1   2
BRANCH   1  11
ATOM     11  C   UNL     1      -5.985 -22.825  17.530  1.00  0.00     0.000 C 
BRANCH  11  12
ATOM     12  C   UNL     1      -6.507 -22.596  16.100  1.00  0.00    -0.000 C 
BRANCH  12  13
ATOM     13  C   UNL     1      -7.252 -21.260  15.940  1.00  0.00    -0.000 C 
BRANCH  13  14
ATOM     14  C   UNL     1      -8.124 -21.219  14.675  1.00  0.00    -0.000 C 
BRANCH  14  15
ATOM     15  C   UNL     1      -9.208 -20.127  14.736  1.00  0.00    -0.000 C 
BRANCH  15  16
ATOM     16  C   UNL     1     -10.626 -20.709  14.853  1.00  0.00    -0.000 C 
BRANCH  16  17
ATOM     17  C   UNL     1     -11.125 -20.759  16.305  1.00  0.00    -0.003 C 
ATOM     18  C   UNL     1     -11.111 -19.370  16.938  1.00  0.00     0.004 C 
ENDBRANCH  16  17
ENDBRANCH  15  16
ENDBRANCH  14  15
ENDBRANCH  13  14
ENDBRANCH  12  13
ENDBRANCH  11  12
ENDBRANCH   1  11
TORSDOF 14
ENDMDL
MODEL 2
REMARK VINA RESULT:    -2.176     14.064     17.573
REMARK INTER + INTRA:          -5.274
REMARK INTER:                  -4.404
REMARK INTRA:                  -0.869
REMARK UNBOUND:                -1.317
REMARK SMILES CCCCCCCCCCCCCCCC(=O)[O-]
REMARK SMILES IDX 9 1 10 2 11 3 12 4 13 5 14 6 15 7 16 8 17 9 18 10 8 11 7 12
REMARK SMILES IDX 6 13 5 14 4 15 3 16 2 17 1 18
REMARK H PARENT
REMARK Flexibility Score: inf
ROOT
ATOM      1  C   UNL     1       3.183 -22.982  14.165  1.00  0.00     0.000 C 
ENDROOT
BRANCH   1   2
ATOM      2  C   UNL     1       4.700 -23.125  13.951  1.00  0.00     0.000 C 
BRANCH   2   3
ATOM      3  C   UNL     1       5.108 -22.937  12.480  1.00  0.00     0.000 C 
BRANCH   3   4
ATOM      4  C   UNL     1       6.525 -22.361  12.327  1.00  0.00     0.000 C 
BRANCH   4   5
ATOM      5  C   UNL     1       7.140 -22.765  10.980  1.00  0.00     0.000 C 
BRANCH   5   6
ATOM      6  C   UNL     1       8.349 -21.899  10.584  1.00  0.00     0.006 C 
BRANCH   6   7
ATOM      7  C   UNL     1       8.022 -20.801   9.556  1.00  0.00     0.053 C 
BRANCH   7   8
ATOM      8  C   UNL     1       7.330 -19.624  10.172  1.00  0.00     0.041 C 
ATOM      9  O   UNL     1       6.408 -19.034   9.549  1.00  0.00    -0.550 OA
ATOM     10  O   UNL     1       7.725 -19.153  11.418  1.00  0.00    -0.550 OA
ENDBRANCH   7   8
ENDBRANCH   6   7
ENDBRANCH   5   6
ENDBRANCH   4   5
ENDBRANCH   3   4
ENDBRANCH   2   3
ENDBRANCH   1   2
BRANCH   1  11
ATOM     11  C   UNL     1       2.823 -22.435  15.559  1.00  0.00     0.000 C 
BRANCH  11  12
ATOM     12  C   UNL     1       3.803 -22.808  16.686  1.00  0.00    -0.000 C 
BRANCH  12  13
ATOM     13  C   UNL     1       4.966 -21.810  16.825  1.00  0.00    -0.000 C 
BRANCH  13  14
ATOM     14  C   UNL     1       6.299 -22.500  17.155  1.00  0.00    -0.000 C 
BRANCH  14  15
ATOM     15  C   UNL     1       7.445 -21.498  17.386  1.00  0.00    -0.000 C 
BRANCH  15  16
ATOM     16  C   UNL     1       8.804 -22.037  16.913  1.00  0.00    -0.000 C 
BRANCH  16  17
ATOM     17  C   UNL     1       8.889 -22.160  15.384  1.00  0.00    -0.003 C 
ATOM     18  C   UNL     1       8.488 -20.853  14.705  1.00  0.00     0.004 C 
ENDBRANCH  16  17
ENDBRANCH  15  16
ENDBRANCH  14  15
ENDBRANCH  13  14
ENDBRANCH  12  13
ENDBRANCH  11  12
ENDBRANCH   1  11
TORSDOF 14
ENDMDL
MODEL 3
REMARK VINA RESULT:    -2.158     14.646     17.301
REMARK INTER + INTRA:          -5.241
REMARK INTER:                  -4.352
REMARK INTRA:                  -0.889
REMARK UNBOUND:                -1.317
REMARK SMILES CCCCCCCCCCCCCCCC(=O)[O-]
REMARK SMILES IDX 9 1 10 2 11 3 12 4 13 5 14 6 15 7 16 8 17 9 18 10 8 11 7 12
REMARK SMILES IDX 6 13 5 14 4 15 3 16 2 17 1 18
REMARK H PARENT
REMARK Flexibility Score: inf
ROOT
ATOM      1  C   UNL     1       7.494 -21.611  12.856  1.00  0.00     0.000 C 
ENDROOT
BRANCH   1   2
ATOM      2  C   UNL     1       8.838 -21.629  13.605  1.00  0.00     0.000 C 
BRANCH   2   3
ATOM      3  C   UNL     1       9.001 -22.874  14.494  1.00  0.00     0.000 C 
BRANCH   3   4
ATOM      4  C   UNL     1       8.743 -22.577  15.980  1.00  0.00     0.000 C 
BRANCH   4   5
ATOM      5  C   UNL     1       7.879 -21.320  16.149  1.00  0.00     0.000 C 
BRANCH   5   6
ATOM      6  C   UNL     1       7.167 -21.254  17.512  1.00  0.00     0.006 C 
BRANCH   6   7
ATOM      7  C   UNL     1       6.097 -22.343  17.711  1.00  0.00     0.053 C 
BRANCH   7   8
ATOM      8  C   UNL     1       5.124 -22.409  16.574  1.00  0.00     0.041 C 
ATOM      9  O   UNL     1       3.969 -21.924  16.699  1.00  0.00    -0.550 OA
ATOM     10  O   UNL     1       5.479 -23.037  15.385  1.00  0.00    -0.550 OA
ENDBRANCH   7   8
ENDBRANCH   6   7
ENDBRANCH   5   6
ENDBRANCH   4   5
ENDBRANCH   3   4
ENDBRANCH   2   3
ENDBRANCH   1   2
BRANCH   1  11
ATOM     11  C   UNL     1       7.065 -23.003  12.358  1.00  0.00     0.000 C 
BRANCH  11  12
ATOM     12  C   UNL     1       6.861 -23.125  10.837  1.00  0.00    -0.000 C 
BRANCH  12  13
ATOM     13  C   UNL     1       8.157 -22.903  10.039  1.00  0.00    -0.000 C 
BRANCH  13  14
ATOM     14  C   UNL     1       7.939 -22.031   8.792  1.00  0.00    -0.000 C 
BRANCH  14  15
ATOM     15  C   UNL     1       8.696 -20.692   8.863  1.00  0.00    -0.000 C 
BRANCH  15  16
ATOM     16  C   UNL     1       8.298 -19.854  10.088  1.00  0.00    -0.000 C 
BRANCH  16  17
ATOM     17  C   UNL     1       6.792 -19.553  10.131  1.00  0.00    -0.003 C 
ATOM     18  C   UNL     1       6.370 -18.695   8.941  1.00  0.00     0.004 C 
ENDBRANCH  16  17
ENDBRANCH  15  16
ENDBRANCH  14  15
ENDBRANCH  13  14
ENDBRANCH  12  13
ENDBRANCH  11  12
ENDBRANCH   1  11
TORSDOF 14
ENDMDL
MODEL 4
REMARK VINA RESULT:    -2.157      1.746      5.018
REMARK INTER + INTRA:          -5.239
REMARK INTER:                  -3.953
REMARK INTRA:                  -1.286
REMARK UNBOUND:                -1.317
REMARK SMILES CCCCCCCCCCCCCCCC(=O)[O-]
REMARK SMILES IDX 9 1 10 2 11 3 12 4 13 5 14 6 15 7 16 8 17 9 18 10 8 11 7 12
REMARK SMILES IDX 6 13 5 14 4 15 3 16 2 17 1 18
REMARK H PARENT
REMARK Flexibility Score: inf
ROOT
ATOM      1  C   UNL     1      -7.323 -20.974  15.456  1.00  0.00     0.000 C 
ENDROOT
BRANCH   1   2
ATOM      2  C   UNL     1      -8.443 -20.789  14.418  1.00  0.00     0.000 C 
BRANCH   2   3
ATOM      3  C   UNL     1      -9.521 -19.796  14.884  1.00  0.00     0.000 C 
BRANCH   3   4
ATOM      4  C   UNL     1     -10.602 -20.459  15.753  1.00  0.00     0.000 C 
BRANCH   4   5
ATOM      5  C   UNL     1     -11.124 -19.486  16.818  1.00  0.00     0.000 C 
BRANCH   5   6
ATOM      6  C   UNL     1     -11.005 -20.037  18.251  1.00  0.00     0.006 C 
BRANCH   6   7
ATOM      7  C   UNL     1     -10.710 -18.962  19.311  1.00  0.00     0.053 C 
BRANCH   7   8
ATOM      8  C   UNL     1     -10.203 -19.543  20.595  1.00  0.00     0.041 C 
ATOM      9  O   UNL     1      -8.978 -19.801  20.734  1.00  0.00    -0.550 OA
ATOM     10  O   UNL     1     -11.086 -19.834  21.628  1.00  0.00    -0.550 OA
ENDBRANCH   7   8
ENDBRANCH   6   7
ENDBRANCH   5   6
ENDBRANCH   4   5
ENDBRANCH   3   4
ENDBRANCH   2   3
ENDBRANCH   1   2
BRANCH   1  11
ATOM     11  C   UNL     1      -7.544 -22.195  16.368  1.00  0.00     0.000 C 
BRANCH  11  12
ATOM     12  C   UNL     1      -7.840 -21.870  17.843  1.00  0.00    -0.000 C 
BRANCH  12  13
ATOM     13  C   UNL     1      -8.119 -23.125  18.689  1.00  0.00    -0.000 C 
BRANCH  13  14
ATOM     14  C   UNL     1      -7.485 -23.046  20.087  1.00  0.00    -0.000 C 
BRANCH  14  15
ATOM     15  C   UNL     1      -8.532 -23.066  21.216  1.00  0.00    -0.000 C 
BRANCH  15  16
ATOM     16  C   UNL     1      -7.978 -22.525  22.543  1.00  0.00    -0.000 C 
BRANCH  16  17
ATOM     17  C   UNL     1      -9.085 -22.030  23.486  1.00  0.00    -0.003 C 
ATOM     18  C   UNL     1     -10.396 -22.768  23.227  1.00  0.00     0.004 C 
ENDBRANCH  16  17
ENDBRANCH  15  16
ENDBRANCH  14  15
ENDBRANCH  13  14
ENDBRANCH  12  13
ENDBRANCH  11  12
ENDBRANCH   1  11
TORSDOF 14
ENDMDL
MODEL 5
REMARK VINA RESULT:    -2.134     14.057     17.290
REMARK INTER + INTRA:          -5.197
REMARK INTER:                  -4.442
REMARK INTRA:                  -0.755
REMARK UNBOUND:                -1.317
REMARK SMILES CCCCCCCCCCCCCCCC(=O)[O-]
REMARK SMILES IDX 9 1 10 2 11 3 12 4 13 5 14 6 15 7 16 8 17 9 18 10 8 11 7 12
REMARK SMILES IDX 6 13 5 14 4 15 3 16 2 17 1 18
REMARK H PARENT
REMARK Flexibility Score: inf
ROOT
ATOM      1  C   UNL     1       8.473 -20.541  15.090  1.00  0.00     0.000 C 
ENDROOT
BRANCH   1   2
ATOM      2  C   UNL     1       9.124 -21.154  13.837  1.00  0.00     0.000 C 
BRANCH   2   3
ATOM      3  C   UNL     1       8.786 -22.644  13.665  1.00  0.00     0.000 C 
BRANCH   3   4
ATOM      4  C   UNL     1       8.488 -23.018  12.204  1.00  0.00     0.000 C 
BRANCH   4   5
ATOM      5  C   UNL     1       7.255 -22.266  11.684  1.00  0.00     0.000 C 
BRANCH   5   6
ATOM      6  C   UNL     1       7.001 -22.488  10.182  1.00  0.00     0.006 C 
BRANCH   6   7
ATOM      7  C   UNL     1       7.399 -21.293   9.298  1.00  0.00     0.053 C 
BRANCH   7   8
ATOM      8  C   UNL     1       7.661 -20.050  10.092  1.00  0.00     0.041 C 
ATOM      9  O   UNL     1       8.780 -19.873  10.640  1.00  0.00    -0.550 OA
ATOM     10  O   UNL     1       6.658 -19.103  10.258  1.00  0.00    -0.550 OA
ENDBRANCH   7   8
ENDBRANCH   6   7
ENDBRANCH   5   6
ENDBRANCH   4   5
ENDBRANCH   3   4
ENDBRANCH   2   3
ENDBRANCH   1   2
BRANCH   1  11
ATOM     11  C   UNL     1       8.111 -21.594  16.153  1.00  0.00     0.000 C 
BRANCH  11  12
ATOM     12  C   UNL     1       6.924 -21.230  17.064  1.00  0.00    -0.000 C 
BRANCH  12  13
ATOM     13  C   UNL     1       5.913 -22.379  17.219  1.00  0.00    -0.000 C 
BRANCH  13  14
ATOM     14  C   UNL     1       5.108 -22.633  15.934  1.00  0.00    -0.000 C 
BRANCH  14  15
ATOM     15  C   UNL     1       3.656 -23.062  16.218  1.00  0.00    -0.000 C 
BRANCH  15  16
ATOM     16  C   UNL     1       2.695 -22.676  15.083  1.00  0.00    -0.000 C 
BRANCH  16  17
ATOM     17  C   UNL     1       1.232 -22.606  15.548  1.00  0.00    -0.003 C 
ATOM     18  C   UNL     1       1.055 -21.562  16.647  1.00  0.00     0.004 C 
ENDBRANCH  16  17
ENDBRANCH  15  16
ENDBRANCH  14  15
ENDBRANCH  13  14
ENDBRANCH  12  13
ENDBRANCH  11  12
ENDBRANCH   1  11
TORSDOF 14
ENDMDL
MODEL 6
REMARK VINA RESULT:    -1.635     12.736     15.632
REMARK INTER + INTRA:          -4.291
REMARK INTER:                  -3.405
REMARK INTRA:                  -0.886
REMARK UNBOUND:                -1.317
REMARK SMILES CCCCCCCCCCCCCCCC(=O)[O-]
REMARK SMILES IDX 9 1 10 2 11 3 12 4 13 5 14 6 15 7 16 8 17 9 18 10 8 11 7 12
REMARK SMILES IDX 6 13 5 14 4 15 3 16 2 17 1 18
REMARK H PARENT
REMARK Flexibility Score: inf
ROOT
ATOM      1  C   UNL     1       6.613 -21.249  17.161  1.00  0.00     0.000 C 
ENDROOT
BRANCH   1   2
ATOM      2  C   UNL     1       5.331 -22.094  17.065  1.00  0.00     0.000 C 
BRANCH   2   3
ATOM      3  C   UNL     1       5.306 -22.989  15.815  1.00  0.00     0.000 C 
BRANCH   3   4
ATOM      4  C   UNL     1       4.816 -22.244  14.563  1.00  0.00     0.000 C 
BRANCH   4   5
ATOM      5  C   UNL     1       3.843 -23.112  13.753  1.00  0.00     0.000 C 
BRANCH   5   6
ATOM      6  C   UNL     1       2.387 -23.005  14.241  1.00  0.00     0.006 C 
BRANCH   6   7
ATOM      7  C   UNL     1       2.238 -23.036  15.772  1.00  0.00     0.053 C 
BRANCH   7   8
ATOM      8  C   UNL     1       1.145 -22.137  16.263  1.00  0.00     0.041 C 
ATOM      9  O   UNL     1      -0.053 -22.369  15.951  1.00  0.00    -0.550 OA
ATOM     10  O   UNL     1       1.449 -21.023  17.035  1.00  0.00    -0.550 OA
ENDBRANCH   7   8
ENDBRANCH   6   7
ENDBRANCH   5   6
ENDBRANCH   4   5
ENDBRANCH   3   4
ENDBRANCH   2   3
ENDBRANCH   1   2
BRANCH   1  11
ATOM     11  C   UNL     1       7.894 -22.103  17.180  1.00  0.00     0.000 C 
BRANCH  11  12
ATOM     12  C   UNL     1       8.687 -22.130  15.860  1.00  0.00    -0.000 C 
BRANCH  12  13
ATOM     13  C   UNL     1       8.466 -20.873  15.001  1.00  0.00    -0.000 C 
BRANCH  13  14
ATOM     14  C   UNL     1       8.943 -21.058  13.552  1.00  0.00    -0.000 C 
BRANCH  14  15
ATOM     15  C   UNL     1       8.061 -22.038  12.757  1.00  0.00    -0.000 C 
BRANCH  15  16
ATOM     16  C   UNL     1       7.431 -21.389  11.515  1.00  0.00    -0.000 C 
BRANCH  16  17
ATOM     17  C   UNL     1       8.227 -20.173  11.017  1.00  0.00    -0.003 C 
ATOM     18  C   UNL     1       8.744 -20.399   9.599  1.00  0.00     0.004 C 
ENDBRANCH  16  17
ENDBRANCH  15  16
ENDBRANCH  14  15
ENDBRANCH  13  14
ENDBRANCH  12  13
ENDBRANCH  11  12
ENDBRANCH   1  11
TORSDOF 14
ENDMDL
MODEL 7
REMARK VINA RESULT:    -1.545      4.985      8.063
REMARK INTER + INTRA:          -4.126
REMARK INTER:                  -3.511
REMARK INTRA:                  -0.615
REMARK UNBOUND:                -1.317
REMARK SMILES CCCCCCCCCCCCCCCC(=O)[O-]
REMARK SMILES IDX 9 1 10 2 11 3 12 4 13 5 14 6 15 7 16 8 17 9 18 10 8 11 7 12
REMARK SMILES IDX 6 13 5 14 4 15 3 16 2 17 1 18
REMARK H PARENT
REMARK Flexibility Score: inf
ROOT
ATOM      1  C   UNL     1      -6.215 -22.026  16.287  1.00  0.00     0.000 C 
ENDROOT
BRANCH   1   2
ATOM      2  C   UNL     1      -5.617 -22.748  17.508  1.00  0.00     0.000 C 
BRANCH   2   3
ATOM      3  C   UNL     1      -4.140 -23.125  17.306  1.00  0.00     0.000 C 
BRANCH   3   4
ATOM      4  C   UNL     1      -3.466 -22.305  16.195  1.00  0.00     0.000 C 
BRANCH   4   5
ATOM      5  C   UNL     1      -2.142 -22.950  15.762  1.00  0.00     0.000 C 
BRANCH   5   6
ATOM      6  C   UNL     1      -0.905 -22.231  16.331  1.00  0.00     0.006 C 
BRANCH   6   7
ATOM      7  C   UNL     1       0.431 -22.741  15.762  1.00  0.00     0.053 C 
BRANCH   7   8
ATOM      8  C   UNL     1       1.609 -21.982  16.290  1.00  0.00     0.041 C 
ATOM      9  O   UNL     1       1.439 -21.024  17.089  1.00  0.00    -0.550 OA
ATOM     10  O   UNL     1       2.894 -22.308  15.874  1.00  0.00    -0.550 OA
ENDBRANCH   7   8
ENDBRANCH   6   7
ENDBRANCH   5   6
ENDBRANCH   4   5
ENDBRANCH   3   4
ENDBRANCH   2   3
ENDBRANCH   1   2
BRANCH   1  11
ATOM     11  C   UNL     1      -7.748 -21.903  16.354  1.00  0.00     0.000 C 
BRANCH  11  12
ATOM     12  C   UNL     1      -8.350 -21.930  17.770  1.00  0.00    -0.000 C 
BRANCH  12  13
ATOM     13  C   UNL     1      -9.888 -21.918  17.769  1.00  0.00    -0.000 C 
BRANCH  13  14
ATOM     14  C   UNL     1     -10.473 -21.183  18.985  1.00  0.00    -0.000 C 
BRANCH  14  15
ATOM     15  C   UNL     1      -9.561 -21.265  20.223  1.00  0.00    -0.000 C 
BRANCH  15  16
ATOM     16  C   UNL     1     -10.181 -20.591  21.458  1.00  0.00    -0.000 C 
BRANCH  16  17
ATOM     17  C   UNL     1      -9.211 -20.534  22.648  1.00  0.00    -0.003 C 
ATOM     18  C   UNL     1      -8.280 -21.744  22.655  1.00  0.00     0.004 C 
ENDBRANCH  16  17
ENDBRANCH  15  16
ENDBRANCH  14  15
ENDBRANCH  13  14
ENDBRANCH  12  13
ENDBRANCH  11  12
ENDBRANCH   1  11
TORSDOF 14
ENDMDL
MODEL 8
REMARK VINA RESULT:    -1.531     13.316     16.019
REMARK INTER + INTRA:          -4.102
REMARK INTER:                  -5.223
REMARK INTRA:                   1.121
REMARK UNBOUND:                -1.317
REMARK SMILES CCCCCCCCCCCCCCCC(=O)[O-]
REMARK SMILES IDX 9 1 10 2 11 3 12 4 13 5 14 6 15 7 16 8 17 9 18 10 8 11 7 12
REMARK SMILES IDX 6 13 5 14 4 15 3 16 2 17 1 18
REMARK H PARENT
REMARK Flexibility Score: inf
ROOT
ATOM      1  C   UNL     1       7.103 -22.314  13.869  1.00  0.00     0.000 C 
ENDROOT
BRANCH   1   2
ATOM      2  C   UNL     1       6.710 -22.859  15.253  1.00  0.00     0.000 C 
BRANCH   2   3
ATOM      3  C   UNL     1       6.744 -21.776  16.345  1.00  0.00     0.000 C 
BRANCH   3   4
ATOM      4  C   UNL     1       5.791 -22.081  17.512  1.00  0.00     0.000 C 
BRANCH   4   5
ATOM      5  C   UNL     1       4.332 -22.120  17.034  1.00  0.00     0.000 C 
BRANCH   5   6
ATOM      6  C   UNL     1       4.099 -23.119  15.886  1.00  0.00     0.006 C 
BRANCH   6   7
ATOM      7  C   UNL     1       2.756 -22.929  15.158  1.00  0.00     0.053 C 
BRANCH   7   8
ATOM      8  C   UNL     1       1.767 -22.147  15.966  1.00  0.00     0.041 C 
ATOM      9  O   UNL     1       2.152 -21.180  16.675  1.00  0.00    -0.550 OA
ATOM     10  O   UNL     1       0.424 -22.506  15.966  1.00  0.00    -0.550 OA
ENDBRANCH   7   8
ENDBRANCH   6   7
ENDBRANCH   5   6
ENDBRANCH   4   5
ENDBRANCH   3   4
ENDBRANCH   2   3
ENDBRANCH   1   2
BRANCH   1  11
ATOM     11  C   UNL     1       8.627 -22.268  13.653  1.00  0.00     0.000 C 
BRANCH  11  12
ATOM     12  C   UNL     1       9.090 -21.526  12.386  1.00  0.00    -0.000 C 
BRANCH  12  13
ATOM     13  C   UNL     1       8.856 -20.007  12.461  1.00  0.00    -0.000 C 
BRANCH  13  14
ATOM     14  C   UNL     1       7.946 -19.495  11.334  1.00  0.00    -0.000 C 
BRANCH  14  15
ATOM     15  C   UNL     1       8.286 -20.118   9.967  1.00  0.00    -0.000 C 
BRANCH  15  16
ATOM     16  C   UNL     1       7.088 -20.847   9.338  1.00  0.00    -0.000 C 
BRANCH  16  17
ATOM     17  C   UNL     1       7.425 -22.289   8.927  1.00  0.00    -0.003 C 
ATOM     18  C   UNL     1       6.158 -23.124   8.763  1.00  0.00     0.004 C 
ENDBRANCH  16  17
ENDBRANCH  15  16
ENDBRANCH  14  15
ENDBRANCH  13  14
ENDBRANCH  12  13
ENDBRANCH  11  12
ENDBRANCH   1  11
TORSDOF 14
ENDMDL
MODEL 9
REMARK VINA RESULT:    -1.407      4.454      7.314
REMARK INTER + INTRA:          -3.876
REMARK INTER:                  -3.714
REMARK INTRA:                  -0.162
REMARK UNBOUND:                -1.317
REMARK SMILES CCCCCCCCCCCCCCCC(=O)[O-]
REMARK SMILES IDX 9 1 10 2 11 3 12 4 13 5 14 6 15 7 16 8 17 9 18 10 8 11 7 12
REMARK SMILES IDX 6 13 5 14 4 15 3 16 2 17 1 18
REMARK H PARENT
REMARK Flexibility Score: inf
ROOT
ATOM      1  C   UNL     1      -6.148 -21.906  17.011  1.00  0.00     0.000 C 
ENDROOT
BRANCH   1   2
ATOM      2  C   UNL     1      -6.739 -21.389  15.688  1.00  0.00     0.000 C 
BRANCH   2   3
ATOM      3  C   UNL     1      -8.255 -21.623  15.586  1.00  0.00     0.000 C 
BRANCH   3   4
ATOM      4  C   UNL     1      -8.945 -20.634  14.634  1.00  0.00     0.000 C 
BRANCH   4   5
ATOM      5  C   UNL     1     -10.437 -20.497  14.969  1.00  0.00     0.000 C 
BRANCH   5   6
ATOM      6  C   UNL     1     -10.694 -20.130  16.441  1.00  0.00     0.006 C 
BRANCH   6   7
ATOM      7  C   UNL     1     -10.838 -21.347  17.372  1.00  0.00     0.053 C 
BRANCH   7   8
ATOM      8  C   UNL     1     -10.604 -21.003  18.811  1.00  0.00     0.041 C 
ATOM      9  O   UNL     1     -10.325 -19.821  19.142  1.00  0.00    -0.550 OA
ATOM     10  O   UNL     1     -10.658 -21.993  19.785  1.00  0.00    -0.550 OA
ENDBRANCH   7   8
ENDBRANCH   6   7
ENDBRANCH   5   6
ENDBRANCH   4   5
ENDBRANCH   3   4
ENDBRANCH   2   3
ENDBRANCH   1   2
BRANCH   1  11
ATOM     11  C   UNL     1      -4.921 -22.813  16.807  1.00  0.00     0.000 C 
BRANCH  11  12
ATOM     12  C   UNL     1      -3.735 -22.161  16.074  1.00  0.00    -0.000 C 
BRANCH  12  13
ATOM     13  C   UNL     1      -2.499 -23.075  16.002  1.00  0.00    -0.000 C 
BRANCH  13  14
ATOM     14  C   UNL     1      -1.207 -22.353  16.415  1.00  0.00    -0.000 C 
BRANCH  14  15
ATOM     15  C   UNL     1       0.061 -23.125  16.006  1.00  0.00    -0.000 C 
BRANCH  15  16
ATOM     16  C   UNL     1       1.210 -22.193  15.590  1.00  0.00    -0.000 C 
BRANCH  16  17
ATOM     17  C   UNL     1       2.587 -22.734  16.005  1.00  0.00    -0.003 C 
ATOM     18  C   UNL     1       3.417 -23.117  14.782  1.00  0.00     0.004 C 
ENDBRANCH  16  17
ENDBRANCH  15  16
ENDBRANCH  14  15
ENDBRANCH  13  14
ENDBRANCH  12  13
ENDBRANCH  11  12
ENDBRANCH   1  11
TORSDOF 14
ENDMDL
