MODEL 1
REMARK VINA RESULT:    -4.660      0.000      0.000
REMARK INTER + INTRA:         -15.813
REMARK INTER:                 -12.287
REMARK INTRA:                  -3.526
REMARK UNBOUND:                -3.526
REMARK SMILES CCCCCCCCCCCCCCCCCCCCCCCCCCCCCC(=O)[O-]
REMARK SMILES IDX 16 1 17 2 18 3 19 4 20 5 21 6 22 7 23 8 24 9 25 10 26 11
REMARK SMILES IDX 27 12 28 13 29 14 30 15 31 16 32 17 15 18 14 19 13 20 12 21
REMARK SMILES IDX 11 22 10 23 9 24 8 25 7 26 6 27 5 28 4 29 3 30 2 31 1 32
REMARK H PARENT
REMARK Flexibility Score: inf
ROOT
ATOM      1  C   UNL     1       0.832  27.104  56.824  1.00  0.00     0.000 C 
ENDROOT
BRANCH   1   2
ATOM      2  C   UNL     1       1.720  27.721  57.920  1.00  0.00     0.000 C 
BRANCH   2   3
ATOM      3  C   UNL     1       2.966  28.428  57.354  1.00  0.00     0.000 C 
BRANCH   3   4
ATOM      4  C   UNL     1       2.852  29.965  57.405  1.00  0.00     0.000 C 
BRANCH   4   5
ATOM      5  C   UNL     1       1.564  30.472  58.077  1.00  0.00     0.000 C 
BRANCH   5   6
ATOM      6  C   UNL     1       1.827  31.241  59.383  1.00  0.00     0.000 C 
BRANCH   6   7
ATOM      7  C   UNL     1       1.087  30.632  60.583  1.00  0.00     0.000 C 
BRANCH   7   8
ATOM      8  C   UNL     1       1.858  29.462  61.219  1.00  0.00     0.000 C 
BRANCH   8   9
ATOM      9  C   UNL     1       1.867  29.529  62.754  1.00  0.00     0.000 C 
BRANCH   9  10
ATOM     10  C   UNL     1       0.478  29.282  63.361  1.00  0.00     0.000 C 
BRANCH  10  11
ATOM     11  C   UNL     1       0.148  30.343  64.422  1.00  0.00     0.000 C 
BRANCH  11  12
ATOM     12  C   UNL     1       1.396  31.083  64.930  1.00  0.00     0.000 C 
BRANCH  12  13
ATOM     13  C   UNL     1       1.166  32.593  65.098  1.00  0.00     0.006 C 
BRANCH  13  14
ATOM     14  C   UNL     1       1.501  33.345  63.806  1.00  0.00     0.053 C 
BRANCH  14  15
ATOM     15  C   UNL     1       2.970  33.297  63.526  1.00  0.00     0.041 C 
ATOM     16  O   UNL     1       3.783  33.867  64.301  1.00  0.00    -0.550 OA
ATOM     17  O   UNL     1       3.445  32.619  62.407  1.00  0.00    -0.550 OA
ENDBRANCH  14  15
ENDBRANCH  13  14
ENDBRANCH  12  13
ENDBRANCH  11  12
ENDBRANCH  10  11
ENDBRANCH   9  10
ENDBRANCH   8   9
ENDBRANCH   7   8
ENDBRANCH   6   7
ENDBRANCH   5   6
ENDBRANCH   4   5
ENDBRANCH   3   4
ENDBRANCH   2   3
ENDBRANCH   1   2
BRANCH   1  18
ATOM     18  C   UNL     1       1.590  26.362  55.707  1.00  0.00     0.000 C 
BRANCH  18  19
ATOM     19  C   UNL     1       0.652  25.677  54.698  1.00  0.00     0.000 C 
BRANCH  19  20
ATOM     20  C   UNL     1      -0.826  26.045  54.916  1.00  0.00     0.000 C 
BRANCH  20  21
ATOM     21  C   UNL     1      -1.622  26.120  53.599  1.00  0.00     0.000 C 
BRANCH  21  22
ATOM     22  C   UNL     1      -3.103  26.464  53.819  1.00  0.00     0.000 C 
BRANCH  22  23
ATOM     23  C   UNL     1      -3.470  26.577  55.312  1.00  0.00     0.000 C 
BRANCH  23  24
ATOM     24  C   UNL     1      -4.194  27.898  55.652  1.00  0.00    -0.000 C 
BRANCH  24  25
ATOM     25  C   UNL     1      -3.311  28.938  56.367  1.00  0.00    -0.000 C 
BRANCH  25  26
ATOM     26  C   UNL     1      -4.070  30.016  57.159  1.00  0.00    -0.000 C 
BRANCH  26  27
ATOM     27  C   UNL     1      -3.407  30.453  58.481  1.00  0.00    -0.000 C 
BRANCH  27  28
ATOM     28  C   UNL     1      -4.155  31.587  59.215  1.00  0.00    -0.000 C 
BRANCH  28  29
ATOM     29  C   UNL     1      -3.674  31.772  60.665  1.00  0.00    -0.000 C 
BRANCH  29  30
ATOM     30  C   UNL     1      -2.508  32.768  60.784  1.00  0.00    -0.000 C 
BRANCH  30  31
ATOM     31  C   UNL     1      -1.740  32.656  62.119  1.00  0.00    -0.003 C 
ATOM     32  C   UNL     1      -2.667  32.359  63.297  1.00  0.00     0.004 C 
ENDBRANCH  30  31
ENDBRANCH  29  30
ENDBRANCH  28  29
ENDBRANCH  27  28
ENDBRANCH  26  27
ENDBRANCH  25  26
ENDBRANCH  24  25
ENDBRANCH  23  24
ENDBRANCH  22  23
ENDBRANCH  21  22
ENDBRANCH  20  21
ENDBRANCH  19  20
ENDBRANCH  18  19
ENDBRANCH   1  18
TORSDOF 28
ENDMDL
MODEL 2
REMARK VINA RESULT:    -4.600      1.919      5.110
REMARK INTER + INTRA:         -15.655
REMARK INTER:                 -12.493
REMARK INTRA:                  -3.162
REMARK UNBOUND:                -3.526
REMARK SMILES CCCCCCCCCCCCCCCCCCCCCCCCCCCCCC(=O)[O-]
REMARK SMILES IDX 16 1 17 2 18 3 19 4 20 5 21 6 22 7 23 8 24 9 25 10 26 11
REMARK SMILES IDX 27 12 28 13 29 14 30 15 31 16 32 17 15 18 14 19 13 20 12 21
REMARK SMILES IDX 11 22 10 23 9 24 8 25 7 26 6 27 5 28 4 29 3 30 2 31 1 32
REMARK H PARENT
REMARK Flexibility Score: inf
ROOT
ATOM      1  C   UNL     1      -4.268  29.447  57.378  1.00  0.00     0.000 C 
ENDROOT
BRANCH   1   2
ATOM      2  C   UNL     1      -3.258  30.342  58.120  1.00  0.00     0.000 C 
BRANCH   2   3
ATOM      3  C   UNL     1      -3.895  31.627  58.681  1.00  0.00     0.000 C 
BRANCH   3   4
ATOM      4  C   UNL     1      -3.966  31.631  60.222  1.00  0.00     0.000 C 
BRANCH   4   5
ATOM      5  C   UNL     1      -2.890  32.500  60.893  1.00  0.00     0.000 C 
BRANCH   5   6
ATOM      6  C   UNL     1      -3.183  32.786  62.377  1.00  0.00     0.000 C 
BRANCH   6   7
ATOM      7  C   UNL     1      -2.197  32.078  63.318  1.00  0.00     0.000 C 
BRANCH   7   8
ATOM      8  C   UNL     1      -0.888  32.865  63.500  1.00  0.00     0.000 C 
BRANCH   8   9
ATOM      9  C   UNL     1       0.149  32.096  64.334  1.00  0.00     0.000 C 
BRANCH   9  10
ATOM     10  C   UNL     1      -0.089  30.579  64.315  1.00  0.00     0.000 C 
BRANCH  10  11
ATOM     11  C   UNL     1       1.194  29.829  63.930  1.00  0.00     0.000 C 
BRANCH  11  12
ATOM     12  C   UNL     1       2.414  30.277  64.752  1.00  0.00     0.000 C 
BRANCH  12  13
ATOM     13  C   UNL     1       2.558  29.508  66.074  1.00  0.00     0.006 C 
BRANCH  13  14
ATOM     14  C   UNL     1       3.940  28.854  66.179  1.00  0.00     0.053 C 
BRANCH  14  15
ATOM     15  C   UNL     1       4.889  29.731  66.933  1.00  0.00     0.041 C 
ATOM     16  O   UNL     1       4.517  30.310  67.987  1.00  0.00    -0.550 OA
ATOM     17  O   UNL     1       6.190  29.908  66.471  1.00  0.00    -0.550 OA
ENDBRANCH  14  15
ENDBRANCH  13  14
ENDBRANCH  12  13
ENDBRANCH  11  12
ENDBRANCH  10  11
ENDBRANCH   9  10
ENDBRANCH   8   9
ENDBRANCH   7   8
ENDBRANCH   6   7
ENDBRANCH   5   6
ENDBRANCH   4   5
ENDBRANCH   3   4
ENDBRANCH   2   3
ENDBRANCH   1   2
BRANCH   1  18
ATOM     18  C   UNL     1      -3.817  28.966  55.986  1.00  0.00     0.000 C 
BRANCH  18  19
ATOM     19  C   UNL     1      -4.595  27.733  55.495  1.00  0.00     0.000 C 
BRANCH  19  20
ATOM     20  C   UNL     1      -3.735  26.794  54.632  1.00  0.00     0.000 C 
BRANCH  20  21
ATOM     21  C   UNL     1      -2.696  26.010  55.456  1.00  0.00     0.000 C 
BRANCH  21  22
ATOM     22  C   UNL     1      -1.269  26.550  55.281  1.00  0.00     0.000 C 
BRANCH  22  23
ATOM     23  C   UNL     1      -0.724  27.213  56.562  1.00  0.00     0.000 C 
BRANCH  23  24
ATOM     24  C   UNL     1       0.809  27.087  56.695  1.00  0.00    -0.000 C 
BRANCH  24  25
ATOM     25  C   UNL     1       1.437  28.058  57.715  1.00  0.00    -0.000 C 
BRANCH  25  26
ATOM     26  C   UNL     1       0.927  29.507  57.647  1.00  0.00    -0.000 C 
BRANCH  26  27
ATOM     27  C   UNL     1       1.995  30.567  57.309  1.00  0.00    -0.000 C 
BRANCH  27  28
ATOM     28  C   UNL     1       3.395  30.254  57.882  1.00  0.00    -0.000 C 
BRANCH  28  29
ATOM     29  C   UNL     1       3.743  31.124  59.102  1.00  0.00    -0.000 C 
BRANCH  29  30
ATOM     30  C   UNL     1       3.025  30.667  60.385  1.00  0.00    -0.000 C 
BRANCH  30  31
ATOM     31  C   UNL     1       2.059  31.727  60.956  1.00  0.00    -0.003 C 
ATOM     32  C   UNL     1       0.605  31.446  60.580  1.00  0.00     0.004 C 
ENDBRANCH  30  31
ENDBRANCH  29  30
ENDBRANCH  28  29
ENDBRANCH  27  28
ENDBRANCH  26  27
ENDBRANCH  25  26
ENDBRANCH  24  25
ENDBRANCH  23  24
ENDBRANCH  22  23
ENDBRANCH  21  22
ENDBRANCH  20  21
ENDBRANCH  19  20
ENDBRANCH  18  19
ENDBRANCH   1  18
TORSDOF 28
ENDMDL
MODEL 3
REMARK VINA RESULT:    -4.556      2.157      5.348
REMARK INTER + INTRA:         -15.540
REMARK INTER:                 -12.305
REMARK INTRA:                  -3.235
REMARK UNBOUND:                -3.526
REMARK SMILES CCCCCCCCCCCCCCCCCCCCCCCCCCCCCC(=O)[O-]
REMARK SMILES IDX 16 1 17 2 18 3 19 4 20 5 21 6 22 7 23 8 24 9 25 10 26 11
REMARK SMILES IDX 27 12 28 13 29 14 30 15 31 16 32 17 15 18 14 19 13 20 12 21
REMARK SMILES IDX 11 22 10 23 9 24 8 25 7 26 6 27 5 28 4 29 3 30 2 31 1 32
REMARK H PARENT
REMARK Flexibility Score: inf
ROOT
ATOM      1  C   UNL     1      -4.192  30.317  58.252  1.00  0.00     0.000 C 
ENDROOT
BRANCH   1   2
ATOM      2  C   UNL     1      -3.950  31.712  58.858  1.00  0.00     0.000 C 
BRANCH   2   3
ATOM      3  C   UNL     1      -3.877  31.694  60.396  1.00  0.00     0.000 C 
BRANCH   3   4
ATOM      4  C   UNL     1      -2.833  32.683  60.953  1.00  0.00     0.000 C 
BRANCH   4   5
ATOM      5  C   UNL     1      -3.073  33.084  62.418  1.00  0.00     0.000 C 
BRANCH   5   6
ATOM      6  C   UNL     1      -2.430  32.113  63.423  1.00  0.00     0.000 C 
BRANCH   6   7
ATOM      7  C   UNL     1      -0.912  31.986  63.228  1.00  0.00     0.000 C 
BRANCH   7   8
ATOM      8  C   UNL     1      -0.125  32.271  64.518  1.00  0.00     0.000 C 
BRANCH   8   9
ATOM      9  C   UNL     1       0.604  31.026  65.049  1.00  0.00     0.000 C 
BRANCH   9  10
ATOM     10  C   UNL     1       0.583  29.861  64.049  1.00  0.00     0.000 C 
BRANCH  10  11
ATOM     11  C   UNL     1       1.972  29.644  63.431  1.00  0.00     0.000 C 
BRANCH  11  12
ATOM     12  C   UNL     1       3.109  30.148  64.335  1.00  0.00     0.000 C 
BRANCH  12  13
ATOM     13  C   UNL     1       4.447  30.280  63.591  1.00  0.00     0.006 C 
BRANCH  13  14
ATOM     14  C   UNL     1       5.269  28.992  63.711  1.00  0.00     0.053 C 
BRANCH  14  15
ATOM     15  C   UNL     1       5.529  28.655  65.146  1.00  0.00     0.041 C 
ATOM     16  O   UNL     1       5.106  27.573  65.631  1.00  0.00    -0.550 OA
ATOM     17  O   UNL     1       6.241  29.539  65.950  1.00  0.00    -0.550 OA
ENDBRANCH  14  15
ENDBRANCH  13  14
ENDBRANCH  12  13
ENDBRANCH  11  12
ENDBRANCH  10  11
ENDBRANCH   9  10
ENDBRANCH   8   9
ENDBRANCH   7   8
ENDBRANCH   6   7
ENDBRANCH   5   6
ENDBRANCH   4   5
ENDBRANCH   3   4
ENDBRANCH   2   3
ENDBRANCH   1   2
BRANCH   1  18
ATOM     18  C   UNL     1      -2.999  29.723  57.481  1.00  0.00     0.000 C 
BRANCH  18  19
ATOM     19  C   UNL     1      -3.396  29.149  56.110  1.00  0.00     0.000 C 
BRANCH  19  20
ATOM     20  C   UNL     1      -4.116  27.794  56.219  1.00  0.00     0.000 C 
BRANCH  20  21
ATOM     21  C   UNL     1      -4.254  27.081  54.860  1.00  0.00     0.000 C 
BRANCH  21  22
ATOM     22  C   UNL     1      -2.901  26.644  54.278  1.00  0.00     0.000 C 
BRANCH  22  23
ATOM     23  C   UNL     1      -2.005  25.947  55.320  1.00  0.00     0.000 C 
BRANCH  23  24
ATOM     24  C   UNL     1      -0.661  26.676  55.536  1.00  0.00    -0.000 C 
BRANCH  24  25
ATOM     25  C   UNL     1      -0.384  27.070  57.000  1.00  0.00    -0.000 C 
BRANCH  25  26
ATOM     26  C   UNL     1       0.885  27.909  57.229  1.00  0.00    -0.000 C 
BRANCH  26  27
ATOM     27  C   UNL     1       0.645  29.412  57.474  1.00  0.00    -0.000 C 
BRANCH  27  28
ATOM     28  C   UNL     1       1.782  30.111  58.253  1.00  0.00    -0.000 C 
BRANCH  28  29
ATOM     29  C   UNL     1       1.948  29.559  59.680  1.00  0.00    -0.000 C 
BRANCH  29  30
ATOM     30  C   UNL     1       3.321  28.904  59.909  1.00  0.00    -0.000 C 
BRANCH  30  31
ATOM     31  C   UNL     1       3.251  27.615  60.755  1.00  0.00    -0.003 C 
ATOM     32  C   UNL     1       2.523  26.484  60.029  1.00  0.00     0.004 C 
ENDBRANCH  30  31
ENDBRANCH  29  30
ENDBRANCH  28  29
ENDBRANCH  27  28
ENDBRANCH  26  27
ENDBRANCH  25  26
ENDBRANCH  24  25
ENDBRANCH  23  24
ENDBRANCH  22  23
ENDBRANCH  21  22
ENDBRANCH  20  21
ENDBRANCH  19  20
ENDBRANCH  18  19
ENDBRANCH   1  18
TORSDOF 28
ENDMDL
MODEL 4
REMARK VINA RESULT:    -4.494      1.888      5.531
REMARK INTER + INTRA:         -15.377
REMARK INTER:                 -12.358
REMARK INTRA:                  -3.019
REMARK UNBOUND:                -3.526
REMARK SMILES CCCCCCCCCCCCCCCCCCCCCCCCCCCCCC(=O)[O-]
REMARK SMILES IDX 16 1 17 2 18 3 19 4 20 5 21 6 22 7 23 8 24 9 25 10 26 11
REMARK SMILES IDX 27 12 28 13 29 14 30 15 31 16 32 17 15 18 14 19 13 20 12 21
REMARK SMILES IDX 11 22 10 23 9 24 8 25 7 26 6 27 5 28 4 29 3 30 2 31 1 32
REMARK H PARENT
REMARK Flexibility Score: inf
ROOT
ATOM      1  C   UNL     1      -4.155  30.248  58.404  1.00  0.00     0.000 C 
ENDROOT
BRANCH   1   2
ATOM      2  C   UNL     1      -4.193  31.718  58.860  1.00  0.00     0.000 C 
BRANCH   2   3
ATOM      3  C   UNL     1      -3.136  32.041  59.931  1.00  0.00     0.000 C 
BRANCH   3   4
ATOM      4  C   UNL     1      -3.736  32.131  61.349  1.00  0.00     0.000 C 
BRANCH   4   5
ATOM      5  C   UNL     1      -2.887  32.952  62.335  1.00  0.00     0.000 C 
BRANCH   5   6
ATOM      6  C   UNL     1      -1.797  33.788  61.642  1.00  0.00     0.000 C 
BRANCH   6   7
ATOM      7  C   UNL     1      -0.679  34.211  62.607  1.00  0.00     0.000 C 
BRANCH   7   8
ATOM      8  C   UNL     1       0.653  33.501  62.315  1.00  0.00     0.000 C 
BRANCH   8   9
ATOM      9  C   UNL     1       0.481  32.285  61.391  1.00  0.00     0.000 C 
BRANCH   9  10
ATOM     10  C   UNL     1       1.821  31.765  60.849  1.00  0.00     0.000 C 
BRANCH  10  11
ATOM     11  C   UNL     1       1.891  30.233  60.943  1.00  0.00     0.000 C 
BRANCH  11  12
ATOM     12  C   UNL     1       1.153  29.679  62.173  1.00  0.00     0.000 C 
BRANCH  12  13
ATOM     13  C   UNL     1       1.974  29.800  63.465  1.00  0.00     0.006 C 
BRANCH  13  14
ATOM     14  C   UNL     1       1.065  29.748  64.698  1.00  0.00     0.053 C 
BRANCH  14  15
ATOM     15  C   UNL     1       1.847  29.996  65.949  1.00  0.00     0.041 C 
ATOM     16  O   UNL     1       1.476  30.881  66.765  1.00  0.00    -0.550 OA
ATOM     17  O   UNL     1       2.989  29.248  66.217  1.00  0.00    -0.550 OA
ENDBRANCH  14  15
ENDBRANCH  13  14
ENDBRANCH  12  13
ENDBRANCH  11  12
ENDBRANCH  10  11
ENDBRANCH   9  10
ENDBRANCH   8   9
ENDBRANCH   7   8
ENDBRANCH   6   7
ENDBRANCH   5   6
ENDBRANCH   4   5
ENDBRANCH   3   4
ENDBRANCH   2   3
ENDBRANCH   1   2
BRANCH   1  18
ATOM     18  C   UNL     1      -2.937  29.861  57.544  1.00  0.00     0.000 C 
BRANCH  18  19
ATOM     19  C   UNL     1      -3.329  29.219  56.202  1.00  0.00     0.000 C 
BRANCH  19  20
ATOM     20  C   UNL     1      -4.091  27.894  56.377  1.00  0.00     0.000 C 
BRANCH  20  21
ATOM     21  C   UNL     1      -4.622  27.330  55.045  1.00  0.00     0.000 C 
BRANCH  21  22
ATOM     22  C   UNL     1      -3.514  26.707  54.181  1.00  0.00     0.000 C 
BRANCH  22  23
ATOM     23  C   UNL     1      -2.482  25.923  55.015  1.00  0.00     0.000 C 
BRANCH  23  24
ATOM     24  C   UNL     1      -1.059  25.988  54.420  1.00  0.00    -0.000 C 
BRANCH  24  25
ATOM     25  C   UNL     1       0.050  26.245  55.459  1.00  0.00    -0.000 C 
BRANCH  25  26
ATOM     26  C   UNL     1      -0.356  27.122  56.655  1.00  0.00    -0.000 C 
BRANCH  26  27
ATOM     27  C   UNL     1       0.806  27.838  57.373  1.00  0.00    -0.000 C 
BRANCH  27  28
ATOM     28  C   UNL     1       1.995  26.915  57.720  1.00  0.00    -0.000 C 
BRANCH  28  29
ATOM     29  C   UNL     1       2.170  26.720  59.236  1.00  0.00    -0.000 C 
BRANCH  29  30
ATOM     30  C   UNL     1       3.495  27.297  59.762  1.00  0.00    -0.000 C 
BRANCH  30  31
ATOM     31  C   UNL     1       4.095  26.487  60.931  1.00  0.00    -0.003 C 
ATOM     32  C   UNL     1       4.485  27.375  62.112  1.00  0.00     0.004 C 
ENDBRANCH  30  31
ENDBRANCH  29  30
ENDBRANCH  28  29
ENDBRANCH  27  28
ENDBRANCH  26  27
ENDBRANCH  25  26
ENDBRANCH  24  25
ENDBRANCH  23  24
ENDBRANCH  22  23
ENDBRANCH  21  22
ENDBRANCH  20  21
ENDBRANCH  19  20
ENDBRANCH  18  19
ENDBRANCH   1  18
TORSDOF 28
ENDMDL
MODEL 5
REMARK VINA RESULT:    -4.480      2.580      5.443
REMARK INTER + INTRA:         -15.340
REMARK INTER:                 -12.234
REMARK INTRA:                  -3.106
REMARK UNBOUND:                -3.526
REMARK SMILES CCCCCCCCCCCCCCCCCCCCCCCCCCCCCC(=O)[O-]
REMARK SMILES IDX 16 1 17 2 18 3 19 4 20 5 21 6 22 7 23 8 24 9 25 10 26 11
REMARK SMILES IDX 27 12 28 13 29 14 30 15 31 16 32 17 15 18 14 19 13 20 12 21
REMARK SMILES IDX 11 22 10 23 9 24 8 25 7 26 6 27 5 28 4 29 3 30 2 31 1 32
REMARK H PARENT
REMARK Flexibility Score: inf
ROOT
ATOM      1  C   UNL     1      -3.894  31.102  58.270  1.00  0.00     0.000 C 
ENDROOT
BRANCH   1   2
ATOM      2  C   UNL     1      -4.608  30.813  59.603  1.00  0.00     0.000 C 
BRANCH   2   3
ATOM      3  C   UNL     1      -4.037  31.628  60.778  1.00  0.00     0.000 C 
BRANCH   3   4
ATOM      4  C   UNL     1      -2.846  32.515  60.362  1.00  0.00     0.000 C 
BRANCH   4   5
ATOM      5  C   UNL     1      -2.227  33.312  61.523  1.00  0.00     0.000 C 
BRANCH   5   6
ATOM      6  C   UNL     1      -2.200  32.528  62.847  1.00  0.00     0.000 C 
BRANCH   6   7
ATOM      7  C   UNL     1      -1.091  33.011  63.793  1.00  0.00     0.000 C 
BRANCH   7   8
ATOM      8  C   UNL     1      -0.057  31.914  64.099  1.00  0.00     0.000 C 
BRANCH   8   9
ATOM      9  C   UNL     1       0.263  31.809  65.598  1.00  0.00     0.000 C 
BRANCH   9  10
ATOM     10  C   UNL     1       0.323  33.182  66.284  1.00  0.00     0.000 C 
BRANCH  10  11
ATOM     11  C   UNL     1      -0.563  33.206  67.539  1.00  0.00     0.000 C 
BRANCH  11  12
ATOM     12  C   UNL     1      -1.951  33.811  67.274  1.00  0.00     0.000 C 
BRANCH  12  13
ATOM     13  C   UNL     1      -1.882  35.199  66.620  1.00  0.00     0.006 C 
BRANCH  13  14
ATOM     14  C   UNL     1      -3.266  35.645  66.135  1.00  0.00     0.053 C 
BRANCH  14  15
ATOM     15  C   UNL     1      -3.284  35.803  64.647  1.00  0.00     0.041 C 
ATOM     16  O   UNL     1      -4.277  35.410  63.979  1.00  0.00    -0.550 OA
ATOM     17  O   UNL     1      -2.203  36.388  63.996  1.00  0.00    -0.550 OA
ENDBRANCH  14  15
ENDBRANCH  13  14
ENDBRANCH  12  13
ENDBRANCH  11  12
ENDBRANCH  10  11
ENDBRANCH   9  10
ENDBRANCH   8   9
ENDBRANCH   7   8
ENDBRANCH   6   7
ENDBRANCH   5   6
ENDBRANCH   4   5
ENDBRANCH   3   4
ENDBRANCH   2   3
ENDBRANCH   1   2
BRANCH   1  18
ATOM     18  C   UNL     1      -3.214  29.885  57.615  1.00  0.00     0.000 C 
BRANCH  18  19
ATOM     19  C   UNL     1      -4.194  29.006  56.819  1.00  0.00     0.000 C 
BRANCH  19  20
ATOM     20  C   UNL     1      -3.573  28.441  55.529  1.00  0.00     0.000 C 
BRANCH  20  21
ATOM     21  C   UNL     1      -4.090  27.031  55.185  1.00  0.00     0.000 C 
BRANCH  21  22
ATOM     22  C   UNL     1      -2.985  25.965  55.233  1.00  0.00     0.000 C 
BRANCH  22  23
ATOM     23  C   UNL     1      -1.647  26.471  54.660  1.00  0.00     0.000 C 
BRANCH  23  24
ATOM     24  C   UNL     1      -0.477  26.327  55.656  1.00  0.00    -0.000 C 
BRANCH  24  25
ATOM     25  C   UNL     1      -0.427  27.424  56.737  1.00  0.00    -0.000 C 
BRANCH  25  26
ATOM     26  C   UNL     1       0.886  27.504  57.536  1.00  0.00    -0.000 C 
BRANCH  26  27
ATOM     27  C   UNL     1       1.572  28.885  57.538  1.00  0.00    -0.000 C 
BRANCH  27  28
ATOM     28  C   UNL     1       0.844  29.948  58.391  1.00  0.00    -0.000 C 
BRANCH  28  29
ATOM     29  C   UNL     1       1.736  30.528  59.502  1.00  0.00    -0.000 C 
BRANCH  29  30
ATOM     30  C   UNL     1       1.038  30.554  60.873  1.00  0.00    -0.000 C 
BRANCH  30  31
ATOM     31  C   UNL     1       1.718  29.650  61.924  1.00  0.00    -0.003 C 
ATOM     32  C   UNL     1       2.275  28.366  61.310  1.00  0.00     0.004 C 
ENDBRANCH  30  31
ENDBRANCH  29  30
ENDBRANCH  28  29
ENDBRANCH  27  28
ENDBRANCH  26  27
ENDBRANCH  25  26
ENDBRANCH  24  25
ENDBRANCH  23  24
ENDBRANCH  22  23
ENDBRANCH  21  22
ENDBRANCH  20  21
ENDBRANCH  19  20
ENDBRANCH  18  19
ENDBRANCH   1  18
TORSDOF 28
ENDMDL
MODEL 6
REMARK VINA RESULT:    -4.376      3.222      5.327
REMARK INTER + INTRA:         -15.065
REMARK INTER:                 -11.808
REMARK INTRA:                  -3.256
REMARK UNBOUND:                -3.526
REMARK SMILES CCCCCCCCCCCCCCCCCCCCCCCCCCCCCC(=O)[O-]
REMARK SMILES IDX 16 1 17 2 18 3 19 4 20 5 21 6 22 7 23 8 24 9 25 10 26 11
REMARK SMILES IDX 27 12 28 13 29 14 30 15 31 16 32 17 15 18 14 19 13 20 12 21
REMARK SMILES IDX 11 22 10 23 9 24 8 25 7 26 6 27 5 28 4 29 3 30 2 31 1 32
REMARK H PARENT
REMARK Flexibility Score: inf
ROOT
ATOM      1  C   UNL     1       0.117  27.968  57.027  1.00  0.00     0.000 C 
ENDROOT
BRANCH   1   2
ATOM      2  C   UNL     1       1.398  27.634  57.812  1.00  0.00     0.000 C 
BRANCH   2   3
ATOM      3  C   UNL     1       2.059  28.876  58.439  1.00  0.00     0.000 C 
BRANCH   3   4
ATOM      4  C   UNL     1       1.171  30.133  58.342  1.00  0.00     0.000 C 
BRANCH   4   5
ATOM      5  C   UNL     1       0.589  30.591  59.690  1.00  0.00     0.000 C 
BRANCH   5   6
ATOM      6  C   UNL     1       1.418  31.702  60.359  1.00  0.00     0.000 C 
BRANCH   6   7
ATOM      7  C   UNL     1       2.729  31.987  59.612  1.00  0.00     0.000 C 
BRANCH   7   8
ATOM      8  C   UNL     1       2.746  33.381  58.962  1.00  0.00     0.000 C 
BRANCH   8   9
ATOM      9  C   UNL     1       3.741  33.473  57.795  1.00  0.00     0.000 C 
BRANCH   9  10
ATOM     10  C   UNL     1       3.626  32.284  56.829  1.00  0.00     0.000 C 
BRANCH  10  11
ATOM     11  C   UNL     1       4.969  31.549  56.704  1.00  0.00     0.000 C 
BRANCH  11  12
ATOM     12  C   UNL     1       4.831  30.027  56.870  1.00  0.00     0.000 C 
BRANCH  12  13
ATOM     13  C   UNL     1       5.458  29.241  55.708  1.00  0.00     0.006 C 
BRANCH  13  14
ATOM     14  C   UNL     1       4.375  28.577  54.850  1.00  0.00     0.053 C 
BRANCH  14  15
ATOM     15  C   UNL     1       4.126  27.172  55.299  1.00  0.00     0.041 C 
ATOM     16  O   UNL     1       4.968  26.577  56.023  1.00  0.00    -0.550 OA
ATOM     17  O   UNL     1       2.959  26.516  54.920  1.00  0.00    -0.550 OA
ENDBRANCH  14  15
ENDBRANCH  13  14
ENDBRANCH  12  13
ENDBRANCH  11  12
ENDBRANCH  10  11
ENDBRANCH   9  10
ENDBRANCH   8   9
ENDBRANCH   7   8
ENDBRANCH   6   7
ENDBRANCH   5   6
ENDBRANCH   4   5
ENDBRANCH   3   4
ENDBRANCH   2   3
ENDBRANCH   1   2
BRANCH   1  18
ATOM     18  C   UNL     1      -0.741  26.753  56.627  1.00  0.00     0.000 C 
BRANCH  18  19
ATOM     19  C   UNL     1      -0.592  26.375  55.143  1.00  0.00     0.000 C 
BRANCH  19  20
ATOM     20  C   UNL     1      -1.946  26.156  54.447  1.00  0.00     0.000 C 
BRANCH  20  21
ATOM     21  C   UNL     1      -3.141  26.295  55.410  1.00  0.00     0.000 C 
BRANCH  21  22
ATOM     22  C   UNL     1      -4.309  27.083  54.798  1.00  0.00     0.000 C 
BRANCH  22  23
ATOM     23  C   UNL     1      -4.905  28.116  55.774  1.00  0.00     0.000 C 
BRANCH  23  24
ATOM     24  C   UNL     1      -3.824  28.937  56.510  1.00  0.00    -0.000 C 
BRANCH  24  25
ATOM     25  C   UNL     1      -4.349  29.736  57.718  1.00  0.00    -0.000 C 
BRANCH  25  26
ATOM     26  C   UNL     1      -3.321  30.657  58.397  1.00  0.00    -0.000 C 
BRANCH  26  27
ATOM     27  C   UNL     1      -3.911  31.887  59.116  1.00  0.00    -0.000 C 
BRANCH  27  28
ATOM     28  C   UNL     1      -3.572  31.957  60.622  1.00  0.00    -0.000 C 
BRANCH  28  29
ATOM     29  C   UNL     1      -2.337  32.828  60.910  1.00  0.00    -0.000 C 
BRANCH  29  30
ATOM     30  C   UNL     1      -1.765  32.603  62.321  1.00  0.00    -0.000 C 
BRANCH  30  31
ATOM     31  C   UNL     1      -2.794  32.849  63.445  1.00  0.00    -0.003 C 
ATOM     32  C   UNL     1      -3.231  34.311  63.521  1.00  0.00     0.004 C 
ENDBRANCH  30  31
ENDBRANCH  29  30
ENDBRANCH  28  29
ENDBRANCH  27  28
ENDBRANCH  26  27
ENDBRANCH  25  26
ENDBRANCH  24  25
ENDBRANCH  23  24
ENDBRANCH  22  23
ENDBRANCH  21  22
ENDBRANCH  20  21
ENDBRANCH  19  20
ENDBRANCH  18  19
ENDBRANCH   1  18
TORSDOF 28
ENDMDL
MODEL 7
REMARK VINA RESULT:    -4.376      3.917     10.928
REMARK INTER + INTRA:         -15.064
REMARK INTER:                 -11.571
REMARK INTRA:                  -3.493
REMARK UNBOUND:                -3.526
REMARK SMILES CCCCCCCCCCCCCCCCCCCCCCCCCCCCCC(=O)[O-]
REMARK SMILES IDX 16 1 17 2 18 3 19 4 20 5 21 6 22 7 23 8 24 9 25 10 26 11
REMARK SMILES IDX 27 12 28 13 29 14 30 15 31 16 32 17 15 18 14 19 13 20 12 21
REMARK SMILES IDX 11 22 10 23 9 24 8 25 7 26 6 27 5 28 4 29 3 30 2 31 1 32
REMARK H PARENT
REMARK Flexibility Score: inf
ROOT
ATOM      1  C   UNL     1       0.989  32.596  65.287  1.00  0.00     0.000 C 
ENDROOT
BRANCH   1   2
ATOM      2  C   UNL     1      -0.185  33.444  64.763  1.00  0.00     0.000 C 
BRANCH   2   3
ATOM      3  C   UNL     1      -1.242  32.609  64.016  1.00  0.00     0.000 C 
BRANCH   3   4
ATOM      4  C   UNL     1      -2.645  33.246  64.067  1.00  0.00     0.000 C 
BRANCH   4   5
ATOM      5  C   UNL     1      -3.126  33.803  62.716  1.00  0.00     0.000 C 
BRANCH   5   6
ATOM      6  C   UNL     1      -2.135  33.541  61.568  1.00  0.00     0.000 C 
BRANCH   6   7
ATOM      7  C   UNL     1      -2.706  32.593  60.503  1.00  0.00     0.000 C 
BRANCH   7   8
ATOM      8  C   UNL     1      -3.950  31.834  60.995  1.00  0.00     0.000 C 
BRANCH   8   9
ATOM      9  C   UNL     1      -4.568  30.947  59.903  1.00  0.00     0.000 C 
BRANCH   9  10
ATOM     10  C   UNL     1      -4.093  31.333  58.494  1.00  0.00     0.000 C 
BRANCH  10  11
ATOM     11  C   UNL     1      -3.327  30.174  57.838  1.00  0.00     0.000 C 
BRANCH  11  12
ATOM     12  C   UNL     1      -4.211  29.326  56.911  1.00  0.00     0.000 C 
BRANCH  12  13
ATOM     13  C   UNL     1      -3.405  28.577  55.839  1.00  0.00     0.006 C 
BRANCH  13  14
ATOM     14  C   UNL     1      -4.084  27.254  55.469  1.00  0.00     0.053 C 
BRANCH  14  15
ATOM     15  C   UNL     1      -3.225  26.455  54.540  1.00  0.00     0.041 C 
ATOM     16  O   UNL     1      -2.255  25.787  54.988  1.00  0.00    -0.550 OA
ATOM     17  O   UNL     1      -3.494  26.446  53.175  1.00  0.00    -0.550 OA
ENDBRANCH  14  15
ENDBRANCH  13  14
ENDBRANCH  12  13
ENDBRANCH  11  12
ENDBRANCH  10  11
ENDBRANCH   9  10
ENDBRANCH   8   9
ENDBRANCH   7   8
ENDBRANCH   6   7
ENDBRANCH   5   6
ENDBRANCH   4   5
ENDBRANCH   3   4
ENDBRANCH   2   3
ENDBRANCH   1   2
BRANCH   1  18
ATOM     18  C   UNL     1       0.675  31.740  66.528  1.00  0.00     0.000 C 
BRANCH  18  19
ATOM     19  C   UNL     1       0.795  32.526  67.845  1.00  0.00     0.000 C 
BRANCH  19  20
ATOM     20  C   UNL     1       1.779  33.705  67.746  1.00  0.00     0.000 C 
BRANCH  20  21
ATOM     21  C   UNL     1       2.597  33.910  69.035  1.00  0.00     0.000 C 
BRANCH  21  22
ATOM     22  C   UNL     1       3.986  33.256  68.968  1.00  0.00     0.000 C 
BRANCH  22  23
ATOM     23  C   UNL     1       4.627  33.368  67.571  1.00  0.00     0.000 C 
BRANCH  23  24
ATOM     24  C   UNL     1       5.196  32.026  67.064  1.00  0.00    -0.000 C 
BRANCH  24  25
ATOM     25  C   UNL     1       4.341  31.345  65.978  1.00  0.00    -0.000 C 
BRANCH  25  26
ATOM     26  C   UNL     1       4.561  31.860  64.545  1.00  0.00    -0.000 C 
BRANCH  26  27
ATOM     27  C   UNL     1       4.089  30.912  63.425  1.00  0.00    -0.000 C 
BRANCH  27  28
ATOM     28  C   UNL     1       3.317  29.674  63.931  1.00  0.00    -0.000 C 
BRANCH  28  29
ATOM     29  C   UNL     1       1.824  29.717  63.566  1.00  0.00    -0.000 C 
BRANCH  29  30
ATOM     30  C   UNL     1       1.582  29.728  62.046  1.00  0.00    -0.000 C 
BRANCH  30  31
ATOM     31  C   UNL     1       0.696  30.901  61.575  1.00  0.00    -0.003 C 
ATOM     32  C   UNL     1       1.416  31.805  60.576  1.00  0.00     0.004 C 
ENDBRANCH  30  31
ENDBRANCH  29  30
ENDBRANCH  28  29
ENDBRANCH  27  28
ENDBRANCH  26  27
ENDBRANCH  25  26
ENDBRANCH  24  25
ENDBRANCH  23  24
ENDBRANCH  22  23
ENDBRANCH  21  22
ENDBRANCH  20  21
ENDBRANCH  19  20
ENDBRANCH  18  19
ENDBRANCH   1  18
TORSDOF 28
ENDMDL
MODEL 8
REMARK VINA RESULT:    -4.372      1.719      5.102
REMARK INTER + INTRA:         -15.056
REMARK INTER:                 -12.137
REMARK INTRA:                  -2.919
REMARK UNBOUND:                -3.526
REMARK SMILES CCCCCCCCCCCCCCCCCCCCCCCCCCCCCC(=O)[O-]
REMARK SMILES IDX 16 1 17 2 18 3 19 4 20 5 21 6 22 7 23 8 24 9 25 10 26 11
REMARK SMILES IDX 27 12 28 13 29 14 30 15 31 16 32 17 15 18 14 19 13 20 12 21
REMARK SMILES IDX 11 22 10 23 9 24 8 25 7 26 6 27 5 28 4 29 3 30 2 31 1 32
REMARK H PARENT
REMARK Flexibility Score: inf
ROOT
ATOM      1  C   UNL     1      -4.154  31.253  59.659  1.00  0.00     0.000 C 
ENDROOT
BRANCH   1   2
ATOM      2  C   UNL     1      -3.266  32.330  60.307  1.00  0.00     0.000 C 
BRANCH   2   3
ATOM      3  C   UNL     1      -3.440  32.412  61.835  1.00  0.00     0.000 C 
BRANCH   3   4
ATOM      4  C   UNL     1      -2.284  33.164  62.525  1.00  0.00     0.000 C 
BRANCH   4   5
ATOM      5  C   UNL     1      -2.267  33.012  64.056  1.00  0.00     0.000 C 
BRANCH   5   6
ATOM      6  C   UNL     1      -0.861  32.746  64.621  1.00  0.00     0.000 C 
BRANCH   6   7
ATOM      7  C   UNL     1      -0.290  31.396  64.162  1.00  0.00     0.000 C 
BRANCH   7   8
ATOM      8  C   UNL     1       1.127  31.140  64.702  1.00  0.00     0.000 C 
BRANCH   8   9
ATOM      9  C   UNL     1       1.299  29.714  65.249  1.00  0.00     0.000 C 
BRANCH   9  10
ATOM     10  C   UNL     1       2.720  29.452  65.770  1.00  0.00     0.000 C 
BRANCH  10  11
ATOM     11  C   UNL     1       3.753  30.260  64.971  1.00  0.00     0.000 C 
BRANCH  11  12
ATOM     12  C   UNL     1       4.838  30.885  65.863  1.00  0.00     0.000 C 
BRANCH  12  13
ATOM     13  C   UNL     1       4.746  32.417  65.928  1.00  0.00     0.006 C 
BRANCH  13  14
ATOM     14  C   UNL     1       3.690  32.859  66.946  1.00  0.00     0.053 C 
BRANCH  14  15
ATOM     15  C   UNL     1       3.029  34.129  66.512  1.00  0.00     0.041 C 
ATOM     16  O   UNL     1       2.581  34.244  65.341  1.00  0.00    -0.550 OA
ATOM     17  O   UNL     1       2.905  35.190  67.404  1.00  0.00    -0.550 OA
ENDBRANCH  14  15
ENDBRANCH  13  14
ENDBRANCH  12  13
ENDBRANCH  11  12
ENDBRANCH  10  11
ENDBRANCH   9  10
ENDBRANCH   8   9
ENDBRANCH   7   8
ENDBRANCH   6   7
ENDBRANCH   5   6
ENDBRANCH   4   5
ENDBRANCH   3   4
ENDBRANCH   2   3
ENDBRANCH   1   2
BRANCH   1  18
ATOM     18  C   UNL     1      -3.565  30.591  58.398  1.00  0.00     0.000 C 
BRANCH  18  19
ATOM     19  C   UNL     1      -4.591  29.737  57.634  1.00  0.00     0.000 C 
BRANCH  19  20
ATOM     20  C   UNL     1      -3.957  28.938  56.481  1.00  0.00     0.000 C 
BRANCH  20  21
ATOM     21  C   UNL     1      -4.957  27.990  55.792  1.00  0.00     0.000 C 
BRANCH  21  22
ATOM     22  C   UNL     1      -4.270  26.970  54.871  1.00  0.00     0.000 C 
BRANCH  22  23
ATOM     23  C   UNL     1      -2.769  27.262  54.676  1.00  0.00     0.000 C 
BRANCH  23  24
ATOM     24  C   UNL     1      -1.877  26.042  54.988  1.00  0.00    -0.000 C 
BRANCH  24  25
ATOM     25  C   UNL     1      -0.503  26.400  55.589  1.00  0.00    -0.000 C 
BRANCH  25  26
ATOM     26  C   UNL     1      -0.543  27.078  56.969  1.00  0.00    -0.000 C 
BRANCH  26  27
ATOM     27  C   UNL     1      -0.035  28.533  57.003  1.00  0.00    -0.000 C 
BRANCH  27  28
ATOM     28  C   UNL     1       1.318  28.711  57.728  1.00  0.00    -0.000 C 
BRANCH  28  29
ATOM     29  C   UNL     1       1.412  30.045  58.487  1.00  0.00    -0.000 C 
BRANCH  29  30
ATOM     30  C   UNL     1       2.256  29.943  59.770  1.00  0.00    -0.000 C 
BRANCH  30  31
ATOM     31  C   UNL     1       1.631  30.678  60.974  1.00  0.00    -0.003 C 
ATOM     32  C   UNL     1       0.381  31.467  60.587  1.00  0.00     0.004 C 
ENDBRANCH  30  31
ENDBRANCH  29  30
ENDBRANCH  28  29
ENDBRANCH  27  28
ENDBRANCH  26  27
ENDBRANCH  25  26
ENDBRANCH  24  25
ENDBRANCH  23  24
ENDBRANCH  22  23
ENDBRANCH  21  22
ENDBRANCH  20  21
ENDBRANCH  19  20
ENDBRANCH  18  19
ENDBRANCH   1  18
TORSDOF 28
ENDMDL
MODEL 9
REMARK VINA RESULT:    -4.277      2.633      8.174
REMARK INTER + INTRA:         -14.803
REMARK INTER:                 -11.032
REMARK INTRA:                  -3.771
REMARK UNBOUND:                -3.526
REMARK SMILES CCCCCCCCCCCCCCCCCCCCCCCCCCCCCC(=O)[O-]
REMARK SMILES IDX 16 1 17 2 18 3 19 4 20 5 21 6 22 7 23 8 24 9 25 10 26 11
REMARK SMILES IDX 27 12 28 13 29 14 30 15 31 16 32 17 15 18 14 19 13 20 12 21
REMARK SMILES IDX 11 22 10 23 9 24 8 25 7 26 6 27 5 28 4 29 3 30 2 31 1 32
REMARK H PARENT
REMARK Flexibility Score: inf
ROOT
ATOM      1  C   UNL     1       3.457  31.444  58.601  1.00  0.00     0.000 C 
ENDROOT
BRANCH   1   2
ATOM      2  C   UNL     1       2.515  30.780  57.580  1.00  0.00     0.000 C 
BRANCH   2   3
ATOM      3  C   UNL     1       2.739  29.262  57.455  1.00  0.00     0.000 C 
BRANCH   3   4
ATOM      4  C   UNL     1       1.545  28.441  57.984  1.00  0.00     0.000 C 
BRANCH   4   5
ATOM      5  C   UNL     1       0.328  28.435  57.044  1.00  0.00     0.000 C 
BRANCH   5   6
ATOM      6  C   UNL     1      -0.271  27.032  56.840  1.00  0.00     0.000 C 
BRANCH   6   7
ATOM      7  C   UNL     1       0.121  26.417  55.488  1.00  0.00     0.000 C 
BRANCH   7   8
ATOM      8  C   UNL     1      -1.098  25.942  54.680  1.00  0.00     0.000 C 
BRANCH   8   9
ATOM      9  C   UNL     1      -2.413  26.087  55.461  1.00  0.00     0.000 C 
BRANCH   9  10
ATOM     10  C   UNL     1      -3.599  26.449  54.553  1.00  0.00     0.000 C 
BRANCH  10  11
ATOM     11  C   UNL     1      -4.364  27.659  55.110  1.00  0.00     0.000 C 
BRANCH  11  12
ATOM     12  C   UNL     1      -3.522  28.500  56.083  1.00  0.00     0.000 C 
BRANCH  12  13
ATOM     13  C   UNL     1      -4.377  29.384  57.003  1.00  0.00     0.006 C 
BRANCH  13  14
ATOM     14  C   UNL     1      -3.494  30.218  57.936  1.00  0.00     0.053 C 
BRANCH  14  15
ATOM     15  C   UNL     1      -4.275  30.706  59.116  1.00  0.00     0.041 C 
ATOM     16  O   UNL     1      -3.930  31.758  59.716  1.00  0.00    -0.550 OA
ATOM     17  O   UNL     1      -5.390  29.998  59.554  1.00  0.00    -0.550 OA
ENDBRANCH  14  15
ENDBRANCH  13  14
ENDBRANCH  12  13
ENDBRANCH  11  12
ENDBRANCH  10  11
ENDBRANCH   9  10
ENDBRANCH   8   9
ENDBRANCH   7   8
ENDBRANCH   6   7
ENDBRANCH   5   6
ENDBRANCH   4   5
ENDBRANCH   3   4
ENDBRANCH   2   3
ENDBRANCH   1   2
BRANCH   1  18
ATOM     18  C   UNL     1       4.326  30.470  59.419  1.00  0.00     0.000 C 
BRANCH  18  19
ATOM     19  C   UNL     1       4.254  30.727  60.934  1.00  0.00     0.000 C 
BRANCH  19  20
ATOM     20  C   UNL     1       3.426  29.664  61.677  1.00  0.00     0.000 C 
BRANCH  20  21
ATOM     21  C   UNL     1       2.777  30.207  62.965  1.00  0.00     0.000 C 
BRANCH  21  22
ATOM     22  C   UNL     1       3.564  31.375  63.580  1.00  0.00     0.000 C 
BRANCH  22  23
ATOM     23  C   UNL     1       3.061  31.752  64.988  1.00  0.00     0.000 C 
BRANCH  23  24
ATOM     24  C   UNL     1       1.717  31.081  65.343  1.00  0.00    -0.000 C 
BRANCH  24  25
ATOM     25  C   UNL     1       0.730  31.999  66.089  1.00  0.00    -0.000 C 
BRANCH  25  26
ATOM     26  C   UNL     1      -0.516  32.418  65.290  1.00  0.00    -0.000 C 
BRANCH  26  27
ATOM     27  C   UNL     1      -0.551  31.938  63.825  1.00  0.00    -0.000 C 
BRANCH  27  28
ATOM     28  C   UNL     1      -1.051  33.004  62.825  1.00  0.00    -0.000 C 
BRANCH  28  29
ATOM     29  C   UNL     1      -0.902  32.557  61.360  1.00  0.00    -0.000 C 
BRANCH  29  30
ATOM     30  C   UNL     1       0.567  32.389  60.934  1.00  0.00    -0.000 C 
BRANCH  30  31
ATOM     31  C   UNL     1       1.269  33.727  60.619  1.00  0.00    -0.003 C 
ATOM     32  C   UNL     1       1.975  34.313  61.840  1.00  0.00     0.004 C 
ENDBRANCH  30  31
ENDBRANCH  29  30
ENDBRANCH  28  29
ENDBRANCH  27  28
ENDBRANCH  26  27
ENDBRANCH  25  26
ENDBRANCH  24  25
ENDBRANCH  23  24
ENDBRANCH  22  23
ENDBRANCH  21  22
ENDBRANCH  20  21
ENDBRANCH  19  20
ENDBRANCH  18  19
ENDBRANCH   1  18
TORSDOF 28
ENDMDL
