MODEL 1
REMARK VINA RESULT:    -4.449      0.000      0.000
REMARK INTER + INTRA:          -9.239
REMARK INTER:                  -6.790
REMARK INTRA:                  -2.449
REMARK UNBOUND:                -2.449
REMARK SMILES CC(=O)CCC=C(C)CCC=C(C)CCC=C(C)C
REMARK SMILES IDX 10 1 11 2 12 3 13 4 14 5 15 6 16 7 18 8 17 9 19 10 9 11 7 12
REMARK SMILES IDX 6 13 8 14 5 15 4 16 2 17 3 18 1 19
REMARK H PARENT
REMARK Flexibility Score: inf
ROOT
ATOM      1  C   UNL     1     -12.688  12.111 -20.724  1.00  0.00     0.032 C 
ENDROOT
BRANCH   1   2
ATOM      2  C   UNL     1     -12.783  10.610 -20.880  1.00  0.00    -0.028 C 
ATOM      3  C   UNL     1     -12.555   9.958 -22.041  1.00  0.00    -0.077 C 
ATOM      4  C   UNL     1     -12.646   8.454 -22.048  1.00  0.00     0.039 C 
BRANCH   3   5
ATOM      5  C   UNL     1     -12.231  10.678 -23.340  1.00  0.00     0.034 C 
BRANCH   5   6
ATOM      6  C   UNL     1     -10.762  10.496 -23.747  1.00  0.00     0.032 C 
BRANCH   6   7
ATOM      7  C   UNL     1     -10.179  11.757 -24.340  1.00  0.00    -0.028 C 
ATOM      8  C   UNL     1      -7.993  11.514 -23.143  1.00  0.00     0.039 C 
ATOM      9  C   UNL     1      -8.929  12.210 -24.103  1.00  0.00    -0.080 C 
ATOM     10  C   UNL     1      -8.474  13.461 -24.810  1.00  0.00     0.039 C 
ENDBRANCH   6   7
ENDBRANCH   5   6
ENDBRANCH   3   5
ENDBRANCH   1   2
BRANCH   1  11
ATOM     11  C   UNL     1     -11.262  12.566 -20.377  1.00  0.00     0.034 C 
BRANCH  11  12
ATOM     12  C   UNL     1     -10.799  13.714 -21.252  1.00  0.00    -0.077 C 
ATOM     13  C   UNL     1     -11.659  14.243 -22.152  1.00  0.00    -0.028 C 
ATOM     14  C   UNL     1      -9.401  14.260 -21.071  1.00  0.00     0.039 C 
BRANCH  13  15
ATOM     15  C   UNL     1     -11.308  15.339 -23.126  1.00  0.00     0.035 C 
BRANCH  15  16
ATOM     16  C   UNL     1     -12.013  16.648 -22.740  1.00  0.00     0.079 C 
BRANCH  16  17
ATOM     17  C   UNL     1     -13.347  16.865 -23.419  1.00  0.00     0.130 C 
ATOM     18  O   UNL     1     -14.316  17.127 -22.722  1.00  0.00    -0.300 OA
ATOM     19  C   UNL     1     -13.535  16.765 -24.908  1.00  0.00     0.087 C 
ENDBRANCH  16  17
ENDBRANCH  15  16
ENDBRANCH  13  15
ENDBRANCH  11  12
ENDBRANCH   1  11
TORSDOF 9
ENDMDL
MODEL 2
REMARK VINA RESULT:    -4.264     11.640     13.179
REMARK INTER + INTRA:          -8.957
REMARK INTER:                  -6.455
REMARK INTRA:                  -2.502
REMARK UNBOUND:                -2.449
REMARK SMILES CC(=O)CCC=C(C)CCC=C(C)CCC=C(C)C
REMARK SMILES IDX 10 1 11 2 12 3 13 4 14 5 15 6 16 7 18 8 17 9 19 10 9 11 7 12
REMARK SMILES IDX 6 13 8 14 5 15 4 16 2 17 3 18 1 19
REMARK H PARENT
REMARK Flexibility Score: inf
ROOT
ATOM      1  C   UNL     1      -5.818   9.534 -11.945  1.00  0.00     0.032 C 
ENDROOT
BRANCH   1   2
ATOM      2  C   UNL     1      -5.949   8.214 -11.218  1.00  0.00    -0.028 C 
ATOM      3  C   UNL     1      -6.690   7.178 -11.668  1.00  0.00    -0.077 C 
ATOM      4  C   UNL     1      -6.702   5.903 -10.863  1.00  0.00     0.039 C 
BRANCH   3   5
ATOM      5  C   UNL     1      -7.523   7.250 -12.937  1.00  0.00     0.034 C 
BRANCH   5   6
ATOM      6  C   UNL     1      -8.993   6.884 -12.682  1.00  0.00     0.032 C 
BRANCH   6   7
ATOM      7  C   UNL     1      -9.888   8.101 -12.691  1.00  0.00    -0.028 C 
ATOM      8  C   UNL     1      -9.827   8.375 -10.202  1.00  0.00     0.039 C 
ATOM      9  C   UNL     1     -10.245   8.798 -11.591  1.00  0.00    -0.080 C 
ATOM     10  C   UNL     1     -11.103  10.024 -11.766  1.00  0.00     0.039 C 
ENDBRANCH   6   7
ENDBRANCH   5   6
ENDBRANCH   3   5
ENDBRANCH   1   2
BRANCH   1  11
ATOM     11  C   UNL     1      -5.811  10.728 -10.978  1.00  0.00     0.034 C 
BRANCH  11  12
ATOM     12  C   UNL     1      -7.193  11.320 -10.790  1.00  0.00    -0.077 C 
ATOM     13  C   UNL     1      -7.716  11.386  -9.544  1.00  0.00    -0.028 C 
ATOM     14  C   UNL     1      -7.936  11.853 -11.994  1.00  0.00     0.039 C 
BRANCH  13  15
ATOM     15  C   UNL     1      -9.101  11.889  -9.226  1.00  0.00     0.035 C 
BRANCH  15  16
ATOM     16  C   UNL     1      -9.039  13.009  -8.176  1.00  0.00     0.079 C 
BRANCH  16  17
ATOM     17  C   UNL     1      -8.362  14.276  -8.652  1.00  0.00     0.130 C 
ATOM     18  O   UNL     1      -7.498  14.771  -7.945  1.00  0.00    -0.300 OA
ATOM     19  C   UNL     1      -8.710  14.953  -9.949  1.00  0.00     0.087 C 
ENDBRANCH  16  17
ENDBRANCH  15  16
ENDBRANCH  13  15
ENDBRANCH  11  12
ENDBRANCH   1  11
TORSDOF 9
ENDMDL
MODEL 3
REMARK VINA RESULT:    -4.229      8.981     12.018
REMARK INTER + INTRA:          -8.904
REMARK INTER:                  -7.464
REMARK INTRA:                  -1.440
REMARK UNBOUND:                -2.449
REMARK SMILES CC(=O)CCC=C(C)CCC=C(C)CCC=C(C)C
REMARK SMILES IDX 10 1 11 2 12 3 13 4 14 5 15 6 16 7 18 8 17 9 19 10 9 11 7 12
REMARK SMILES IDX 6 13 8 14 5 15 4 16 2 17 3 18 1 19
REMARK H PARENT
REMARK Flexibility Score: inf
ROOT
ATOM      1  C   UNL     1       0.885   8.743 -21.167  1.00  0.00     0.032 C 
ENDROOT
BRANCH   1   2
ATOM      2  C   UNL     1       0.345   8.631 -19.759  1.00  0.00    -0.028 C 
ATOM      3  C   UNL     1       0.508   9.583 -18.813  1.00  0.00    -0.077 C 
ATOM      4  C   UNL     1      -0.117   9.362 -17.460  1.00  0.00     0.039 C 
BRANCH   3   5
ATOM      5  C   UNL     1       1.308  10.852 -19.053  1.00  0.00     0.034 C 
BRANCH   5   6
ATOM      6  C   UNL     1       0.402  12.053 -19.365  1.00  0.00     0.032 C 
BRANCH   6   7
ATOM      7  C   UNL     1       1.199  13.275 -19.756  1.00  0.00    -0.028 C 
ATOM      8  C   UNL     1       1.250  14.199 -17.429  1.00  0.00     0.039 C 
ATOM      9  C   UNL     1       1.614  14.229 -18.895  1.00  0.00    -0.080 C 
ATOM     10  C   UNL     1       2.448  15.364 -19.430  1.00  0.00     0.039 C 
ENDBRANCH   6   7
ENDBRANCH   5   6
ENDBRANCH   3   5
ENDBRANCH   1   2
BRANCH   1  11
ATOM     11  C   UNL     1      -0.057   8.102 -22.199  1.00  0.00     0.034 C 
BRANCH  11  12
ATOM     12  C   UNL     1      -1.247   8.988 -22.514  1.00  0.00    -0.077 C 
ATOM     13  C   UNL     1      -1.099  10.332 -22.459  1.00  0.00    -0.028 C 
ATOM     14  C   UNL     1      -2.555   8.347 -22.915  1.00  0.00     0.039 C 
BRANCH  13  15
ATOM     15  C   UNL     1      -2.213  11.322 -22.684  1.00  0.00     0.035 C 
BRANCH  15  16
ATOM     16  C   UNL     1      -2.052  12.013 -24.046  1.00  0.00     0.079 C 
BRANCH  16  17
ATOM     17  C   UNL     1      -3.275  11.938 -24.934  1.00  0.00     0.130 C 
ATOM     18  O   UNL     1      -3.942  12.950 -25.088  1.00  0.00    -0.300 OA
ATOM     19  C   UNL     1      -3.708  10.676 -25.628  1.00  0.00     0.087 C 
ENDBRANCH  16  17
ENDBRANCH  15  16
ENDBRANCH  13  15
ENDBRANCH  11  12
ENDBRANCH   1  11
TORSDOF 9
ENDMDL
MODEL 4
REMARK VINA RESULT:    -4.194      7.048     10.353
REMARK INTER + INTRA:          -8.849
REMARK INTER:                  -6.572
REMARK INTRA:                  -2.277
REMARK UNBOUND:                -2.449
REMARK SMILES CC(=O)CCC=C(C)CCC=C(C)CCC=C(C)C
REMARK SMILES IDX 10 1 11 2 12 3 13 4 14 5 15 6 16 7 18 8 17 9 19 10 9 11 7 12
REMARK SMILES IDX 6 13 8 14 5 15 4 16 2 17 3 18 1 19
REMARK H PARENT
REMARK Flexibility Score: inf
ROOT
ATOM      1  C   UNL     1      -3.399  11.183 -25.420  1.00  0.00     0.032 C 
ENDROOT
BRANCH   1   2
ATOM      2  C   UNL     1      -4.832  11.248 -24.942  1.00  0.00    -0.028 C 
ATOM      3  C   UNL     1      -5.785  10.358 -25.297  1.00  0.00    -0.077 C 
ATOM      4  C   UNL     1      -7.167  10.518 -24.716  1.00  0.00     0.039 C 
BRANCH   3   5
ATOM      5  C   UNL     1      -5.527   9.219 -26.269  1.00  0.00     0.034 C 
BRANCH   5   6
ATOM      6  C   UNL     1      -5.470   7.859 -25.559  1.00  0.00     0.032 C 
BRANCH   6   7
ATOM      7  C   UNL     1      -4.055   7.466 -25.205  1.00  0.00    -0.028 C 
ATOM      8  C   UNL     1      -4.336   7.991 -22.772  1.00  0.00     0.039 C 
ATOM      9  C   UNL     1      -3.542   7.490 -23.956  1.00  0.00    -0.080 C 
ATOM     10  C   UNL     1      -2.125   7.019 -23.753  1.00  0.00     0.039 C 
ENDBRANCH   6   7
ENDBRANCH   5   6
ENDBRANCH   3   5
ENDBRANCH   1   2
BRANCH   1  11
ATOM     11  C   UNL     1      -2.494  12.171 -24.669  1.00  0.00     0.034 C 
BRANCH  11  12
ATOM     12  C   UNL     1      -2.283  11.769 -23.223  1.00  0.00    -0.077 C 
ATOM     13  C   UNL     1      -1.718  10.570 -22.951  1.00  0.00    -0.028 C 
ATOM     14  C   UNL     1      -2.677  12.730 -22.126  1.00  0.00     0.039 C 
BRANCH  13  15
ATOM     15  C   UNL     1      -1.512  10.020 -21.562  1.00  0.00     0.035 C 
BRANCH  15  16
ATOM     16  C   UNL     1      -0.015   9.837 -21.272  1.00  0.00     0.079 C 
BRANCH  16  17
ATOM     17  C   UNL     1       0.558  10.833 -20.287  1.00  0.00     0.130 C 
ATOM     18  O   UNL     1       0.525  12.019 -20.576  1.00  0.00    -0.300 OA
ATOM     19  C   UNL     1       1.171  10.426 -18.975  1.00  0.00     0.087 C 
ENDBRANCH  16  17
ENDBRANCH  15  16
ENDBRANCH  13  15
ENDBRANCH  11  12
ENDBRANCH   1  11
TORSDOF 9
ENDMDL
MODEL 5
REMARK VINA RESULT:    -4.179     11.207     14.324
REMARK INTER + INTRA:          -8.827
REMARK INTER:                  -6.923
REMARK INTRA:                  -1.903
REMARK UNBOUND:                -2.449
REMARK SMILES CC(=O)CCC=C(C)CCC=C(C)CCC=C(C)C
REMARK SMILES IDX 10 1 11 2 12 3 13 4 14 5 15 6 16 7 18 8 17 9 19 10 9 11 7 12
REMARK SMILES IDX 6 13 8 14 5 15 4 16 2 17 3 18 1 19
REMARK H PARENT
REMARK Flexibility Score: inf
ROOT
ATOM      1  C   UNL     1      -9.402   4.751 -12.492  1.00  0.00     0.032 C 
ENDROOT
BRANCH   1   2
ATOM      2  C   UNL     1      -8.088   5.453 -12.230  1.00  0.00    -0.028 C 
ATOM      3  C   UNL     1      -7.907   6.372 -11.256  1.00  0.00    -0.077 C 
ATOM      4  C   UNL     1      -6.533   6.966 -11.079  1.00  0.00     0.039 C 
BRANCH   3   5
ATOM      5  C   UNL     1      -9.032   6.843 -10.349  1.00  0.00     0.034 C 
BRANCH   5   6
ATOM      6  C   UNL     1      -9.285   8.352 -10.483  1.00  0.00     0.032 C 
BRANCH   6   7
ATOM      7  C   UNL     1     -10.495   8.648 -11.338  1.00  0.00    -0.028 C 
ATOM      8  C   UNL     1      -9.147   9.030 -13.414  1.00  0.00     0.039 C 
ATOM      9  C   UNL     1     -10.452   8.922 -12.659  1.00  0.00    -0.080 C 
ATOM     10  C   UNL     1     -11.752   9.145 -13.388  1.00  0.00     0.039 C 
ENDBRANCH   6   7
ENDBRANCH   5   6
ENDBRANCH   3   5
ENDBRANCH   1   2
BRANCH   1  11
ATOM     11  C   UNL     1     -10.151   5.356 -13.688  1.00  0.00     0.034 C 
BRANCH  11  12
ATOM     12  C   UNL     1     -11.545   4.781 -13.840  1.00  0.00    -0.077 C 
ATOM     13  C   UNL     1     -11.819   3.570 -13.302  1.00  0.00    -0.028 C 
ATOM     14  C   UNL     1     -12.602   5.590 -14.557  1.00  0.00     0.039 C 
BRANCH  13  15
ATOM     15  C   UNL     1     -13.140   2.855 -13.436  1.00  0.00     0.035 C 
BRANCH  15  16
ATOM     16  C   UNL     1     -13.600   2.316 -12.074  1.00  0.00     0.079 C 
BRANCH  16  17
ATOM     17  C   UNL     1     -13.747   0.812 -12.012  1.00  0.00     0.130 C 
ATOM     18  O   UNL     1     -12.737   0.127 -12.080  1.00  0.00    -0.300 OA
ATOM     19  C   UNL     1     -15.078   0.123 -11.879  1.00  0.00     0.087 C 
ENDBRANCH  16  17
ENDBRANCH  15  16
ENDBRANCH  13  15
ENDBRANCH  11  12
ENDBRANCH   1  11
TORSDOF 9
ENDMDL
MODEL 6
REMARK VINA RESULT:    -4.170     12.969     14.531
REMARK INTER + INTRA:          -8.813
REMARK INTER:                  -6.512
REMARK INTRA:                  -2.302
REMARK UNBOUND:                -2.449
REMARK SMILES CC(=O)CCC=C(C)CCC=C(C)CCC=C(C)C
REMARK SMILES IDX 10 1 11 2 12 3 13 4 14 5 15 6 16 7 18 8 17 9 19 10 9 11 7 12
REMARK SMILES IDX 6 13 8 14 5 15 4 16 2 17 3 18 1 19
REMARK H PARENT
REMARK Flexibility Score: inf
ROOT
ATOM      1  C   UNL     1      -0.877   9.947 -15.762  1.00  0.00     0.032 C 
ENDROOT
BRANCH   1   2
ATOM      2  C   UNL     1      -0.290   8.594 -15.426  1.00  0.00    -0.028 C 
ATOM      3  C   UNL     1      -0.894   7.691 -14.622  1.00  0.00    -0.077 C 
ATOM      4  C   UNL     1      -0.216   6.362 -14.402  1.00  0.00     0.039 C 
BRANCH   3   5
ATOM      5  C   UNL     1      -2.212   7.966 -13.919  1.00  0.00     0.034 C 
BRANCH   5   6
ATOM      6  C   UNL     1      -2.139   7.654 -12.416  1.00  0.00     0.032 C 
BRANCH   6   7
ATOM      7  C   UNL     1      -2.612   8.817 -11.575  1.00  0.00    -0.028 C 
ATOM      8  C   UNL     1      -5.016   8.120 -11.657  1.00  0.00     0.039 C 
ATOM      9  C   UNL     1      -3.893   9.021 -11.200  1.00  0.00    -0.080 C 
ATOM     10  C   UNL     1      -4.201  10.201 -10.315  1.00  0.00     0.039 C 
ENDBRANCH   6   7
ENDBRANCH   5   6
ENDBRANCH   3   5
ENDBRANCH   1   2
BRANCH   1  11
ATOM     11  C   UNL     1      -0.211  11.079 -14.964  1.00  0.00     0.034 C 
BRANCH  11  12
ATOM     12  C   UNL     1      -1.032  11.486 -13.757  1.00  0.00    -0.077 C 
ATOM     13  C   UNL     1      -0.403  11.709 -12.579  1.00  0.00    -0.028 C 
ATOM     14  C   UNL     1      -2.525  11.666 -13.908  1.00  0.00     0.039 C 
BRANCH  13  15
ATOM     15  C   UNL     1      -1.104  12.054 -11.290  1.00  0.00     0.035 C 
BRANCH  15  16
ATOM     16  C   UNL     1      -0.931  13.545 -10.966  1.00  0.00     0.079 C 
BRANCH  16  17
ATOM     17  C   UNL     1      -2.025  14.436 -11.512  1.00  0.00     0.130 C 
ATOM     18  O   UNL     1      -1.714  15.332 -12.282  1.00  0.00    -0.300 OA
ATOM     19  C   UNL     1      -3.475  14.272 -11.145  1.00  0.00     0.087 C 
ENDBRANCH  16  17
ENDBRANCH  15  16
ENDBRANCH  13  15
ENDBRANCH  11  12
ENDBRANCH   1  11
TORSDOF 9
ENDMDL
MODEL 7
REMARK VINA RESULT:    -4.164     11.969     14.032
REMARK INTER + INTRA:          -8.805
REMARK INTER:                  -5.587
REMARK INTRA:                  -3.218
REMARK UNBOUND:                -2.449
REMARK SMILES CC(=O)CCC=C(C)CCC=C(C)CCC=C(C)C
REMARK SMILES IDX 10 1 11 2 12 3 13 4 14 5 15 6 16 7 18 8 17 9 19 10 9 11 7 12
REMARK SMILES IDX 6 13 8 14 5 15 4 16 2 17 3 18 1 19
REMARK H PARENT
REMARK Flexibility Score: inf
ROOT
ATOM      1  C   UNL     1      -1.780   8.921 -11.604  1.00  0.00     0.032 C 
ENDROOT
BRANCH   1   2
ATOM      2  C   UNL     1      -3.149   8.279 -11.638  1.00  0.00    -0.028 C 
ATOM      3  C   UNL     1      -4.274   8.882 -11.194  1.00  0.00    -0.077 C 
ATOM      4  C   UNL     1      -5.581   8.142 -11.324  1.00  0.00     0.039 C 
BRANCH   3   5
ATOM      5  C   UNL     1      -4.272  10.261 -10.556  1.00  0.00     0.034 C 
BRANCH   5   6
ATOM      6  C   UNL     1      -5.225  11.228 -11.274  1.00  0.00     0.032 C 
BRANCH   6   7
ATOM      7  C   UNL     1      -4.491  12.126 -12.243  1.00  0.00    -0.028 C 
ATOM      8  C   UNL     1      -4.910  10.633 -14.210  1.00  0.00     0.039 C 
ATOM      9  C   UNL     1      -4.369  11.888 -13.566  1.00  0.00    -0.080 C 
ATOM     10  C   UNL     1      -3.650  12.906 -14.414  1.00  0.00     0.039 C 
ENDBRANCH   6   7
ENDBRANCH   5   6
ENDBRANCH   3   5
ENDBRANCH   1   2
BRANCH   1  11
ATOM     11  C   UNL     1      -1.412   9.567 -12.948  1.00  0.00     0.034 C 
BRANCH  11  12
ATOM     12  C   UNL     1      -0.860  10.969 -12.777  1.00  0.00    -0.077 C 
ATOM     13  C   UNL     1      -0.943  11.564 -11.565  1.00  0.00    -0.028 C 
ATOM     14  C   UNL     1      -0.201  11.650 -13.954  1.00  0.00     0.039 C 
BRANCH  13  15
ATOM     15  C   UNL     1      -0.495  12.974 -11.275  1.00  0.00     0.035 C 
BRANCH  15  16
ATOM     16  C   UNL     1      -1.694  13.850 -10.881  1.00  0.00     0.079 C 
BRANCH  16  17
ATOM     17  C   UNL     1      -2.019  14.949 -11.869  1.00  0.00     0.130 C 
ATOM     18  O   UNL     1      -3.064  15.564 -11.728  1.00  0.00    -0.300 OA
ATOM     19  C   UNL     1      -1.116  15.311 -13.016  1.00  0.00     0.087 C 
ENDBRANCH  16  17
ENDBRANCH  15  16
ENDBRANCH  13  15
ENDBRANCH  11  12
ENDBRANCH   1  11
TORSDOF 9
ENDMDL
MODEL 8
REMARK VINA RESULT:    -4.163      4.740      6.942
REMARK INTER + INTRA:          -8.803
REMARK INTER:                  -6.557
REMARK INTRA:                  -2.246
REMARK UNBOUND:                -2.449
REMARK SMILES CC(=O)CCC=C(C)CCC=C(C)CCC=C(C)C
REMARK SMILES IDX 10 1 11 2 12 3 13 4 14 5 15 6 16 7 18 8 17 9 19 10 9 11 7 12
REMARK SMILES IDX 6 13 8 14 5 15 4 16 2 17 3 18 1 19
REMARK H PARENT
REMARK Flexibility Score: inf
ROOT
ATOM      1  C   UNL     1      -7.134  10.095 -23.714  1.00  0.00     0.032 C 
ENDROOT
BRANCH   1   2
ATOM      2  C   UNL     1      -7.409   8.764 -24.378  1.00  0.00    -0.028 C 
ATOM      3  C   UNL     1      -6.842   8.371 -25.539  1.00  0.00    -0.077 C 
ATOM      4  C   UNL     1      -7.174   6.999 -26.070  1.00  0.00     0.039 C 
BRANCH   3   5
ATOM      5  C   UNL     1      -5.901   9.257 -26.338  1.00  0.00     0.034 C 
BRANCH   5   6
ATOM      6  C   UNL     1      -4.436   9.066 -25.919  1.00  0.00     0.032 C 
BRANCH   6   7
ATOM      7  C   UNL     1      -3.742  10.385 -25.674  1.00  0.00    -0.028 C 
ATOM      8  C   UNL     1      -3.459   9.976 -23.219  1.00  0.00     0.039 C 
ATOM      9  C   UNL     1      -3.271  10.793 -24.476  1.00  0.00    -0.080 C 
ATOM     10  C   UNL     1      -2.554  12.117 -24.400  1.00  0.00     0.039 C 
ENDBRANCH   6   7
ENDBRANCH   5   6
ENDBRANCH   3   5
ENDBRANCH   1   2
BRANCH   1  11
ATOM     11  C   UNL     1      -8.296  11.083 -23.899  1.00  0.00     0.034 C 
BRANCH  11  12
ATOM     12  C   UNL     1      -7.824  12.432 -24.404  1.00  0.00    -0.077 C 
ATOM     13  C   UNL     1      -6.519  12.595 -24.724  1.00  0.00    -0.028 C 
ATOM     14  C   UNL     1      -8.829  13.549 -24.571  1.00  0.00     0.039 C 
BRANCH  13  15
ATOM     15  C   UNL     1      -5.907  13.898 -25.173  1.00  0.00     0.035 C 
BRANCH  15  16
ATOM     16  C   UNL     1      -5.236  14.613 -23.991  1.00  0.00     0.079 C 
BRANCH  16  17
ATOM     17  C   UNL     1      -4.113  15.548 -24.381  1.00  0.00     0.130 C 
ATOM     18  O   UNL     1      -3.827  15.650 -25.564  1.00  0.00    -0.300 OA
ATOM     19  C   UNL     1      -3.330  16.351 -23.378  1.00  0.00     0.087 C 
ENDBRANCH  16  17
ENDBRANCH  15  16
ENDBRANCH  13  15
ENDBRANCH  11  12
ENDBRANCH   1  11
TORSDOF 9
ENDMDL
MODEL 9
REMARK VINA RESULT:    -4.140      9.954     12.266
REMARK INTER + INTRA:          -8.767
REMARK INTER:                  -6.760
REMARK INTRA:                  -2.007
REMARK UNBOUND:                -2.449
REMARK SMILES CC(=O)CCC=C(C)CCC=C(C)CCC=C(C)C
REMARK SMILES IDX 10 1 11 2 12 3 13 4 14 5 15 6 16 7 18 8 17 9 19 10 9 11 7 12
REMARK SMILES IDX 6 13 8 14 5 15 4 16 2 17 3 18 1 19
REMARK H PARENT
REMARK Flexibility Score: inf
ROOT
ATOM      1  C   UNL     1       1.659   9.344 -19.710  1.00  0.00     0.032 C 
ENDROOT
BRANCH   1   2
ATOM      2  C   UNL     1       0.655   8.255 -20.019  1.00  0.00    -0.028 C 
ATOM      3  C   UNL     1      -0.187   8.285 -21.076  1.00  0.00    -0.077 C 
ATOM      4  C   UNL     1      -1.111   7.113 -21.288  1.00  0.00     0.039 C 
BRANCH   3   5
ATOM      5  C   UNL     1      -0.251   9.455 -22.043  1.00  0.00     0.034 C 
BRANCH   5   6
ATOM      6  C   UNL     1      -1.519  10.299 -21.842  1.00  0.00     0.032 C 
BRANCH   6   7
ATOM      7  C   UNL     1      -2.242  10.550 -23.144  1.00  0.00    -0.028 C 
ATOM      8  C   UNL     1      -1.463  12.925 -23.315  1.00  0.00     0.039 C 
ATOM      9  C   UNL     1      -2.201  11.712 -23.832  1.00  0.00    -0.080 C 
ATOM     10  C   UNL     1      -2.935  11.793 -25.146  1.00  0.00     0.039 C 
ENDBRANCH   6   7
ENDBRANCH   5   6
ENDBRANCH   3   5
ENDBRANCH   1   2
BRANCH   1  11
ATOM     11  C   UNL     1       1.299  10.116 -18.432  1.00  0.00     0.034 C 
BRANCH  11  12
ATOM     12  C   UNL     1       0.475  11.354 -18.724  1.00  0.00    -0.077 C 
ATOM     13  C   UNL     1       0.878  12.196 -19.704  1.00  0.00    -0.028 C 
ATOM     14  C   UNL     1      -0.793  11.598 -17.939  1.00  0.00     0.039 C 
BRANCH  13  15
ATOM     15  C   UNL     1       0.191  13.492 -20.053  1.00  0.00     0.035 C 
BRANCH  15  16
ATOM     16  C   UNL     1       1.185  14.661 -19.990  1.00  0.00     0.079 C 
BRANCH  16  17
ATOM     17  C   UNL     1       1.758  14.923 -18.614  1.00  0.00     0.130 C 
ATOM     18  O   UNL     1       2.971  15.007 -18.498  1.00  0.00    -0.300 OA
ATOM     19  C   UNL     1       0.902  15.078 -17.386  1.00  0.00     0.087 C 
ENDBRANCH  16  17
ENDBRANCH  15  16
ENDBRANCH  13  15
ENDBRANCH  11  12
ENDBRANCH   1  11
TORSDOF 9
ENDMDL
