MODEL 1
REMARK VINA RESULT:    -6.505      0.000      0.000
REMARK INTER + INTRA:          -7.053
REMARK INTER:                  -6.885
REMARK INTRA:                  -0.168
REMARK UNBOUND:                -0.168
REMARK SMILES C=C(C)[C@@H]1CC[C@]2(C)CCCC(=C)[C@@H]2C1
REMARK SMILES IDX 4 1 5 2 6 3 7 4 9 5 10 6 11 7 12 8 13 9 14 10 15 11 8 12
REMARK SMILES IDX 2 13 3 14 1 15
REMARK H PARENT
REMARK Flexibility Score: inf
ROOT
ATOM      1  C   UNL     1      11.941  33.227  22.358  1.00  0.00     0.015 C 
ATOM      2  C   UNL     1      11.955  33.528  20.851  1.00  0.00     0.008 C 
ATOM      3  C   UNL     1      13.386  33.480  20.301  1.00  0.00     0.008 C 
ATOM      4  C   UNL     1      14.131  32.142  20.594  1.00  0.00    -0.026 C 
ATOM      5  C   UNL     1      13.553  31.001  19.699  1.00  0.00     0.008 C 
ATOM      6  C   UNL     1      14.196  29.632  19.981  1.00  0.00     0.005 C 
ATOM      7  C   UNL     1      14.098  29.240  21.459  1.00  0.00     0.031 C 
ATOM      8  C   UNL     1      14.554  30.369  22.356  1.00  0.00    -0.074 C 
ATOM      9  C   UNL     1      15.313  30.115  23.434  1.00  0.00     0.008 C 
ATOM     10  C   UNL     1      14.012  31.767  22.107  1.00  0.00     0.021 C 
ATOM     11  C   UNL     1      12.562  31.849  22.635  1.00  0.00     0.016 C 
ATOM     12  C   UNL     1      15.624  32.371  20.238  1.00  0.00     0.012 C 
ENDROOT
BRANCH   1  13
ATOM     13  C   UNL     1      10.533  33.329  22.932  1.00  0.00    -0.077 C 
ATOM     14  C   UNL     1      10.227  32.747  24.289  1.00  0.00     0.039 C 
ATOM     15  C   UNL     1       9.542  33.930  22.252  1.00  0.00     0.008 C 
ENDBRANCH   1  13
TORSDOF 1
ENDMDL
MODEL 2
REMARK VINA RESULT:    -6.416      1.645      2.848
REMARK INTER + INTRA:          -6.960
REMARK INTER:                  -6.790
REMARK INTRA:                  -0.170
REMARK UNBOUND:                -0.168
REMARK SMILES C=C(C)[C@@H]1CC[C@]2(C)CCCC(=C)[C@@H]2C1
REMARK SMILES IDX 4 1 5 2 6 3 7 4 9 5 10 6 11 7 12 8 13 9 14 10 15 11 8 12
REMARK SMILES IDX 2 13 3 14 1 15
REMARK H PARENT
REMARK Flexibility Score: inf
ROOT
ATOM      1  C   UNL     1      10.050  33.559  23.464  1.00  0.00     0.015 C 
ATOM      2  C   UNL     1       9.087  33.243  22.309  1.00  0.00     0.008 C 
ATOM      3  C   UNL     1       9.672  33.711  20.970  1.00  0.00     0.008 C 
ATOM      4  C   UNL     1      11.090  33.139  20.665  1.00  0.00    -0.026 C 
ATOM      5  C   UNL     1      10.990  31.625  20.301  1.00  0.00     0.008 C 
ATOM      6  C   UNL     1      12.361  30.974  20.052  1.00  0.00     0.005 C 
ATOM      7  C   UNL     1      13.316  31.167  21.235  1.00  0.00     0.031 C 
ATOM      8  C   UNL     1      13.354  32.613  21.678  1.00  0.00    -0.074 C 
ATOM      9  C   UNL     1      14.519  33.189  22.011  1.00  0.00     0.008 C 
ATOM     10  C   UNL     1      12.041  33.348  21.889  1.00  0.00     0.021 C 
ATOM     11  C   UNL     1      11.412  32.889  23.225  1.00  0.00     0.016 C 
ATOM     12  C   UNL     1      11.641  33.928  19.448  1.00  0.00     0.012 C 
ENDROOT
BRANCH   1  13
ATOM     13  C   UNL     1       9.459  33.154  24.808  1.00  0.00    -0.077 C 
ATOM     14  C   UNL     1      10.367  32.794  25.955  1.00  0.00     0.039 C 
ATOM     15  C   UNL     1       8.130  33.107  25.001  1.00  0.00     0.008 C 
ENDBRANCH   1  13
TORSDOF 1
ENDMDL
MODEL 3
REMARK VINA RESULT:    -6.234      2.027      5.221
REMARK INTER + INTRA:          -6.767
REMARK INTER:                  -6.600
REMARK INTRA:                  -0.167
REMARK UNBOUND:                -0.168
REMARK SMILES C=C(C)[C@@H]1CC[C@]2(C)CCCC(=C)[C@@H]2C1
REMARK SMILES IDX 4 1 5 2 6 3 7 4 9 5 10 6 11 7 12 8 13 9 14 10 15 11 8 12
REMARK SMILES IDX 2 13 3 14 1 15
REMARK H PARENT
REMARK Flexibility Score: inf
ROOT
ATOM      1  C   UNL     1      12.643  32.530  21.421  1.00  0.00     0.015 C 
ATOM      2  C   UNL     1      11.555  32.794  20.368  1.00  0.00     0.008 C 
ATOM      3  C   UNL     1      10.219  32.173  20.800  1.00  0.00     0.008 C 
ATOM      4  C   UNL     1       9.734  32.634  22.207  1.00  0.00    -0.026 C 
ATOM      5  C   UNL     1       9.237  34.113  22.145  1.00  0.00     0.008 C 
ATOM      6  C   UNL     1       8.804  34.660  23.516  1.00  0.00     0.005 C 
ATOM      7  C   UNL     1       9.908  34.522  24.569  1.00  0.00     0.031 C 
ATOM      8  C   UNL     1      10.482  33.123  24.580  1.00  0.00    -0.074 C 
ATOM      9  C   UNL     1      10.763  32.515  25.743  1.00  0.00     0.008 C 
ATOM     10  C   UNL     1      10.882  32.485  23.260  1.00  0.00     0.021 C 
ATOM     11  C   UNL     1      12.218  33.098  22.784  1.00  0.00     0.016 C 
ATOM     12  C   UNL     1       8.553  31.708  22.602  1.00  0.00     0.012 C 
ENDROOT
BRANCH   1  13
ATOM     13  C   UNL     1      13.990  33.089  20.980  1.00  0.00    -0.077 C 
ATOM     14  C   UNL     1      14.103  33.860  19.690  1.00  0.00     0.039 C 
ATOM     15  C   UNL     1      15.097  32.911  21.721  1.00  0.00     0.008 C 
ENDBRANCH   1  13
TORSDOF 1
ENDMDL
MODEL 4
REMARK VINA RESULT:    -6.189      2.430      6.165
REMARK INTER + INTRA:          -6.719
REMARK INTER:                  -6.552
REMARK INTRA:                  -0.166
REMARK UNBOUND:                -0.168
REMARK SMILES C=C(C)[C@@H]1CC[C@]2(C)CCCC(=C)[C@@H]2C1
REMARK SMILES IDX 4 1 5 2 6 3 7 4 9 5 10 6 11 7 12 8 13 9 14 10 15 11 8 12
REMARK SMILES IDX 2 13 3 14 1 15
REMARK H PARENT
REMARK Flexibility Score: inf
ROOT
ATOM      1  C   UNL     1      10.834  33.638  22.160  1.00  0.00     0.015 C 
ATOM      2  C   UNL     1      11.082  33.073  23.567  1.00  0.00     0.008 C 
ATOM      3  C   UNL     1       9.880  33.345  24.481  1.00  0.00     0.008 C 
ATOM      4  C   UNL     1       8.526  32.819  23.917  1.00  0.00    -0.026 C 
ATOM      5  C   UNL     1       8.476  31.262  24.008  1.00  0.00     0.008 C 
ATOM      6  C   UNL     1       7.192  30.664  23.407  1.00  0.00     0.005 C 
ATOM      7  C   UNL     1       6.969  31.112  21.959  1.00  0.00     0.031 C 
ATOM      8  C   UNL     1       7.115  32.611  21.821  1.00  0.00    -0.074 C 
ATOM      9  C   UNL     1       6.265  33.307  21.049  1.00  0.00     0.008 C 
ATOM     10  C   UNL     1       8.327  33.289  22.439  1.00  0.00     0.021 C 
ATOM     11  C   UNL     1       9.564  33.023  21.551  1.00  0.00     0.016 C 
ATOM     12  C   UNL     1       7.404  33.424  24.803  1.00  0.00     0.012 C 
ENDROOT
BRANCH   1  13
ATOM     13  C   UNL     1      12.042  33.429  21.255  1.00  0.00    -0.077 C 
ATOM     14  C   UNL     1      13.393  33.134  21.855  1.00  0.00     0.039 C 
ATOM     15  C   UNL     1      11.935  33.500  19.917  1.00  0.00     0.008 C 
ENDBRANCH   1  13
TORSDOF 1
ENDMDL
MODEL 5
REMARK VINA RESULT:    -6.064      3.320      5.664
REMARK INTER + INTRA:          -6.587
REMARK INTER:                  -6.420
REMARK INTRA:                  -0.167
REMARK UNBOUND:                -0.168
REMARK SMILES C=C(C)[C@@H]1CC[C@]2(C)CCCC(=C)[C@@H]2C1
REMARK SMILES IDX 4 1 5 2 6 3 7 4 9 5 10 6 11 7 12 8 13 9 14 10 15 11 8 12
REMARK SMILES IDX 2 13 3 14 1 15
REMARK H PARENT
REMARK Flexibility Score: inf
ROOT
ATOM      1  C   UNL     1       7.137  30.953  22.779  1.00  0.00     0.015 C 
ATOM      2  C   UNL     1       7.606  30.778  21.326  1.00  0.00     0.008 C 
ATOM      3  C   UNL     1       7.902  32.139  20.683  1.00  0.00     0.008 C 
ATOM      4  C   UNL     1       8.922  33.007  21.481  1.00  0.00    -0.026 C 
ATOM      5  C   UNL     1      10.359  32.417  21.331  1.00  0.00     0.008 C 
ATOM      6  C   UNL     1      11.413  33.185  22.148  1.00  0.00     0.005 C 
ATOM      7  C   UNL     1      11.038  33.280  23.630  1.00  0.00     0.031 C 
ATOM      8  C   UNL     1       9.611  33.750  23.805  1.00  0.00    -0.074 C 
ATOM      9  C   UNL     1       9.303  34.640  24.762  1.00  0.00     0.008 C 
ATOM     10  C   UNL     1       8.515  33.084  22.989  1.00  0.00     0.021 C 
ATOM     11  C   UNL     1       8.201  31.699  23.599  1.00  0.00     0.016 C 
ATOM     12  C   UNL     1       8.880  34.431  20.866  1.00  0.00     0.012 C 
ENDROOT
BRANCH   1  13
ATOM     13  C   UNL     1       6.783  29.614  23.414  1.00  0.00    -0.077 C 
ATOM     14  C   UNL     1       7.111  28.328  22.699  1.00  0.00     0.039 C 
ATOM     15  C   UNL     1       6.177  29.547  24.612  1.00  0.00     0.008 C 
ENDBRANCH   1  13
TORSDOF 1
ENDMDL
MODEL 6
REMARK VINA RESULT:    -5.864      1.785      4.180
REMARK INTER + INTRA:          -6.375
REMARK INTER:                  -6.205
REMARK INTRA:                  -0.170
REMARK UNBOUND:                -0.168
REMARK SMILES C=C(C)[C@@H]1CC[C@]2(C)CCCC(=C)[C@@H]2C1
REMARK SMILES IDX 4 1 5 2 6 3 7 4 9 5 10 6 11 7 12 8 13 9 14 10 15 11 8 12
REMARK SMILES IDX 2 13 3 14 1 15
REMARK H PARENT
REMARK Flexibility Score: inf
ROOT
ATOM      1  C   UNL     1      14.560  33.895  19.729  1.00  0.00     0.015 C 
ATOM      2  C   UNL     1      15.175  32.574  19.243  1.00  0.00     0.008 C 
ATOM      3  C   UNL     1      15.312  31.579  20.403  1.00  0.00     0.008 C 
ATOM      4  C   UNL     1      13.980  31.308  21.165  1.00  0.00    -0.026 C 
ATOM      5  C   UNL     1      13.029  30.436  20.287  1.00  0.00     0.008 C 
ATOM      6  C   UNL     1      11.663  30.183  20.949  1.00  0.00     0.005 C 
ATOM      7  C   UNL     1      10.962  31.486  21.345  1.00  0.00     0.031 C 
ATOM      8  C   UNL     1      11.895  32.399  22.108  1.00  0.00    -0.074 C 
ATOM      9  C   UNL     1      11.453  33.079  23.178  1.00  0.00     0.008 C 
ATOM     10  C   UNL     1      13.287  32.656  21.553  1.00  0.00     0.021 C 
ATOM     11  C   UNL     1      13.186  33.643  20.369  1.00  0.00     0.016 C 
ATOM     12  C   UNL     1      14.350  30.532  22.456  1.00  0.00     0.012 C 
ENDROOT
BRANCH   1  13
ATOM     13  C   UNL     1      14.470  34.915  18.602  1.00  0.00    -0.077 C 
ATOM     14  C   UNL     1      13.124  35.365  18.094  1.00  0.00     0.039 C 
ATOM     15  C   UNL     1      15.575  35.433  18.037  1.00  0.00     0.008 C 
ENDBRANCH   1  13
TORSDOF 1
ENDMDL
MODEL 7
REMARK VINA RESULT:    -5.815      1.330      2.541
REMARK INTER + INTRA:          -6.324
REMARK INTER:                  -6.154
REMARK INTRA:                  -0.170
REMARK UNBOUND:                -0.168
REMARK SMILES C=C(C)[C@@H]1CC[C@]2(C)CCCC(=C)[C@@H]2C1
REMARK SMILES IDX 4 1 5 2 6 3 7 4 9 5 10 6 11 7 12 8 13 9 14 10 15 11 8 12
REMARK SMILES IDX 2 13 3 14 1 15
REMARK H PARENT
REMARK Flexibility Score: inf
ROOT
ATOM      1  C   UNL     1      10.875  33.058  22.283  1.00  0.00     0.015 C 
ATOM      2  C   UNL     1      10.418  31.625  21.972  1.00  0.00     0.008 C 
ATOM      3  C   UNL     1      10.952  31.169  20.607  1.00  0.00     0.008 C 
ATOM      4  C   UNL     1      12.499  31.288  20.462  1.00  0.00    -0.026 C 
ATOM      5  C   UNL     1      13.203  30.184  21.312  1.00  0.00     0.008 C 
ATOM      6  C   UNL     1      14.738  30.281  21.271  1.00  0.00     0.005 C 
ATOM      7  C   UNL     1      15.242  31.666  21.689  1.00  0.00     0.031 C 
ATOM      8  C   UNL     1      14.501  32.762  20.956  1.00  0.00    -0.074 C 
ATOM      9  C   UNL     1      15.164  33.832  20.488  1.00  0.00     0.008 C 
ATOM     10  C   UNL     1      12.984  32.710  20.898  1.00  0.00     0.021 C 
ATOM     11  C   UNL     1      12.409  33.148  22.264  1.00  0.00     0.016 C 
ATOM     12  C   UNL     1      12.828  31.072  18.961  1.00  0.00     0.012 C 
ENDROOT
BRANCH   1  13
ATOM     13  C   UNL     1      10.305  33.548  23.608  1.00  0.00    -0.077 C 
ATOM     14  C   UNL     1       9.262  34.637  23.626  1.00  0.00     0.039 C 
ATOM     15  C   UNL     1      10.713  33.030  24.779  1.00  0.00     0.008 C 
ENDBRANCH   1  13
TORSDOF 1
ENDMDL
MODEL 8
REMARK VINA RESULT:    -5.792      1.887      5.520
REMARK INTER + INTRA:          -6.299
REMARK INTER:                  -6.130
REMARK INTRA:                  -0.168
REMARK UNBOUND:                -0.168
REMARK SMILES C=C(C)[C@@H]1CC[C@]2(C)CCCC(=C)[C@@H]2C1
REMARK SMILES IDX 4 1 5 2 6 3 7 4 9 5 10 6 11 7 12 8 13 9 14 10 15 11 8 12
REMARK SMILES IDX 2 13 3 14 1 15
REMARK H PARENT
REMARK Flexibility Score: inf
ROOT
ATOM      1  C   UNL     1      12.475  33.454  21.671  1.00  0.00     0.015 C 
ATOM      2  C   UNL     1      12.177  32.460  22.804  1.00  0.00     0.008 C 
ATOM      3  C   UNL     1      10.819  32.767  23.451  1.00  0.00     0.008 C 
ATOM      4  C   UNL     1       9.633  32.809  22.441  1.00  0.00    -0.026 C 
ATOM      5  C   UNL     1       9.285  31.365  21.962  1.00  0.00     0.008 C 
ATOM      6  C   UNL     1       8.164  31.334  20.909  1.00  0.00     0.005 C 
ATOM      7  C   UNL     1       8.478  32.225  19.703  1.00  0.00     0.031 C 
ATOM      8  C   UNL     1       8.920  33.603  20.142  1.00  0.00    -0.074 C 
ATOM      9  C   UNL     1       8.484  34.694  19.491  1.00  0.00     0.008 C 
ATOM     10  C   UNL     1       9.983  33.723  21.221  1.00  0.00     0.021 C 
ATOM     11  C   UNL     1      11.366  33.405  20.608  1.00  0.00     0.016 C 
ATOM     12  C   UNL     1       8.419  33.409  23.199  1.00  0.00     0.012 C 
ENDROOT
BRANCH   1  13
ATOM     13  C   UNL     1      13.846  33.201  21.056  1.00  0.00    -0.077 C 
ATOM     14  C   UNL     1      14.196  33.799  19.717  1.00  0.00     0.039 C 
ATOM     15  C   UNL     1      14.765  32.447  21.682  1.00  0.00     0.008 C 
ENDBRANCH   1  13
TORSDOF 1
ENDMDL
MODEL 9
REMARK VINA RESULT:    -5.763      2.964      5.184
REMARK INTER + INTRA:          -6.268
REMARK INTER:                  -6.097
REMARK INTRA:                  -0.171
REMARK UNBOUND:                -0.168
REMARK SMILES C=C(C)[C@@H]1CC[C@]2(C)CCCC(=C)[C@@H]2C1
REMARK SMILES IDX 4 1 5 2 6 3 7 4 9 5 10 6 11 7 12 8 13 9 14 10 15 11 8 12
REMARK SMILES IDX 2 13 3 14 1 15
REMARK H PARENT
REMARK Flexibility Score: inf
ROOT
ATOM      1  C   UNL     1       9.878  32.667  23.565  1.00  0.00     0.015 C 
ATOM      2  C   UNL     1      11.270  32.477  22.943  1.00  0.00     0.008 C 
ATOM      3  C   UNL     1      11.175  31.696  21.626  1.00  0.00     0.008 C 
ATOM      4  C   UNL     1      10.199  32.326  20.587  1.00  0.00    -0.026 C 
ATOM      5  C   UNL     1      10.824  33.624  19.985  1.00  0.00     0.008 C 
ATOM      6  C   UNL     1       9.887  34.340  18.997  1.00  0.00     0.005 C 
ATOM      7  C   UNL     1       8.522  34.654  19.618  1.00  0.00     0.031 C 
ATOM      8  C   UNL     1       7.939  33.438  20.302  1.00  0.00    -0.074 C 
ATOM      9  C   UNL     1       6.632  33.154  20.182  1.00  0.00     0.008 C 
ATOM     10  C   UNL     1       8.817  32.638  21.250  1.00  0.00     0.021 C 
ATOM     11  C   UNL     1       8.950  33.404  22.585  1.00  0.00     0.016 C 
ATOM     12  C   UNL     1      10.002  31.277  19.460  1.00  0.00     0.012 C 
ENDROOT
BRANCH   1  13
ATOM     13  C   UNL     1       9.960  33.391  24.903  1.00  0.00    -0.077 C 
ATOM     14  C   UNL     1      10.526  32.686  26.109  1.00  0.00     0.039 C 
ATOM     15  C   UNL     1       9.536  34.658  25.040  1.00  0.00     0.008 C 
ENDBRANCH   1  13
TORSDOF 1
ENDMDL
