MODEL 1
REMARK VINA RESULT:    43.431      0.000      0.000
REMARK INTER + INTRA:          47.239
REMARK INTER:                  47.239
REMARK INTRA:                   0.000
REMARK UNBOUND:                 0.000
REMARK SMILES Cc1cc(O)c2c(c1)C(=O)c1cc(O)cc(O)c1C2=O
REMARK SMILES IDX 1 1 2 2 8 3 7 4 6 5 4 6 3 7 19 8 20 9 18 10 11 11 9 12 10 13
REMARK SMILES IDX 12 14 13 15 15 16 16 17 5 18 17 20 14 22
REMARK H PARENT 5 19 17 21 14 23
REMARK Flexibility Score: inf
ROOT
ATOM      1  C   UNL     1      26.912  52.259  26.123  1.00  0.00     0.044 C 
ATOM      2  C   UNL     1      26.219  51.673  24.928  1.00  0.00    -0.047 A 
ATOM      3  C   UNL     1      26.571  52.086  23.638  1.00  0.00     0.016 A 
ATOM      4  C   UNL     1      25.950  51.522  22.512  1.00  0.00     0.038 A 
ATOM      5  C   UNL     1      24.959  50.528  22.678  1.00  0.00     0.076 A 
ATOM      6  C   UNL     1      24.668  50.054  23.983  1.00  0.00     0.127 A 
ATOM      7  C   UNL     1      25.285  50.645  25.090  1.00  0.00     0.050 A 
ATOM      8  C   UNL     1      24.221  50.064  21.475  1.00  0.00     0.201 C 
ATOM      9  O   UNL     1      23.030  49.667  21.585  1.00  0.00    -0.288 OA
ATOM     10  C   UNL     1      24.818  50.245  20.127  1.00  0.00     0.076 A 
ATOM     11  C   UNL     1      25.810  51.238  19.964  1.00  0.00     0.041 A 
ATOM     12  C   UNL     1      26.334  51.961  21.149  1.00  0.00     0.194 C 
ATOM     13  O   UNL     1      27.125  52.932  20.996  1.00  0.00    -0.289 OA
ATOM     14  C   UNL     1      26.300  51.533  18.680  1.00  0.00     0.059 A 
ATOM     15  C   UNL     1      25.827  50.844  17.565  1.00  0.00     0.120 A 
ATOM     16  C   UNL     1      24.875  49.833  17.725  1.00  0.00     0.093 A 
ATOM     17  C   UNL     1      24.387  49.506  18.994  1.00  0.00     0.131 A 
ENDROOT
BRANCH   6  18
ATOM     18  O   UNL     1      23.806  48.982  24.221  1.00  0.00    -0.507 OA
ATOM     19  H   UNL     1      24.104  48.106  24.629  1.00  0.00     0.293 HD
ENDBRANCH   6  18
BRANCH  17  20
ATOM     20  O   UNL     1      23.507  48.425  19.087  1.00  0.00    -0.507 OA
ATOM     21  H   UNL     1      22.999  48.189  19.928  1.00  0.00     0.293 HD
ENDBRANCH  17  20
BRANCH  15  22
ATOM     22  O   UNL     1      26.318  51.162  16.301  1.00  0.00    -0.508 OA
ATOM     23  H   UNL     1      26.793  52.039  16.122  1.00  0.00     0.293 HD
ENDBRANCH  15  22
TORSDOF 3
ENDMDL
