MODEL 1
REMARK VINA RESULT:    -5.344      0.000      0.000
REMARK INTER + INTRA:          -6.970
REMARK INTER:                  -6.438
REMARK INTRA:                  -0.532
REMARK UNBOUND:                -0.532
REMARK SMILES CCCCc1oc(O)c2ccccc12
REMARK SMILES IDX 4 1 5 2 7 3 6 4 9 5 14 6 10 7 13 8 11 9 12 10 8 11 3 13 2 14
REMARK SMILES IDX 1 15
REMARK H PARENT 8 12
REMARK Flexibility Score: inf
ROOT
ATOM      1  C   UNL     1       9.038 -16.027  -4.672  1.00  0.00     0.076 C 
ENDROOT
BRANCH   1   2
ATOM      2  C   UNL     1       7.880 -15.577  -5.508  1.00  0.00     0.116 A 
ATOM      3  C   UNL     1       6.742 -15.027  -7.239  1.00  0.00     0.290 A 
ATOM      4  O   UNL     1       7.913 -15.473  -6.825  1.00  0.00    -0.430 OA
ATOM      5  C   UNL     1       5.911 -14.826  -6.161  1.00  0.00     0.066 A 
ATOM      6  C   UNL     1       6.636 -15.174  -5.053  1.00  0.00     0.027 A 
ATOM      7  C   UNL     1       4.601 -14.363  -6.073  1.00  0.00     0.016 A 
ATOM      8  C   UNL     1       6.100 -15.082  -3.768  1.00  0.00     0.012 A 
ATOM      9  C   UNL     1       4.030 -14.262  -4.790  1.00  0.00     0.001 A 
ATOM     10  C   UNL     1       4.777 -14.619  -3.643  1.00  0.00     0.001 A 
BRANCH   3  11
ATOM     11  O   UNL     1       6.416 -14.797  -8.570  1.00  0.00    -0.480 OA
ATOM     12  H   UNL     1       5.447 -14.717  -8.855  1.00  0.00     0.297 HD
ENDBRANCH   3  11
ENDBRANCH   1   2
BRANCH   1  13
ATOM     13  C   UNL     1      10.186 -15.012  -4.757  1.00  0.00     0.008 C 
BRANCH  13  14
ATOM     14  C   UNL     1       9.905 -13.737  -3.947  1.00  0.00    -0.003 C 
ATOM     15  C   UNL     1       9.578 -14.028  -2.483  1.00  0.00     0.004 C 
ENDBRANCH  13  14
ENDBRANCH   1  13
TORSDOF 4
ENDMDL
MODEL 2
REMARK VINA RESULT:    -5.199      2.079      4.756
REMARK INTER + INTRA:          -6.794
REMARK INTER:                  -6.272
REMARK INTRA:                  -0.522
REMARK UNBOUND:                -0.532
REMARK SMILES CCCCc1oc(O)c2ccccc12
REMARK SMILES IDX 4 1 5 2 7 3 6 4 9 5 14 6 10 7 13 8 11 9 12 10 8 11 3 13 2 14
REMARK SMILES IDX 1 15
REMARK H PARENT 8 12
REMARK Flexibility Score: inf
ROOT
ATOM      1  C   UNL     1       6.087 -14.189  -3.837  1.00  0.00     0.076 C 
ENDROOT
BRANCH   1   2
ATOM      2  C   UNL     1       7.431 -14.661  -4.298  1.00  0.00     0.116 A 
ATOM      3  C   UNL     1       9.430 -15.431  -4.216  1.00  0.00     0.290 A 
ATOM      4  O   UNL     1       8.367 -15.133  -3.493  1.00  0.00    -0.430 OA
ATOM      5  C   UNL     1       9.190 -15.142  -5.540  1.00  0.00     0.066 A 
ATOM      6  C   UNL     1       7.915 -14.648  -5.596  1.00  0.00     0.027 A 
ATOM      7  C   UNL     1       9.985 -15.267  -6.676  1.00  0.00     0.016 A 
ATOM      8  C   UNL     1       7.339 -14.237  -6.798  1.00  0.00     0.012 A 
ATOM      9  C   UNL     1       9.432 -14.864  -7.906  1.00  0.00     0.001 A 
ATOM     10  C   UNL     1       8.116 -14.351  -7.967  1.00  0.00     0.001 A 
BRANCH   3  11
ATOM     11  O   UNL     1      10.609 -15.955  -3.700  1.00  0.00    -0.480 OA
ATOM     12  H   UNL     1      11.247 -15.365  -3.179  1.00  0.00     0.297 HD
ENDBRANCH   3  11
ENDBRANCH   1   2
BRANCH   1  13
ATOM     13  C   UNL     1       5.110 -15.369  -3.742  1.00  0.00     0.008 C 
BRANCH  13  14
ATOM     14  C   UNL     1       4.279 -15.550  -5.021  1.00  0.00    -0.003 C 
ATOM     15  C   UNL     1       3.743 -14.227  -5.568  1.00  0.00     0.004 C 
ENDBRANCH  13  14
ENDBRANCH   1  13
TORSDOF 4
ENDMDL
MODEL 3
REMARK VINA RESULT:    -5.132      1.733      4.643
REMARK INTER + INTRA:          -6.714
REMARK INTER:                  -6.508
REMARK INTRA:                  -0.206
REMARK UNBOUND:                -0.532
REMARK SMILES CCCCc1oc(O)c2ccccc12
REMARK SMILES IDX 4 1 5 2 7 3 6 4 9 5 14 6 10 7 13 8 11 9 12 10 8 11 3 13 2 14
REMARK SMILES IDX 1 15
REMARK H PARENT 8 12
REMARK Flexibility Score: inf
ROOT
ATOM      1  C   UNL     1       5.279 -13.231  -2.995  1.00  0.00     0.076 C 
ENDROOT
BRANCH   1   2
ATOM      2  C   UNL     1       5.917 -14.152  -3.988  1.00  0.00     0.116 A 
ATOM      3  C   UNL     1       6.119 -15.498  -5.644  1.00  0.00     0.290 A 
ATOM      4  O   UNL     1       5.269 -14.737  -4.980  1.00  0.00    -0.430 OA
ATOM      5  C   UNL     1       7.366 -15.416  -5.071  1.00  0.00     0.066 A 
ATOM      6  C   UNL     1       7.241 -14.559  -4.011  1.00  0.00     0.027 A 
ATOM      7  C   UNL     1       8.576 -16.025  -5.390  1.00  0.00     0.016 A 
ATOM      8  C   UNL     1       8.323 -14.249  -3.186  1.00  0.00     0.012 A 
ATOM      9  C   UNL     1       9.689 -15.730  -4.579  1.00  0.00     0.001 A 
ATOM     10  C   UNL     1       9.563 -14.847  -3.483  1.00  0.00     0.001 A 
BRANCH   3  11
ATOM     11  O   UNL     1       5.783 -16.264  -6.754  1.00  0.00    -0.480 OA
ATOM     12  H   UNL     1       6.355 -17.056  -7.022  1.00  0.00     0.297 HD
ENDBRANCH   3  11
ENDBRANCH   1   2
BRANCH   1  13
ATOM     13  C   UNL     1       3.851 -12.880  -3.433  1.00  0.00     0.008 C 
BRANCH  13  14
ATOM     14  C   UNL     1       2.809 -13.875  -2.898  1.00  0.00    -0.003 C 
ATOM     15  C   UNL     1       1.758 -14.247  -3.943  1.00  0.00     0.004 C 
ENDBRANCH  13  14
ENDBRANCH   1  13
TORSDOF 4
ENDMDL
MODEL 4
REMARK VINA RESULT:    -4.982      2.503      3.949
REMARK INTER + INTRA:          -6.534
REMARK INTER:                  -6.022
REMARK INTRA:                  -0.511
REMARK UNBOUND:                -0.532
REMARK SMILES CCCCc1oc(O)c2ccccc12
REMARK SMILES IDX 4 1 5 2 7 3 6 4 9 5 14 6 10 7 13 8 11 9 12 10 8 11 3 13 2 14
REMARK SMILES IDX 1 15
REMARK H PARENT 8 12
REMARK Flexibility Score: inf
ROOT
ATOM      1  C   UNL     1      10.501 -15.104  -6.445  1.00  0.00     0.076 C 
ENDROOT
BRANCH   1   2
ATOM      2  C   UNL     1       9.762 -14.773  -5.186  1.00  0.00     0.116 A 
ATOM      3  C   UNL     1       9.410 -14.197  -3.151  1.00  0.00     0.290 A 
ATOM      4  O   UNL     1      10.342 -14.377  -4.067  1.00  0.00    -0.430 OA
ATOM      5  C   UNL     1       8.174 -14.488  -3.680  1.00  0.00     0.066 A 
ATOM      6  C   UNL     1       8.394 -14.859  -4.979  1.00  0.00     0.027 A 
ATOM      7  C   UNL     1       6.897 -14.464  -3.125  1.00  0.00     0.016 A 
ATOM      8  C   UNL     1       7.349 -15.237  -5.822  1.00  0.00     0.012 A 
ATOM      9  C   UNL     1       5.820 -14.837  -3.951  1.00  0.00     0.001 A 
ATOM     10  C   UNL     1       6.045 -15.222  -5.292  1.00  0.00     0.001 A 
BRANCH   3  11
ATOM     11  O   UNL     1       9.658 -13.779  -1.849  1.00  0.00    -0.480 OA
ATOM     12  H   UNL     1      10.602 -13.779  -1.482  1.00  0.00     0.297 HD
ENDBRANCH   3  11
ENDBRANCH   1   2
BRANCH   1  13
ATOM     13  C   UNL     1      10.933 -13.819  -7.164  1.00  0.00     0.008 C 
BRANCH  13  14
ATOM     14  C   UNL     1       9.914 -13.365  -8.220  1.00  0.00    -0.003 C 
ATOM     15  C   UNL     1       9.280 -14.535  -8.970  1.00  0.00     0.004 C 
ENDBRANCH  13  14
ENDBRANCH   1  13
TORSDOF 4
ENDMDL
MODEL 5
REMARK VINA RESULT:    -4.917     10.619     11.985
REMARK INTER + INTRA:          -6.455
REMARK INTER:                  -6.261
REMARK INTRA:                  -0.193
REMARK UNBOUND:                -0.532
REMARK SMILES CCCCc1oc(O)c2ccccc12
REMARK SMILES IDX 4 1 5 2 7 3 6 4 9 5 14 6 10 7 13 8 11 9 12 10 8 11 3 13 2 14
REMARK SMILES IDX 1 15
REMARK H PARENT 8 12
REMARK Flexibility Score: inf
ROOT
ATOM      1  C   UNL     1       0.878 -21.541   1.732  1.00  0.00     0.076 C 
ENDROOT
BRANCH   1   2
ATOM      2  C   UNL     1       1.263 -22.772   0.973  1.00  0.00     0.116 A 
ATOM      3  C   UNL     1       1.858 -24.796   0.589  1.00  0.00     0.290 A 
ATOM      4  O   UNL     1       1.530 -23.937   1.536  1.00  0.00    -0.430 OA
ATOM      5  C   UNL     1       1.809 -24.177  -0.639  1.00  0.00     0.066 A 
ATOM      6  C   UNL     1       1.432 -22.883  -0.398  1.00  0.00     0.027 A 
ATOM      7  C   UNL     1       2.072 -24.643  -1.924  1.00  0.00     0.016 A 
ATOM      8  C   UNL     1       1.291 -21.955  -1.430  1.00  0.00     0.012 A 
ATOM      9  C   UNL     1       1.936 -23.731  -2.989  1.00  0.00     0.001 A 
ATOM     10  C   UNL     1       1.548 -22.394  -2.742  1.00  0.00     0.001 A 
BRANCH   3  11
ATOM     11  O   UNL     1       2.201 -26.123   0.816  1.00  0.00    -0.480 OA
ATOM     12  H   UNL     1       2.152 -26.801   0.066  1.00  0.00     0.297 HD
ENDBRANCH   3  11
ENDBRANCH   1   2
BRANCH   1  13
ATOM     13  C   UNL     1       0.886 -21.818   3.241  1.00  0.00     0.008 C 
BRANCH  13  14
ATOM     14  C   UNL     1       1.492 -20.661   4.050  1.00  0.00    -0.003 C 
ATOM     15  C   UNL     1       0.875 -19.308   3.695  1.00  0.00     0.004 C 
ENDBRANCH  13  14
ENDBRANCH   1  13
TORSDOF 4
ENDMDL
MODEL 6
REMARK VINA RESULT:    -4.871      1.532      2.300
REMARK INTER + INTRA:          -6.399
REMARK INTER:                  -6.145
REMARK INTRA:                  -0.254
REMARK UNBOUND:                -0.532
REMARK SMILES CCCCc1oc(O)c2ccccc12
REMARK SMILES IDX 4 1 5 2 7 3 6 4 9 5 14 6 10 7 13 8 11 9 12 10 8 11 3 13 2 14
REMARK SMILES IDX 1 15
REMARK H PARENT 8 12
REMARK Flexibility Score: inf
ROOT
ATOM      1  C   UNL     1       7.494 -13.320  -3.376  1.00  0.00     0.076 C 
ENDROOT
BRANCH   1   2
ATOM      2  C   UNL     1       6.451 -14.026  -4.186  1.00  0.00     0.116 A 
ATOM      3  C   UNL     1       5.580 -15.315  -5.661  1.00  0.00     0.290 A 
ATOM      4  O   UNL     1       6.719 -14.909  -5.132  1.00  0.00    -0.430 OA
ATOM      5  C   UNL     1       4.527 -14.675  -5.048  1.00  0.00     0.066 A 
ATOM      6  C   UNL     1       5.080 -13.849  -4.107  1.00  0.00     0.027 A 
ATOM      7  C   UNL     1       3.151 -14.751  -5.250  1.00  0.00     0.016 A 
ATOM      8  C   UNL     1       4.293 -13.031  -3.296  1.00  0.00     0.012 A 
ATOM      9  C   UNL     1       2.329 -13.940  -4.444  1.00  0.00     0.001 A 
ATOM     10  C   UNL     1       2.897 -13.084  -3.473  1.00  0.00     0.001 A 
BRANCH   3  11
ATOM     11  O   UNL     1       5.479 -16.247  -6.687  1.00  0.00    -0.480 OA
ATOM     12  H   UNL     1       5.254 -17.213  -6.481  1.00  0.00     0.297 HD
ENDBRANCH   3  11
ENDBRANCH   1   2
BRANCH   1  13
ATOM     13  C   UNL     1       8.741 -14.202  -3.225  1.00  0.00     0.008 C 
BRANCH  13  14
ATOM     14  C   UNL     1       9.869 -13.797  -4.186  1.00  0.00    -0.003 C 
ATOM     15  C   UNL     1      10.252 -14.917  -5.153  1.00  0.00     0.004 C 
ENDBRANCH  13  14
ENDBRANCH   1  13
TORSDOF 4
ENDMDL
MODEL 7
REMARK VINA RESULT:    -4.806      1.605      4.299
REMARK INTER + INTRA:          -6.322
REMARK INTER:                  -5.835
REMARK INTRA:                  -0.487
REMARK UNBOUND:                -0.532
REMARK SMILES CCCCc1oc(O)c2ccccc12
REMARK SMILES IDX 4 1 5 2 7 3 6 4 9 5 14 6 10 7 13 8 11 9 12 10 8 11 3 13 2 14
REMARK SMILES IDX 1 15
REMARK H PARENT 8 12
REMARK Flexibility Score: inf
ROOT
ATOM      1  C   UNL     1       5.226 -13.063  -5.041  1.00  0.00     0.076 C 
ENDROOT
BRANCH   1   2
ATOM      2  C   UNL     1       6.601 -13.389  -5.533  1.00  0.00     0.116 A 
ATOM      3  C   UNL     1       8.203 -13.823  -6.891  1.00  0.00     0.290 A 
ATOM      4  O   UNL     1       6.925 -13.504  -6.809  1.00  0.00    -0.430 OA
ATOM      5  C   UNL     1       8.739 -13.925  -5.628  1.00  0.00     0.066 A 
ATOM      6  C   UNL     1       7.719 -13.651  -4.758  1.00  0.00     0.027 A 
ATOM      7  C   UNL     1      10.022 -14.241  -5.188  1.00  0.00     0.016 A 
ATOM      8  C   UNL     1       7.907 -13.676  -3.376  1.00  0.00     0.012 A 
ATOM      9  C   UNL     1      10.245 -14.271  -3.799  1.00  0.00     0.001 A 
ATOM     10  C   UNL     1       9.193 -13.990  -2.897  1.00  0.00     0.001 A 
BRANCH   3  11
ATOM     11  O   UNL     1       8.887 -14.024  -8.084  1.00  0.00    -0.480 OA
ATOM     12  H   UNL     1       9.897 -14.102  -8.089  1.00  0.00     0.297 HD
ENDBRANCH   3  11
ENDBRANCH   1   2
BRANCH   1  13
ATOM     13  C   UNL     1       4.199 -14.035  -5.638  1.00  0.00     0.008 C 
BRANCH  13  14
ATOM     14  C   UNL     1       4.486 -15.497  -5.263  1.00  0.00    -0.003 C 
ATOM     15  C   UNL     1       4.244 -15.784  -3.781  1.00  0.00     0.004 C 
ENDBRANCH  13  14
ENDBRANCH   1  13
TORSDOF 4
ENDMDL
MODEL 8
REMARK VINA RESULT:    -4.713      2.074      3.930
REMARK INTER + INTRA:          -6.209
REMARK INTER:                  -5.699
REMARK INTRA:                  -0.510
REMARK UNBOUND:                -0.532
REMARK SMILES CCCCc1oc(O)c2ccccc12
REMARK SMILES IDX 4 1 5 2 7 3 6 4 9 5 14 6 10 7 13 8 11 9 12 10 8 11 3 13 2 14
REMARK SMILES IDX 1 15
REMARK H PARENT 8 12
REMARK Flexibility Score: inf
ROOT
ATOM      1  C   UNL     1       8.077 -15.795  -4.732  1.00  0.00     0.076 C 
ENDROOT
BRANCH   1   2
ATOM      2  C   UNL     1       8.050 -15.274  -6.136  1.00  0.00     0.116 A 
ATOM      3  C   UNL     1       7.295 -14.736  -8.069  1.00  0.00     0.290 A 
ATOM      4  O   UNL     1       6.965 -15.221  -6.886  1.00  0.00    -0.430 OA
ATOM      5  C   UNL     1       8.643 -14.464  -8.101  1.00  0.00     0.066 A 
ATOM      6  C   UNL     1       9.130 -14.809  -6.868  1.00  0.00     0.027 A 
ATOM      7  C   UNL     1       9.464 -13.958  -9.105  1.00  0.00     0.016 A 
ATOM      8  C   UNL     1      10.481 -14.674  -6.549  1.00  0.00     0.012 A 
ATOM      9  C   UNL     1      10.833 -13.806  -8.813  1.00  0.00     0.001 A 
ATOM     10  C   UNL     1      11.339 -14.163  -7.542  1.00  0.00     0.001 A 
BRANCH   3  11
ATOM     11  O   UNL     1       6.401 -14.540  -9.114  1.00  0.00    -0.480 OA
ATOM     12  H   UNL     1       6.643 -13.932  -9.888  1.00  0.00     0.297 HD
ENDBRANCH   3  11
ENDBRANCH   1   2
BRANCH   1  13
ATOM     13  C   UNL     1       7.633 -14.705  -3.748  1.00  0.00     0.008 C 
BRANCH  13  14
ATOM     14  C   UNL     1       8.811 -13.877  -3.215  1.00  0.00    -0.003 C 
ATOM     15  C   UNL     1       9.947 -14.746  -2.677  1.00  0.00     0.004 C 
ENDBRANCH  13  14
ENDBRANCH   1  13
TORSDOF 4
ENDMDL
MODEL 9
REMARK VINA RESULT:    -2.709     10.581     11.895
REMARK INTER + INTRA:          -3.795
REMARK INTER:                  -3.624
REMARK INTRA:                  -0.171
REMARK UNBOUND:                -0.532
REMARK SMILES CCCCc1oc(O)c2ccccc12
REMARK SMILES IDX 4 1 5 2 7 3 6 4 9 5 14 6 10 7 13 8 11 9 12 10 8 11 3 13 2 14
REMARK SMILES IDX 1 15
REMARK H PARENT 8 12
REMARK Flexibility Score: inf
ROOT
ATOM      1  C   UNL     1       1.244 -22.393   2.279  1.00  0.00     0.076 C 
ENDROOT
BRANCH   1   2
ATOM      2  C   UNL     1       1.506 -22.729   0.844  1.00  0.00     0.116 A 
ATOM      3  C   UNL     1       1.800 -22.467  -1.263  1.00  0.00     0.290 A 
ATOM      4  O   UNL     1       1.588 -21.834  -0.124  1.00  0.00    -0.430 OA
ATOM      5  C   UNL     1       1.855 -23.823  -1.040  1.00  0.00     0.066 A 
ATOM      6  C   UNL     1       1.665 -23.995   0.305  1.00  0.00     0.027 A 
ATOM      7  C   UNL     1       2.045 -24.898  -1.904  1.00  0.00     0.016 A 
ATOM      8  C   UNL     1       1.649 -25.263   0.887  1.00  0.00     0.012 A 
ATOM      9  C   UNL     1       2.038 -26.191  -1.346  1.00  0.00     0.001 A 
ATOM     10  C   UNL     1       1.840 -26.372   0.042  1.00  0.00     0.001 A 
BRANCH   3  11
ATOM     11  O   UNL     1       1.940 -21.840  -2.495  1.00  0.00    -0.480 OA
ATOM     12  H   UNL     1       2.354 -20.917  -2.557  1.00  0.00     0.297 HD
ENDBRANCH   3  11
ENDBRANCH   1   2
BRANCH   1  13
ATOM     13  C   UNL     1       0.875 -20.910   2.422  1.00  0.00     0.008 C 
BRANCH  13  14
ATOM     14  C   UNL     1       0.907 -20.433   3.882  1.00  0.00    -0.003 C 
ATOM     15  C   UNL     1       1.072 -18.919   4.005  1.00  0.00     0.004 C 
ENDBRANCH  13  14
ENDBRANCH   1  13
TORSDOF 4
ENDMDL
