MODEL 1
REMARK VINA RESULT:    -3.992      0.000      0.000
REMARK INTER + INTRA:          -5.471
REMARK INTER:                  -5.626
REMARK INTRA:                   0.155
REMARK UNBOUND:                 0.155
REMARK SMILES CC1=CCC(=C(C)C)C(=O)CC(C)=CCC1
REMARK SMILES IDX 12 1 14 2 13 3 15 4 16 5 2 6 1 7 3 8 11 10 9 11 10 12 5 13
REMARK SMILES IDX 6 14 7 15 8 16 4 17
REMARK H PARENT
REMARK Flexibility Score: 60.00
ROOT
ATOM      1  C   UNL     1      26.324  -2.106  52.490  1.00  0.00    -0.070 C 
ATOM      2  C   UNL     1      25.439  -2.326  53.505  1.00  0.00    -0.027 C 
ATOM      3  C   UNL     1      26.925  -0.723  52.403  1.00  0.00     0.039 C 
ENDROOT
BRANCH   2   4
ATOM      4  C   UNL     1      24.606  -3.549  53.871  1.00  0.00     0.032 C 
BRANCH   4   5
ATOM      5  C   UNL     1      25.102  -4.415  55.036  1.00  0.00     0.034 C 
BRANCH   5   6
ATOM      6  C   UNL     1      26.405  -4.009  55.740  1.00  0.00    -0.077 C 
ATOM      7  C   UNL     1      26.241  -3.068  56.914  1.00  0.00     0.039 C 
ATOM      8  C   UNL     1      27.695  -4.310  55.404  1.00  0.00    -0.023 CG0
ATOM      9  G   UNL     1      28.256  -5.153  54.276  1.00  0.00     0.000 G0
ENDBRANCH   5   6
ENDBRANCH   4   5
ENDBRANCH   2   4
BRANCH   1  10
ATOM     10  C   UNL     1      26.775  -3.111  51.441  1.00  0.00     0.111 C 
BRANCH  10  11
ATOM     11  C   UNL     1      27.259  -4.386  52.061  1.00  0.00     0.163 C 
ATOM     12  O   UNL     1      26.637  -5.457  51.820  1.00  0.00    -0.294 OA
BRANCH  11  13
ATOM     13  C   UNL     1      28.427  -4.390  52.979  1.00  0.00    -0.002 C 
ATOM     14  C   UNL     1      29.586  -3.745  52.662  1.00  0.00    -0.069 C 
ATOM     15  C   UNL     1      30.811  -3.837  53.542  1.00  0.00     0.039 C 
ATOM     16  C   UNL     1      29.691  -2.896  51.415  1.00  0.00     0.039 C 
BRANCH  13  17
ATOM     17  C   UNL     1      28.253  -5.163  54.270  1.00  0.00     0.066 CG0
ATOM     18  G   UNL     1      27.682  -4.300  55.377  1.00  0.00     0.000 G0
ENDBRANCH  13  17
ENDBRANCH  11  13
ENDBRANCH  10  11
ENDBRANCH   1  10
TORSDOF 0
ENDMDL
MODEL 2
REMARK VINA RESULT:    -3.833     11.689     13.814
REMARK INTER + INTRA:          -5.247
REMARK INTER:                  -5.164
REMARK INTRA:                  -0.083
REMARK UNBOUND:                 0.155
REMARK SMILES CC1=CCC(=C(C)C)C(=O)CC(C)=CCC1
REMARK SMILES IDX 12 1 14 2 13 3 15 4 16 5 2 6 1 7 3 8 11 10 9 11 10 12 5 13
REMARK SMILES IDX 6 14 7 15 8 16 4 17
REMARK H PARENT
REMARK Flexibility Score: 60.00
ROOT
ATOM      1  C   UNL     1      14.725  -2.859  61.696  1.00  0.00    -0.070 C 
ATOM      2  C   UNL     1      15.570  -3.428  62.603  1.00  0.00    -0.027 C 
ATOM      3  C   UNL     1      13.246  -3.056  61.932  1.00  0.00     0.039 C 
ENDROOT
BRANCH   2   4
ATOM      4  C   UNL     1      17.092  -3.491  62.666  1.00  0.00     0.032 C 
BRANCH   4   5
ATOM      5  C   UNL     1      17.836  -2.193  63.007  1.00  0.00     0.034 C 
BRANCH   5   6
ATOM      6  C   UNL     1      18.752  -1.579  61.939  1.00  0.00    -0.077 C 
ATOM      7  C   UNL     1      20.069  -2.295  61.724  1.00  0.00     0.039 C 
ATOM      8  C   UNL     1      18.583  -0.431  61.215  1.00  0.00    -0.023 CG0
ATOM      9  G   UNL     1      17.448   0.573  61.200  1.00  0.00     0.000 G0
ENDBRANCH   5   6
ENDBRANCH   4   5
ENDBRANCH   2   4
BRANCH   1  10
ATOM     10  C   UNL     1      15.117  -2.042  60.474  1.00  0.00     0.111 C 
BRANCH  10  11
ATOM     11  C   UNL     1      15.237  -0.583  60.795  1.00  0.00     0.163 C 
ATOM     12  O   UNL     1      14.360  -0.043  61.524  1.00  0.00    -0.294 OA
BRANCH  11  13
ATOM     13  C   UNL     1      16.346   0.230  60.233  1.00  0.00    -0.002 C 
ATOM     14  C   UNL     1      16.358   0.613  58.924  1.00  0.00    -0.069 C 
ATOM     15  C   UNL     1      17.535   1.347  58.323  1.00  0.00     0.039 C 
ATOM     16  C   UNL     1      15.181   0.331  58.017  1.00  0.00     0.039 C 
BRANCH  13  17
ATOM     17  C   UNL     1      17.460   0.587  61.195  1.00  0.00     0.066 CG0
ATOM     18  G   UNL     1      18.564  -0.450  61.196  1.00  0.00     0.000 G0
ENDBRANCH  13  17
ENDBRANCH  11  13
ENDBRANCH  10  11
ENDBRANCH   1  10
TORSDOF 0
ENDMDL
MODEL 3
REMARK VINA RESULT:    -3.833     10.774     12.990
REMARK INTER + INTRA:          -5.247
REMARK INTER:                  -5.254
REMARK INTRA:                   0.007
REMARK UNBOUND:                 0.155
REMARK SMILES CC1=CCC(=C(C)C)C(=O)CC(C)=CCC1
REMARK SMILES IDX 12 1 14 2 13 3 15 4 16 5 2 6 1 7 3 8 11 10 9 11 10 12 5 13
REMARK SMILES IDX 6 14 7 15 8 16 4 17
REMARK H PARENT
REMARK Flexibility Score: 60.00
ROOT
ATOM      1  C   UNL     1      15.002  -1.822  61.385  1.00  0.00    -0.070 C 
ATOM      2  C   UNL     1      14.607  -2.982  61.984  1.00  0.00    -0.027 C 
ATOM      3  C   UNL     1      14.054  -0.649  61.488  1.00  0.00     0.039 C 
ENDROOT
BRANCH   2   4
ATOM      4  C   UNL     1      15.256  -4.360  62.043  1.00  0.00     0.032 C 
BRANCH   4   5
ATOM      5  C   UNL     1      16.477  -4.524  62.956  1.00  0.00     0.034 C 
BRANCH   5   6
ATOM      6  C   UNL     1      17.854  -4.707  62.302  1.00  0.00    -0.077 C 
ATOM      7  C   UNL     1      18.145  -6.098  61.781  1.00  0.00     0.039 C 
ATOM      8  C   UNL     1      18.884  -3.814  62.199  1.00  0.00    -0.023 CG0
ATOM      9  G   UNL     1      18.996  -2.373  62.652  1.00  0.00     0.000 G0
ENDBRANCH   5   6
ENDBRANCH   4   5
ENDBRANCH   2   4
BRANCH   1  10
ATOM     10  C   UNL     1      16.301  -1.582  60.631  1.00  0.00     0.111 C 
BRANCH  10  11
ATOM     11  C   UNL     1      17.315  -0.875  61.476  1.00  0.00     0.163 C 
ATOM     12  O   UNL     1      16.973   0.170  62.095  1.00  0.00    -0.294 OA
BRANCH  11  13
ATOM     13  C   UNL     1      18.714  -1.369  61.558  1.00  0.00    -0.002 C 
ATOM     14  C   UNL     1      19.669  -0.954  60.677  1.00  0.00    -0.069 C 
ATOM     15  C   UNL     1      21.065  -1.535  60.690  1.00  0.00     0.039 C 
ATOM     16  C   UNL     1      19.375   0.120  59.655  1.00  0.00     0.039 C 
BRANCH  13  17
ATOM     17  C   UNL     1      19.002  -2.366  62.661  1.00  0.00     0.066 CG0
ATOM     18  G   UNL     1      18.860  -3.797  62.185  1.00  0.00     0.000 G0
ENDBRANCH  13  17
ENDBRANCH  11  13
ENDBRANCH  10  11
ENDBRANCH   1  10
TORSDOF 0
ENDMDL
MODEL 4
REMARK VINA RESULT:    -3.743     10.785     13.093
REMARK INTER + INTRA:          -5.119
REMARK INTER:                  -5.206
REMARK INTRA:                   0.087
REMARK UNBOUND:                 0.155
REMARK SMILES CC1=CCC(=C(C)C)C(=O)CC(C)=CCC1
REMARK SMILES IDX 12 1 14 2 13 3 15 4 16 5 2 6 1 7 3 8 11 10 9 11 10 12 5 13
REMARK SMILES IDX 6 14 7 15 8 16 4 17
REMARK H PARENT
REMARK Flexibility Score: 60.00
ROOT
ATOM      1  C   UNL     1      14.893  -1.214  61.030  1.00  0.00    -0.070 C 
ATOM      2  C   UNL     1      14.356  -0.052  60.558  1.00  0.00    -0.027 C 
ATOM      3  C   UNL     1      13.976  -2.109  61.831  1.00  0.00     0.039 C 
ENDROOT
BRANCH   2   4
ATOM      4  C   UNL     1      14.974   1.101  59.777  1.00  0.00     0.032 C 
BRANCH   4   5
ATOM      5  C   UNL     1      15.113   0.928  58.259  1.00  0.00     0.034 C 
BRANCH   5   6
ATOM      6  C   UNL     1      16.460   0.446  57.703  1.00  0.00    -0.077 C 
ATOM      7  C   UNL     1      16.406  -0.187  56.329  1.00  0.00     0.039 C 
ATOM      8  C   UNL     1      17.686   0.432  58.308  1.00  0.00    -0.023 CG0
ATOM      9  G   UNL     1      18.121   0.908  59.679  1.00  0.00     0.000 G0
ENDBRANCH   5   6
ENDBRANCH   4   5
ENDBRANCH   2   4
BRANCH   1  10
ATOM     10  C   UNL     1      16.318  -1.708  60.829  1.00  0.00     0.111 C 
BRANCH  10  11
ATOM     11  C   UNL     1      17.322  -0.773  61.429  1.00  0.00     0.163 C 
ATOM     12  O   UNL     1      17.177  -0.408  62.628  1.00  0.00    -0.294 OA
BRANCH  11  13
ATOM     13  C   UNL     1      18.451  -0.246  60.619  1.00  0.00    -0.002 C 
ATOM     14  C   UNL     1      19.710  -0.760  60.731  1.00  0.00    -0.069 C 
ATOM     15  C   UNL     1      20.881  -0.157  59.989  1.00  0.00     0.039 C 
ATOM     16  C   UNL     1      19.986  -1.970  61.595  1.00  0.00     0.039 C 
BRANCH  13  17
ATOM     17  C   UNL     1      18.120   0.897  59.683  1.00  0.00     0.066 CG0
ATOM     18  G   UNL     1      17.687   0.407  58.317  1.00  0.00     0.000 G0
ENDBRANCH  13  17
ENDBRANCH  11  13
ENDBRANCH  10  11
ENDBRANCH   1  10
TORSDOF 0
ENDMDL
MODEL 5
REMARK VINA RESULT:    -3.705      1.784      4.146
REMARK INTER + INTRA:          -5.066
REMARK INTER:                  -5.141
REMARK INTRA:                   0.074
REMARK UNBOUND:                 0.155
REMARK SMILES CC1=CCC(=C(C)C)C(=O)CC(C)=CCC1
REMARK SMILES IDX 12 1 14 2 13 3 15 4 16 5 2 6 1 7 3 8 11 10 9 11 10 12 5 13
REMARK SMILES IDX 6 14 7 15 8 16 4 17
REMARK H PARENT
REMARK Flexibility Score: 60.00
ROOT
ATOM      1  C   UNL     1      26.127  -2.513  52.514  1.00  0.00    -0.070 C 
ATOM      2  C   UNL     1      26.688  -3.538  51.809  1.00  0.00    -0.027 C 
ATOM      3  C   UNL     1      26.555  -1.115  52.134  1.00  0.00     0.039 C 
ENDROOT
BRANCH   2   4
ATOM      4  C   UNL     1      26.548  -5.050  51.939  1.00  0.00     0.032 C 
BRANCH   4   5
ATOM      5  C   UNL     1      27.751  -5.823  52.493  1.00  0.00     0.034 C 
BRANCH   5   6
ATOM      6  C   UNL     1      28.241  -5.488  53.909  1.00  0.00    -0.077 C 
ATOM      7  C   UNL     1      29.744  -5.470  54.088  1.00  0.00     0.039 C 
ATOM      8  C   UNL     1      27.511  -5.285  55.047  1.00  0.00    -0.023 CG0
ATOM      9  G   UNL     1      26.014  -5.287  55.279  1.00  0.00     0.000 G0
ENDBRANCH   5   6
ENDBRANCH   4   5
ENDBRANCH   2   4
BRANCH   1  10
ATOM     10  C   UNL     1      25.110  -2.632  53.638  1.00  0.00     0.111 C 
BRANCH  10  11
ATOM     11  C   UNL     1      25.770  -2.763  54.976  1.00  0.00     0.163 C 
ATOM     12  O   UNL     1      26.573  -1.866  55.353  1.00  0.00    -0.294 OA
BRANCH  11  13
ATOM     13  C   UNL     1      25.520  -3.950  55.834  1.00  0.00    -0.002 C 
ATOM     14  C   UNL     1      24.902  -3.838  57.045  1.00  0.00    -0.069 C 
ATOM     15  C   UNL     1      24.742  -5.025  57.967  1.00  0.00     0.039 C 
ATOM     16  C   UNL     1      24.333  -2.517  57.511  1.00  0.00     0.039 C 
BRANCH  13  17
ATOM     17  C   UNL     1      26.008  -5.277  55.291  1.00  0.00     0.066 CG0
ATOM     18  G   UNL     1      27.505  -5.277  55.050  1.00  0.00     0.000 G0
ENDBRANCH  13  17
ENDBRANCH  11  13
ENDBRANCH  10  11
ENDBRANCH   1  10
TORSDOF 0
ENDMDL
MODEL 6
REMARK VINA RESULT:    -3.702     10.723     12.662
REMARK INTER + INTRA:          -5.063
REMARK INTER:                  -5.291
REMARK INTRA:                   0.228
REMARK UNBOUND:                 0.155
REMARK SMILES CC1=CCC(=C(C)C)C(=O)CC(C)=CCC1
REMARK SMILES IDX 12 1 14 2 13 3 15 4 16 5 2 6 1 7 3 8 11 10 9 11 10 12 5 13
REMARK SMILES IDX 6 14 7 15 8 16 4 17
REMARK H PARENT
REMARK Flexibility Score: 60.00
ROOT
ATOM      1  C   UNL     1      15.742   0.063  59.056  1.00  0.00    -0.070 C 
ATOM      2  C   UNL     1      14.821  -0.265  60.008  1.00  0.00    -0.027 C 
ATOM      3  C   UNL     1      15.237   0.845  57.866  1.00  0.00     0.039 C 
ENDROOT
BRANCH   2   4
ATOM      4  C   UNL     1      14.941  -1.077  61.292  1.00  0.00     0.032 C 
BRANCH   4   5
ATOM      5  C   UNL     1      14.847  -2.604  61.171  1.00  0.00     0.034 C 
BRANCH   5   6
ATOM      6  C   UNL     1      16.143  -3.395  60.941  1.00  0.00    -0.077 C 
ATOM      7  C   UNL     1      15.969  -4.750  60.289  1.00  0.00     0.039 C 
ATOM      8  C   UNL     1      17.420  -3.085  61.318  1.00  0.00    -0.023 CG0
ATOM      9  G   UNL     1      17.975  -1.872  62.038  1.00  0.00     0.000 G0
ENDBRANCH   5   6
ENDBRANCH   4   5
ENDBRANCH   2   4
BRANCH   1  10
ATOM     10  C   UNL     1      17.225  -0.272  59.071  1.00  0.00     0.111 C 
BRANCH  10  11
ATOM     11  C   UNL     1      17.859   0.058  60.388  1.00  0.00     0.163 C 
ATOM     12  O   UNL     1      17.690   1.209  60.876  1.00  0.00    -0.294 OA
BRANCH  11  13
ATOM     13  C   UNL     1      18.707  -0.937  61.094  1.00  0.00    -0.002 C 
ATOM     14  C   UNL     1      20.054  -0.995  60.895  1.00  0.00    -0.069 C 
ATOM     15  C   UNL     1      20.904  -2.074  61.528  1.00  0.00     0.039 C 
ATOM     16  C   UNL     1      20.763   0.031  60.039  1.00  0.00     0.039 C 
BRANCH  13  17
ATOM     17  C   UNL     1      17.981  -1.884  62.027  1.00  0.00     0.066 CG0
ATOM     18  G   UNL     1      17.414  -3.082  61.292  1.00  0.00     0.000 G0
ENDBRANCH  13  17
ENDBRANCH  11  13
ENDBRANCH  10  11
ENDBRANCH   1  10
TORSDOF 0
ENDMDL
MODEL 7
REMARK VINA RESULT:    -3.673     11.288     13.089
REMARK INTER + INTRA:          -5.021
REMARK INTER:                  -5.215
REMARK INTRA:                   0.194
REMARK UNBOUND:                 0.155
REMARK SMILES CC1=CCC(=C(C)C)C(=O)CC(C)=CCC1
REMARK SMILES IDX 12 1 14 2 13 3 15 4 16 5 2 6 1 7 3 8 11 10 9 11 10 12 5 13
REMARK SMILES IDX 6 14 7 15 8 16 4 17
REMARK H PARENT
REMARK Flexibility Score: 60.00
ROOT
ATOM      1  C   UNL     1      15.711   0.216  59.159  1.00  0.00    -0.070 C 
ATOM      2  C   UNL     1      15.829   1.203  60.093  1.00  0.00    -0.027 C 
ATOM      3  C   UNL     1      14.858   0.526  57.951  1.00  0.00     0.039 C 
ENDROOT
BRANCH   2   4
ATOM      4  C   UNL     1      16.544   1.239  61.439  1.00  0.00     0.032 C 
BRANCH   4   5
ATOM      5  C   UNL     1      18.056   1.496  61.427  1.00  0.00     0.034 C 
BRANCH   5   6
ATOM      6  C   UNL     1      18.989   0.328  61.077  1.00  0.00    -0.077 C 
ATOM      7  C   UNL     1      20.176   0.685  60.209  1.00  0.00     0.039 C 
ATOM      8  C   UNL     1      18.852  -1.000  61.369  1.00  0.00    -0.023 CG0
ATOM      9  G   UNL     1      17.782  -1.740  62.146  1.00  0.00     0.000 G0
ENDBRANCH   5   6
ENDBRANCH   4   5
ENDBRANCH   2   4
BRANCH   1  10
ATOM     10  C   UNL     1      16.354  -1.161  59.202  1.00  0.00     0.111 C 
BRANCH  10  11
ATOM     11  C   UNL     1      15.933  -1.936  60.413  1.00  0.00     0.163 C 
ATOM     12  O   UNL     1      14.713  -1.955  60.732  1.00  0.00    -0.294 OA
BRANCH  11  13
ATOM     13  C   UNL     1      16.937  -2.638  61.254  1.00  0.00    -0.002 C 
ATOM     14  C   UNL     1      17.069  -3.995  61.223  1.00  0.00    -0.069 C 
ATOM     15  C   UNL     1      18.013  -4.721  62.154  1.00  0.00     0.039 C 
ATOM     16  C   UNL     1      16.283  -4.834  60.241  1.00  0.00     0.039 C 
BRANCH  13  17
ATOM     17  C   UNL     1      17.783  -1.759  62.150  1.00  0.00     0.066 CG0
ATOM     18  G   UNL     1      18.844  -1.006  61.372  1.00  0.00     0.000 G0
ENDBRANCH  13  17
ENDBRANCH  11  13
ENDBRANCH  10  11
ENDBRANCH   1  10
TORSDOF 0
ENDMDL
MODEL 8
REMARK VINA RESULT:    -3.588     12.127     13.725
REMARK INTER + INTRA:          -4.901
REMARK INTER:                  -4.956
REMARK INTRA:                   0.055
REMARK UNBOUND:                 0.155
REMARK SMILES CC1=CCC(=C(C)C)C(=O)CC(C)=CCC1
REMARK SMILES IDX 12 1 14 2 13 3 15 4 16 5 2 6 1 7 3 8 11 10 9 11 10 12 5 13
REMARK SMILES IDX 6 14 7 15 8 16 4 17
REMARK H PARENT
REMARK Flexibility Score: 60.00
ROOT
ATOM      1  C   UNL     1      16.015  -0.290  58.359  1.00  0.00    -0.070 C 
ATOM      2  C   UNL     1      15.383  -0.239  59.567  1.00  0.00    -0.027 C 
ATOM      3  C   UNL     1      16.881  -1.500  58.098  1.00  0.00     0.039 C 
ENDROOT
BRANCH   2   4
ATOM      4  C   UNL     1      14.491   0.825  60.197  1.00  0.00     0.032 C 
BRANCH   4   5
ATOM      5  C   UNL     1      15.107   1.698  61.297  1.00  0.00     0.034 C 
BRANCH   5   6
ATOM      6  C   UNL     1      16.453   2.381  61.014  1.00  0.00    -0.077 C 
ATOM      7  C   UNL     1      17.512   2.192  62.079  1.00  0.00     0.039 C 
ATOM      8  C   UNL     1      16.800   3.204  59.979  1.00  0.00    -0.023 CG0
ATOM      9  G   UNL     1      16.007   3.675  58.777  1.00  0.00     0.000 G0
ENDBRANCH   5   6
ENDBRANCH   4   5
ENDBRANCH   2   4
BRANCH   1  10
ATOM     10  C   UNL     1      15.933   0.741  57.244  1.00  0.00     0.111 C 
BRANCH  10  11
ATOM     11  C   UNL     1      16.998   1.786  57.372  1.00  0.00     0.163 C 
ATOM     12  O   UNL     1      18.205   1.425  57.437  1.00  0.00    -0.294 OA
BRANCH  11  13
ATOM     13  C   UNL     1      16.643   3.226  57.463  1.00  0.00    -0.002 C 
ATOM     14  C   UNL     1      16.890   4.088  56.435  1.00  0.00    -0.069 C 
ATOM     15  C   UNL     1      16.630   5.572  56.563  1.00  0.00     0.039 C 
ATOM     16  C   UNL     1      17.423   3.591  55.110  1.00  0.00     0.039 C 
BRANCH  13  17
ATOM     17  C   UNL     1      16.012   3.674  58.765  1.00  0.00     0.066 CG0
ATOM     18  G   UNL     1      16.802   3.203  59.970  1.00  0.00     0.000 G0
ENDBRANCH  13  17
ENDBRANCH  11  13
ENDBRANCH  10  11
ENDBRANCH   1  10
TORSDOF 0
ENDMDL
MODEL 9
REMARK VINA RESULT:    -3.567     11.381     13.245
REMARK INTER + INTRA:          -4.871
REMARK INTER:                  -4.940
REMARK INTRA:                   0.069
REMARK UNBOUND:                 0.155
REMARK SMILES CC1=CCC(=C(C)C)C(=O)CC(C)=CCC1
REMARK SMILES IDX 12 1 14 2 13 3 15 4 16 5 2 6 1 7 3 8 11 10 9 11 10 12 5 13
REMARK SMILES IDX 6 14 7 15 8 16 4 17
REMARK H PARENT
REMARK Flexibility Score: 60.00
ROOT
ATOM      1  C   UNL     1      15.070   1.153  61.315  1.00  0.00    -0.070 C 
ATOM      2  C   UNL     1      14.739  -0.087  61.778  1.00  0.00    -0.027 C 
ATOM      3  C   UNL     1      15.266   2.234  62.353  1.00  0.00     0.039 C 
ENDROOT
BRANCH   2   4
ATOM      4  C   UNL     1      14.415  -1.384  61.047  1.00  0.00     0.032 C 
BRANCH   4   5
ATOM      5  C   UNL     1      15.465  -2.502  61.097  1.00  0.00     0.034 C 
BRANCH   5   6
ATOM      6  C   UNL     1      16.925  -2.141  60.792  1.00  0.00    -0.077 C 
ATOM      7  C   UNL     1      17.909  -2.420  61.908  1.00  0.00     0.039 C 
ATOM      8  C   UNL     1      17.448  -1.528  59.687  1.00  0.00    -0.023 CG0
ATOM      9  G   UNL     1      16.785  -1.044  58.414  1.00  0.00     0.000 G0
ENDBRANCH   5   6
ENDBRANCH   4   5
ENDBRANCH   2   4
BRANCH   1  10
ATOM     10  C   UNL     1      15.270   1.561  59.863  1.00  0.00     0.111 C 
BRANCH  10  11
ATOM     11  C   UNL     1      16.666   1.290  59.395  1.00  0.00     0.163 C 
ATOM     12  O   UNL     1      17.631   1.820  60.013  1.00  0.00    -0.294 OA
BRANCH  11  13
ATOM     13  C   UNL     1      16.918   0.446  58.198  1.00  0.00    -0.002 C 
ATOM     14  C   UNL     1      17.230   0.997  56.990  1.00  0.00    -0.069 C 
ATOM     15  C   UNL     1      17.380   0.149  55.748  1.00  0.00     0.039 C 
ATOM     16  C   UNL     1      17.455   2.485  56.844  1.00  0.00     0.039 C 
BRANCH  13  17
ATOM     17  C   UNL     1      16.788  -1.049  58.402  1.00  0.00     0.066 CG0
ATOM     18  G   UNL     1      17.452  -1.508  59.684  1.00  0.00     0.000 G0
ENDBRANCH  13  17
ENDBRANCH  11  13
ENDBRANCH  10  11
ENDBRANCH   1  10
TORSDOF 0
ENDMDL
