MODEL 1
REMARK VINA RESULT:    -4.299      0.000      0.000
REMARK INTER + INTRA:          -5.963
REMARK INTER:                  -5.682
REMARK INTRA:                  -0.281
REMARK UNBOUND:                -0.281
REMARK SMILES C=C[C@@H](O)CCCCC
REMARK SMILES IDX 6 1 7 2 8 3 9 4 5 5 3 6 2 7 1 8 4 9
REMARK H PARENT 4 10
REMARK Flexibility Score: inf
ROOT
ATOM      1  C   UNL     1       3.690   2.011  18.895  1.00  0.00     0.003 C 
ENDROOT
BRANCH   1   2
ATOM      2  C   UNL     1       5.146   2.379  19.217  1.00  0.00    -0.000 C 
BRANCH   2   3
ATOM      3  C   UNL     1       5.952   2.750  17.964  1.00  0.00    -0.003 C 
ATOM      4  C   UNL     1       7.420   2.333  18.061  1.00  0.00     0.004 C 
ENDBRANCH   2   3
ENDBRANCH   1   2
BRANCH   1   5
ATOM      5  C   UNL     1       3.365   2.292  17.420  1.00  0.00     0.036 C 
BRANCH   5   6
ATOM      6  C   UNL     1       2.684   1.090  16.734  1.00  0.00     0.136 C 
BRANCH   6   7
ATOM      7  C   UNL     1       2.200   0.063  17.734  1.00  0.00    -0.004 C 
ATOM      8  C   UNL     1       1.510  -1.011  17.342  1.00  0.00     0.007 C 
ENDBRANCH   6   7
BRANCH   6   9
ATOM      9  O   UNL     1       1.611   1.531  15.940  1.00  0.00    -0.389 OA
ATOM     10  H   UNL     1       0.998   0.760  15.808  1.00  0.00     0.211 HD
ENDBRANCH   6   9
ENDBRANCH   5   6
ENDBRANCH   1   5
TORSDOF 6
ENDMDL
MODEL 2
REMARK VINA RESULT:    -3.898      1.517      2.210
REMARK INTER + INTRA:          -5.433
REMARK INTER:                  -5.126
REMARK INTRA:                  -0.306
REMARK UNBOUND:                -0.281
REMARK SMILES C=C[C@@H](O)CCCCC
REMARK SMILES IDX 6 1 7 2 8 3 9 4 5 5 3 6 2 7 1 8 4 9
REMARK H PARENT 4 10
REMARK Flexibility Score: inf
ROOT
ATOM      1  C   UNL     1       2.602   1.958  16.842  1.00  0.00     0.003 C 
ENDROOT
BRANCH   1   2
ATOM      2  C   UNL     1       3.142   1.635  18.243  1.00  0.00    -0.000 C 
BRANCH   2   3
ATOM      3  C   UNL     1       4.243   2.608  18.691  1.00  0.00    -0.003 C 
ATOM      4  C   UNL     1       5.334   2.793  17.635  1.00  0.00     0.004 C 
ENDBRANCH   2   3
ENDBRANCH   1   2
BRANCH   1   5
ATOM      5  C   UNL     1       1.885   0.742  16.236  1.00  0.00     0.036 C 
BRANCH   5   6
ATOM      6  C   UNL     1       2.368  -0.587  16.854  1.00  0.00     0.136 C 
BRANCH   6   7
ATOM      7  C   UNL     1       1.236  -1.363  17.489  1.00  0.00    -0.004 C 
ATOM      8  C   UNL     1       1.093  -1.414  18.816  1.00  0.00     0.007 C 
ENDBRANCH   6   7
BRANCH   6   9
ATOM      9  O   UNL     1       3.002  -1.372  15.875  1.00  0.00    -0.389 OA
ATOM     10  H   UNL     1       2.405  -1.401  15.081  1.00  0.00     0.211 HD
ENDBRANCH   6   9
ENDBRANCH   5   6
ENDBRANCH   1   5
TORSDOF 6
ENDMDL
MODEL 3
REMARK VINA RESULT:    -3.715     18.837     19.838
REMARK INTER + INTRA:          -5.191
REMARK INTER:                  -4.961
REMARK INTRA:                  -0.229
REMARK UNBOUND:                -0.281
REMARK SMILES C=C[C@@H](O)CCCCC
REMARK SMILES IDX 6 1 7 2 8 3 9 4 5 5 3 6 2 7 1 8 4 9
REMARK H PARENT 4 10
REMARK Flexibility Score: inf
ROOT
ATOM      1  C   UNL     1      10.119  -9.338  34.273  1.00  0.00     0.003 C 
ENDROOT
BRANCH   1   2
ATOM      2  C   UNL     1       9.259 -10.452  33.658  1.00  0.00    -0.000 C 
BRANCH   2   3
ATOM      3  C   UNL     1      10.104 -11.578  33.043  1.00  0.00    -0.003 C 
ATOM      4  C   UNL     1       9.689 -11.912  31.609  1.00  0.00     0.004 C 
ENDBRANCH   2   3
ENDBRANCH   1   2
BRANCH   1   5
ATOM      5  C   UNL     1      11.064  -8.731  33.225  1.00  0.00     0.036 C 
BRANCH   5   6
ATOM      6  C   UNL     1      10.441  -7.510  32.516  1.00  0.00     0.136 C 
BRANCH   6   7
ATOM      7  C   UNL     1      11.222  -6.241  32.776  1.00  0.00    -0.004 C 
ATOM      8  C   UNL     1      10.607  -5.116  33.148  1.00  0.00     0.007 C 
ENDBRANCH   6   7
BRANCH   6   9
ATOM      9  O   UNL     1      10.352  -7.748  31.133  1.00  0.00    -0.389 OA
ATOM     10  H   UNL     1      11.024  -7.167  30.686  1.00  0.00     0.211 HD
ENDBRANCH   6   9
ENDBRANCH   5   6
ENDBRANCH   1   5
TORSDOF 6
ENDMDL
MODEL 4
REMARK VINA RESULT:    -3.657     19.295     19.874
REMARK INTER + INTRA:          -5.115
REMARK INTER:                  -4.766
REMARK INTRA:                  -0.349
REMARK UNBOUND:                -0.281
REMARK SMILES C=C[C@@H](O)CCCCC
REMARK SMILES IDX 6 1 7 2 8 3 9 4 5 5 3 6 2 7 1 8 4 9
REMARK H PARENT 4 10
REMARK Flexibility Score: inf
ROOT
ATOM      1  C   UNL     1       9.660 -10.292  34.133  1.00  0.00     0.003 C 
ENDROOT
BRANCH   1   2
ATOM      2  C   UNL     1      10.374  -8.933  34.216  1.00  0.00    -0.000 C 
BRANCH   2   3
ATOM      3  C   UNL     1      10.646  -8.324  32.832  1.00  0.00    -0.003 C 
ATOM      4  C   UNL     1      10.871  -6.813  32.886  1.00  0.00     0.004 C 
ENDBRANCH   2   3
ENDBRANCH   1   2
BRANCH   1   5
ATOM      5  C   UNL     1      10.235 -11.145  32.992  1.00  0.00     0.036 C 
BRANCH   5   6
ATOM      6  C   UNL     1       9.152 -11.566  31.977  1.00  0.00     0.136 C 
BRANCH   6   7
ATOM      7  C   UNL     1       7.805 -10.958  32.298  1.00  0.00    -0.004 C 
ATOM      8  C   UNL     1       6.686 -11.684  32.230  1.00  0.00     0.007 C 
ENDBRANCH   6   7
BRANCH   6   9
ATOM      9  O   UNL     1       9.545 -11.209  30.676  1.00  0.00    -0.389 OA
ATOM     10  H   UNL     1      10.427 -10.754  30.743  1.00  0.00     0.211 HD
ENDBRANCH   6   9
ENDBRANCH   5   6
ENDBRANCH   1   5
TORSDOF 6
ENDMDL
MODEL 5
REMARK VINA RESULT:    -3.549     18.973     19.926
REMARK INTER + INTRA:          -4.971
REMARK INTER:                  -4.543
REMARK INTRA:                  -0.428
REMARK UNBOUND:                -0.281
REMARK SMILES C=C[C@@H](O)CCCCC
REMARK SMILES IDX 6 1 7 2 8 3 9 4 5 5 3 6 2 7 1 8 4 9
REMARK H PARENT 4 10
REMARK Flexibility Score: inf
ROOT
ATOM      1  C   UNL     1      10.515 -10.247  33.175  1.00  0.00     0.003 C 
ENDROOT
BRANCH   1   2
ATOM      2  C   UNL     1       9.567 -11.234  33.875  1.00  0.00    -0.000 C 
BRANCH   2   3
ATOM      3  C   UNL     1       8.420 -10.528  34.613  1.00  0.00    -0.003 C 
ATOM      4  C   UNL     1       8.907  -9.400  35.523  1.00  0.00     0.004 C 
ENDBRANCH   2   3
ENDBRANCH   1   2
BRANCH   1   5
ATOM      5  C   UNL     1       9.923  -9.770  31.840  1.00  0.00     0.036 C 
BRANCH   5   6
ATOM      6  C   UNL     1       9.878  -8.231  31.740  1.00  0.00     0.136 C 
BRANCH   6   7
ATOM      7  C   UNL     1      10.685  -7.566  32.832  1.00  0.00    -0.004 C 
ATOM      8  C   UNL     1      10.961  -6.260  32.788  1.00  0.00     0.007 C 
ENDBRANCH   6   7
BRANCH   6   9
ATOM      9  O   UNL     1      10.339  -7.816  30.478  1.00  0.00    -0.389 OA
ATOM     10  H   UNL     1       9.593  -7.937  29.832  1.00  0.00     0.211 HD
ENDBRANCH   6   9
ENDBRANCH   5   6
ENDBRANCH   1   5
TORSDOF 6
ENDMDL
MODEL 6
REMARK VINA RESULT:    -3.546     18.300     19.004
REMARK INTER + INTRA:          -4.968
REMARK INTER:                  -4.647
REMARK INTRA:                  -0.321
REMARK UNBOUND:                -0.281
REMARK SMILES C=C[C@@H](O)CCCCC
REMARK SMILES IDX 6 1 7 2 8 3 9 4 5 5 3 6 2 7 1 8 4 9
REMARK H PARENT 4 10
REMARK Flexibility Score: inf
ROOT
ATOM      1  C   UNL     1       9.105 -11.054  31.815  1.00  0.00     0.003 C 
ENDROOT
BRANCH   1   2
ATOM      2  C   UNL     1      10.092 -11.067  32.992  1.00  0.00    -0.000 C 
BRANCH   2   3
ATOM      3  C   UNL     1       9.619 -10.201  34.169  1.00  0.00    -0.003 C 
ATOM      4  C   UNL     1      10.615  -9.097  34.528  1.00  0.00     0.004 C 
ENDBRANCH   2   3
ENDBRANCH   1   2
BRANCH   1   5
ATOM      5  C   UNL     1       8.767  -9.614  31.398  1.00  0.00     0.036 C 
BRANCH   5   6
ATOM      6  C   UNL     1       9.912  -8.954  30.602  1.00  0.00     0.136 C 
BRANCH   6   7
ATOM      7  C   UNL     1       9.610  -8.885  29.122  1.00  0.00    -0.004 C 
ATOM      8  C   UNL     1      10.462  -9.380  28.220  1.00  0.00     0.007 C 
ENDBRANCH   6   7
BRANCH   6   9
ATOM      9  O   UNL     1      10.167  -7.666  31.103  1.00  0.00    -0.389 OA
ATOM     10  H   UNL     1      10.275  -7.743  32.088  1.00  0.00     0.211 HD
ENDBRANCH   6   9
ENDBRANCH   5   6
ENDBRANCH   1   5
TORSDOF 6
ENDMDL
MODEL 7
REMARK VINA RESULT:    -3.509     17.667     18.361
REMARK INTER + INTRA:          -4.919
REMARK INTER:                  -4.613
REMARK INTRA:                  -0.305
REMARK UNBOUND:                -0.281
REMARK SMILES C=C[C@@H](O)CCCCC
REMARK SMILES IDX 6 1 7 2 8 3 9 4 5 5 3 6 2 7 1 8 4 9
REMARK H PARENT 4 10
REMARK Flexibility Score: inf
ROOT
ATOM      1  C   UNL     1       9.095  -9.595  31.720  1.00  0.00     0.003 C 
ENDROOT
BRANCH   1   2
ATOM      2  C   UNL     1      10.014 -10.103  32.841  1.00  0.00    -0.000 C 
BRANCH   2   3
ATOM      3  C   UNL     1      10.221 -11.624  32.792  1.00  0.00    -0.003 C 
ATOM      4  C   UNL     1       9.981 -12.209  31.400  1.00  0.00     0.004 C 
ENDBRANCH   2   3
ENDBRANCH   1   2
BRANCH   1   5
ATOM      5  C   UNL     1       9.790  -8.504  30.893  1.00  0.00     0.036 C 
BRANCH   5   6
ATOM      6  C   UNL     1       9.425  -8.586  29.396  1.00  0.00     0.136 C 
BRANCH   6   7
ATOM      7  C   UNL     1      10.332  -9.531  28.640  1.00  0.00    -0.004 C 
ATOM      8  C   UNL     1      10.764  -9.239  27.411  1.00  0.00     0.007 C 
ENDBRANCH   6   7
BRANCH   6   9
ATOM      9  O   UNL     1       8.084  -8.981  29.247  1.00  0.00    -0.389 OA
ATOM     10  H   UNL     1       7.513  -8.231  29.561  1.00  0.00     0.211 HD
ENDBRANCH   6   9
ENDBRANCH   5   6
ENDBRANCH   1   5
TORSDOF 6
ENDMDL
MODEL 8
REMARK VINA RESULT:    -3.455     14.233     15.093
REMARK INTER + INTRA:          -4.847
REMARK INTER:                  -4.377
REMARK INTRA:                  -0.470
REMARK UNBOUND:                -0.281
REMARK SMILES C=C[C@@H](O)CCCCC
REMARK SMILES IDX 6 1 7 2 8 3 9 4 5 5 3 6 2 7 1 8 4 9
REMARK H PARENT 4 10
REMARK Flexibility Score: inf
ROOT
ATOM      1  C   UNL     1      10.347  -9.509  27.890  1.00  0.00     0.003 C 
ENDROOT
BRANCH   1   2
ATOM      2  C   UNL     1       9.940  -8.484  28.959  1.00  0.00    -0.000 C 
BRANCH   2   3
ATOM      3  C   UNL     1       8.436  -8.517  29.268  1.00  0.00    -0.003 C 
ATOM      4  C   UNL     1       7.610  -7.699  28.275  1.00  0.00     0.004 C 
ENDBRANCH   2   3
ENDBRANCH   1   2
BRANCH   1   5
ATOM      5  C   UNL     1      11.201  -8.852  26.795  1.00  0.00     0.036 C 
BRANCH   5   6
ATOM      6  C   UNL     1      10.346  -8.045  25.796  1.00  0.00     0.136 C 
BRANCH   6   7
ATOM      7  C   UNL     1      10.610  -6.559  25.891  1.00  0.00    -0.004 C 
ATOM      8  C   UNL     1       9.631  -5.670  25.704  1.00  0.00     0.007 C 
ENDBRANCH   6   7
BRANCH   6   9
ATOM      9  O   UNL     1      10.584  -8.494  24.485  1.00  0.00    -0.389 OA
ATOM     10  H   UNL     1      11.359  -9.115  24.517  1.00  0.00     0.211 HD
ENDBRANCH   6   9
ENDBRANCH   5   6
ENDBRANCH   1   5
TORSDOF 6
ENDMDL
MODEL 9
REMARK VINA RESULT:    -3.405     14.566     15.222
REMARK INTER + INTRA:          -4.782
REMARK INTER:                  -4.246
REMARK INTRA:                  -0.536
REMARK UNBOUND:                -0.281
REMARK SMILES C=C[C@@H](O)CCCCC
REMARK SMILES IDX 6 1 7 2 8 3 9 4 5 5 3 6 2 7 1 8 4 9
REMARK H PARENT 4 10
REMARK Flexibility Score: inf
ROOT
ATOM      1  C   UNL     1      10.710  -8.937  26.641  1.00  0.00     0.003 C 
ENDROOT
BRANCH   1   2
ATOM      2  C   UNL     1      10.753  -7.411  26.475  1.00  0.00    -0.000 C 
BRANCH   2   3
ATOM      3  C   UNL     1       9.877  -6.918  25.313  1.00  0.00    -0.003 C 
ATOM      4  C   UNL     1       8.738  -6.009  25.777  1.00  0.00     0.004 C 
ENDBRANCH   2   3
ENDBRANCH   1   2
BRANCH   1   5
ATOM      5  C   UNL     1      10.362  -9.323  28.087  1.00  0.00     0.036 C 
BRANCH   5   6
ATOM      6  C   UNL     1       9.604  -8.199  28.823  1.00  0.00     0.136 C 
BRANCH   6   7
ATOM      7  C   UNL     1       8.159  -8.563  29.083  1.00  0.00    -0.004 C 
ATOM      8  C   UNL     1       7.163  -7.889  28.502  1.00  0.00     0.007 C 
ENDBRANCH   6   7
BRANCH   6   9
ATOM      9  O   UNL     1      10.250  -7.894  30.034  1.00  0.00    -0.389 OA
ATOM     10  H   UNL     1      10.927  -7.191  29.845  1.00  0.00     0.211 HD
ENDBRANCH   6   9
ENDBRANCH   5   6
ENDBRANCH   1   5
TORSDOF 6
ENDMDL
