MODEL 1
REMARK VINA RESULT:    -4.592      0.000      0.000
REMARK INTER + INTRA:          -9.669
REMARK INTER:                  -8.350
REMARK INTRA:                  -1.319
REMARK UNBOUND:                -1.319
REMARK SMILES CCCCCCCCCCCCCC[C@@H](C)C(=O)[O-]
REMARK SMILES IDX 9 1 10 2 11 3 12 4 13 5 14 6 15 7 16 8 17 9 18 10 19 11 8 12
REMARK SMILES IDX 7 13 6 14 5 15 4 16 3 17 2 18 1 19
REMARK H PARENT
REMARK Flexibility Score: inf
ROOT
ATOM      1  C   UNL     1      14.881  22.997 -12.550  1.00  0.00     0.000 C 
ENDROOT
BRANCH   1   2
ATOM      2  C   UNL     1      14.768  21.633 -11.842  1.00  0.00     0.000 C 
BRANCH   2   3
ATOM      3  C   UNL     1      15.923  20.679 -12.189  1.00  0.00     0.000 C 
BRANCH   3   4
ATOM      4  C   UNL     1      17.073  21.374 -12.939  1.00  0.00     0.000 C 
BRANCH   4   5
ATOM      5  C   UNL     1      18.124  20.429 -13.549  1.00  0.00     0.001 C 
BRANCH   5   6
ATOM      6  C   UNL     1      17.724  18.945 -13.463  1.00  0.00     0.009 C 
BRANCH   6   7
ATOM      7  C   UNL     1      18.923  18.040 -13.114  1.00  0.00     0.032 C 
ATOM      8  C   UNL     1      20.222  18.627 -13.675  1.00  0.00     0.014 C 
BRANCH   7   9
ATOM      9  C   UNL     1      19.051  17.852 -11.626  1.00  0.00     0.044 C 
ATOM     10  O   UNL     1      19.912  17.061 -11.161  1.00  0.00    -0.550 OA
ATOM     11  O   UNL     1      18.223  18.553 -10.756  1.00  0.00    -0.550 OA
ENDBRANCH   7   9
ENDBRANCH   6   7
ENDBRANCH   5   6
ENDBRANCH   4   5
ENDBRANCH   3   4
ENDBRANCH   2   3
ENDBRANCH   1   2
BRANCH   1  12
ATOM     12  C   UNL     1      13.634  23.433 -13.341  1.00  0.00     0.000 C 
BRANCH  12  13
ATOM     13  C   UNL     1      12.417  22.521 -13.097  1.00  0.00    -0.000 C 
BRANCH  13  14
ATOM     14  C   UNL     1      11.425  23.121 -12.077  1.00  0.00    -0.000 C 
BRANCH  14  15
ATOM     15  C   UNL     1      11.435  24.661 -12.031  1.00  0.00    -0.000 C 
BRANCH  15  16
ATOM     16  C   UNL     1      11.328  25.273 -10.621  1.00  0.00    -0.000 C 
BRANCH  16  17
ATOM     17  C   UNL     1      12.383  26.348 -10.299  1.00  0.00    -0.000 C 
BRANCH  17  18
ATOM     18  C   UNL     1      13.822  25.832 -10.437  1.00  0.00    -0.003 C 
ATOM     19  C   UNL     1      14.628  26.105  -9.170  1.00  0.00     0.004 C 
ENDBRANCH  17  18
ENDBRANCH  16  17
ENDBRANCH  15  16
ENDBRANCH  14  15
ENDBRANCH  13  14
ENDBRANCH  12  13
ENDBRANCH   1  12
TORSDOF 14
ENDMDL
MODEL 2
REMARK VINA RESULT:    -4.559      1.821      2.880
REMARK INTER + INTRA:          -9.609
REMARK INTER:                  -8.635
REMARK INTRA:                  -0.974
REMARK UNBOUND:                -1.319
REMARK SMILES CCCCCCCCCCCCCC[C@@H](C)C(=O)[O-]
REMARK SMILES IDX 9 1 10 2 11 3 12 4 13 5 14 6 15 7 16 8 17 9 18 10 19 11 8 12
REMARK SMILES IDX 7 13 6 14 5 15 4 16 3 17 2 18 1 19
REMARK H PARENT
REMARK Flexibility Score: inf
ROOT
ATOM      1  C   UNL     1      15.263  21.246 -11.918  1.00  0.00     0.000 C 
ENDROOT
BRANCH   1   2
ATOM      2  C   UNL     1      16.217  20.083 -12.252  1.00  0.00     0.000 C 
BRANCH   2   3
ATOM      3  C   UNL     1      17.363  20.497 -13.190  1.00  0.00     0.000 C 
BRANCH   3   4
ATOM      4  C   UNL     1      18.099  19.294 -13.808  1.00  0.00     0.000 C 
BRANCH   4   5
ATOM      5  C   UNL     1      19.636  19.389 -13.797  1.00  0.00     0.001 C 
BRANCH   5   6
ATOM      6  C   UNL     1      20.311  18.163 -13.158  1.00  0.00     0.009 C 
BRANCH   6   7
ATOM      7  C   UNL     1      19.350  17.388 -12.233  1.00  0.00     0.032 C 
ATOM      8  C   UNL     1      19.600  15.880 -12.340  1.00  0.00     0.014 C 
BRANCH   7   9
ATOM      9  C   UNL     1      19.498  17.828 -10.801  1.00  0.00     0.044 C 
ATOM     10  O   UNL     1      20.329  17.256 -10.047  1.00  0.00    -0.550 OA
ATOM     11  O   UNL     1      18.724  18.869 -10.302  1.00  0.00    -0.550 OA
ENDBRANCH   7   9
ENDBRANCH   6   7
ENDBRANCH   5   6
ENDBRANCH   4   5
ENDBRANCH   3   4
ENDBRANCH   2   3
ENDBRANCH   1   2
BRANCH   1  12
ATOM     12  C   UNL     1      15.523  22.552 -12.689  1.00  0.00     0.000 C 
BRANCH  12  13
ATOM     13  C   UNL     1      14.228  23.269 -13.115  1.00  0.00    -0.000 C 
BRANCH  13  14
ATOM     14  C   UNL     1      12.965  22.430 -12.822  1.00  0.00    -0.000 C 
BRANCH  14  15
ATOM     15  C   UNL     1      11.784  22.734 -13.764  1.00  0.00    -0.000 C 
BRANCH  15  16
ATOM     16  C   UNL     1      10.475  23.141 -13.061  1.00  0.00    -0.000 C 
BRANCH  16  17
ATOM     17  C   UNL     1      10.638  24.184 -11.939  1.00  0.00    -0.000 C 
BRANCH  17  18
ATOM     18  C   UNL     1       9.389  24.309 -11.056  1.00  0.00    -0.003 C 
ATOM     19  C   UNL     1       8.129  24.465 -11.903  1.00  0.00     0.004 C 
ENDBRANCH  17  18
ENDBRANCH  16  17
ENDBRANCH  15  16
ENDBRANCH  14  15
ENDBRANCH  13  14
ENDBRANCH  12  13
ENDBRANCH   1  12
TORSDOF 14
ENDMDL
MODEL 3
REMARK VINA RESULT:    -4.557      3.181      8.600
REMARK INTER + INTRA:          -9.605
REMARK INTER:                  -8.375
REMARK INTRA:                  -1.229
REMARK UNBOUND:                -1.319
REMARK SMILES CCCCCCCCCCCCCC[C@@H](C)C(=O)[O-]
REMARK SMILES IDX 9 1 10 2 11 3 12 4 13 5 14 6 15 7 16 8 17 9 18 10 19 11 8 12
REMARK SMILES IDX 7 13 6 14 5 15 4 16 3 17 2 18 1 19
REMARK H PARENT
REMARK Flexibility Score: inf
ROOT
ATOM      1  C   UNL     1      16.231  20.467 -12.138  1.00  0.00     0.000 C 
ENDROOT
BRANCH   1   2
ATOM      2  C   UNL     1      14.984  21.332 -11.874  1.00  0.00     0.000 C 
BRANCH   2   3
ATOM      3  C   UNL     1      15.103  22.751 -12.453  1.00  0.00     0.000 C 
BRANCH   3   4
ATOM      4  C   UNL     1      13.902  23.147 -13.331  1.00  0.00     0.000 C 
BRANCH   4   5
ATOM      5  C   UNL     1      12.582  22.424 -13.002  1.00  0.00     0.001 C 
BRANCH   5   6
ATOM      6  C   UNL     1      11.702  23.201 -12.007  1.00  0.00     0.009 C 
BRANCH   6   7
ATOM      7  C   UNL     1      11.858  24.728 -12.163  1.00  0.00     0.032 C 
ATOM      8  C   UNL     1      10.558  25.352 -12.679  1.00  0.00     0.014 C 
BRANCH   7   9
ATOM      9  C   UNL     1      12.249  25.372 -10.860  1.00  0.00     0.044 C 
ATOM     10  O   UNL     1      11.423  26.091 -10.238  1.00  0.00    -0.550 OA
ATOM     11  O   UNL     1      13.520  25.176 -10.332  1.00  0.00    -0.550 OA
ENDBRANCH   7   9
ENDBRANCH   6   7
ENDBRANCH   5   6
ENDBRANCH   4   5
ENDBRANCH   3   4
ENDBRANCH   2   3
ENDBRANCH   1   2
BRANCH   1  12
ATOM     12  C   UNL     1      17.265  21.081 -13.098  1.00  0.00     0.000 C 
BRANCH  12  13
ATOM     13  C   UNL     1      18.001  20.027 -13.946  1.00  0.00    -0.000 C 
BRANCH  13  14
ATOM     14  C   UNL     1      19.393  19.676 -13.375  1.00  0.00    -0.000 C 
BRANCH  14  15
ATOM     15  C   UNL     1      19.540  18.200 -12.958  1.00  0.00    -0.000 C 
BRANCH  15  16
ATOM     16  C   UNL     1      18.892  17.835 -11.609  1.00  0.00    -0.000 C 
BRANCH  16  17
ATOM     17  C   UNL     1      19.628  18.374 -10.368  1.00  0.00    -0.000 C 
BRANCH  17  18
ATOM     18  C   UNL     1      21.023  17.759 -10.187  1.00  0.00    -0.003 C 
ATOM     19  C   UNL     1      20.958  16.234 -10.205  1.00  0.00     0.004 C 
ENDBRANCH  17  18
ENDBRANCH  16  17
ENDBRANCH  15  16
ENDBRANCH  14  15
ENDBRANCH  13  14
ENDBRANCH  12  13
ENDBRANCH   1  12
TORSDOF 14
ENDMDL
MODEL 4
REMARK VINA RESULT:    -4.541     11.318     13.909
REMARK INTER + INTRA:          -9.576
REMARK INTER:                  -7.341
REMARK INTRA:                  -2.235
REMARK UNBOUND:                -1.319
REMARK SMILES CCCCCCCCCCCCCC[C@@H](C)C(=O)[O-]
REMARK SMILES IDX 9 1 10 2 11 3 12 4 13 5 14 6 15 7 16 8 17 9 18 10 19 11 8 12
REMARK SMILES IDX 7 13 6 14 5 15 4 16 3 17 2 18 1 19
REMARK H PARENT
REMARK Flexibility Score: inf
ROOT
ATOM      1  C   UNL     1       7.892  14.995 -10.478  1.00  0.00     0.000 C 
ENDROOT
BRANCH   1   2
ATOM      2  C   UNL     1       6.639  14.437 -11.180  1.00  0.00     0.000 C 
BRANCH   2   3
ATOM      3  C   UNL     1       5.327  14.916 -10.538  1.00  0.00     0.000 C 
BRANCH   3   4
ATOM      4  C   UNL     1       4.690  13.864  -9.612  1.00  0.00     0.000 C 
BRANCH   4   5
ATOM      5  C   UNL     1       4.338  14.361  -8.198  1.00  0.00     0.001 C 
BRANCH   5   6
ATOM      6  C   UNL     1       5.524  15.028  -7.480  1.00  0.00     0.009 C 
BRANCH   6   7
ATOM      7  C   UNL     1       5.248  16.511  -7.157  1.00  0.00     0.032 C 
ATOM      8  C   UNL     1       4.100  16.637  -6.150  1.00  0.00     0.014 C 
BRANCH   7   9
ATOM      9  C   UNL     1       6.477  17.189  -6.614  1.00  0.00     0.044 C 
ATOM     10  O   UNL     1       7.605  16.957  -7.124  1.00  0.00    -0.550 OA
ATOM     11  O   UNL     1       6.377  18.079  -5.550  1.00  0.00    -0.550 OA
ENDBRANCH   7   9
ENDBRANCH   6   7
ENDBRANCH   5   6
ENDBRANCH   4   5
ENDBRANCH   3   4
ENDBRANCH   2   3
ENDBRANCH   1   2
BRANCH   1  12
ATOM     12  C   UNL     1       8.566  14.038  -9.478  1.00  0.00     0.000 C 
BRANCH  12  13
ATOM     13  C   UNL     1       8.500  12.563  -9.918  1.00  0.00    -0.000 C 
BRANCH  13  14
ATOM     14  C   UNL     1       7.627  11.705  -8.977  1.00  0.00    -0.000 C 
BRANCH  14  15
ATOM     15  C   UNL     1       7.765  12.077  -7.488  1.00  0.00    -0.000 C 
BRANCH  15  16
ATOM     16  C   UNL     1       8.302  10.955  -6.580  1.00  0.00    -0.000 C 
BRANCH  16  17
ATOM     17  C   UNL     1       9.779  11.103  -6.169  1.00  0.00    -0.000 C 
BRANCH  17  18
ATOM     18  C   UNL     1      10.752  10.665  -7.271  1.00  0.00    -0.003 C 
ATOM     19  C   UNL     1      11.584  11.843  -7.771  1.00  0.00     0.004 C 
ENDBRANCH  17  18
ENDBRANCH  16  17
ENDBRANCH  15  16
ENDBRANCH  14  15
ENDBRANCH  13  14
ENDBRANCH  12  13
ENDBRANCH   1  12
TORSDOF 14
ENDMDL
MODEL 5
REMARK VINA RESULT:    -4.416      3.375      8.591
REMARK INTER + INTRA:          -9.349
REMARK INTER:                  -8.196
REMARK INTRA:                  -1.153
REMARK UNBOUND:                -1.319
REMARK SMILES CCCCCCCCCCCCCC[C@@H](C)C(=O)[O-]
REMARK SMILES IDX 9 1 10 2 11 3 12 4 13 5 14 6 15 7 16 8 17 9 18 10 19 11 8 12
REMARK SMILES IDX 7 13 6 14 5 15 4 16 3 17 2 18 1 19
REMARK H PARENT
REMARK Flexibility Score: inf
ROOT
ATOM      1  C   UNL     1      18.000  20.620 -13.386  1.00  0.00     0.000 C 
ENDROOT
BRANCH   1   2
ATOM      2  C   UNL     1      16.944  20.092 -12.396  1.00  0.00     0.000 C 
BRANCH   2   3
ATOM      3  C   UNL     1      15.734  21.030 -12.251  1.00  0.00     0.000 C 
BRANCH   3   4
ATOM      4  C   UNL     1      16.054  22.487 -12.630  1.00  0.00     0.000 C 
BRANCH   4   5
ATOM      5  C   UNL     1      15.132  23.106 -13.698  1.00  0.00     0.001 C 
BRANCH   5   6
ATOM      6  C   UNL     1      14.443  24.397 -13.224  1.00  0.00     0.009 C 
BRANCH   6   7
ATOM      7  C   UNL     1      12.906  24.261 -13.203  1.00  0.00     0.032 C 
ATOM      8  C   UNL     1      12.453  23.123 -14.123  1.00  0.00     0.014 C 
BRANCH   7   9
ATOM      9  C   UNL     1      12.399  24.018 -11.807  1.00  0.00     0.044 C 
ATOM     10  O   UNL     1      11.713  22.993 -11.552  1.00  0.00    -0.550 OA
ATOM     11  O   UNL     1      12.687  24.920 -10.788  1.00  0.00    -0.550 OA
ENDBRANCH   7   9
ENDBRANCH   6   7
ENDBRANCH   5   6
ENDBRANCH   4   5
ENDBRANCH   3   4
ENDBRANCH   2   3
ENDBRANCH   1   2
BRANCH   1  12
ATOM     12  C   UNL     1      19.033  19.582 -13.859  1.00  0.00     0.000 C 
BRANCH  12  13
ATOM     13  C   UNL     1      18.524  18.133 -13.752  1.00  0.00    -0.000 C 
BRANCH  13  14
ATOM     14  C   UNL     1      19.640  17.143 -13.352  1.00  0.00    -0.000 C 
BRANCH  14  15
ATOM     15  C   UNL     1      19.511  16.609 -11.913  1.00  0.00    -0.000 C 
BRANCH  15  16
ATOM     16  C   UNL     1      19.493  17.688 -10.814  1.00  0.00    -0.000 C 
BRANCH  16  17
ATOM     17  C   UNL     1      20.836  17.900 -10.090  1.00  0.00    -0.000 C 
BRANCH  17  18
ATOM     18  C   UNL     1      21.822  16.745 -10.313  1.00  0.00    -0.003 C 
ATOM     19  C   UNL     1      22.015  15.932  -9.036  1.00  0.00     0.004 C 
ENDBRANCH  17  18
ENDBRANCH  16  17
ENDBRANCH  15  16
ENDBRANCH  14  15
ENDBRANCH  13  14
ENDBRANCH  12  13
ENDBRANCH   1  12
TORSDOF 14
ENDMDL
MODEL 6
REMARK VINA RESULT:    -4.334      3.304      8.273
REMARK INTER + INTRA:          -9.199
REMARK INTER:                  -7.694
REMARK INTRA:                  -1.506
REMARK UNBOUND:                -1.319
REMARK SMILES CCCCCCCCCCCCCC[C@@H](C)C(=O)[O-]
REMARK SMILES IDX 9 1 10 2 11 3 12 4 13 5 14 6 15 7 16 8 17 9 18 10 19 11 8 12
REMARK SMILES IDX 7 13 6 14 5 15 4 16 3 17 2 18 1 19
REMARK H PARENT
REMARK Flexibility Score: inf
ROOT
ATOM      1  C   UNL     1      15.306  22.287 -12.616  1.00  0.00     0.000 C 
ENDROOT
BRANCH   1   2
ATOM      2  C   UNL     1      15.002  23.193 -13.825  1.00  0.00     0.000 C 
BRANCH   2   3
ATOM      3  C   UNL     1      13.511  23.546 -13.951  1.00  0.00     0.000 C 
BRANCH   3   4
ATOM      4  C   UNL     1      12.703  23.207 -12.685  1.00  0.00     0.000 C 
BRANCH   4   5
ATOM      5  C   UNL     1      12.019  24.405 -12.002  1.00  0.00     0.001 C 
BRANCH   5   6
ATOM      6  C   UNL     1      12.947  25.623 -11.850  1.00  0.00     0.009 C 
BRANCH   6   7
ATOM      7  C   UNL     1      14.011  25.408 -10.753  1.00  0.00     0.032 C 
ATOM      8  C   UNL     1      15.386  25.881 -11.237  1.00  0.00     0.014 C 
BRANCH   7   9
ATOM      9  C   UNL     1      13.642  26.131  -9.486  1.00  0.00     0.044 C 
ATOM     10  O   UNL     1      12.918  27.161  -9.533  1.00  0.00    -0.550 OA
ATOM     11  O   UNL     1      14.093  25.667  -8.256  1.00  0.00    -0.550 OA
ENDBRANCH   7   9
ENDBRANCH   6   7
ENDBRANCH   5   6
ENDBRANCH   4   5
ENDBRANCH   3   4
ENDBRANCH   2   3
ENDBRANCH   1   2
BRANCH   1  12
ATOM     12  C   UNL     1      16.710  21.656 -12.605  1.00  0.00     0.000 C 
BRANCH  12  13
ATOM     13  C   UNL     1      16.682  20.127 -12.428  1.00  0.00    -0.000 C 
BRANCH  13  14
ATOM     14  C   UNL     1      17.360  19.383 -13.599  1.00  0.00    -0.000 C 
BRANCH  14  15
ATOM     15  C   UNL     1      18.847  19.741 -13.786  1.00  0.00    -0.000 C 
BRANCH  15  16
ATOM     16  C   UNL     1      19.834  18.587 -13.524  1.00  0.00    -0.000 C 
BRANCH  16  17
ATOM     17  C   UNL     1      19.229  17.364 -12.811  1.00  0.00    -0.000 C 
BRANCH  17  18
ATOM     18  C   UNL     1      19.862  17.099 -11.438  1.00  0.00    -0.003 C 
ATOM     19  C   UNL     1      19.585  18.249 -10.474  1.00  0.00     0.004 C 
ENDBRANCH  17  18
ENDBRANCH  16  17
ENDBRANCH  15  16
ENDBRANCH  14  15
ENDBRANCH  13  14
ENDBRANCH  12  13
ENDBRANCH   1  12
TORSDOF 14
ENDMDL
MODEL 7
REMARK VINA RESULT:    -4.334     10.491     11.829
REMARK INTER + INTRA:          -9.199
REMARK INTER:                  -6.705
REMARK INTRA:                  -2.494
REMARK UNBOUND:                -1.319
REMARK SMILES CCCCCCCCCCCCCC[C@@H](C)C(=O)[O-]
REMARK SMILES IDX 9 1 10 2 11 3 12 4 13 5 14 6 15 7 16 8 17 9 18 10 19 11 8 12
REMARK SMILES IDX 7 13 6 14 5 15 4 16 3 17 2 18 1 19
REMARK H PARENT
REMARK Flexibility Score: inf
ROOT
ATOM      1  C   UNL     1       7.964  13.372 -10.140  1.00  0.00     0.000 C 
ENDROOT
BRANCH   1   2
ATOM      2  C   UNL     1       7.315  12.287  -9.259  1.00  0.00     0.000 C 
BRANCH   2   3
ATOM      3  C   UNL     1       7.605  12.477  -7.761  1.00  0.00     0.000 C 
BRANCH   3   4
ATOM      4  C   UNL     1       8.226  11.230  -7.105  1.00  0.00     0.000 C 
BRANCH   4   5
ATOM      5  C   UNL     1       9.647  10.876  -7.580  1.00  0.00     0.001 C 
BRANCH   5   6
ATOM      6  C   UNL     1      10.619  12.067  -7.512  1.00  0.00     0.009 C 
BRANCH   6   7
ATOM      7  C   UNL     1      11.862  11.854  -8.400  1.00  0.00     0.032 C 
ATOM      8  C   UNL     1      11.727  12.635  -9.711  1.00  0.00     0.014 C 
BRANCH   7   9
ATOM      9  C   UNL     1      13.120  12.271  -7.688  1.00  0.00     0.044 C 
ATOM     10  O   UNL     1      13.062  13.076  -6.721  1.00  0.00    -0.550 OA
ATOM     11  O   UNL     1      14.353  11.768  -8.086  1.00  0.00    -0.550 OA
ENDBRANCH   7   9
ENDBRANCH   6   7
ENDBRANCH   5   6
ENDBRANCH   4   5
ENDBRANCH   3   4
ENDBRANCH   2   3
ENDBRANCH   1   2
BRANCH   1  12
ATOM     12  C   UNL     1       8.643  14.521  -9.374  1.00  0.00     0.000 C 
BRANCH  12  13
ATOM     13  C   UNL     1       7.879  15.854  -9.486  1.00  0.00    -0.000 C 
BRANCH  13  14
ATOM     14  C   UNL     1       7.822  16.618  -8.145  1.00  0.00    -0.000 C 
BRANCH  14  15
ATOM     15  C   UNL     1       6.582  16.287  -7.293  1.00  0.00    -0.000 C 
BRANCH  15  16
ATOM     16  C   UNL     1       5.297  16.000  -8.092  1.00  0.00    -0.000 C 
BRANCH  16  17
ATOM     17  C   UNL     1       4.613  14.661  -7.761  1.00  0.00    -0.000 C 
BRANCH  17  18
ATOM     18  C   UNL     1       3.953  14.009  -8.985  1.00  0.00    -0.003 C 
ATOM     19  C   UNL     1       4.501  14.596 -10.282  1.00  0.00     0.004 C 
ENDBRANCH  17  18
ENDBRANCH  16  17
ENDBRANCH  15  16
ENDBRANCH  14  15
ENDBRANCH  13  14
ENDBRANCH  12  13
ENDBRANCH   1  12
TORSDOF 14
ENDMDL
MODEL 8
REMARK VINA RESULT:    -4.316     10.859     13.784
REMARK INTER + INTRA:          -9.167
REMARK INTER:                  -7.541
REMARK INTRA:                  -1.627
REMARK UNBOUND:                -1.319
REMARK SMILES CCCCCCCCCCCCCC[C@@H](C)C(=O)[O-]
REMARK SMILES IDX 9 1 10 2 11 3 12 4 13 5 14 6 15 7 16 8 17 9 18 10 19 11 8 12
REMARK SMILES IDX 7 13 6 14 5 15 4 16 3 17 2 18 1 19
REMARK H PARENT
REMARK Flexibility Score: inf
ROOT
ATOM      1  C   UNL     1       7.830  13.008  -8.608  1.00  0.00     0.000 C 
ENDROOT
BRANCH   1   2
ATOM      2  C   UNL     1       6.515  12.520  -9.246  1.00  0.00     0.000 C 
BRANCH   2   3
ATOM      3  C   UNL     1       5.610  13.672  -9.713  1.00  0.00     0.000 C 
BRANCH   3   4
ATOM      4  C   UNL     1       4.326  13.805  -8.875  1.00  0.00     0.000 C 
BRANCH   4   5
ATOM      5  C   UNL     1       4.389  14.840  -7.736  1.00  0.00     0.001 C 
BRANCH   5   6
ATOM      6  C   UNL     1       5.096  16.144  -8.144  1.00  0.00     0.009 C 
BRANCH   6   7
ATOM      7  C   UNL     1       4.973  17.235  -7.060  1.00  0.00     0.032 C 
ATOM      8  C   UNL     1       3.931  16.836  -6.010  1.00  0.00     0.014 C 
BRANCH   7   9
ATOM      9  C   UNL     1       6.297  17.490  -6.390  1.00  0.00     0.044 C 
ATOM     10  O   UNL     1       7.371  17.280  -7.012  1.00  0.00    -0.550 OA
ATOM     11  O   UNL     1       6.343  17.964  -5.084  1.00  0.00    -0.550 OA
ENDBRANCH   7   9
ENDBRANCH   6   7
ENDBRANCH   5   6
ENDBRANCH   4   5
ENDBRANCH   3   4
ENDBRANCH   2   3
ENDBRANCH   1   2
BRANCH   1  12
ATOM     12  C   UNL     1       8.263  14.432  -9.001  1.00  0.00     0.000 C 
BRANCH  12  13
ATOM     13  C   UNL     1       9.207  14.461 -10.217  1.00  0.00    -0.000 C 
BRANCH  13  14
ATOM     14  C   UNL     1       9.759  13.062 -10.570  1.00  0.00    -0.000 C 
BRANCH  14  15
ATOM     15  C   UNL     1      11.226  12.849 -10.149  1.00  0.00    -0.000 C 
BRANCH  15  16
ATOM     16  C   UNL     1      11.665  11.377 -10.034  1.00  0.00    -0.000 C 
BRANCH  16  17
ATOM     17  C   UNL     1      11.854  10.867  -8.593  1.00  0.00    -0.000 C 
BRANCH  17  18
ATOM     18  C   UNL     1      11.572  11.945  -7.537  1.00  0.00    -0.003 C 
ATOM     19  C   UNL     1      10.505  11.481  -6.549  1.00  0.00     0.004 C 
ENDBRANCH  17  18
ENDBRANCH  16  17
ENDBRANCH  15  16
ENDBRANCH  14  15
ENDBRANCH  13  14
ENDBRANCH  12  13
ENDBRANCH   1  12
TORSDOF 14
ENDMDL
MODEL 9
REMARK VINA RESULT:    -4.235      4.277      9.153
REMARK INTER + INTRA:          -9.019
REMARK INTER:                  -8.183
REMARK INTRA:                  -0.837
REMARK UNBOUND:                -1.319
REMARK SMILES CCCCCCCCCCCCCC[C@@H](C)C(=O)[O-]
REMARK SMILES IDX 9 1 10 2 11 3 12 4 13 5 14 6 15 7 16 8 17 9 18 10 19 11 8 12
REMARK SMILES IDX 7 13 6 14 5 15 4 16 3 17 2 18 1 19
REMARK H PARENT
REMARK Flexibility Score: inf
ROOT
ATOM      1  C   UNL     1      16.363  20.212 -12.253  1.00  0.00     0.000 C 
ENDROOT
BRANCH   1   2
ATOM      2  C   UNL     1      15.283  21.246 -11.881  1.00  0.00     0.000 C 
BRANCH   2   3
ATOM      3  C   UNL     1      15.440  22.576 -12.637  1.00  0.00     0.000 C 
BRANCH   3   4
ATOM      4  C   UNL     1      14.093  23.195 -13.051  1.00  0.00     0.000 C 
BRANCH   4   5
ATOM      5  C   UNL     1      12.848  22.368 -12.681  1.00  0.00     0.001 C 
BRANCH   5   6
ATOM      6  C   UNL     1      11.538  22.981 -13.208  1.00  0.00     0.009 C 
BRANCH   6   7
ATOM      7  C   UNL     1      10.577  23.365 -12.064  1.00  0.00     0.032 C 
ATOM      8  C   UNL     1      11.124  24.562 -11.280  1.00  0.00     0.014 C 
BRANCH   7   9
ATOM      9  C   UNL     1       9.204  23.688 -12.591  1.00  0.00     0.044 C 
ATOM     10  O   UNL     1       8.190  23.499 -11.869  1.00  0.00    -0.550 OA
ATOM     11  O   UNL     1       9.046  24.199 -13.873  1.00  0.00    -0.550 OA
ENDBRANCH   7   9
ENDBRANCH   6   7
ENDBRANCH   5   6
ENDBRANCH   4   5
ENDBRANCH   3   4
ENDBRANCH   2   3
ENDBRANCH   1   2
BRANCH   1  12
ATOM     12  C   UNL     1      17.391  20.681 -13.298  1.00  0.00     0.000 C 
BRANCH  12  13
ATOM     13  C   UNL     1      18.287  19.541 -13.816  1.00  0.00    -0.000 C 
BRANCH  13  14
ATOM     14  C   UNL     1      19.242  19.001 -12.730  1.00  0.00    -0.000 C 
BRANCH  14  15
ATOM     15  C   UNL     1      19.398  17.468 -12.746  1.00  0.00    -0.000 C 
BRANCH  15  16
ATOM     16  C   UNL     1      19.667  16.824 -11.372  1.00  0.00    -0.000 C 
BRANCH  16  17
ATOM     17  C   UNL     1      20.296  17.764 -10.327  1.00  0.00    -0.000 C 
BRANCH  17  18
ATOM     18  C   UNL     1      21.525  17.154  -9.639  1.00  0.00    -0.003 C 
ATOM     19  C   UNL     1      22.776  17.321 -10.497  1.00  0.00     0.004 C 
ENDBRANCH  17  18
ENDBRANCH  16  17
ENDBRANCH  15  16
ENDBRANCH  14  15
ENDBRANCH  13  14
ENDBRANCH  12  13
ENDBRANCH   1  12
TORSDOF 14
ENDMDL
