MODEL 1
REMARK VINA RESULT:    -4.059      0.000      0.000
REMARK INTER + INTRA:          -7.055
REMARK INTER:                  -6.432
REMARK INTRA:                  -0.624
REMARK UNBOUND:                -0.624
REMARK SMILES CCCCCCCCCCCC(=O)[O-]
REMARK SMILES IDX 7 1 8 2 9 3 10 4 11 5 12 6 13 7 14 8 6 9 5 10 4 11 3 12 2 13
REMARK SMILES IDX 1 14
REMARK H PARENT
REMARK Flexibility Score: inf
ROOT
ATOM      1  C   UNL     1       4.075   8.986   9.702  1.00  0.00     0.000 C 
ENDROOT
BRANCH   1   2
ATOM      2  C   UNL     1       4.124   7.697   8.867  1.00  0.00     0.000 C 
BRANCH   2   3
ATOM      3  C   UNL     1       4.899   6.596   9.601  1.00  0.00     0.000 C 
BRANCH   3   4
ATOM      4  C   UNL     1       4.100   5.285   9.631  1.00  0.00     0.006 C 
BRANCH   4   5
ATOM      5  C   UNL     1       3.048   5.220   8.515  1.00  0.00     0.053 C 
BRANCH   5   6
ATOM      6  C   UNL     1       3.388   4.182   7.490  1.00  0.00     0.041 C 
ATOM      7  O   UNL     1       3.999   4.508   6.438  1.00  0.00    -0.550 OA
ATOM      8  O   UNL     1       3.060   2.850   7.712  1.00  0.00    -0.550 OA
ENDBRANCH   5   6
ENDBRANCH   4   5
ENDBRANCH   3   4
ENDBRANCH   2   3
ENDBRANCH   1   2
BRANCH   1   9
ATOM      9  C   UNL     1       4.567  10.217   8.924  1.00  0.00     0.000 C 
BRANCH   9  10
ATOM     10  C   UNL     1       4.989   9.875   7.486  1.00  0.00    -0.000 C 
BRANCH  10  11
ATOM     11  C   UNL     1       5.148  11.122   6.595  1.00  0.00    -0.000 C 
BRANCH  11  12
ATOM     12  C   UNL     1       4.076  12.209   6.796  1.00  0.00    -0.000 C 
BRANCH  12  13
ATOM     13  C   UNL     1       4.590  13.622   6.484  1.00  0.00    -0.003 C 
ATOM     14  C   UNL     1       5.359  14.201   7.669  1.00  0.00     0.004 C 
ENDBRANCH  12  13
ENDBRANCH  11  12
ENDBRANCH  10  11
ENDBRANCH   9  10
ENDBRANCH   1   9
TORSDOF 10
ENDMDL
MODEL 2
REMARK VINA RESULT:    -4.020      0.877      1.450
REMARK INTER + INTRA:          -6.994
REMARK INTER:                  -6.398
REMARK INTRA:                  -0.596
REMARK UNBOUND:                -0.624
REMARK SMILES CCCCCCCCCCCC(=O)[O-]
REMARK SMILES IDX 7 1 8 2 9 3 10 4 11 5 12 6 13 7 14 8 6 9 5 10 4 11 3 12 2 13
REMARK SMILES IDX 1 14
REMARK H PARENT
REMARK Flexibility Score: inf
ROOT
ATOM      1  C   UNL     1       4.032   9.886   8.827  1.00  0.00     0.000 C 
ENDROOT
BRANCH   1   2
ATOM      2  C   UNL     1       3.783   8.631   9.678  1.00  0.00     0.000 C 
BRANCH   2   3
ATOM      3  C   UNL     1       4.499   7.413   9.081  1.00  0.00     0.000 C 
BRANCH   3   4
ATOM      4  C   UNL     1       3.581   6.182   9.073  1.00  0.00     0.006 C 
BRANCH   4   5
ATOM      5  C   UNL     1       4.060   5.106   8.089  1.00  0.00     0.053 C 
BRANCH   5   6
ATOM      6  C   UNL     1       2.919   4.303   7.544  1.00  0.00     0.041 C 
ATOM      7  O   UNL     1       2.169   3.657   8.323  1.00  0.00    -0.550 OA
ATOM      8  O   UNL     1       2.663   4.295   6.178  1.00  0.00    -0.550 OA
ENDBRANCH   5   6
ENDBRANCH   4   5
ENDBRANCH   3   4
ENDBRANCH   2   3
ENDBRANCH   1   2
BRANCH   1   9
ATOM      9  C   UNL     1       5.177   9.702   7.818  1.00  0.00     0.000 C 
BRANCH   9  10
ATOM     10  C   UNL     1       5.109  10.710   6.659  1.00  0.00    -0.000 C 
BRANCH  10  11
ATOM     11  C   UNL     1       3.975  11.739   6.825  1.00  0.00    -0.000 C 
BRANCH  11  12
ATOM     12  C   UNL     1       4.425  13.212   6.829  1.00  0.00    -0.000 C 
BRANCH  12  13
ATOM     13  C   UNL     1       5.853  13.400   7.362  1.00  0.00    -0.003 C 
ATOM     14  C   UNL     1       6.286  14.861   7.268  1.00  0.00     0.004 C 
ENDBRANCH  12  13
ENDBRANCH  11  12
ENDBRANCH  10  11
ENDBRANCH   9  10
ENDBRANCH   1   9
TORSDOF 10
ENDMDL
MODEL 3
REMARK VINA RESULT:    -3.946     15.602     16.903
REMARK INTER + INTRA:          -6.876
REMARK INTER:                  -6.010
REMARK INTRA:                  -0.865
REMARK UNBOUND:                -0.624
REMARK SMILES CCCCCCCCCCCC(=O)[O-]
REMARK SMILES IDX 7 1 8 2 9 3 10 4 11 5 12 6 13 7 14 8 6 9 5 10 4 11 3 12 2 13
REMARK SMILES IDX 1 14
REMARK H PARENT
REMARK Flexibility Score: inf
ROOT
ATOM      1  C   UNL     1       2.942   4.168  -8.997  1.00  0.00     0.000 C 
ENDROOT
BRANCH   1   2
ATOM      2  C   UNL     1       3.831   3.242  -9.842  1.00  0.00     0.000 C 
BRANCH   2   3
ATOM      3  C   UNL     1       5.253   3.177  -9.272  1.00  0.00     0.000 C 
BRANCH   3   4
ATOM      4  C   UNL     1       5.247   2.637  -7.834  1.00  0.00     0.006 C 
BRANCH   4   5
ATOM      5  C   UNL     1       4.965   1.129  -7.780  1.00  0.00     0.053 C 
BRANCH   5   6
ATOM      6  C   UNL     1       4.594   0.681  -6.400  1.00  0.00     0.041 C 
ATOM      7  O   UNL     1       3.597  -0.069  -6.224  1.00  0.00    -0.550 OA
ATOM      8  O   UNL     1       5.369   1.062  -5.312  1.00  0.00    -0.550 OA
ENDBRANCH   5   6
ENDBRANCH   4   5
ENDBRANCH   3   4
ENDBRANCH   2   3
ENDBRANCH   1   2
BRANCH   1   9
ATOM      9  C   UNL     1       2.129   5.154  -9.852  1.00  0.00     0.000 C 
BRANCH   9  10
ATOM     10  C   UNL     1       2.053   6.555  -9.224  1.00  0.00    -0.000 C 
BRANCH  10  11
ATOM     11  C   UNL     1       3.369   7.345  -9.357  1.00  0.00    -0.000 C 
BRANCH  11  12
ATOM     12  C   UNL     1       3.670   8.313  -8.199  1.00  0.00    -0.000 C 
BRANCH  12  13
ATOM     13  C   UNL     1       4.925   7.925  -7.404  1.00  0.00    -0.003 C 
ATOM     14  C   UNL     1       5.587   6.683  -7.994  1.00  0.00     0.004 C 
ENDBRANCH  12  13
ENDBRANCH  11  12
ENDBRANCH  10  11
ENDBRANCH   9  10
ENDBRANCH   1   9
TORSDOF 10
ENDMDL
MODEL 4
REMARK VINA RESULT:    -3.882      1.185      2.384
REMARK INTER + INTRA:          -6.775
REMARK INTER:                  -5.994
REMARK INTRA:                  -0.781
REMARK UNBOUND:                -0.624
REMARK SMILES CCCCCCCCCCCC(=O)[O-]
REMARK SMILES IDX 7 1 8 2 9 3 10 4 11 5 12 6 13 7 14 8 6 9 5 10 4 11 3 12 2 13
REMARK SMILES IDX 1 14
REMARK H PARENT
REMARK Flexibility Score: inf
ROOT
ATOM      1  C   UNL     1       4.901  10.347   7.638  1.00  0.00     0.000 C 
ENDROOT
BRANCH   1   2
ATOM      2  C   UNL     1       4.781  10.128   9.154  1.00  0.00     0.000 C 
BRANCH   2   3
ATOM      3  C   UNL     1       3.810   8.983   9.468  1.00  0.00     0.000 C 
BRANCH   3   4
ATOM      4  C   UNL     1       4.381   7.634   9.009  1.00  0.00     0.006 C 
BRANCH   4   5
ATOM      5  C   UNL     1       3.689   6.447   9.692  1.00  0.00     0.053 C 
BRANCH   5   6
ATOM      6  C   UNL     1       3.265   5.405   8.703  1.00  0.00     0.041 C 
ATOM      7  O   UNL     1       3.920   5.237   7.640  1.00  0.00    -0.550 OA
ATOM      8  O   UNL     1       2.168   4.596   8.970  1.00  0.00    -0.550 OA
ENDBRANCH   5   6
ENDBRANCH   4   5
ENDBRANCH   3   4
ENDBRANCH   2   3
ENDBRANCH   1   2
BRANCH   1   9
ATOM      9  C   UNL     1       3.985  11.470   7.126  1.00  0.00     0.000 C 
BRANCH   9  10
ATOM     10  C   UNL     1       4.643  12.309   6.018  1.00  0.00    -0.000 C 
BRANCH  10  11
ATOM     11  C   UNL     1       4.610  13.821   6.311  1.00  0.00    -0.000 C 
BRANCH  11  12
ATOM     12  C   UNL     1       5.371  14.258   7.577  1.00  0.00    -0.000 C 
BRANCH  12  13
ATOM     13  C   UNL     1       6.830  13.780   7.593  1.00  0.00    -0.003 C 
ATOM     14  C   UNL     1       7.177  13.119   8.924  1.00  0.00     0.004 C 
ENDBRANCH  12  13
ENDBRANCH  11  12
ENDBRANCH  10  11
ENDBRANCH   9  10
ENDBRANCH   1   9
TORSDOF 10
ENDMDL
MODEL 5
REMARK VINA RESULT:    -3.858      4.357      7.884
REMARK INTER + INTRA:          -6.737
REMARK INTER:                  -6.295
REMARK INTRA:                  -0.443
REMARK UNBOUND:                -0.624
REMARK SMILES CCCCCCCCCCCC(=O)[O-]
REMARK SMILES IDX 7 1 8 2 9 3 10 4 11 5 12 6 13 7 14 8 6 9 5 10 4 11 3 12 2 13
REMARK SMILES IDX 1 14
REMARK H PARENT
REMARK Flexibility Score: inf
ROOT
ATOM      1  C   UNL     1       3.691   9.354   8.650  1.00  0.00     0.000 C 
ENDROOT
BRANCH   1   2
ATOM      2  C   UNL     1       4.623  10.473   8.158  1.00  0.00     0.000 C 
BRANCH   2   3
ATOM      3  C   UNL     1       3.871  11.454   7.251  1.00  0.00     0.000 C 
BRANCH   3   4
ATOM      4  C   UNL     1       4.849  12.304   6.427  1.00  0.00     0.006 C 
BRANCH   4   5
ATOM      5  C   UNL     1       4.626  13.808   6.630  1.00  0.00     0.053 C 
BRANCH   5   6
ATOM      6  C   UNL     1       5.648  14.404   7.548  1.00  0.00     0.041 C 
ATOM      7  O   UNL     1       5.350  14.667   8.743  1.00  0.00    -0.550 OA
ATOM      8  O   UNL     1       6.941  14.636   7.095  1.00  0.00    -0.550 OA
ENDBRANCH   5   6
ENDBRANCH   4   5
ENDBRANCH   3   4
ENDBRANCH   2   3
ENDBRANCH   1   2
BRANCH   1   9
ATOM      9  C   UNL     1       4.431   8.027   8.886  1.00  0.00     0.000 C 
BRANCH   9  10
ATOM     10  C   UNL     1       3.913   7.276  10.123  1.00  0.00    -0.000 C 
BRANCH  10  11
ATOM     11  C   UNL     1       3.680   5.776   9.861  1.00  0.00    -0.000 C 
BRANCH  11  12
ATOM     12  C   UNL     1       3.771   5.349   8.384  1.00  0.00    -0.000 C 
BRANCH  12  13
ATOM     13  C   UNL     1       2.542   4.558   7.912  1.00  0.00    -0.003 C 
ATOM     14  C   UNL     1       1.667   4.147   9.093  1.00  0.00     0.004 C 
ENDBRANCH  12  13
ENDBRANCH  11  12
ENDBRANCH  10  11
ENDBRANCH   9  10
ENDBRANCH   1   9
TORSDOF 10
ENDMDL
MODEL 6
REMARK VINA RESULT:    -3.714     15.423     16.692
REMARK INTER + INTRA:          -6.509
REMARK INTER:                  -5.524
REMARK INTRA:                  -0.985
REMARK UNBOUND:                -0.624
REMARK SMILES CCCCCCCCCCCC(=O)[O-]
REMARK SMILES IDX 7 1 8 2 9 3 10 4 11 5 12 6 13 7 14 8 6 9 5 10 4 11 3 12 2 13
REMARK SMILES IDX 1 14
REMARK H PARENT
REMARK Flexibility Score: inf
ROOT
ATOM      1  C   UNL     1       2.108   5.089  -9.436  1.00  0.00     0.000 C 
ENDROOT
BRANCH   1   2
ATOM      2  C   UNL     1       3.125   3.942  -9.323  1.00  0.00     0.000 C 
BRANCH   2   3
ATOM      3  C   UNL     1       4.560   4.467  -9.453  1.00  0.00     0.000 C 
BRANCH   3   4
ATOM      4  C   UNL     1       5.499   3.755  -8.469  1.00  0.00     0.006 C 
BRANCH   4   5
ATOM      5  C   UNL     1       4.855   2.509  -7.848  1.00  0.00     0.053 C 
BRANCH   5   6
ATOM      6  C   UNL     1       5.469   2.164  -6.526  1.00  0.00     0.041 C 
ATOM      7  O   UNL     1       5.264   1.034  -6.008  1.00  0.00    -0.550 OA
ATOM      8  O   UNL     1       6.296   3.076  -5.882  1.00  0.00    -0.550 OA
ENDBRANCH   5   6
ENDBRANCH   4   5
ENDBRANCH   3   4
ENDBRANCH   2   3
ENDBRANCH   1   2
BRANCH   1   9
ATOM      9  C   UNL     1       2.765   6.432  -9.794  1.00  0.00     0.000 C 
BRANCH   9  10
ATOM     10  C   UNL     1       2.172   7.608  -9.000  1.00  0.00    -0.000 C 
BRANCH  10  11
ATOM     11  C   UNL     1       3.247   8.457  -8.295  1.00  0.00    -0.000 C 
BRANCH  11  12
ATOM     12  C   UNL     1       4.701   8.066  -8.613  1.00  0.00    -0.000 C 
BRANCH  12  13
ATOM     13  C   UNL     1       5.441   7.477  -7.403  1.00  0.00    -0.003 C 
ATOM     14  C   UNL     1       6.628   8.350  -7.005  1.00  0.00     0.004 C 
ENDBRANCH  12  13
ENDBRANCH  11  12
ENDBRANCH  10  11
ENDBRANCH   9  10
ENDBRANCH   1   9
TORSDOF 10
ENDMDL
MODEL 7
REMARK VINA RESULT:    -3.660      3.840      7.583
REMARK INTER + INTRA:          -6.424
REMARK INTER:                  -5.843
REMARK INTRA:                  -0.581
REMARK UNBOUND:                -0.624
REMARK SMILES CCCCCCCCCCCC(=O)[O-]
REMARK SMILES IDX 7 1 8 2 9 3 10 4 11 5 12 6 13 7 14 8 6 9 5 10 4 11 3 12 2 13
REMARK SMILES IDX 1 14
REMARK H PARENT
REMARK Flexibility Score: inf
ROOT
ATOM      1  C   UNL     1       4.071  11.214   7.314  1.00  0.00     0.000 C 
ENDROOT
BRANCH   1   2
ATOM      2  C   UNL     1       4.795  11.901   6.145  1.00  0.00     0.000 C 
BRANCH   2   3
ATOM      3  C   UNL     1       4.506  13.407   6.129  1.00  0.00     0.000 C 
BRANCH   3   4
ATOM      4  C   UNL     1       5.038  14.085   7.400  1.00  0.00     0.006 C 
BRANCH   4   5
ATOM      5  C   UNL     1       6.566  13.993   7.511  1.00  0.00     0.053 C 
BRANCH   5   6
ATOM      6  C   UNL     1       6.991  13.284   8.761  1.00  0.00     0.041 C 
ATOM      7  O   UNL     1       6.128  12.874   9.582  1.00  0.00    -0.550 OA
ATOM      8  O   UNL     1       8.339  13.045   9.002  1.00  0.00    -0.550 OA
ENDBRANCH   5   6
ENDBRANCH   4   5
ENDBRANCH   3   4
ENDBRANCH   2   3
ENDBRANCH   1   2
BRANCH   1   9
ATOM      9  C   UNL     1       4.788   9.941   7.791  1.00  0.00     0.000 C 
BRANCH   9  10
ATOM     10  C   UNL     1       4.085   9.282   8.989  1.00  0.00    -0.000 C 
BRANCH  10  11
ATOM     11  C   UNL     1       4.759   7.970   9.433  1.00  0.00    -0.000 C 
BRANCH  11  12
ATOM     12  C   UNL     1       3.814   6.762   9.565  1.00  0.00    -0.000 C 
BRANCH  12  13
ATOM     13  C   UNL     1       4.211   5.589   8.657  1.00  0.00    -0.003 C 
ATOM     14  C   UNL     1       2.982   4.942   8.024  1.00  0.00     0.004 C 
ENDBRANCH  12  13
ENDBRANCH  11  12
ENDBRANCH  10  11
ENDBRANCH   9  10
ENDBRANCH   1   9
TORSDOF 10
ENDMDL
MODEL 8
REMARK VINA RESULT:    -3.655     15.643     17.888
REMARK INTER + INTRA:          -6.415
REMARK INTER:                  -5.799
REMARK INTRA:                  -0.616
REMARK UNBOUND:                -0.624
REMARK SMILES CCCCCCCCCCCC(=O)[O-]
REMARK SMILES IDX 7 1 8 2 9 3 10 4 11 5 12 6 13 7 14 8 6 9 5 10 4 11 3 12 2 13
REMARK SMILES IDX 1 14
REMARK H PARENT
REMARK Flexibility Score: inf
ROOT
ATOM      1  C   UNL     1       3.072   3.917  -8.926  1.00  0.00     0.000 C 
ENDROOT
BRANCH   1   2
ATOM      2  C   UNL     1       2.256   4.845  -9.840  1.00  0.00     0.000 C 
BRANCH   2   3
ATOM      3  C   UNL     1       2.292   6.290  -9.328  1.00  0.00     0.000 C 
BRANCH   3   4
ATOM      4  C   UNL     1       3.719   6.856  -9.374  1.00  0.00     0.006 C 
BRANCH   4   5
ATOM      5  C   UNL     1       4.006   7.804  -8.202  1.00  0.00     0.053 C 
BRANCH   5   6
ATOM      6  C   UNL     1       5.323   7.504  -7.553  1.00  0.00     0.041 C 
ATOM      7  O   UNL     1       5.953   8.412  -6.949  1.00  0.00    -0.550 OA
ATOM      8  O   UNL     1       5.837   6.214  -7.584  1.00  0.00    -0.550 OA
ENDBRANCH   5   6
ENDBRANCH   4   5
ENDBRANCH   3   4
ENDBRANCH   2   3
ENDBRANCH   1   2
BRANCH   1   9
ATOM      9  C   UNL     1       4.143   3.123  -9.691  1.00  0.00     0.000 C 
BRANCH   9  10
ATOM     10  C   UNL     1       5.334   2.731  -8.801  1.00  0.00    -0.000 C 
BRANCH  10  11
ATOM     11  C   UNL     1       5.122   1.390  -8.072  1.00  0.00    -0.000 C 
BRANCH  11  12
ATOM     12  C   UNL     1       4.812   1.507  -6.568  1.00  0.00    -0.000 C 
BRANCH  12  13
ATOM     13  C   UNL     1       3.917   0.372  -6.051  1.00  0.00    -0.003 C 
ATOM     14  C   UNL     1       4.718  -0.624  -5.217  1.00  0.00     0.004 C 
ENDBRANCH  12  13
ENDBRANCH  11  12
ENDBRANCH  10  11
ENDBRANCH   9  10
ENDBRANCH   1   9
TORSDOF 10
ENDMDL
MODEL 9
REMARK VINA RESULT:    -3.625      2.809      4.824
REMARK INTER + INTRA:          -6.367
REMARK INTER:                  -4.978
REMARK INTRA:                  -1.390
REMARK UNBOUND:                -0.624
REMARK SMILES CCCCCCCCCCCC(=O)[O-]
REMARK SMILES IDX 7 1 8 2 9 3 10 4 11 5 12 6 13 7 14 8 6 9 5 10 4 11 3 12 2 13
REMARK SMILES IDX 1 14
REMARK H PARENT
REMARK Flexibility Score: inf
ROOT
ATOM      1  C   UNL     1       9.087  12.371   7.177  1.00  0.00     0.000 C 
ENDROOT
BRANCH   1   2
ATOM      2  C   UNL     1       8.134  11.238   6.766  1.00  0.00     0.000 C 
BRANCH   2   3
ATOM      3  C   UNL     1       7.926  10.251   7.921  1.00  0.00     0.000 C 
BRANCH   3   4
ATOM      4  C   UNL     1       6.539  10.430   8.557  1.00  0.00     0.006 C 
BRANCH   4   5
ATOM      5  C   UNL     1       5.964   9.107   9.081  1.00  0.00     0.053 C 
BRANCH   5   6
ATOM      6  C   UNL     1       4.538   8.916   8.663  1.00  0.00     0.041 C 
ATOM      7  O   UNL     1       3.775   9.910   8.541  1.00  0.00    -0.550 OA
ATOM      8  O   UNL     1       4.062   7.643   8.376  1.00  0.00    -0.550 OA
ENDBRANCH   5   6
ENDBRANCH   4   5
ENDBRANCH   3   4
ENDBRANCH   2   3
ENDBRANCH   1   2
BRANCH   1   9
ATOM      9  C   UNL     1       8.385  13.737   7.257  1.00  0.00     0.000 C 
BRANCH   9  10
ATOM     10  C   UNL     1       7.667  13.954   8.599  1.00  0.00    -0.000 C 
BRANCH  10  11
ATOM     11  C   UNL     1       6.162  14.240   8.435  1.00  0.00    -0.000 C 
BRANCH  11  12
ATOM     12  C   UNL     1       5.619  14.079   7.003  1.00  0.00    -0.000 C 
BRANCH  12  13
ATOM     13  C   UNL     1       4.453  13.083   6.913  1.00  0.00    -0.003 C 
ATOM     14  C   UNL     1       4.722  12.016   5.856  1.00  0.00     0.004 C 
ENDBRANCH  12  13
ENDBRANCH  11  12
ENDBRANCH  10  11
ENDBRANCH   9  10
ENDBRANCH   1   9
TORSDOF 10
ENDMDL
