MODEL 1
REMARK VINA RESULT:    -4.711      0.000      0.000
REMARK INTER + INTRA:          -5.365
REMARK INTER:                  -5.125
REMARK INTRA:                  -0.240
REMARK UNBOUND:                -0.240
REMARK SMILES O=C([O-])c1ccccc1O
REMARK SMILES IDX 4 1 9 2 5 3 8 4 6 5 7 6 2 7 1 8 3 9 10 10
REMARK H PARENT 10 11
REMARK Flexibility Score: inf
ROOT
ATOM      1  C   UNL     1      21.521  31.485  22.975  1.00  0.00     0.039 A 
ATOM      2  C   UNL     1      20.833  30.703  22.018  1.00  0.00     0.124 A 
ATOM      3  C   UNL     1      22.190  32.649  22.547  1.00  0.00     0.014 A 
ATOM      4  C   UNL     1      20.827  31.094  20.669  1.00  0.00     0.047 A 
ATOM      5  C   UNL     1      22.177  33.026  21.203  1.00  0.00     0.001 A 
ATOM      6  C   UNL     1      21.497  32.250  20.265  1.00  0.00     0.004 A 
ENDROOT
BRANCH   1   7
ATOM      7  C   UNL     1      21.557  31.115  24.413  1.00  0.00     0.075 C 
ATOM      8  O   UNL     1      21.559  31.997  25.311  1.00  0.00    -0.545 OA
ATOM      9  O   UNL     1      21.589  29.778  24.793  1.00  0.00    -0.545 OA
ENDBRANCH   1   7
BRANCH   2  10
ATOM     10  O   UNL     1      20.157  29.544  22.395  1.00  0.00    -0.507 OA
ATOM     11  H   UNL     1      20.343  28.650  21.957  1.00  0.00     0.293 HD
ENDBRANCH   2  10
TORSDOF 2
ENDMDL
MODEL 2
REMARK VINA RESULT:    -4.698     13.572     14.472
REMARK INTER + INTRA:          -5.350
REMARK INTER:                  -5.098
REMARK INTRA:                  -0.252
REMARK UNBOUND:                -0.240
REMARK SMILES O=C([O-])c1ccccc1O
REMARK SMILES IDX 4 1 9 2 5 3 8 4 6 5 7 6 2 7 1 8 3 9 10 10
REMARK H PARENT 10 11
REMARK Flexibility Score: inf
ROOT
ATOM      1  C   UNL     1      20.091  18.362  28.130  1.00  0.00     0.039 A 
ATOM      2  C   UNL     1      21.259  18.113  27.371  1.00  0.00     0.124 A 
ATOM      3  C   UNL     1      18.979  17.512  27.965  1.00  0.00     0.014 A 
ATOM      4  C   UNL     1      21.293  17.034  26.474  1.00  0.00     0.047 A 
ATOM      5  C   UNL     1      19.027  16.442  27.069  1.00  0.00     0.001 A 
ATOM      6  C   UNL     1      20.181  16.204  26.324  1.00  0.00     0.004 A 
ENDROOT
BRANCH   1   7
ATOM      7  C   UNL     1      20.004  19.490  29.093  1.00  0.00     0.075 C 
ATOM      8  O   UNL     1      19.047  20.307  29.052  1.00  0.00    -0.545 OA
ATOM      9  O   UNL     1      20.986  19.661  30.063  1.00  0.00    -0.545 OA
ENDBRANCH   1   7
BRANCH   2  10
ATOM     10  O   UNL     1      22.383  18.928  27.502  1.00  0.00    -0.507 OA
ATOM     11  H   UNL     1      22.780  19.421  26.711  1.00  0.00     0.293 HD
ENDBRANCH   2  10
TORSDOF 2
ENDMDL
MODEL 3
REMARK VINA RESULT:    -4.696     13.593     14.824
REMARK INTER + INTRA:          -5.348
REMARK INTER:                  -5.163
REMARK INTRA:                  -0.185
REMARK UNBOUND:                -0.240
REMARK SMILES O=C([O-])c1ccccc1O
REMARK SMILES IDX 4 1 9 2 5 3 8 4 6 5 7 6 2 7 1 8 3 9 10 10
REMARK H PARENT 10 11
REMARK Flexibility Score: inf
ROOT
ATOM      1  C   UNL     1      20.415  18.666  29.398  1.00  0.00     0.039 A 
ATOM      2  C   UNL     1      19.577  19.743  29.772  1.00  0.00     0.124 A 
ATOM      3  C   UNL     1      20.803  17.735  30.382  1.00  0.00     0.014 A 
ATOM      4  C   UNL     1      19.149  19.868  31.103  1.00  0.00     0.047 A 
ATOM      5  C   UNL     1      20.370  17.871  31.703  1.00  0.00     0.001 A 
ATOM      6  C   UNL     1      19.545  18.935  32.063  1.00  0.00     0.004 A 
ENDROOT
BRANCH   1   7
ATOM      7  C   UNL     1      20.895  18.490  28.004  1.00  0.00     0.075 C 
ATOM      8  O   UNL     1      20.109  18.138  27.086  1.00  0.00    -0.545 OA
ATOM      9  O   UNL     1      22.231  18.715  27.688  1.00  0.00    -0.545 OA
ENDBRANCH   1   7
BRANCH   2  10
ATOM     10  O   UNL     1      19.167  20.689  28.832  1.00  0.00    -0.507 OA
ATOM     11  H   UNL     1      18.198  20.970  28.745  1.00  0.00     0.293 HD
ENDBRANCH   2  10
TORSDOF 2
ENDMDL
MODEL 4
REMARK VINA RESULT:    -4.688      1.424      2.230
REMARK INTER + INTRA:          -5.339
REMARK INTER:                  -5.137
REMARK INTRA:                  -0.203
REMARK UNBOUND:                -0.240
REMARK SMILES O=C([O-])c1ccccc1O
REMARK SMILES IDX 4 1 9 2 5 3 8 4 6 5 7 6 2 7 1 8 3 9 10 10
REMARK H PARENT 10 11
REMARK Flexibility Score: inf
ROOT
ATOM      1  C   UNL     1      21.514  32.066  24.484  1.00  0.00     0.039 A 
ATOM      2  C   UNL     1      21.428  30.744  23.987  1.00  0.00     0.124 A 
ATOM      3  C   UNL     1      21.359  33.141  23.585  1.00  0.00     0.014 A 
ATOM      4  C   UNL     1      21.193  30.524  22.621  1.00  0.00     0.047 A 
ATOM      5  C   UNL     1      21.126  32.907  22.228  1.00  0.00     0.001 A 
ATOM      6  C   UNL     1      21.043  31.602  21.747  1.00  0.00     0.004 A 
ENDROOT
BRANCH   1   7
ATOM      7  C   UNL     1      21.761  32.352  25.921  1.00  0.00     0.075 C 
ATOM      8  O   UNL     1      21.512  31.493  26.806  1.00  0.00    -0.545 OA
ATOM      9  O   UNL     1      22.275  33.583  26.312  1.00  0.00    -0.545 OA
ENDBRANCH   1   7
BRANCH   2  10
ATOM     10  O   UNL     1      21.575  29.650  24.839  1.00  0.00    -0.507 OA
ATOM     11  H   UNL     1      21.698  28.709  24.484  1.00  0.00     0.293 HD
ENDBRANCH   2  10
TORSDOF 2
ENDMDL
MODEL 5
REMARK VINA RESULT:    -4.661     13.682     14.113
REMARK INTER + INTRA:          -5.309
REMARK INTER:                  -5.067
REMARK INTRA:                  -0.242
REMARK UNBOUND:                -0.240
REMARK SMILES O=C([O-])c1ccccc1O
REMARK SMILES IDX 4 1 9 2 5 3 8 4 6 5 7 6 2 7 1 8 3 9 10 10
REMARK H PARENT 10 11
REMARK Flexibility Score: inf
ROOT
ATOM      1  C   UNL     1      34.259  26.622  21.563  1.00  0.00     0.039 A 
ATOM      2  C   UNL     1      33.991  26.110  22.854  1.00  0.00     0.124 A 
ATOM      3  C   UNL     1      34.874  27.884  21.447  1.00  0.00     0.014 A 
ATOM      4  C   UNL     1      34.337  26.860  23.990  1.00  0.00     0.047 A 
ATOM      5  C   UNL     1      35.214  28.620  22.586  1.00  0.00     0.001 A 
ATOM      6  C   UNL     1      34.945  28.108  23.854  1.00  0.00     0.004 A 
ENDROOT
BRANCH   1   7
ATOM      7  C   UNL     1      33.913  25.869  20.331  1.00  0.00     0.075 C 
ATOM      8  O   UNL     1      34.356  24.707  20.133  1.00  0.00    -0.545 OA
ATOM      9  O   UNL     1      33.085  26.439  19.370  1.00  0.00    -0.545 OA
ENDBRANCH   1   7
BRANCH   2  10
ATOM     10  O   UNL     1      33.384  24.865  23.017  1.00  0.00    -0.507 OA
ATOM     11  H   UNL     1      32.420  24.776  23.316  1.00  0.00     0.293 HD
ENDBRANCH   2  10
TORSDOF 2
ENDMDL
MODEL 6
REMARK VINA RESULT:    -4.566      1.009      2.370
REMARK INTER + INTRA:          -5.206
REMARK INTER:                  -4.976
REMARK INTRA:                  -0.231
REMARK UNBOUND:                -0.240
REMARK SMILES O=C([O-])c1ccccc1O
REMARK SMILES IDX 4 1 9 2 5 3 8 4 6 5 7 6 2 7 1 8 3 9 10 10
REMARK H PARENT 10 11
REMARK Flexibility Score: inf
ROOT
ATOM      1  C   UNL     1      21.415  31.124  22.982  1.00  0.00     0.039 A 
ATOM      2  C   UNL     1      21.965  32.296  22.410  1.00  0.00     0.124 A 
ATOM      3  C   UNL     1      20.717  30.226  22.150  1.00  0.00     0.014 A 
ATOM      4  C   UNL     1      21.808  32.544  21.037  1.00  0.00     0.047 A 
ATOM      5  C   UNL     1      20.568  30.485  20.786  1.00  0.00     0.001 A 
ATOM      6  C   UNL     1      21.113  31.642  20.230  1.00  0.00     0.004 A 
ENDROOT
BRANCH   1   7
ATOM      7  C   UNL     1      21.553  30.816  24.428  1.00  0.00     0.075 C 
ATOM      8  O   UNL     1      21.610  29.626  24.836  1.00  0.00    -0.545 OA
ATOM      9  O   UNL     1      21.624  31.844  25.361  1.00  0.00    -0.545 OA
ENDBRANCH   1   7
BRANCH   2  10
ATOM     10  O   UNL     1      22.664  33.213  23.194  1.00  0.00    -0.507 OA
ATOM     11  H   UNL     1      22.874  33.032  24.168  1.00  0.00     0.293 HD
ENDBRANCH   2  10
TORSDOF 2
ENDMDL
MODEL 7
REMARK VINA RESULT:    -4.335      1.730      3.649
REMARK INTER + INTRA:          -4.955
REMARK INTER:                  -4.739
REMARK INTRA:                  -0.216
REMARK UNBOUND:                -0.240
REMARK SMILES O=C([O-])c1ccccc1O
REMARK SMILES IDX 4 1 9 2 5 3 8 4 6 5 7 6 2 7 1 8 3 9 10 10
REMARK H PARENT 10 11
REMARK Flexibility Score: inf
ROOT
ATOM      1  C   UNL     1      21.384  31.848  23.547  1.00  0.00     0.039 A 
ATOM      2  C   UNL     1      21.525  31.122  24.753  1.00  0.00     0.124 A 
ATOM      3  C   UNL     1      21.384  33.256  23.599  1.00  0.00     0.014 A 
ATOM      4  C   UNL     1      21.661  31.807  25.971  1.00  0.00     0.047 A 
ATOM      5  C   UNL     1      21.520  33.925  24.817  1.00  0.00     0.001 A 
ATOM      6  C   UNL     1      21.658  33.202  26.001  1.00  0.00     0.004 A 
ENDROOT
BRANCH   1   7
ATOM      7  C   UNL     1      21.237  31.170  22.234  1.00  0.00     0.075 C 
ATOM      8  O   UNL     1      20.768  30.005  22.153  1.00  0.00    -0.545 OA
ATOM      9  O   UNL     1      21.618  31.819  21.064  1.00  0.00    -0.545 OA
ENDBRANCH   1   7
BRANCH   2  10
ATOM     10  O   UNL     1      21.531  29.727  24.751  1.00  0.00    -0.507 OA
ATOM     11  H   UNL     1      20.818  29.191  24.272  1.00  0.00     0.293 HD
ENDBRANCH   2  10
TORSDOF 2
ENDMDL
MODEL 8
REMARK VINA RESULT:    -4.332     13.739     14.536
REMARK INTER + INTRA:          -4.952
REMARK INTER:                  -4.703
REMARK INTRA:                  -0.249
REMARK UNBOUND:                -0.240
REMARK SMILES O=C([O-])c1ccccc1O
REMARK SMILES IDX 4 1 9 2 5 3 8 4 6 5 7 6 2 7 1 8 3 9 10 10
REMARK H PARENT 10 11
REMARK Flexibility Score: inf
ROOT
ATOM      1  C   UNL     1      19.963  18.269  28.052  1.00  0.00     0.039 A 
ATOM      2  C   UNL     1      19.382  17.267  27.239  1.00  0.00     0.124 A 
ATOM      3  C   UNL     1      21.355  18.474  27.986  1.00  0.00     0.014 A 
ATOM      4  C   UNL     1      20.193  16.499  26.388  1.00  0.00     0.047 A 
ATOM      5  C   UNL     1      22.151  17.703  27.135  1.00  0.00     0.001 A 
ATOM      6  C   UNL     1      21.571  16.717  26.338  1.00  0.00     0.004 A 
ENDROOT
BRANCH   1   7
ATOM      7  C   UNL     1      19.149  19.107  28.968  1.00  0.00     0.075 C 
ATOM      8  O   UNL     1      18.352  18.585  29.791  1.00  0.00    -0.545 OA
ATOM      9  O   UNL     1      19.256  20.493  28.932  1.00  0.00    -0.545 OA
ENDBRANCH   1   7
BRANCH   2  10
ATOM     10  O   UNL     1      18.009  17.028  27.270  1.00  0.00    -0.507 OA
ATOM     11  H   UNL     1      17.436  17.309  28.057  1.00  0.00     0.293 HD
ENDBRANCH   2  10
TORSDOF 2
ENDMDL
MODEL 9
REMARK VINA RESULT:    -4.324     14.347     14.805
REMARK INTER + INTRA:          -4.943
REMARK INTER:                  -4.693
REMARK INTRA:                  -0.249
REMARK UNBOUND:                -0.240
REMARK SMILES O=C([O-])c1ccccc1O
REMARK SMILES IDX 4 1 9 2 5 3 8 4 6 5 7 6 2 7 1 8 3 9 10 10
REMARK H PARENT 10 11
REMARK Flexibility Score: inf
ROOT
ATOM      1  C   UNL     1      21.123  17.714  27.267  1.00  0.00     0.039 A 
ATOM      2  C   UNL     1      19.724  17.608  27.445  1.00  0.00     0.124 A 
ATOM      3  C   UNL     1      21.895  18.303  28.288  1.00  0.00     0.014 A 
ATOM      4  C   UNL     1      19.130  18.087  28.625  1.00  0.00     0.047 A 
ATOM      5  C   UNL     1      21.292  18.775  29.456  1.00  0.00     0.001 A 
ATOM      6  C   UNL     1      19.912  18.667  29.624  1.00  0.00     0.004 A 
ENDROOT
BRANCH   1   7
ATOM      7  C   UNL     1      21.799  17.223  26.039  1.00  0.00     0.075 C 
ATOM      8  O   UNL     1      22.741  17.871  25.512  1.00  0.00    -0.545 OA
ATOM      9  O   UNL     1      21.398  16.030  25.447  1.00  0.00    -0.545 OA
ENDBRANCH   1   7
BRANCH   2  10
ATOM     10  O   UNL     1      18.920  17.032  26.462  1.00  0.00    -0.507 OA
ATOM     11  H   UNL     1      18.035  17.443  26.188  1.00  0.00     0.293 HD
ENDBRANCH   2  10
TORSDOF 2
ENDMDL
