MODEL 1
REMARK VINA RESULT:    -3.831      0.000      0.000
REMARK INTER + INTRA:         -11.948
REMARK INTER:                  -8.311
REMARK INTRA:                  -3.637
REMARK UNBOUND:                -3.637
REMARK SMILES CCCCCCCCCCCCCCCCCCCCCC(=O)[O-]
REMARK SMILES IDX 12 1 11 2 10 3 9 4 8 5 7 6 6 7 5 8 4 9 3 10 2 11 1 12 13 13
REMARK SMILES IDX 14 14 15 15 16 16 17 17 18 18 19 19 20 20 21 21 22 22 23 23
REMARK SMILES IDX 24 24
REMARK H PARENT
REMARK Flexibility Score: inf
ROOT
ATOM      1  C   UNL     1     -25.084   5.313  23.994  1.00  0.00     0.000 C 
ENDROOT
BRANCH   1   2
ATOM      2  C   UNL     1     -23.772   5.528  23.221  1.00  0.00     0.000 C 
BRANCH   2   3
ATOM      3  C   UNL     1     -23.777   6.821  22.385  1.00  0.00     0.000 C 
BRANCH   3   4
ATOM      4  C   UNL     1     -22.369   7.414  22.192  1.00  0.00    -0.000 C 
BRANCH   4   5
ATOM      5  C   UNL     1     -22.123   8.087  20.829  1.00  0.00    -0.000 C 
BRANCH   5   6
ATOM      6  C   UNL     1     -21.569   7.119  19.774  1.00  0.00    -0.000 C 
BRANCH   6   7
ATOM      7  C   UNL     1     -20.434   6.263  20.353  1.00  0.00    -0.000 C 
BRANCH   7   8
ATOM      8  C   UNL     1     -20.732   4.768  20.191  1.00  0.00    -0.000 C 
BRANCH   8   9
ATOM      9  C   UNL     1     -20.735   4.058  21.552  1.00  0.00    -0.000 C 
BRANCH   9  10
ATOM     10  C   UNL     1     -19.861   4.774  22.595  1.00  0.00    -0.000 C 
BRANCH  10  11
ATOM     11  C   UNL     1     -20.306   4.489  24.036  1.00  0.00    -0.003 C 
ATOM     12  C   UNL     1     -20.522   2.994  24.259  1.00  0.00     0.004 C 
ENDBRANCH  10  11
ENDBRANCH   9  10
ENDBRANCH   8   9
ENDBRANCH   7   8
ENDBRANCH   6   7
ENDBRANCH   5   6
ENDBRANCH   4   5
ENDBRANCH   3   4
ENDBRANCH   2   3
ENDBRANCH   1   2
BRANCH   1  13
ATOM     13  C   UNL     1     -24.914   5.006  25.496  1.00  0.00     0.000 C 
BRANCH  13  14
ATOM     14  C   UNL     1     -23.450   4.755  25.921  1.00  0.00     0.000 C 
BRANCH  14  15
ATOM     15  C   UNL     1     -23.297   3.884  27.184  1.00  0.00     0.000 C 
BRANCH  15  16
ATOM     16  C   UNL     1     -22.998   2.392  26.923  1.00  0.00     0.000 C 
BRANCH  16  17
ATOM     17  C   UNL     1     -24.105   1.612  26.183  1.00  0.00     0.000 C 
BRANCH  17  18
ATOM     18  C   UNL     1     -23.672   0.976  24.850  1.00  0.00     0.000 C 
BRANCH  18  19
ATOM     19  C   UNL     1     -24.132   1.784  23.628  1.00  0.00     0.000 C 
BRANCH  19  20
ATOM     20  C   UNL     1     -23.283   1.448  22.395  1.00  0.00     0.006 C 
BRANCH  20  21
ATOM     21  C   UNL     1     -22.834  -0.016  22.419  1.00  0.00     0.053 C 
BRANCH  21  22
ATOM     22  C   UNL     1     -21.868  -0.286  21.310  1.00  0.00     0.041 C 
ATOM     23  O   UNL     1     -22.089  -1.213  20.487  1.00  0.00    -0.550 OA
ATOM     24  O   UNL     1     -20.741   0.514  21.160  1.00  0.00    -0.550 OA
ENDBRANCH  21  22
ENDBRANCH  20  21
ENDBRANCH  19  20
ENDBRANCH  18  19
ENDBRANCH  17  18
ENDBRANCH  16  17
ENDBRANCH  15  16
ENDBRANCH  14  15
ENDBRANCH  13  14
ENDBRANCH   1  13
TORSDOF 20
ENDMDL
MODEL 2
REMARK VINA RESULT:    -3.699      1.334      2.201
REMARK INTER + INTRA:         -11.660
REMARK INTER:                  -8.291
REMARK INTRA:                  -3.369
REMARK UNBOUND:                -3.637
REMARK SMILES CCCCCCCCCCCCCCCCCCCCCC(=O)[O-]
REMARK SMILES IDX 12 1 11 2 10 3 9 4 8 5 7 6 6 7 5 8 4 9 3 10 2 11 1 12 13 13
REMARK SMILES IDX 14 14 15 15 16 16 17 17 18 18 19 19 20 20 21 21 22 22 23 23
REMARK SMILES IDX 24 24
REMARK H PARENT
REMARK Flexibility Score: inf
ROOT
ATOM      1  C   UNL     1     -23.812   5.381  23.235  1.00  0.00     0.000 C 
ENDROOT
BRANCH   1   2
ATOM      2  C   UNL     1     -23.993   6.717  22.494  1.00  0.00     0.000 C 
BRANCH   2   3
ATOM      3  C   UNL     1     -22.679   7.508  22.357  1.00  0.00     0.000 C 
BRANCH   3   4
ATOM      4  C   UNL     1     -22.247   7.700  20.892  1.00  0.00    -0.000 C 
BRANCH   4   5
ATOM      5  C   UNL     1     -21.011   6.890  20.461  1.00  0.00    -0.000 C 
BRANCH   5   6
ATOM      6  C   UNL     1     -21.372   5.594  19.720  1.00  0.00    -0.000 C 
BRANCH   6   7
ATOM      7  C   UNL     1     -21.259   4.379  20.650  1.00  0.00    -0.000 C 
BRANCH   7   8
ATOM      8  C   UNL     1     -19.797   3.954  20.828  1.00  0.00    -0.000 C 
BRANCH   8   9
ATOM      9  C   UNL     1     -19.449   3.792  22.315  1.00  0.00    -0.000 C 
BRANCH   9  10
ATOM     10  C   UNL     1     -20.595   4.231  23.242  1.00  0.00    -0.000 C 
BRANCH  10  11
ATOM     11  C   UNL     1     -20.111   5.110  24.405  1.00  0.00    -0.003 C 
ATOM     12  C   UNL     1     -19.544   6.432  23.895  1.00  0.00     0.004 C 
ENDBRANCH  10  11
ENDBRANCH   9  10
ENDBRANCH   8   9
ENDBRANCH   7   8
ENDBRANCH   6   7
ENDBRANCH   5   6
ENDBRANCH   4   5
ENDBRANCH   3   4
ENDBRANCH   2   3
ENDBRANCH   1   2
BRANCH   1  13
ATOM     13  C   UNL     1     -24.837   5.111  24.355  1.00  0.00     0.000 C 
BRANCH  13  14
ATOM     14  C   UNL     1     -24.292   4.232  25.502  1.00  0.00     0.000 C 
BRANCH  14  15
ATOM     15  C   UNL     1     -24.912   2.822  25.568  1.00  0.00     0.000 C 
BRANCH  15  16
ATOM     16  C   UNL     1     -24.807   1.996  24.269  1.00  0.00     0.000 C 
BRANCH  16  17
ATOM     17  C   UNL     1     -23.373   1.722  23.769  1.00  0.00     0.000 C 
BRANCH  17  18
ATOM     18  C   UNL     1     -23.248   1.478  22.254  1.00  0.00     0.000 C 
BRANCH  18  19
ATOM     19  C   UNL     1     -21.864   0.951  21.849  1.00  0.00     0.000 C 
BRANCH  19  20
ATOM     20  C   UNL     1     -21.977  -0.414  21.156  1.00  0.00     0.006 C 
BRANCH  20  21
ATOM     21  C   UNL     1     -21.263  -1.501  21.964  1.00  0.00     0.053 C 
BRANCH  21  22
ATOM     22  C   UNL     1     -19.805  -1.191  22.086  1.00  0.00     0.041 C 
ATOM     23  O   UNL     1     -19.282  -1.036  23.221  1.00  0.00    -0.550 OA
ATOM     24  O   UNL     1     -19.013  -1.116  20.947  1.00  0.00    -0.550 OA
ENDBRANCH  21  22
ENDBRANCH  20  21
ENDBRANCH  19  20
ENDBRANCH  18  19
ENDBRANCH  17  18
ENDBRANCH  16  17
ENDBRANCH  15  16
ENDBRANCH  14  15
ENDBRANCH  13  14
ENDBRANCH   1  13
TORSDOF 20
ENDMDL
MODEL 3
REMARK VINA RESULT:    -3.676      1.532      3.885
REMARK INTER + INTRA:         -11.611
REMARK INTER:                  -8.108
REMARK INTRA:                  -3.503
REMARK UNBOUND:                -3.637
REMARK SMILES CCCCCCCCCCCCCCCCCCCCCC(=O)[O-]
REMARK SMILES IDX 12 1 11 2 10 3 9 4 8 5 7 6 6 7 5 8 4 9 3 10 2 11 1 12 13 13
REMARK SMILES IDX 14 14 15 15 16 16 17 17 18 18 19 19 20 20 21 21 22 22 23 23
REMARK SMILES IDX 24 24
REMARK H PARENT
REMARK Flexibility Score: inf
ROOT
ATOM      1  C   UNL     1     -20.481   3.934  21.579  1.00  0.00     0.000 C 
ENDROOT
BRANCH   1   2
ATOM      2  C   UNL     1     -20.143   4.879  20.413  1.00  0.00     0.000 C 
BRANCH   2   3
ATOM      3  C   UNL     1     -20.342   6.363  20.770  1.00  0.00     0.000 C 
BRANCH   3   4
ATOM      4  C   UNL     1     -20.273   6.628  22.285  1.00  0.00    -0.000 C 
BRANCH   4   5
ATOM      5  C   UNL     1     -21.544   7.241  22.901  1.00  0.00    -0.000 C 
BRANCH   5   6
ATOM      6  C   UNL     1     -22.705   7.346  21.901  1.00  0.00    -0.000 C 
BRANCH   6   7
ATOM      7  C   UNL     1     -23.989   6.741  22.482  1.00  0.00    -0.000 C 
BRANCH   7   8
ATOM      8  C   UNL     1     -23.682   5.495  23.320  1.00  0.00    -0.000 C 
BRANCH   8   9
ATOM      9  C   UNL     1     -24.888   5.104  24.187  1.00  0.00    -0.000 C 
BRANCH   9  10
ATOM     10  C   UNL     1     -24.474   4.475  25.527  1.00  0.00    -0.000 C 
BRANCH  10  11
ATOM     11  C   UNL     1     -22.950   4.427  25.712  1.00  0.00    -0.003 C 
ATOM     12  C   UNL     1     -22.517   3.117  26.364  1.00  0.00     0.004 C 
ENDBRANCH  10  11
ENDBRANCH   9  10
ENDBRANCH   8   9
ENDBRANCH   7   8
ENDBRANCH   6   7
ENDBRANCH   5   6
ENDBRANCH   4   5
ENDBRANCH   3   4
ENDBRANCH   2   3
ENDBRANCH   1   2
BRANCH   1  13
ATOM     13  C   UNL     1     -21.784   3.128  21.410  1.00  0.00     0.000 C 
BRANCH  13  14
ATOM     14  C   UNL     1     -22.174   2.301  22.655  1.00  0.00     0.000 C 
BRANCH  14  15
ATOM     15  C   UNL     1     -23.618   1.760  22.629  1.00  0.00     0.000 C 
BRANCH  15  16
ATOM     16  C   UNL     1     -24.003   0.856  23.819  1.00  0.00     0.000 C 
BRANCH  16  17
ATOM     17  C   UNL     1     -22.979  -0.240  24.180  1.00  0.00     0.000 C 
BRANCH  17  18
ATOM     18  C   UNL     1     -23.153  -1.569  23.422  1.00  0.00     0.000 C 
BRANCH  18  19
ATOM     19  C   UNL     1     -22.689  -1.485  21.961  1.00  0.00     0.000 C 
BRANCH  19  20
ATOM     20  C   UNL     1     -21.185  -1.765  21.844  1.00  0.00     0.006 C 
BRANCH  20  21
ATOM     21  C   UNL     1     -20.499  -0.722  20.957  1.00  0.00     0.053 C 
BRANCH  21  22
ATOM     22  C   UNL     1     -19.432  -0.005  21.722  1.00  0.00     0.041 C 
ATOM     23  O   UNL     1     -18.483   0.555  21.113  1.00  0.00    -0.550 OA
ATOM     24  O   UNL     1     -19.508   0.082  23.106  1.00  0.00    -0.550 OA
ENDBRANCH  21  22
ENDBRANCH  20  21
ENDBRANCH  19  20
ENDBRANCH  18  19
ENDBRANCH  17  18
ENDBRANCH  16  17
ENDBRANCH  15  16
ENDBRANCH  14  15
ENDBRANCH  13  14
ENDBRANCH   1  13
TORSDOF 20
ENDMDL
MODEL 4
REMARK VINA RESULT:    -3.622      1.380      3.080
REMARK INTER + INTRA:         -11.494
REMARK INTER:                  -8.148
REMARK INTRA:                  -3.347
REMARK UNBOUND:                -3.637
REMARK SMILES CCCCCCCCCCCCCCCCCCCCCC(=O)[O-]
REMARK SMILES IDX 12 1 11 2 10 3 9 4 8 5 7 6 6 7 5 8 4 9 3 10 2 11 1 12 13 13
REMARK SMILES IDX 14 14 15 15 16 16 17 17 18 18 19 19 20 20 21 21 22 22 23 23
REMARK SMILES IDX 24 24
REMARK H PARENT
REMARK Flexibility Score: inf
ROOT
ATOM      1  C   UNL     1     -21.874   2.906  26.080  1.00  0.00     0.000 C 
ENDROOT
BRANCH   1   2
ATOM      2  C   UNL     1     -21.284   4.261  25.651  1.00  0.00     0.000 C 
BRANCH   2   3
ATOM      3  C   UNL     1     -21.605   4.615  24.188  1.00  0.00     0.000 C 
BRANCH   3   4
ATOM      4  C   UNL     1     -23.041   5.138  24.000  1.00  0.00    -0.000 C 
BRANCH   4   5
ATOM      5  C   UNL     1     -23.431   5.477  22.549  1.00  0.00    -0.000 C 
BRANCH   5   6
ATOM      6  C   UNL     1     -23.562   6.986  22.301  1.00  0.00    -0.000 C 
BRANCH   6   7
ATOM      7  C   UNL     1     -22.197   7.614  21.991  1.00  0.00    -0.000 C 
BRANCH   7   8
ATOM      8  C   UNL     1     -22.083   7.982  20.507  1.00  0.00    -0.000 C 
BRANCH   8   9
ATOM      9  C   UNL     1     -21.330   6.895  19.728  1.00  0.00    -0.000 C 
BRANCH   9  10
ATOM     10  C   UNL     1     -20.276   6.175  20.585  1.00  0.00    -0.000 C 
BRANCH  10  11
ATOM     11  C   UNL     1     -20.443   4.649  20.570  1.00  0.00    -0.003 C 
ATOM     12  C   UNL     1     -19.092   3.947  20.672  1.00  0.00     0.004 C 
ENDBRANCH  10  11
ENDBRANCH   9  10
ENDBRANCH   8   9
ENDBRANCH   7   8
ENDBRANCH   6   7
ENDBRANCH   5   6
ENDBRANCH   4   5
ENDBRANCH   3   4
ENDBRANCH   2   3
ENDBRANCH   1   2
BRANCH   1  13
ATOM     13  C   UNL     1     -23.002   2.987  27.129  1.00  0.00     0.000 C 
BRANCH  13  14
ATOM     14  C   UNL     1     -24.422   2.952  26.523  1.00  0.00     0.000 C 
BRANCH  14  15
ATOM     15  C   UNL     1     -24.740   1.667  25.731  1.00  0.00     0.000 C 
BRANCH  15  16
ATOM     16  C   UNL     1     -24.857   1.849  24.203  1.00  0.00     0.000 C 
BRANCH  16  17
ATOM     17  C   UNL     1     -23.879   1.005  23.358  1.00  0.00     0.000 C 
BRANCH  17  18
ATOM     18  C   UNL     1     -23.270   1.736  22.147  1.00  0.00     0.000 C 
BRANCH  18  19
ATOM     19  C   UNL     1     -21.735   1.765  22.180  1.00  0.00     0.000 C 
BRANCH  19  20
ATOM     20  C   UNL     1     -21.167   0.396  22.577  1.00  0.00     0.006 C 
BRANCH  20  21
ATOM     21  C   UNL     1     -20.853  -0.448  21.339  1.00  0.00     0.053 C 
BRANCH  21  22
ATOM     22  C   UNL     1     -21.957  -1.421  21.073  1.00  0.00     0.041 C 
ATOM     23  O   UNL     1     -22.569  -1.962  22.031  1.00  0.00    -0.550 OA
ATOM     24  O   UNL     1     -22.341  -1.698  19.767  1.00  0.00    -0.550 OA
ENDBRANCH  21  22
ENDBRANCH  20  21
ENDBRANCH  19  20
ENDBRANCH  18  19
ENDBRANCH  17  18
ENDBRANCH  16  17
ENDBRANCH  15  16
ENDBRANCH  14  15
ENDBRANCH  13  14
ENDBRANCH   1  13
TORSDOF 20
ENDMDL
MODEL 5
REMARK VINA RESULT:    -3.550      2.402      5.888
REMARK INTER + INTRA:         -11.338
REMARK INTER:                  -7.950
REMARK INTRA:                  -3.388
REMARK UNBOUND:                -3.637
REMARK SMILES CCCCCCCCCCCCCCCCCCCCCC(=O)[O-]
REMARK SMILES IDX 12 1 11 2 10 3 9 4 8 5 7 6 6 7 5 8 4 9 3 10 2 11 1 12 13 13
REMARK SMILES IDX 14 14 15 15 16 16 17 17 18 18 19 19 20 20 21 21 22 22 23 23
REMARK SMILES IDX 24 24
REMARK H PARENT
REMARK Flexibility Score: inf
ROOT
ATOM      1  C   UNL     1     -23.916   5.403  23.430  1.00  0.00     0.000 C 
ENDROOT
BRANCH   1   2
ATOM      2  C   UNL     1     -25.116   5.173  24.364  1.00  0.00     0.000 C 
BRANCH   2   3
ATOM      3  C   UNL     1     -24.847   4.094  25.428  1.00  0.00     0.000 C 
BRANCH   3   4
ATOM      4  C   UNL     1     -23.647   3.195  25.077  1.00  0.00    -0.000 C 
BRANCH   4   5
ATOM      5  C   UNL     1     -23.998   1.728  24.764  1.00  0.00    -0.000 C 
BRANCH   5   6
ATOM      6  C   UNL     1     -22.848   0.969  24.087  1.00  0.00    -0.000 C 
BRANCH   6   7
ATOM      7  C   UNL     1     -23.083   0.847  22.575  1.00  0.00    -0.000 C 
BRANCH   7   8
ATOM      8  C   UNL     1     -22.633  -0.524  22.056  1.00  0.00    -0.000 C 
BRANCH   8   9
ATOM      9  C   UNL     1     -21.105  -0.659  22.114  1.00  0.00    -0.000 C 
BRANCH   9  10
ATOM     10  C   UNL     1     -20.383   0.464  21.350  1.00  0.00    -0.000 C 
BRANCH  10  11
ATOM     11  C   UNL     1     -18.860   0.425  21.542  1.00  0.00    -0.003 C 
ATOM     12  C   UNL     1     -18.199   1.662  20.941  1.00  0.00     0.004 C 
ENDBRANCH  10  11
ENDBRANCH   9  10
ENDBRANCH   8   9
ENDBRANCH   7   8
ENDBRANCH   6   7
ENDBRANCH   5   6
ENDBRANCH   4   5
ENDBRANCH   3   4
ENDBRANCH   2   3
ENDBRANCH   1   2
BRANCH   1  13
ATOM     13  C   UNL     1     -24.030   6.637  22.511  1.00  0.00     0.000 C 
BRANCH  13  14
ATOM     14  C   UNL     1     -22.723   7.452  22.393  1.00  0.00     0.000 C 
BRANCH  14  15
ATOM     15  C   UNL     1     -22.353   7.850  20.950  1.00  0.00     0.000 C 
BRANCH  15  16
ATOM     16  C   UNL     1     -21.110   7.142  20.371  1.00  0.00     0.000 C 
BRANCH  16  17
ATOM     17  C   UNL     1     -21.356   5.731  19.798  1.00  0.00     0.000 C 
BRANCH  17  18
ATOM     18  C   UNL     1     -20.534   4.609  20.458  1.00  0.00     0.000 C 
BRANCH  18  19
ATOM     19  C   UNL     1     -21.357   3.768  21.444  1.00  0.00     0.000 C 
BRANCH  19  20
ATOM     20  C   UNL     1     -20.726   3.784  22.842  1.00  0.00     0.006 C 
BRANCH  20  21
ATOM     21  C   UNL     1     -19.517   4.723  22.888  1.00  0.00     0.053 C 
BRANCH  21  22
ATOM     22  C   UNL     1     -19.807   5.908  23.752  1.00  0.00     0.041 C 
ATOM     23  O   UNL     1     -19.329   7.037  23.461  1.00  0.00    -0.550 OA
ATOM     24  O   UNL     1     -20.640   5.777  24.856  1.00  0.00    -0.550 OA
ENDBRANCH  21  22
ENDBRANCH  20  21
ENDBRANCH  19  20
ENDBRANCH  18  19
ENDBRANCH  17  18
ENDBRANCH  16  17
ENDBRANCH  15  16
ENDBRANCH  14  15
ENDBRANCH  13  14
ENDBRANCH   1  13
TORSDOF 20
ENDMDL
MODEL 6
REMARK VINA RESULT:    -3.518      1.915      3.216
REMARK INTER + INTRA:         -11.268
REMARK INTER:                  -7.856
REMARK INTRA:                  -3.412
REMARK UNBOUND:                -3.637
REMARK SMILES CCCCCCCCCCCCCCCCCCCCCC(=O)[O-]
REMARK SMILES IDX 12 1 11 2 10 3 9 4 8 5 7 6 6 7 5 8 4 9 3 10 2 11 1 12 13 13
REMARK SMILES IDX 14 14 15 15 16 16 17 17 18 18 19 19 20 20 21 21 22 22 23 23
REMARK SMILES IDX 24 24
REMARK H PARENT
REMARK Flexibility Score: inf
ROOT
ATOM      1  C   UNL     1     -23.666   4.707  24.948  1.00  0.00     0.000 C 
ENDROOT
BRANCH   1   2
ATOM      2  C   UNL     1     -24.998   5.137  24.311  1.00  0.00     0.000 C 
BRANCH   2   3
ATOM      3  C   UNL     1     -24.820   6.209  23.220  1.00  0.00     0.000 C 
BRANCH   3   4
ATOM      4  C   UNL     1     -23.480   6.085  22.473  1.00  0.00    -0.000 C 
BRANCH   4   5
ATOM      5  C   UNL     1     -22.977   7.381  21.811  1.00  0.00    -0.000 C 
BRANCH   5   6
ATOM      6  C   UNL     1     -21.879   7.133  20.766  1.00  0.00    -0.000 C 
BRANCH   6   7
ATOM      7  C   UNL     1     -21.739   5.636  20.459  1.00  0.00    -0.000 C 
BRANCH   7   8
ATOM      8  C   UNL     1     -20.265   5.226  20.372  1.00  0.00    -0.000 C 
BRANCH   8   9
ATOM      9  C   UNL     1     -19.693   4.933  21.767  1.00  0.00    -0.000 C 
BRANCH   9  10
ATOM     10  C   UNL     1     -18.682   5.996  22.227  1.00  0.00    -0.000 C 
BRANCH  10  11
ATOM     11  C   UNL     1     -18.872   6.396  23.697  1.00  0.00    -0.003 C 
ATOM     12  C   UNL     1     -20.304   6.135  24.156  1.00  0.00     0.004 C 
ENDBRANCH  10  11
ENDBRANCH   9  10
ENDBRANCH   8   9
ENDBRANCH   7   8
ENDBRANCH   6   7
ENDBRANCH   5   6
ENDBRANCH   4   5
ENDBRANCH   3   4
ENDBRANCH   2   3
ENDBRANCH   1   2
BRANCH   1  13
ATOM     13  C   UNL     1     -23.346   3.202  24.839  1.00  0.00     0.000 C 
BRANCH  13  14
ATOM     14  C   UNL     1     -22.144   2.883  23.923  1.00  0.00     0.000 C 
BRANCH  14  15
ATOM     15  C   UNL     1     -22.521   2.627  22.449  1.00  0.00     0.000 C 
BRANCH  15  16
ATOM     16  C   UNL     1     -23.364   1.359  22.197  1.00  0.00     0.000 C 
BRANCH  16  17
ATOM     17  C   UNL     1     -22.735   0.036  22.683  1.00  0.00     0.000 C 
BRANCH  17  18
ATOM     18  C   UNL     1     -22.264  -0.911  21.564  1.00  0.00     0.000 C 
BRANCH  18  19
ATOM     19  C   UNL     1     -20.947  -0.460  20.918  1.00  0.00     0.000 C 
BRANCH  19  20
ATOM     20  C   UNL     1     -19.912  -0.079  21.985  1.00  0.00     0.006 C 
BRANCH  20  21
ATOM     21  C   UNL     1     -19.196   1.223  21.616  1.00  0.00     0.053 C 
BRANCH  21  22
ATOM     22  C   UNL     1     -17.831   0.935  21.077  1.00  0.00     0.041 C 
ATOM     23  O   UNL     1     -17.395   1.571  20.081  1.00  0.00    -0.550 OA
ATOM     24  O   UNL     1     -17.022  -0.006  21.700  1.00  0.00    -0.550 OA
ENDBRANCH  21  22
ENDBRANCH  20  21
ENDBRANCH  19  20
ENDBRANCH  18  19
ENDBRANCH  17  18
ENDBRANCH  16  17
ENDBRANCH  15  16
ENDBRANCH  14  15
ENDBRANCH  13  14
ENDBRANCH   1  13
TORSDOF 20
ENDMDL
MODEL 7
REMARK VINA RESULT:    -3.496      2.717      6.262
REMARK INTER + INTRA:         -11.220
REMARK INTER:                  -7.859
REMARK INTRA:                  -3.361
REMARK UNBOUND:                -3.637
REMARK SMILES CCCCCCCCCCCCCCCCCCCCCC(=O)[O-]
REMARK SMILES IDX 12 1 11 2 10 3 9 4 8 5 7 6 6 7 5 8 4 9 3 10 2 11 1 12 13 13
REMARK SMILES IDX 14 14 15 15 16 16 17 17 18 18 19 19 20 20 21 21 22 22 23 23
REMARK SMILES IDX 24 24
REMARK H PARENT
REMARK Flexibility Score: inf
ROOT
ATOM      1  C   UNL     1     -19.420   3.679  22.934  1.00  0.00     0.000 C 
ENDROOT
BRANCH   1   2
ATOM      2  C   UNL     1     -19.948   3.647  21.490  1.00  0.00     0.000 C 
BRANCH   2   3
ATOM      3  C   UNL     1     -21.460   3.367  21.413  1.00  0.00     0.000 C 
BRANCH   3   4
ATOM      4  C   UNL     1     -21.989   2.601  22.639  1.00  0.00    -0.000 C 
BRANCH   4   5
ATOM      5  C   UNL     1     -23.304   1.831  22.413  1.00  0.00    -0.000 C 
BRANCH   5   6
ATOM      6  C   UNL     1     -23.994   1.427  23.724  1.00  0.00    -0.000 C 
BRANCH   6   7
ATOM      7  C   UNL     1     -23.937  -0.092  23.931  1.00  0.00    -0.000 C 
BRANCH   7   8
ATOM      8  C   UNL     1     -22.529  -0.541  24.339  1.00  0.00    -0.000 C 
BRANCH   8   9
ATOM      9  C   UNL     1     -21.922  -1.476  23.283  1.00  0.00    -0.000 C 
BRANCH   9  10
ATOM     10  C   UNL     1     -20.630  -0.912  22.666  1.00  0.00    -0.000 C 
BRANCH  10  11
ATOM     11  C   UNL     1     -20.722  -0.757  21.141  1.00  0.00    -0.003 C 
ATOM     12  C   UNL     1     -22.072  -1.239  20.620  1.00  0.00     0.004 C 
ENDBRANCH  10  11
ENDBRANCH   9  10
ENDBRANCH   8   9
ENDBRANCH   7   8
ENDBRANCH   6   7
ENDBRANCH   5   6
ENDBRANCH   4   5
ENDBRANCH   3   4
ENDBRANCH   2   3
ENDBRANCH   1   2
BRANCH   1  13
ATOM     13  C   UNL     1     -19.218   5.089  23.525  1.00  0.00     0.000 C 
BRANCH  13  14
ATOM     14  C   UNL     1     -19.831   6.219  22.669  1.00  0.00     0.000 C 
BRANCH  14  15
ATOM     15  C   UNL     1     -21.153   6.787  23.224  1.00  0.00     0.000 C 
BRANCH  15  16
ATOM     16  C   UNL     1     -22.155   7.283  22.160  1.00  0.00     0.000 C 
BRANCH  16  17
ATOM     17  C   UNL     1     -23.613   6.818  22.354  1.00  0.00     0.000 C 
BRANCH  17  18
ATOM     18  C   UNL     1     -23.786   5.576  23.247  1.00  0.00     0.000 C 
BRANCH  18  19
ATOM     19  C   UNL     1     -25.125   5.566  23.999  1.00  0.00     0.000 C 
BRANCH  19  20
ATOM     20  C   UNL     1     -24.995   4.840  25.344  1.00  0.00     0.006 C 
BRANCH  20  21
ATOM     21  C   UNL     1     -23.528   4.543  25.669  1.00  0.00     0.053 C 
BRANCH  21  22
ATOM     22  C   UNL     1     -23.303   4.564  27.147  1.00  0.00     0.041 C 
ATOM     23  O   UNL     1     -23.436   5.637  27.793  1.00  0.00    -0.550 OA
ATOM     24  O   UNL     1     -22.989   3.390  27.820  1.00  0.00    -0.550 OA
ENDBRANCH  21  22
ENDBRANCH  20  21
ENDBRANCH  19  20
ENDBRANCH  18  19
ENDBRANCH  17  18
ENDBRANCH  16  17
ENDBRANCH  15  16
ENDBRANCH  14  15
ENDBRANCH  13  14
ENDBRANCH   1  13
TORSDOF 20
ENDMDL
MODEL 8
REMARK VINA RESULT:    -3.474      1.687      4.421
REMARK INTER + INTRA:         -11.173
REMARK INTER:                  -7.975
REMARK INTRA:                  -3.198
REMARK UNBOUND:                -3.637
REMARK SMILES CCCCCCCCCCCCCCCCCCCCCC(=O)[O-]
REMARK SMILES IDX 12 1 11 2 10 3 9 4 8 5 7 6 6 7 5 8 4 9 3 10 2 11 1 12 13 13
REMARK SMILES IDX 14 14 15 15 16 16 17 17 18 18 19 19 20 20 21 21 22 22 23 23
REMARK SMILES IDX 24 24
REMARK H PARENT
REMARK Flexibility Score: inf
ROOT
ATOM      1  C   UNL     1     -19.802   5.477  21.361  1.00  0.00     0.000 C 
ENDROOT
BRANCH   1   2
ATOM      2  C   UNL     1     -20.566   6.547  22.160  1.00  0.00     0.000 C 
BRANCH   2   3
ATOM      3  C   UNL     1     -21.658   7.246  21.330  1.00  0.00     0.000 C 
BRANCH   3   4
ATOM      4  C   UNL     1     -22.997   7.361  22.081  1.00  0.00    -0.000 C 
BRANCH   4   5
ATOM      5  C   UNL     1     -23.335   6.175  23.004  1.00  0.00    -0.000 C 
BRANCH   5   6
ATOM      6  C   UNL     1     -24.844   6.009  23.237  1.00  0.00    -0.000 C 
BRANCH   6   7
ATOM      7  C   UNL     1     -25.125   5.423  24.627  1.00  0.00    -0.000 C 
BRANCH   7   8
ATOM      8  C   UNL     1     -24.797   3.926  24.672  1.00  0.00    -0.000 C 
BRANCH   8   9
ATOM      9  C   UNL     1     -23.818   3.612  25.813  1.00  0.00    -0.000 C 
BRANCH   9  10
ATOM     10  C   UNL     1     -23.586   4.816  26.741  1.00  0.00    -0.000 C 
BRANCH  10  11
ATOM     11  C   UNL     1     -22.096   5.122  26.950  1.00  0.00    -0.003 C 
ATOM     12  C   UNL     1     -21.303   4.889  25.667  1.00  0.00     0.004 C 
ENDBRANCH  10  11
ENDBRANCH   9  10
ENDBRANCH   8   9
ENDBRANCH   7   8
ENDBRANCH   6   7
ENDBRANCH   5   6
ENDBRANCH   4   5
ENDBRANCH   3   4
ENDBRANCH   2   3
ENDBRANCH   1   2
BRANCH   1  13
ATOM     13  C   UNL     1     -20.689   4.415  20.679  1.00  0.00     0.000 C 
BRANCH  13  14
ATOM     14  C   UNL     1     -20.672   3.040  21.383  1.00  0.00     0.000 C 
BRANCH  14  15
ATOM     15  C   UNL     1     -21.712   2.895  22.512  1.00  0.00     0.000 C 
BRANCH  15  16
ATOM     16  C   UNL     1     -22.953   2.049  22.158  1.00  0.00     0.000 C 
BRANCH  16  17
ATOM     17  C   UNL     1     -23.217   0.839  23.079  1.00  0.00     0.000 C 
BRANCH  17  18
ATOM     18  C   UNL     1     -22.393  -0.420  22.749  1.00  0.00     0.000 C 
BRANCH  18  19
ATOM     19  C   UNL     1     -22.172  -0.608  21.241  1.00  0.00     0.000 C 
BRANCH  19  20
ATOM     20  C   UNL     1     -20.710  -0.963  20.940  1.00  0.00     0.006 C 
BRANCH  20  21
ATOM     21  C   UNL     1     -19.778  -0.429  22.031  1.00  0.00     0.053 C 
BRANCH  21  22
ATOM     22  C   UNL     1     -18.369  -0.369  21.534  1.00  0.00     0.041 C 
ATOM     23  O   UNL     1     -18.010   0.552  20.755  1.00  0.00    -0.550 OA
ATOM     24  O   UNL     1     -17.440  -1.308  21.966  1.00  0.00    -0.550 OA
ENDBRANCH  21  22
ENDBRANCH  20  21
ENDBRANCH  19  20
ENDBRANCH  18  19
ENDBRANCH  17  18
ENDBRANCH  16  17
ENDBRANCH  15  16
ENDBRANCH  14  15
ENDBRANCH  13  14
ENDBRANCH   1  13
TORSDOF 20
ENDMDL
MODEL 9
REMARK VINA RESULT:    -3.472      1.761      5.212
REMARK INTER + INTRA:         -11.168
REMARK INTER:                  -7.232
REMARK INTRA:                  -3.936
REMARK UNBOUND:                -3.637
REMARK SMILES CCCCCCCCCCCCCCCCCCCCCC(=O)[O-]
REMARK SMILES IDX 12 1 11 2 10 3 9 4 8 5 7 6 6 7 5 8 4 9 3 10 2 11 1 12 13 13
REMARK SMILES IDX 14 14 15 15 16 16 17 17 18 18 19 19 20 20 21 21 22 22 23 23
REMARK SMILES IDX 24 24
REMARK H PARENT
REMARK Flexibility Score: inf
ROOT
ATOM      1  C   UNL     1     -22.499   5.008  21.550  1.00  0.00     0.000 C 
ENDROOT
BRANCH   1   2
ATOM      2  C   UNL     1     -23.170   6.249  22.163  1.00  0.00     0.000 C 
BRANCH   2   3
ATOM      3  C   UNL     1     -24.235   5.893  23.216  1.00  0.00     0.000 C 
BRANCH   3   4
ATOM      4  C   UNL     1     -23.712   4.925  24.293  1.00  0.00    -0.000 C 
BRANCH   4   5
ATOM      5  C   UNL     1     -24.786   4.052  24.967  1.00  0.00    -0.000 C 
BRANCH   5   6
ATOM      6  C   UNL     1     -24.870   2.639  24.371  1.00  0.00    -0.000 C 
BRANCH   6   7
ATOM      7  C   UNL     1     -23.487   2.144  23.930  1.00  0.00    -0.000 C 
BRANCH   7   8
ATOM      8  C   UNL     1     -23.567   1.405  22.589  1.00  0.00    -0.000 C 
BRANCH   8   9
ATOM      9  C   UNL     1     -22.804   0.074  22.649  1.00  0.00    -0.000 C 
BRANCH   9  10
ATOM     10  C   UNL     1     -22.292  -0.377  21.270  1.00  0.00    -0.000 C 
BRANCH  10  11
ATOM     11  C   UNL     1     -21.018  -1.229  21.363  1.00  0.00    -0.003 C 
ATOM     12  C   UNL     1     -20.614  -1.456  22.816  1.00  0.00     0.004 C 
ENDBRANCH  10  11
ENDBRANCH   9  10
ENDBRANCH   8   9
ENDBRANCH   7   8
ENDBRANCH   6   7
ENDBRANCH   5   6
ENDBRANCH   4   5
ENDBRANCH   3   4
ENDBRANCH   2   3
ENDBRANCH   1   2
BRANCH   1  13
ATOM     13  C   UNL     1     -21.462   5.304  20.447  1.00  0.00     0.000 C 
BRANCH  13  14
ATOM     14  C   UNL     1     -20.685   6.622  20.658  1.00  0.00     0.000 C 
BRANCH  14  15
ATOM     15  C   UNL     1     -19.460   6.494  21.587  1.00  0.00     0.000 C 
BRANCH  15  16
ATOM     16  C   UNL     1     -19.670   7.007  23.027  1.00  0.00     0.000 C 
BRANCH  16  17
ATOM     17  C   UNL     1     -19.932   5.918  24.088  1.00  0.00     0.000 C 
BRANCH  17  18
ATOM     18  C   UNL     1     -19.261   4.561  23.807  1.00  0.00     0.000 C 
BRANCH  18  19
ATOM     19  C   UNL     1     -20.207   3.372  24.027  1.00  0.00     0.000 C 
BRANCH  19  20
ATOM     20  C   UNL     1     -19.744   2.146  23.230  1.00  0.00     0.006 C 
BRANCH  20  21
ATOM     21  C   UNL     1     -19.918   2.370  21.725  1.00  0.00     0.053 C 
BRANCH  21  22
ATOM     22  C   UNL     1     -18.638   2.095  21.003  1.00  0.00     0.041 C 
ATOM     23  O   UNL     1     -18.153   0.933  20.993  1.00  0.00    -0.550 OA
ATOM     24  O   UNL     1     -18.001   3.113  20.304  1.00  0.00    -0.550 OA
ENDBRANCH  21  22
ENDBRANCH  20  21
ENDBRANCH  19  20
ENDBRANCH  18  19
ENDBRANCH  17  18
ENDBRANCH  16  17
ENDBRANCH  15  16
ENDBRANCH  14  15
ENDBRANCH  13  14
ENDBRANCH   1  13
TORSDOF 20
ENDMDL
