MODEL 1
REMARK VINA RESULT:    -2.469      0.000      0.000
REMARK INTER + INTRA:          -2.469
REMARK INTER:                  -2.469
REMARK INTRA:                   0.000
REMARK UNBOUND:                 0.000
REMARK SMILES CC(=O)[O-]
REMARK SMILES IDX 1 1 2 2 3 3 4 4
REMARK H PARENT
REMARK Flexibility Score: inf
ROOT
ATOM      1  C   UNL     1      -7.407  34.720  18.117  1.00  0.00     0.063 C 
ATOM      2  C   UNL     1      -7.575  33.593  17.155  1.00  0.00     0.038 C 
ATOM      3  O   UNL     1      -6.684  32.711  17.055  1.00  0.00    -0.550 OA
ATOM      4  O   UNL     1      -8.740  33.485  16.406  1.00  0.00    -0.550 OA
ENDROOT
TORSDOF 0
ENDMDL
MODEL 2
REMARK VINA RESULT:    -2.450      1.419      1.770
REMARK INTER + INTRA:          -2.450
REMARK INTER:                  -2.450
REMARK INTRA:                   0.000
REMARK UNBOUND:                 0.000
REMARK SMILES CC(=O)[O-]
REMARK SMILES IDX 1 1 2 2 3 3 4 4
REMARK H PARENT
REMARK Flexibility Score: inf
ROOT
ATOM      1  C   UNL     1      -8.721  33.322  16.454  1.00  0.00     0.063 C 
ATOM      2  C   UNL     1      -7.506  33.604  17.270  1.00  0.00     0.038 C 
ATOM      3  O   UNL     1      -6.507  32.842  17.201  1.00  0.00    -0.550 OA
ATOM      4  O   UNL     1      -7.453  34.740  18.070  1.00  0.00    -0.550 OA
ENDROOT
TORSDOF 0
ENDMDL
MODEL 3
REMARK VINA RESULT:    -2.382     16.381     16.861
REMARK INTER + INTRA:          -2.382
REMARK INTER:                  -2.382
REMARK INTRA:                   0.000
REMARK UNBOUND:                 0.000
REMARK SMILES CC(=O)[O-]
REMARK SMILES IDX 1 1 2 2 3 3 4 4
REMARK H PARENT
REMARK Flexibility Score: inf
ROOT
ATOM      1  C   UNL     1      10.282  34.686  16.289  1.00  0.00     0.063 C 
ATOM      2  C   UNL     1       9.030  34.832  15.493  1.00  0.00     0.038 C 
ATOM      3  O   UNL     1       8.129  33.956  15.566  1.00  0.00    -0.550 OA
ATOM      4  O   UNL     1       8.831  35.963  14.710  1.00  0.00    -0.550 OA
ENDROOT
TORSDOF 0
ENDMDL
MODEL 4
REMARK VINA RESULT:    -2.375     16.365     16.921
REMARK INTER + INTRA:          -2.375
REMARK INTER:                  -2.375
REMARK INTRA:                   0.000
REMARK UNBOUND:                 0.000
REMARK SMILES CC(=O)[O-]
REMARK SMILES IDX 1 1 2 2 3 3 4 4
REMARK H PARENT
REMARK Flexibility Score: inf
ROOT
ATOM      1  C   UNL     1       8.752  35.955  14.742  1.00  0.00     0.063 C 
ATOM      2  C   UNL     1       9.074  34.799  15.626  1.00  0.00     0.038 C 
ATOM      3  O   UNL     1       8.293  33.814  15.688  1.00  0.00    -0.550 OA
ATOM      4  O   UNL     1      10.265  34.781  16.343  1.00  0.00    -0.550 OA
ENDROOT
TORSDOF 0
ENDMDL
MODEL 5
REMARK VINA RESULT:    -1.884     16.402     16.953
REMARK INTER + INTRA:          -1.884
REMARK INTER:                  -1.884
REMARK INTRA:                   0.000
REMARK UNBOUND:                 0.000
REMARK SMILES CC(=O)[O-]
REMARK SMILES IDX 1 1 2 2 3 3 4 4
REMARK H PARENT
REMARK Flexibility Score: inf
ROOT
ATOM      1  C   UNL     1       8.037  33.956  15.515  1.00  0.00     0.063 C 
ATOM      2  C   UNL     1       9.083  35.017  15.441  1.00  0.00     0.038 C 
ATOM      3  O   UNL     1       8.931  36.000  14.670  1.00  0.00    -0.550 OA
ATOM      4  O   UNL     1      10.202  34.949  16.262  1.00  0.00    -0.550 OA
ENDROOT
TORSDOF 0
ENDMDL
MODEL 6
REMARK VINA RESULT:    -1.872     12.443     12.959
REMARK INTER + INTRA:          -1.872
REMARK INTER:                  -1.872
REMARK INTRA:                   0.000
REMARK UNBOUND:                 0.000
REMARK SMILES CC(=O)[O-]
REMARK SMILES IDX 1 1 2 2 3 3 4 4
REMARK H PARENT
REMARK Flexibility Score: inf
ROOT
ATOM      1  C   UNL     1      -5.732  21.028  14.616  1.00  0.00     0.063 C 
ATOM      2  C   UNL     1      -7.074  20.924  15.257  1.00  0.00     0.038 C 
ATOM      3  O   UNL     1      -7.825  19.949  14.993  1.00  0.00    -0.550 OA
ATOM      4  O   UNL     1      -7.478  21.874  16.187  1.00  0.00    -0.550 OA
ENDROOT
TORSDOF 0
ENDMDL
MODEL 7
REMARK VINA RESULT:    -1.763     13.076     13.242
REMARK INTER + INTRA:          -1.763
REMARK INTER:                  -1.763
REMARK INTRA:                   0.000
REMARK UNBOUND:                 0.000
REMARK SMILES CC(=O)[O-]
REMARK SMILES IDX 1 1 2 2 3 3 4 4
REMARK H PARENT
REMARK Flexibility Score: inf
ROOT
ATOM      1  C   UNL     1      -6.730  21.044  14.569  1.00  0.00     0.063 C 
ATOM      2  C   UNL     1      -5.850  20.663  15.710  1.00  0.00     0.038 C 
ATOM      3  O   UNL     1      -4.625  20.449  15.519  1.00  0.00    -0.550 OA
ATOM      4  O   UNL     1      -6.370  20.596  16.997  1.00  0.00    -0.550 OA
ENDROOT
TORSDOF 0
ENDMDL
MODEL 8
REMARK VINA RESULT:    -1.715     10.644     10.989
REMARK INTER + INTRA:          -1.715
REMARK INTER:                  -1.715
REMARK INTRA:                   0.000
REMARK UNBOUND:                 0.000
REMARK SMILES CC(=O)[O-]
REMARK SMILES IDX 1 1 2 2 3 3 4 4
REMARK H PARENT
REMARK Flexibility Score: inf
ROOT
ATOM      1  C   UNL     1      -8.628  22.482  21.816  1.00  0.00     0.063 C 
ATOM      2  C   UNL     1      -7.977  23.446  20.884  1.00  0.00     0.038 C 
ATOM      3  O   UNL     1      -7.109  24.251  21.313  1.00  0.00    -0.550 OA
ATOM      4  O   UNL     1      -8.287  23.423  19.530  1.00  0.00    -0.550 OA
ENDROOT
TORSDOF 0
ENDMDL
MODEL 9
REMARK VINA RESULT:    -1.609     10.686     11.179
REMARK INTER + INTRA:          -1.609
REMARK INTER:                  -1.609
REMARK INTRA:                   0.000
REMARK UNBOUND:                 0.000
REMARK SMILES CC(=O)[O-]
REMARK SMILES IDX 1 1 2 2 3 3 4 4
REMARK H PARENT
REMARK Flexibility Score: inf
ROOT
ATOM      1  C   UNL     1      -8.887  23.276  19.389  1.00  0.00     0.063 C 
ATOM      2  C   UNL     1      -8.340  23.240  20.776  1.00  0.00     0.038 C 
ATOM      3  O   UNL     1      -8.803  22.425  21.616  1.00  0.00    -0.550 OA
ATOM      4  O   UNL     1      -7.281  24.068  21.128  1.00  0.00    -0.550 OA
ENDROOT
TORSDOF 0
ENDMDL
