MODEL 1
REMARK VINA RESULT:    -3.585      0.000      0.000
REMARK INTER + INTRA:          -5.265
REMARK INTER:                  -4.843
REMARK INTRA:                  -0.423
REMARK UNBOUND:                -0.423
REMARK SMILES CCCCCCC=CC(=O)[O-]
REMARK SMILES IDX 5 1 6 2 7 3 8 4 9 5 10 6 11 7 4 8 3 9 2 10 1 11
REMARK H PARENT
REMARK Flexibility Score: inf
ROOT
ATOM      1  C   UNL     1      -0.270   8.504   4.050  1.00  0.00     0.004 C 
ENDROOT
BRANCH   1   2
ATOM      2  C   UNL     1       0.940   9.338   4.494  1.00  0.00     0.027 C 
BRANCH   2   3
ATOM      3  C   UNL     1       0.677  10.025   5.806  1.00  0.00    -0.025 C 
ATOM      4  C   UNL     1       1.465   9.981   6.892  1.00  0.00     0.020 C 
BRANCH   4   5
ATOM      5  C   UNL     1       2.765   9.288   7.011  1.00  0.00     0.064 C 
ATOM      6  O   UNL     1       3.799   9.969   7.240  1.00  0.00    -0.545 OA
ATOM      7  O   UNL     1       2.892   7.914   6.852  1.00  0.00    -0.545 OA
ENDBRANCH   4   5
ENDBRANCH   2   3
ENDBRANCH   1   2
BRANCH   1   8
ATOM      8  C   UNL     1      -1.055   9.220   2.945  1.00  0.00     0.000 C 
BRANCH   8   9
ATOM      9  C   UNL     1      -2.314   9.892   3.514  1.00  0.00    -0.000 C 
BRANCH   9  10
ATOM     10  C   UNL     1      -2.930   9.102   4.678  1.00  0.00    -0.003 C 
ATOM     11  C   UNL     1      -3.970   8.082   4.215  1.00  0.00     0.004 C 
ENDBRANCH   9  10
ENDBRANCH   8   9
ENDBRANCH   1   8
TORSDOF 6
ENDMDL
MODEL 2
REMARK VINA RESULT:    -3.544      1.400      1.599
REMARK INTER + INTRA:          -5.210
REMARK INTER:                  -4.836
REMARK INTRA:                  -0.373
REMARK UNBOUND:                -0.423
REMARK SMILES CCCCCCC=CC(=O)[O-]
REMARK SMILES IDX 5 1 6 2 7 3 8 4 9 5 10 6 11 7 4 8 3 9 2 10 1 11
REMARK H PARENT
REMARK Flexibility Score: inf
ROOT
ATOM      1  C   UNL     1      -0.331   8.017   4.251  1.00  0.00     0.004 C 
ENDROOT
BRANCH   1   2
ATOM      2  C   UNL     1       1.195   8.180   4.256  1.00  0.00     0.027 C 
BRANCH   2   3
ATOM      3  C   UNL     1       1.816   7.472   5.429  1.00  0.00    -0.025 C 
ATOM      4  C   UNL     1       2.203   8.042   6.582  1.00  0.00     0.020 C 
BRANCH   4   5
ATOM      5  C   UNL     1       2.062   9.466   6.951  1.00  0.00     0.064 C 
ATOM      6  O   UNL     1       3.087  10.109   7.300  1.00  0.00    -0.545 OA
ATOM      7  O   UNL     1       0.834  10.116   6.953  1.00  0.00    -0.545 OA
ENDBRANCH   4   5
ENDBRANCH   2   3
ENDBRANCH   1   2
BRANCH   1   8
ATOM      8  C   UNL     1      -1.024   9.349   3.942  1.00  0.00     0.000 C 
BRANCH   8   9
ATOM      9  C   UNL     1      -2.119   9.652   4.976  1.00  0.00    -0.000 C 
BRANCH   9  10
ATOM     10  C   UNL     1      -3.534   9.519   4.394  1.00  0.00    -0.003 C 
ATOM     11  C   UNL     1      -4.014   8.069   4.332  1.00  0.00     0.004 C 
ENDBRANCH   9  10
ENDBRANCH   8   9
ENDBRANCH   1   8
TORSDOF 6
ENDMDL
MODEL 3
REMARK VINA RESULT:    -3.522      3.654      5.927
REMARK INTER + INTRA:          -5.180
REMARK INTER:                  -4.780
REMARK INTRA:                  -0.399
REMARK UNBOUND:                -0.423
REMARK SMILES CCCCCCC=CC(=O)[O-]
REMARK SMILES IDX 5 1 6 2 7 3 8 4 9 5 10 6 11 7 4 8 3 9 2 10 1 11
REMARK H PARENT
REMARK Flexibility Score: inf
ROOT
ATOM      1  C   UNL     1      -0.111   9.053   4.846  1.00  0.00     0.004 C 
ENDROOT
BRANCH   1   2
ATOM      2  C   UNL     1      -1.309   9.342   3.932  1.00  0.00     0.027 C 
BRANCH   2   3
ATOM      3  C   UNL     1      -2.413  10.038   4.681  1.00  0.00    -0.025 C 
ATOM      4  C   UNL     1      -3.713   9.707   4.659  1.00  0.00     0.020 C 
BRANCH   4   5
ATOM      5  C   UNL     1      -4.322   8.572   3.932  1.00  0.00     0.064 C 
ATOM      6  O   UNL     1      -4.356   7.442   4.486  1.00  0.00    -0.545 OA
ATOM      7  O   UNL     1      -4.834   8.701   2.647  1.00  0.00    -0.545 OA
ENDBRANCH   4   5
ENDBRANCH   2   3
ENDBRANCH   1   2
BRANCH   1   8
ATOM      8  C   UNL     1       0.013  10.120   5.941  1.00  0.00     0.000 C 
BRANCH   8   9
ATOM      9  C   UNL     1       1.356   9.999   6.676  1.00  0.00    -0.000 C 
BRANCH   9  10
ATOM     10  C   UNL     1       1.884   8.557   6.709  1.00  0.00    -0.003 C 
ATOM     11  C   UNL     1       3.303   8.434   6.155  1.00  0.00     0.004 C 
ENDBRANCH   9  10
ENDBRANCH   8   9
ENDBRANCH   1   8
TORSDOF 6
ENDMDL
MODEL 4
REMARK VINA RESULT:    -3.289     15.206     15.800
REMARK INTER + INTRA:          -4.866
REMARK INTER:                  -4.591
REMARK INTRA:                  -0.275
REMARK UNBOUND:                -0.423
REMARK SMILES CCCCCCC=CC(=O)[O-]
REMARK SMILES IDX 5 1 6 2 7 3 8 4 9 5 10 6 11 7 4 8 3 9 2 10 1 11
REMARK H PARENT
REMARK Flexibility Score: inf
ROOT
ATOM      1  C   UNL     1       2.107  -2.318  -4.994  1.00  0.00     0.004 C 
ENDROOT
BRANCH   1   2
ATOM      2  C   UNL     1       2.318  -1.678  -6.372  1.00  0.00     0.027 C 
BRANCH   2   3
ATOM      3  C   UNL     1       3.742  -1.833  -6.834  1.00  0.00    -0.025 C 
ATOM      4  C   UNL     1       4.592  -0.835  -7.123  1.00  0.00     0.020 C 
BRANCH   4   5
ATOM      5  C   UNL     1       4.320   0.614  -7.010  1.00  0.00     0.064 C 
ATOM      6  O   UNL     1       4.977   1.293  -6.176  1.00  0.00    -0.545 OA
ATOM      7  O   UNL     1       3.349   1.250  -7.772  1.00  0.00    -0.545 OA
ENDBRANCH   4   5
ENDBRANCH   2   3
ENDBRANCH   1   2
BRANCH   1   8
ATOM      8  C   UNL     1       0.661  -2.802  -4.829  1.00  0.00     0.000 C 
BRANCH   8   9
ATOM      9  C   UNL     1      -0.291  -2.008  -5.737  1.00  0.00    -0.000 C 
BRANCH   9  10
ATOM     10  C   UNL     1      -1.723  -1.952  -5.185  1.00  0.00    -0.003 C 
ATOM     11  C   UNL     1      -2.330  -3.339  -4.974  1.00  0.00     0.004 C 
ENDBRANCH   9  10
ENDBRANCH   8   9
ENDBRANCH   1   8
TORSDOF 6
ENDMDL
MODEL 5
REMARK VINA RESULT:    -3.262     15.838     17.174
REMARK INTER + INTRA:          -4.829
REMARK INTER:                  -4.082
REMARK INTRA:                  -0.748
REMARK UNBOUND:                -0.423
REMARK SMILES CCCCCCC=CC(=O)[O-]
REMARK SMILES IDX 5 1 6 2 7 3 8 4 9 5 10 6 11 7 4 8 3 9 2 10 1 11
REMARK H PARENT
REMARK Flexibility Score: inf
ROOT
ATOM      1  C   UNL     1       8.542  -0.894  -7.483  1.00  0.00     0.004 C 
ENDROOT
BRANCH   1   2
ATOM      2  C   UNL     1       7.158  -1.061  -8.125  1.00  0.00     0.027 C 
BRANCH   2   3
ATOM      3  C   UNL     1       6.119  -1.416  -7.097  1.00  0.00    -0.025 C 
ATOM      4  C   UNL     1       5.165  -0.599  -6.623  1.00  0.00     0.020 C 
BRANCH   4   5
ATOM      5  C   UNL     1       4.913   0.797  -7.039  1.00  0.00     0.064 C 
ATOM      6  O   UNL     1       3.763   1.112  -7.444  1.00  0.00    -0.545 OA
ATOM      7  O   UNL     1       5.906   1.767  -7.026  1.00  0.00    -0.545 OA
ENDBRANCH   4   5
ENDBRANCH   2   3
ENDBRANCH   1   2
BRANCH   1   8
ATOM      8  C   UNL     1       8.688  -1.795  -6.251  1.00  0.00     0.000 C 
BRANCH   8   9
ATOM      9  C   UNL     1       9.186  -0.994  -5.040  1.00  0.00    -0.000 C 
BRANCH   9  10
ATOM     10  C   UNL     1       8.916   0.513  -5.177  1.00  0.00    -0.003 C 
ATOM     11  C   UNL     1       7.798   0.999  -4.256  1.00  0.00     0.004 C 
ENDBRANCH   9  10
ENDBRANCH   8   9
ENDBRANCH   1   8
TORSDOF 6
ENDMDL
MODEL 6
REMARK VINA RESULT:    -3.258     15.845     16.884
REMARK INTER + INTRA:          -4.823
REMARK INTER:                  -4.209
REMARK INTRA:                  -0.614
REMARK UNBOUND:                -0.423
REMARK SMILES CCCCCCC=CC(=O)[O-]
REMARK SMILES IDX 5 1 6 2 7 3 8 4 9 5 10 6 11 7 4 8 3 9 2 10 1 11
REMARK H PARENT
REMARK Flexibility Score: inf
ROOT
ATOM      1  C   UNL     1       6.915  -2.476  -7.283  1.00  0.00     0.004 C 
ENDROOT
BRANCH   1   2
ATOM      2  C   UNL     1       6.743  -1.162  -8.057  1.00  0.00     0.027 C 
BRANCH   2   3
ATOM      3  C   UNL     1       7.402  -0.016  -7.339  1.00  0.00    -0.025 C 
ATOM      4  C   UNL     1       6.773   0.988  -6.709  1.00  0.00     0.020 C 
BRANCH   4   5
ATOM      5  C   UNL     1       5.312   1.153  -6.553  1.00  0.00     0.064 C 
ATOM      6  O   UNL     1       4.829   1.234  -5.393  1.00  0.00    -0.545 OA
ATOM      7  O   UNL     1       4.449   1.195  -7.640  1.00  0.00    -0.545 OA
ENDBRANCH   4   5
ENDBRANCH   2   3
ENDBRANCH   1   2
BRANCH   1   8
ATOM      8  C   UNL     1       5.612  -3.284  -7.275  1.00  0.00     0.000 C 
BRANCH   8   9
ATOM      9  C   UNL     1       4.418  -2.405  -7.676  1.00  0.00    -0.000 C 
BRANCH   9  10
ATOM     10  C   UNL     1       3.513  -2.059  -6.484  1.00  0.00    -0.003 C 
ATOM     11  C   UNL     1       2.196  -1.410  -6.911  1.00  0.00     0.004 C 
ENDBRANCH   9  10
ENDBRANCH   8   9
ENDBRANCH   1   8
TORSDOF 6
ENDMDL
MODEL 7
REMARK VINA RESULT:    -3.245      4.392      6.369
REMARK INTER + INTRA:          -4.806
REMARK INTER:                  -4.465
REMARK INTRA:                  -0.341
REMARK UNBOUND:                -0.423
REMARK SMILES CCCCCCC=CC(=O)[O-]
REMARK SMILES IDX 5 1 6 2 7 3 8 4 9 5 10 6 11 7 4 8 3 9 2 10 1 11
REMARK H PARENT
REMARK Flexibility Score: inf
ROOT
ATOM      1  C   UNL     1      -0.988   8.905   3.348  1.00  0.00     0.004 C 
ENDROOT
BRANCH   1   2
ATOM      2  C   UNL     1      -2.383   9.371   3.784  1.00  0.00     0.027 C 
BRANCH   2   3
ATOM      3  C   UNL     1      -3.212   8.219   4.284  1.00  0.00    -0.025 C 
ATOM      4  C   UNL     1      -4.465   7.923   3.903  1.00  0.00     0.020 C 
BRANCH   4   5
ATOM      5  C   UNL     1      -5.270   8.638   2.890  1.00  0.00     0.064 C 
ATOM      6  O   UNL     1      -5.188   8.281   1.685  1.00  0.00    -0.545 OA
ATOM      7  O   UNL     1      -6.094   9.708   3.215  1.00  0.00    -0.545 OA
ENDBRANCH   4   5
ENDBRANCH   2   3
ENDBRANCH   1   2
BRANCH   1   8
ATOM      8  C   UNL     1      -0.040   8.810   4.550  1.00  0.00     0.000 C 
BRANCH   8   9
ATOM      9  C   UNL     1      -0.322   9.932   5.561  1.00  0.00    -0.000 C 
BRANCH   9  10
ATOM     10  C   UNL     1       0.826  10.125   6.563  1.00  0.00    -0.003 C 
ATOM     11  C   UNL     1       1.872   9.012   6.486  1.00  0.00     0.004 C 
ENDBRANCH   9  10
ENDBRANCH   8   9
ENDBRANCH   1   8
TORSDOF 6
ENDMDL
MODEL 8
REMARK VINA RESULT:    -3.127     19.132     20.334
REMARK INTER + INTRA:          -4.646
REMARK INTER:                  -3.886
REMARK INTRA:                  -0.759
REMARK UNBOUND:                -0.423
REMARK SMILES CCCCCCC=CC(=O)[O-]
REMARK SMILES IDX 5 1 6 2 7 3 8 4 9 5 10 6 11 7 4 8 3 9 2 10 1 11
REMARK H PARENT
REMARK Flexibility Score: inf
ROOT
ATOM      1  C   UNL     1      -9.886  -6.756  -2.803  1.00  0.00     0.004 C 
ENDROOT
BRANCH   1   2
ATOM      2  C   UNL     1      -8.613  -6.811  -3.658  1.00  0.00     0.027 C 
BRANCH   2   3
ATOM      3  C   UNL     1      -8.268  -8.226  -4.034  1.00  0.00    -0.025 C 
ATOM      4  C   UNL     1      -7.058  -8.799  -3.929  1.00  0.00     0.020 C 
BRANCH   4   5
ATOM      5  C   UNL     1      -5.832  -8.175  -3.388  1.00  0.00     0.064 C 
ATOM      6  O   UNL     1      -5.612  -8.240  -2.150  1.00  0.00    -0.545 OA
ATOM      7  O   UNL     1      -4.926  -7.497  -4.192  1.00  0.00    -0.545 OA
ENDBRANCH   4   5
ENDBRANCH   2   3
ENDBRANCH   1   2
BRANCH   1   8
ATOM      8  C   UNL     1      -9.666  -5.908  -1.545  1.00  0.00     0.000 C 
BRANCH   8   9
ATOM      9  C   UNL     1      -8.407  -6.360  -0.791  1.00  0.00    -0.000 C 
BRANCH   9  10
ATOM     10  C   UNL     1      -8.720  -7.352   0.340  1.00  0.00    -0.003 C 
ATOM     11  C   UNL     1      -8.424  -8.802  -0.048  1.00  0.00     0.004 C 
ENDBRANCH   9  10
ENDBRANCH   8   9
ENDBRANCH   1   8
TORSDOF 6
ENDMDL
