MODEL 1
REMARK VINA RESULT:    -3.866      0.000      0.000
REMARK INTER + INTRA:          -8.600
REMARK INTER:                  -7.482
REMARK INTRA:                  -1.119
REMARK UNBOUND:                -1.119
REMARK SMILES CCCCCCCCCCCCCCCCCC(=O)[O-]
REMARK SMILES IDX 10 1 11 2 12 3 13 4 14 5 15 6 16 7 17 8 18 9 19 10 20 11
REMARK SMILES IDX 9 12 8 13 7 14 6 15 5 16 4 17 3 18 2 19 1 20
REMARK H PARENT
REMARK Flexibility Score: inf
ROOT
ATOM      1  C   UNL     1      13.212   1.979 -17.649  1.00  0.00     0.000 C 
ENDROOT
BRANCH   1   2
ATOM      2  C   UNL     1      12.919   2.021 -19.157  1.00  0.00     0.000 C 
BRANCH   2   3
ATOM      3  C   UNL     1      12.853   3.456 -19.712  1.00  0.00     0.000 C 
BRANCH   3   4
ATOM      4  C   UNL     1      14.089   3.896 -20.521  1.00  0.00     0.000 C 
BRANCH   4   5
ATOM      5  C   UNL     1      14.314   5.421 -20.598  1.00  0.00     0.000 C 
BRANCH   5   6
ATOM      6  C   UNL     1      15.781   5.854 -20.784  1.00  0.00     0.000 C 
BRANCH   6   7
ATOM      7  C   UNL     1      16.166   6.040 -22.259  1.00  0.00     0.006 C 
BRANCH   7   8
ATOM      8  C   UNL     1      17.477   5.315 -22.577  1.00  0.00     0.053 C 
BRANCH   8   9
ATOM      9  C   UNL     1      17.715   5.287 -24.055  1.00  0.00     0.041 C 
ATOM     10  O   UNL     1      16.891   4.714 -24.818  1.00  0.00    -0.550 OA
ATOM     11  O   UNL     1      18.873   5.845 -24.585  1.00  0.00    -0.550 OA
ENDBRANCH   8   9
ENDBRANCH   7   8
ENDBRANCH   6   7
ENDBRANCH   5   6
ENDBRANCH   4   5
ENDBRANCH   3   4
ENDBRANCH   2   3
ENDBRANCH   1   2
BRANCH   1  12
ATOM     12  C   UNL     1      12.586   0.737 -17.006  1.00  0.00     0.000 C 
BRANCH  12  13
ATOM     13  C   UNL     1      11.507   0.129 -17.915  1.00  0.00    -0.000 C 
BRANCH  13  14
ATOM     14  C   UNL     1      11.916  -1.252 -18.471  1.00  0.00    -0.000 C 
BRANCH  14  15
ATOM     15  C   UNL     1      13.434  -1.521 -18.413  1.00  0.00    -0.000 C 
BRANCH  15  16
ATOM     16  C   UNL     1      14.122  -1.682 -19.781  1.00  0.00    -0.000 C 
BRANCH  16  17
ATOM     17  C   UNL     1      13.629  -0.717 -20.877  1.00  0.00    -0.000 C 
BRANCH  17  18
ATOM     18  C   UNL     1      12.955  -1.443 -22.052  1.00  0.00    -0.000 C 
BRANCH  18  19
ATOM     19  C   UNL     1      11.430  -1.249 -22.064  1.00  0.00    -0.003 C 
ATOM     20  C   UNL     1      10.701  -2.329 -22.866  1.00  0.00     0.004 C 
ENDBRANCH  18  19
ENDBRANCH  17  18
ENDBRANCH  16  17
ENDBRANCH  15  16
ENDBRANCH  14  15
ENDBRANCH  13  14
ENDBRANCH  12  13
ENDBRANCH   1  12
TORSDOF 16
ENDMDL
MODEL 2
REMARK VINA RESULT:    -3.734      2.861      6.981
REMARK INTER + INTRA:          -8.345
REMARK INTER:                  -6.847
REMARK INTRA:                  -1.498
REMARK UNBOUND:                -1.119
REMARK SMILES CCCCCCCCCCCCCCCCCC(=O)[O-]
REMARK SMILES IDX 10 1 11 2 12 3 13 4 14 5 15 6 16 7 17 8 18 9 19 10 20 11
REMARK SMILES IDX 9 12 8 13 7 14 6 15 5 16 4 17 3 18 2 19 1 20
REMARK H PARENT
REMARK Flexibility Score: inf
ROOT
ATOM      1  C   UNL     1      12.564   0.747 -17.316  1.00  0.00     0.000 C 
ENDROOT
BRANCH   1   2
ATOM      2  C   UNL     1      11.238   0.442 -18.031  1.00  0.00     0.000 C 
BRANCH   2   3
ATOM      3  C   UNL     1      11.050  -1.056 -18.327  1.00  0.00     0.000 C 
BRANCH   3   4
ATOM      4  C   UNL     1      10.377  -1.371 -19.678  1.00  0.00     0.000 C 
BRANCH   4   5
ATOM      5  C   UNL     1      11.053  -0.738 -20.912  1.00  0.00     0.000 C 
BRANCH   5   6
ATOM      6  C   UNL     1      11.598  -1.745 -21.944  1.00  0.00     0.000 C 
BRANCH   6   7
ATOM      7  C   UNL     1      13.132  -1.782 -21.989  1.00  0.00     0.006 C 
BRANCH   7   8
ATOM      8  C   UNL     1      13.733  -0.819 -20.961  1.00  0.00     0.053 C 
BRANCH   8   9
ATOM      9  C   UNL     1      14.571  -1.565 -19.971  1.00  0.00     0.041 C 
ATOM     10  O   UNL     1      14.067  -1.961 -18.885  1.00  0.00    -0.550 OA
ATOM     11  O   UNL     1      15.922  -1.778 -20.221  1.00  0.00    -0.550 OA
ENDBRANCH   8   9
ENDBRANCH   7   8
ENDBRANCH   6   7
ENDBRANCH   5   6
ENDBRANCH   4   5
ENDBRANCH   3   4
ENDBRANCH   2   3
ENDBRANCH   1   2
BRANCH   1  12
ATOM     12  C   UNL     1      13.237   1.986 -17.917  1.00  0.00     0.000 C 
BRANCH  12  13
ATOM     13  C   UNL     1      12.888   2.136 -19.406  1.00  0.00    -0.000 C 
BRANCH  13  14
ATOM     14  C   UNL     1      12.919   3.608 -19.873  1.00  0.00    -0.000 C 
BRANCH  14  15
ATOM     15  C   UNL     1      14.210   3.995 -20.623  1.00  0.00    -0.000 C 
BRANCH  15  16
ATOM     16  C   UNL     1      14.355   5.494 -20.944  1.00  0.00    -0.000 C 
BRANCH  16  17
ATOM     17  C   UNL     1      15.696   6.125 -20.520  1.00  0.00    -0.000 C 
BRANCH  17  18
ATOM     18  C   UNL     1      16.826   5.855 -21.527  1.00  0.00    -0.000 C 
BRANCH  18  19
ATOM     19  C   UNL     1      16.320   5.798 -22.977  1.00  0.00    -0.003 C 
ATOM     20  C   UNL     1      16.559   4.438 -23.636  1.00  0.00     0.004 C 
ENDBRANCH  18  19
ENDBRANCH  17  18
ENDBRANCH  16  17
ENDBRANCH  15  16
ENDBRANCH  14  15
ENDBRANCH  13  14
ENDBRANCH  12  13
ENDBRANCH   1  12
TORSDOF 16
ENDMDL
MODEL 3
REMARK VINA RESULT:    -3.723      4.043      6.775
REMARK INTER + INTRA:          -8.324
REMARK INTER:                  -6.578
REMARK INTRA:                  -1.746
REMARK UNBOUND:                -1.119
REMARK SMILES CCCCCCCCCCCCCCCCCC(=O)[O-]
REMARK SMILES IDX 10 1 11 2 12 3 13 4 14 5 15 6 16 7 17 8 18 9 19 10 20 11
REMARK SMILES IDX 9 12 8 13 7 14 6 15 5 16 4 17 3 18 2 19 1 20
REMARK H PARENT
REMARK Flexibility Score: inf
ROOT
ATOM      1  C   UNL     1      13.541   1.622 -17.410  1.00  0.00     0.000 C 
ENDROOT
BRANCH   1   2
ATOM      2  C   UNL     1      12.813   0.882 -16.278  1.00  0.00     0.000 C 
BRANCH   2   3
ATOM      3  C   UNL     1      12.077  -0.380 -16.765  1.00  0.00     0.000 C 
BRANCH   3   4
ATOM      4  C   UNL     1      10.561  -0.204 -16.983  1.00  0.00     0.000 C 
BRANCH   4   5
ATOM      5  C   UNL     1      10.064  -0.509 -18.412  1.00  0.00     0.000 C 
BRANCH   5   6
ATOM      6  C   UNL     1      10.548  -1.850 -18.996  1.00  0.00     0.000 C 
BRANCH   6   7
ATOM      7  C   UNL     1       9.886  -2.190 -20.339  1.00  0.00     0.006 C 
BRANCH   7   8
ATOM      8  C   UNL     1      10.530  -1.399 -21.482  1.00  0.00     0.053 C 
BRANCH   8   9
ATOM      9  C   UNL     1      10.805  -2.295 -22.649  1.00  0.00     0.041 C 
ATOM     10  O   UNL     1       9.997  -3.218 -22.943  1.00  0.00    -0.550 OA
ATOM     11  O   UNL     1      11.979  -2.147 -23.380  1.00  0.00    -0.550 OA
ENDBRANCH   8   9
ENDBRANCH   7   8
ENDBRANCH   6   7
ENDBRANCH   5   6
ENDBRANCH   4   5
ENDBRANCH   3   4
ENDBRANCH   2   3
ENDBRANCH   1   2
BRANCH   1  12
ATOM     12  C   UNL     1      12.576   1.955 -18.554  1.00  0.00     0.000 C 
BRANCH  12  13
ATOM     13  C   UNL     1      13.304   2.678 -19.698  1.00  0.00    -0.000 C 
BRANCH  13  14
ATOM     14  C   UNL     1      13.343   1.840 -20.994  1.00  0.00    -0.000 C 
BRANCH  14  15
ATOM     15  C   UNL     1      12.895   0.376 -20.802  1.00  0.00    -0.000 C 
BRANCH  15  16
ATOM     16  C   UNL     1      14.016  -0.672 -20.923  1.00  0.00    -0.000 C 
BRANCH  16  17
ATOM     17  C   UNL     1      14.207  -1.568 -19.683  1.00  0.00    -0.000 C 
BRANCH  17  18
ATOM     18  C   UNL     1      15.673  -1.975 -19.462  1.00  0.00    -0.000 C 
BRANCH  18  19
ATOM     19  C   UNL     1      16.603  -1.444 -20.565  1.00  0.00    -0.003 C 
ATOM     20  C   UNL     1      18.077  -1.467 -20.160  1.00  0.00     0.004 C 
ENDBRANCH  18  19
ENDBRANCH  17  18
ENDBRANCH  16  17
ENDBRANCH  15  16
ENDBRANCH  14  15
ENDBRANCH  13  14
ENDBRANCH  12  13
ENDBRANCH   1  12
TORSDOF 16
ENDMDL
MODEL 4
REMARK VINA RESULT:    -3.711      0.963      2.059
REMARK INTER + INTRA:          -8.302
REMARK INTER:                  -6.664
REMARK INTRA:                  -1.637
REMARK UNBOUND:                -1.119
REMARK SMILES CCCCCCCCCCCCCCCCCC(=O)[O-]
REMARK SMILES IDX 10 1 11 2 12 3 13 4 14 5 15 6 16 7 17 8 18 9 19 10 20 11
REMARK SMILES IDX 9 12 8 13 7 14 6 15 5 16 4 17 3 18 2 19 1 20
REMARK H PARENT
REMARK Flexibility Score: inf
ROOT
ATOM      1  C   UNL     1      13.061   1.294 -17.449  1.00  0.00     0.000 C 
ENDROOT
BRANCH   1   2
ATOM      2  C   UNL     1      12.320   2.001 -18.595  1.00  0.00     0.000 C 
BRANCH   2   3
ATOM      3  C   UNL     1      13.259   2.436 -19.734  1.00  0.00     0.000 C 
BRANCH   3   4
ATOM      4  C   UNL     1      13.272   3.951 -20.023  1.00  0.00     0.000 C 
BRANCH   4   5
ATOM      5  C   UNL     1      14.330   4.416 -21.045  1.00  0.00     0.000 C 
BRANCH   5   6
ATOM      6  C   UNL     1      15.148   5.650 -20.619  1.00  0.00     0.000 C 
BRANCH   6   7
ATOM      7  C   UNL     1      16.450   5.807 -21.418  1.00  0.00     0.006 C 
BRANCH   7   8
ATOM      8  C   UNL     1      16.165   5.883 -22.921  1.00  0.00     0.053 C 
BRANCH   8   9
ATOM      9  C   UNL     1      17.242   5.189 -23.694  1.00  0.00     0.041 C 
ATOM     10  O   UNL     1      18.440   5.252 -23.307  1.00  0.00    -0.550 OA
ATOM     11  O   UNL     1      16.932   4.520 -24.873  1.00  0.00    -0.550 OA
ENDBRANCH   8   9
ENDBRANCH   7   8
ENDBRANCH   6   7
ENDBRANCH   5   6
ENDBRANCH   4   5
ENDBRANCH   3   4
ENDBRANCH   2   3
ENDBRANCH   1   2
BRANCH   1  12
ATOM     12  C   UNL     1      12.175   0.223 -16.805  1.00  0.00     0.000 C 
BRANCH  12  13
ATOM     13  C   UNL     1      11.901  -0.930 -17.783  1.00  0.00    -0.000 C 
BRANCH  13  14
ATOM     14  C   UNL     1      10.417  -1.008 -18.200  1.00  0.00    -0.000 C 
BRANCH  14  15
ATOM     15  C   UNL     1      10.207  -1.328 -19.695  1.00  0.00    -0.000 C 
BRANCH  15  16
ATOM     16  C   UNL     1      11.227  -0.682 -20.651  1.00  0.00    -0.000 C 
BRANCH  16  17
ATOM     17  C   UNL     1      11.680  -1.577 -21.822  1.00  0.00    -0.000 C 
BRANCH  17  18
ATOM     18  C   UNL     1      13.207  -1.736 -21.893  1.00  0.00    -0.000 C 
BRANCH  18  19
ATOM     19  C   UNL     1      13.934  -0.920 -20.812  1.00  0.00    -0.003 C 
ATOM     20  C   UNL     1      14.796  -1.787 -19.894  1.00  0.00     0.004 C 
ENDBRANCH  18  19
ENDBRANCH  17  18
ENDBRANCH  16  17
ENDBRANCH  15  16
ENDBRANCH  14  15
ENDBRANCH  13  14
ENDBRANCH  12  13
ENDBRANCH   1  12
TORSDOF 16
ENDMDL
MODEL 5
REMARK VINA RESULT:    -3.686      3.419      7.484
REMARK INTER + INTRA:          -8.252
REMARK INTER:                  -6.935
REMARK INTRA:                  -1.317
REMARK UNBOUND:                -1.119
REMARK SMILES CCCCCCCCCCCCCCCCCC(=O)[O-]
REMARK SMILES IDX 10 1 11 2 12 3 13 4 14 5 15 6 16 7 17 8 18 9 19 10 20 11
REMARK SMILES IDX 9 12 8 13 7 14 6 15 5 16 4 17 3 18 2 19 1 20
REMARK H PARENT
REMARK Flexibility Score: inf
ROOT
ATOM      1  C   UNL     1      11.831   1.003 -18.259  1.00  0.00     0.000 C 
ENDROOT
BRANCH   1   2
ATOM      2  C   UNL     1      11.917   0.241 -16.927  1.00  0.00     0.000 C 
BRANCH   2   3
ATOM      3  C   UNL     1      12.527  -1.163 -17.081  1.00  0.00     0.000 C 
BRANCH   3   4
ATOM      4  C   UNL     1      12.723  -1.630 -18.538  1.00  0.00     0.000 C 
BRANCH   4   5
ATOM      5  C   UNL     1      14.185  -1.646 -19.032  1.00  0.00     0.000 C 
BRANCH   5   6
ATOM      6  C   UNL     1      14.355  -1.595 -20.562  1.00  0.00     0.000 C 
BRANCH   6   7
ATOM      7  C   UNL     1      13.242  -0.802 -21.261  1.00  0.00     0.006 C 
BRANCH   7   8
ATOM      8  C   UNL     1      12.609  -1.624 -22.388  1.00  0.00     0.053 C 
BRANCH   8   9
ATOM      9  C   UNL     1      11.155  -1.854 -22.117  1.00  0.00     0.041 C 
ATOM     10  O   UNL     1      10.613  -1.348 -21.098  1.00  0.00    -0.550 OA
ATOM     11  O   UNL     1      10.411  -2.673 -22.960  1.00  0.00    -0.550 OA
ENDBRANCH   8   9
ENDBRANCH   7   8
ENDBRANCH   6   7
ENDBRANCH   5   6
ENDBRANCH   4   5
ENDBRANCH   3   4
ENDBRANCH   2   3
ENDBRANCH   1   2
BRANCH   1  12
ATOM     12  C   UNL     1      12.947   2.048 -18.363  1.00  0.00     0.000 C 
BRANCH  12  13
ATOM     13  C   UNL     1      13.184   2.460 -19.825  1.00  0.00    -0.000 C 
BRANCH  13  14
ATOM     14  C   UNL     1      13.294   3.991 -19.994  1.00  0.00    -0.000 C 
BRANCH  14  15
ATOM     15  C   UNL     1      14.356   4.427 -21.025  1.00  0.00    -0.000 C 
BRANCH  15  16
ATOM     16  C   UNL     1      15.147   5.695 -20.652  1.00  0.00    -0.000 C 
BRANCH  16  17
ATOM     17  C   UNL     1      16.418   5.940 -21.489  1.00  0.00    -0.000 C 
BRANCH  17  18
ATOM     18  C   UNL     1      16.222   5.615 -22.978  1.00  0.00    -0.000 C 
BRANCH  18  19
ATOM     19  C   UNL     1      17.542   5.651 -23.766  1.00  0.00    -0.003 C 
ATOM     20  C   UNL     1      18.750   5.247 -22.920  1.00  0.00     0.004 C 
ENDBRANCH  18  19
ENDBRANCH  17  18
ENDBRANCH  16  17
ENDBRANCH  15  16
ENDBRANCH  14  15
ENDBRANCH  13  14
ENDBRANCH  12  13
ENDBRANCH   1  12
TORSDOF 16
ENDMDL
MODEL 6
REMARK VINA RESULT:    -3.595      1.127      3.537
REMARK INTER + INTRA:          -8.076
REMARK INTER:                  -6.525
REMARK INTRA:                  -1.551
REMARK UNBOUND:                -1.119
REMARK SMILES CCCCCCCCCCCCCCCCCC(=O)[O-]
REMARK SMILES IDX 10 1 11 2 12 3 13 4 14 5 15 6 16 7 17 8 18 9 19 10 20 11
REMARK SMILES IDX 9 12 8 13 7 14 6 15 5 16 4 17 3 18 2 19 1 20
REMARK H PARENT
REMARK Flexibility Score: inf
ROOT
ATOM      1  C   UNL     1      14.000  -0.035 -20.936  1.00  0.00     0.000 C 
ENDROOT
BRANCH   1   2
ATOM      2  C   UNL     1      13.048   1.040 -20.391  1.00  0.00     0.000 C 
BRANCH   2   3
ATOM      3  C   UNL     1      13.277   2.421 -21.031  1.00  0.00     0.000 C 
BRANCH   3   4
ATOM      4  C   UNL     1      13.286   3.603 -20.041  1.00  0.00     0.000 C 
BRANCH   4   5
ATOM      5  C   UNL     1      13.619   4.976 -20.660  1.00  0.00     0.000 C 
BRANCH   5   6
ATOM      6  C   UNL     1      15.115   5.348 -20.650  1.00  0.00     0.000 C 
BRANCH   6   7
ATOM      7  C   UNL     1      15.610   5.867 -22.007  1.00  0.00     0.006 C 
BRANCH   7   8
ATOM      8  C   UNL     1      17.138   5.958 -22.034  1.00  0.00     0.053 C 
BRANCH   8   9
ATOM      9  C   UNL     1      17.686   5.238 -23.227  1.00  0.00     0.041 C 
ATOM     10  O   UNL     1      18.924   5.255 -23.463  1.00  0.00    -0.550 OA
ATOM     11  O   UNL     1      16.824   4.595 -24.109  1.00  0.00    -0.550 OA
ENDBRANCH   8   9
ENDBRANCH   7   8
ENDBRANCH   6   7
ENDBRANCH   5   6
ENDBRANCH   4   5
ENDBRANCH   3   4
ENDBRANCH   2   3
ENDBRANCH   1   2
BRANCH   1  12
ATOM     12  C   UNL     1      13.264  -1.364 -21.140  1.00  0.00     0.000 C 
BRANCH  12  13
ATOM     13  C   UNL     1      12.045  -1.185 -22.059  1.00  0.00    -0.000 C 
BRANCH  13  14
ATOM     14  C   UNL     1      10.746  -1.731 -21.426  1.00  0.00    -0.000 C 
BRANCH  14  15
ATOM     15  C   UNL     1      10.799  -1.836 -19.889  1.00  0.00    -0.000 C 
BRANCH  15  16
ATOM     16  C   UNL     1       9.800  -0.937 -19.137  1.00  0.00    -0.000 C 
BRANCH  16  17
ATOM     17  C   UNL     1      10.427  -0.015 -18.072  1.00  0.00    -0.000 C 
BRANCH  17  18
ATOM     18  C   UNL     1      11.821  -0.481 -17.626  1.00  0.00    -0.000 C 
BRANCH  18  19
ATOM     19  C   UNL     1      12.365   0.338 -16.444  1.00  0.00    -0.003 C 
ATOM     20  C   UNL     1      13.260   1.496 -16.886  1.00  0.00     0.004 C 
ENDBRANCH  18  19
ENDBRANCH  17  18
ENDBRANCH  16  17
ENDBRANCH  15  16
ENDBRANCH  14  15
ENDBRANCH  13  14
ENDBRANCH  12  13
ENDBRANCH   1  12
TORSDOF 16
ENDMDL
MODEL 7
REMARK VINA RESULT:    -3.501      3.408      7.999
REMARK INTER + INTRA:          -7.895
REMARK INTER:                  -6.536
REMARK INTRA:                  -1.360
REMARK UNBOUND:                -1.119
REMARK SMILES CCCCCCCCCCCCCCCCCC(=O)[O-]
REMARK SMILES IDX 10 1 11 2 12 3 13 4 14 5 15 6 16 7 17 8 18 9 19 10 20 11
REMARK SMILES IDX 9 12 8 13 7 14 6 15 5 16 4 17 3 18 2 19 1 20
REMARK H PARENT
REMARK Flexibility Score: inf
ROOT
ATOM      1  C   UNL     1      12.773   1.086 -20.783  1.00  0.00     0.000 C 
ENDROOT
BRANCH   1   2
ATOM      2  C   UNL     1      13.653  -0.173 -20.755  1.00  0.00     0.000 C 
BRANCH   2   3
ATOM      3  C   UNL     1      13.050  -1.341 -21.556  1.00  0.00     0.000 C 
BRANCH   3   4
ATOM      4  C   UNL     1      11.566  -1.167 -21.939  1.00  0.00     0.000 C 
BRANCH   4   5
ATOM      5  C   UNL     1      10.576  -2.043 -21.144  1.00  0.00     0.000 C 
BRANCH   5   6
ATOM      6  C   UNL     1       9.953  -1.364 -19.908  1.00  0.00     0.000 C 
BRANCH   6   7
ATOM      7  C   UNL     1      10.893  -1.356 -18.695  1.00  0.00     0.006 C 
BRANCH   7   8
ATOM      8  C   UNL     1      10.728  -0.068 -17.883  1.00  0.00     0.053 C 
BRANCH   8   9
ATOM      9  C   UNL     1      11.964   0.214 -17.088  1.00  0.00     0.041 C 
ATOM     10  O   UNL     1      12.319  -0.573 -16.169  1.00  0.00    -0.550 OA
ATOM     11  O   UNL     1      12.696   1.372 -17.325  1.00  0.00    -0.550 OA
ENDBRANCH   8   9
ENDBRANCH   7   8
ENDBRANCH   6   7
ENDBRANCH   5   6
ENDBRANCH   4   5
ENDBRANCH   3   4
ENDBRANCH   2   3
ENDBRANCH   1   2
BRANCH   1  12
ATOM     12  C   UNL     1      13.614   2.335 -21.072  1.00  0.00     0.000 C 
BRANCH  12  13
ATOM     13  C   UNL     1      13.281   3.465 -20.086  1.00  0.00    -0.000 C 
BRANCH  13  14
ATOM     14  C   UNL     1      13.555   4.864 -20.680  1.00  0.00    -0.000 C 
BRANCH  14  15
ATOM     15  C   UNL     1      14.995   5.367 -20.451  1.00  0.00    -0.000 C 
BRANCH  15  16
ATOM     16  C   UNL     1      15.727   5.852 -21.716  1.00  0.00    -0.000 C 
BRANCH  16  17
ATOM     17  C   UNL     1      17.265   5.859 -21.617  1.00  0.00    -0.000 C 
BRANCH  17  18
ATOM     18  C   UNL     1      17.939   5.059 -22.744  1.00  0.00    -0.000 C 
BRANCH  18  19
ATOM     19  C   UNL     1      16.999   4.818 -23.936  1.00  0.00    -0.003 C 
ATOM     20  C   UNL     1      17.474   5.509 -25.215  1.00  0.00     0.004 C 
ENDBRANCH  18  19
ENDBRANCH  17  18
ENDBRANCH  16  17
ENDBRANCH  15  16
ENDBRANCH  14  15
ENDBRANCH  13  14
ENDBRANCH  12  13
ENDBRANCH   1  12
TORSDOF 16
ENDMDL
MODEL 8
REMARK VINA RESULT:    -3.476      3.018      7.649
REMARK INTER + INTRA:          -7.845
REMARK INTER:                  -6.655
REMARK INTRA:                  -1.191
REMARK UNBOUND:                -1.119
REMARK SMILES CCCCCCCCCCCCCCCCCC(=O)[O-]
REMARK SMILES IDX 10 1 11 2 12 3 13 4 14 5 15 6 16 7 17 8 18 9 19 10 20 11
REMARK SMILES IDX 9 12 8 13 7 14 6 15 5 16 4 17 3 18 2 19 1 20
REMARK H PARENT
REMARK Flexibility Score: inf
ROOT
ATOM      1  C   UNL     1      13.118   1.443 -19.715  1.00  0.00     0.000 C 
ENDROOT
BRANCH   1   2
ATOM      2  C   UNL     1      12.780   1.991 -18.320  1.00  0.00     0.000 C 
BRANCH   2   3
ATOM      3  C   UNL     1      12.835   0.911 -17.225  1.00  0.00     0.000 C 
BRANCH   3   4
ATOM      4  C   UNL     1      11.994  -0.349 -17.513  1.00  0.00     0.000 C 
BRANCH   4   5
ATOM      5  C   UNL     1      10.532  -0.082 -17.927  1.00  0.00     0.000 C 
BRANCH   5   6
ATOM      6  C   UNL     1      10.022  -0.939 -19.102  1.00  0.00     0.000 C 
BRANCH   6   7
ATOM      7  C   UNL     1      11.155  -1.632 -19.871  1.00  0.00     0.006 C 
BRANCH   7   8
ATOM      8  C   UNL     1      11.260  -1.087 -21.299  1.00  0.00     0.053 C 
BRANCH   8   9
ATOM      9  C   UNL     1      12.550  -1.512 -21.929  1.00  0.00     0.041 C 
ATOM     10  O   UNL     1      12.568  -1.919 -23.122  1.00  0.00    -0.550 OA
ATOM     11  O   UNL     1      13.723  -1.512 -21.182  1.00  0.00    -0.550 OA
ENDBRANCH   8   9
ENDBRANCH   7   8
ENDBRANCH   6   7
ENDBRANCH   5   6
ENDBRANCH   4   5
ENDBRANCH   3   4
ENDBRANCH   2   3
ENDBRANCH   1   2
BRANCH   1  12
ATOM     12  C   UNL     1      13.281   2.584 -20.726  1.00  0.00     0.000 C 
BRANCH  12  13
ATOM     13  C   UNL     1      13.612   3.906 -20.017  1.00  0.00    -0.000 C 
BRANCH  13  14
ATOM     14  C   UNL     1      13.924   5.046 -21.012  1.00  0.00    -0.000 C 
BRANCH  14  15
ATOM     15  C   UNL     1      15.163   5.881 -20.632  1.00  0.00    -0.000 C 
BRANCH  15  16
ATOM     16  C   UNL     1      16.413   5.629 -21.497  1.00  0.00    -0.000 C 
BRANCH  16  17
ATOM     17  C   UNL     1      16.163   5.626 -23.018  1.00  0.00    -0.000 C 
BRANCH  17  18
ATOM     18  C   UNL     1      17.396   5.185 -23.823  1.00  0.00    -0.000 C 
BRANCH  18  19
ATOM     19  C   UNL     1      18.689   5.240 -22.995  1.00  0.00    -0.003 C 
ATOM     20  C   UNL     1      19.861   5.854 -23.763  1.00  0.00     0.004 C 
ENDBRANCH  18  19
ENDBRANCH  17  18
ENDBRANCH  16  17
ENDBRANCH  15  16
ENDBRANCH  14  15
ENDBRANCH  13  14
ENDBRANCH  12  13
ENDBRANCH   1  12
TORSDOF 16
ENDMDL
MODEL 9
REMARK VINA RESULT:    -3.346      1.282      2.654
REMARK INTER + INTRA:          -7.594
REMARK INTER:                  -6.006
REMARK INTRA:                  -1.588
REMARK UNBOUND:                -1.119
REMARK SMILES CCCCCCCCCCCCCCCCCC(=O)[O-]
REMARK SMILES IDX 10 1 11 2 12 3 13 4 14 5 15 6 16 7 17 8 18 9 19 10 20 11
REMARK SMILES IDX 9 12 8 13 7 14 6 15 5 16 4 17 3 18 2 19 1 20
REMARK H PARENT
REMARK Flexibility Score: inf
ROOT
ATOM      1  C   UNL     1      12.928  -0.144 -21.196  1.00  0.00     0.000 C 
ENDROOT
BRANCH   1   2
ATOM      2  C   UNL     1      13.263   1.017 -20.247  1.00  0.00     0.000 C 
BRANCH   2   3
ATOM      3  C   UNL     1      13.292   2.381 -20.961  1.00  0.00     0.000 C 
BRANCH   3   4
ATOM      4  C   UNL     1      13.347   3.603 -20.022  1.00  0.00     0.000 C 
BRANCH   4   5
ATOM      5  C   UNL     1      13.654   4.948 -20.713  1.00  0.00     0.000 C 
BRANCH   5   6
ATOM      6  C   UNL     1      15.103   5.447 -20.552  1.00  0.00     0.000 C 
BRANCH   6   7
ATOM      7  C   UNL     1      15.717   5.933 -21.872  1.00  0.00     0.006 C 
BRANCH   7   8
ATOM      8  C   UNL     1      17.179   5.492 -21.991  1.00  0.00     0.053 C 
BRANCH   8   9
ATOM      9  C   UNL     1      17.483   5.054 -23.390  1.00  0.00     0.041 C 
ATOM     10  O   UNL     1      18.364   5.654 -24.063  1.00  0.00    -0.550 OA
ATOM     11  O   UNL     1      16.757   4.019 -23.969  1.00  0.00    -0.550 OA
ENDBRANCH   8   9
ENDBRANCH   7   8
ENDBRANCH   6   7
ENDBRANCH   5   6
ENDBRANCH   4   5
ENDBRANCH   3   4
ENDBRANCH   2   3
ENDBRANCH   1   2
BRANCH   1  12
ATOM     12  C   UNL     1      13.485  -1.467 -20.658  1.00  0.00     0.000 C 
BRANCH  12  13
ATOM     13  C   UNL     1      14.009  -1.302 -19.222  1.00  0.00    -0.000 C 
BRANCH  13  14
ATOM     14  C   UNL     1      13.050  -1.905 -18.173  1.00  0.00    -0.000 C 
BRANCH  14  15
ATOM     15  C   UNL     1      12.710  -0.945 -17.015  1.00  0.00    -0.000 C 
BRANCH  15  16
ATOM     16  C   UNL     1      11.697   0.163 -17.360  1.00  0.00    -0.000 C 
BRANCH  16  17
ATOM     17  C   UNL     1      10.271  -0.333 -17.675  1.00  0.00    -0.000 C 
BRANCH  17  18
ATOM     18  C   UNL     1      10.049  -0.595 -19.173  1.00  0.00    -0.000 C 
BRANCH  18  19
ATOM     19  C   UNL     1       9.640  -2.048 -19.461  1.00  0.00    -0.003 C 
ATOM     20  C   UNL     1       9.886  -2.457 -20.914  1.00  0.00     0.004 C 
ENDBRANCH  18  19
ENDBRANCH  17  18
ENDBRANCH  16  17
ENDBRANCH  15  16
ENDBRANCH  14  15
ENDBRANCH  13  14
ENDBRANCH  12  13
ENDBRANCH   1  12
TORSDOF 16
ENDMDL
