MODEL 1
REMARK VINA RESULT:    -4.371      0.000      0.000
REMARK INTER + INTRA:          -6.681
REMARK INTER:                  -6.160
REMARK INTRA:                  -0.520
REMARK UNBOUND:                -0.520
REMARK SMILES C=CCCCCCCC(=O)[O-]
REMARK SMILES IDX 6 1 7 2 8 3 9 4 10 5 11 6 5 7 4 8 3 9 2 10 1 11
REMARK H PARENT
REMARK Flexibility Score: inf
ROOT
ATOM      1  C   UNL     1      23.943  -6.179  38.116  1.00  0.00     0.000 C 
ENDROOT
BRANCH   1   2
ATOM      2  C   UNL     1      22.459  -6.506  37.866  1.00  0.00     0.006 C 
BRANCH   2   3
ATOM      3  C   UNL     1      21.610  -6.621  39.142  1.00  0.00     0.053 C 
BRANCH   3   4
ATOM      4  C   UNL     1      21.564  -8.026  39.661  1.00  0.00     0.041 C 
ATOM      5  O   UNL     1      22.190  -8.942  39.065  1.00  0.00    -0.550 OA
ATOM      6  O   UNL     1      20.857  -8.316  40.821  1.00  0.00    -0.550 OA
ENDBRANCH   3   4
ENDBRANCH   2   3
ENDBRANCH   1   2
BRANCH   1   7
ATOM      7  C   UNL     1      24.160  -5.340  39.387  1.00  0.00     0.000 C 
BRANCH   7   8
ATOM      8  C   UNL     1      25.352  -5.837  40.223  1.00  0.00     0.004 C 
BRANCH   8   9
ATOM      9  C   UNL     1      25.644  -7.329  40.010  1.00  0.00     0.027 C 
BRANCH   9  10
ATOM     10  C   UNL     1      27.034  -7.538  39.474  1.00  0.00    -0.035 C 
ATOM     11  C   UNL     1      27.965  -6.583  39.540  1.00  0.00     0.004 C 
ENDBRANCH   9  10
ENDBRANCH   8   9
ENDBRANCH   7   8
ENDBRANCH   1   7
TORSDOF 7
ENDMDL
MODEL 2
REMARK VINA RESULT:    -4.364     15.549     17.324
REMARK INTER + INTRA:          -6.670
REMARK INTER:                  -6.326
REMARK INTRA:                  -0.344
REMARK UNBOUND:                -0.520
REMARK SMILES C=CCCCCCCC(=O)[O-]
REMARK SMILES IDX 6 1 7 2 8 3 9 4 10 5 11 6 5 7 4 8 3 9 2 10 1 11
REMARK H PARENT
REMARK Flexibility Score: inf
ROOT
ATOM      1  C   UNL     1      12.660   4.245  39.850  1.00  0.00     0.000 C 
ENDROOT
BRANCH   1   2
ATOM      2  C   UNL     1      12.577   5.645  39.215  1.00  0.00     0.006 C 
BRANCH   2   3
ATOM      3  C   UNL     1      12.184   6.763  40.194  1.00  0.00     0.053 C 
BRANCH   3   4
ATOM      4  C   UNL     1      10.717   7.061  40.144  1.00  0.00     0.041 C 
ATOM      5  O   UNL     1      10.183   7.770  41.038  1.00  0.00    -0.550 OA
ATOM      6  O   UNL     1       9.945   6.583  39.093  1.00  0.00    -0.550 OA
ENDBRANCH   3   4
ENDBRANCH   2   3
ENDBRANCH   1   2
BRANCH   1   7
ATOM      7  C   UNL     1      11.672   3.248  39.220  1.00  0.00     0.000 C 
BRANCH   7   8
ATOM      8  C   UNL     1      12.251   2.551  37.977  1.00  0.00     0.004 C 
BRANCH   8   9
ATOM      9  C   UNL     1      11.486   2.898  36.692  1.00  0.00     0.027 C 
BRANCH   9  10
ATOM     10  C   UNL     1      12.257   2.475  35.471  1.00  0.00    -0.035 C 
ATOM     11  C   UNL     1      13.094   1.435  35.493  1.00  0.00     0.004 C 
ENDBRANCH   9  10
ENDBRANCH   8   9
ENDBRANCH   7   8
ENDBRANCH   1   7
TORSDOF 7
ENDMDL
MODEL 3
REMARK VINA RESULT:    -4.321     15.402     17.057
REMARK INTER + INTRA:          -6.610
REMARK INTER:                  -6.082
REMARK INTRA:                  -0.528
REMARK UNBOUND:                -0.520
REMARK SMILES C=CCCCCCCC(=O)[O-]
REMARK SMILES IDX 6 1 7 2 8 3 9 4 10 5 11 6 5 7 4 8 3 9 2 10 1 11
REMARK H PARENT
REMARK Flexibility Score: inf
ROOT
ATOM      1  C   UNL     1      11.656   3.155  40.065  1.00  0.00     0.000 C 
ENDROOT
BRANCH   1   2
ATOM      2  C   UNL     1      11.416   2.132  38.938  1.00  0.00     0.006 C 
BRANCH   2   3
ATOM      3  C   UNL     1      12.301   2.336  37.698  1.00  0.00     0.053 C 
BRANCH   3   4
ATOM      4  C   UNL     1      11.496   2.699  36.488  1.00  0.00     0.041 C 
ATOM      5  O   UNL     1      10.265   2.944  36.596  1.00  0.00    -0.550 OA
ATOM      6  O   UNL     1      12.112   2.798  35.247  1.00  0.00    -0.550 OA
ENDBRANCH   3   4
ENDBRANCH   2   3
ENDBRANCH   1   2
BRANCH   1   7
ATOM      7  C   UNL     1      12.907   4.018  39.827  1.00  0.00     0.000 C 
BRANCH   7   8
ATOM      8  C   UNL     1      12.568   5.391  39.223  1.00  0.00     0.004 C 
BRANCH   8   9
ATOM      9  C   UNL     1      11.746   6.273  40.175  1.00  0.00     0.027 C 
BRANCH   9  10
ATOM     10  C   UNL     1      10.390   6.574  39.599  1.00  0.00    -0.035 C 
ATOM     11  C   UNL     1      10.043   6.178  38.371  1.00  0.00     0.004 C 
ENDBRANCH   9  10
ENDBRANCH   8   9
ENDBRANCH   7   8
ENDBRANCH   1   7
TORSDOF 7
ENDMDL
MODEL 4
REMARK VINA RESULT:    -4.252      2.844      4.955
REMARK INTER + INTRA:          -6.512
REMARK INTER:                  -5.827
REMARK INTRA:                  -0.685
REMARK UNBOUND:                -0.520
REMARK SMILES C=CCCCCCCC(=O)[O-]
REMARK SMILES IDX 6 1 7 2 8 3 9 4 10 5 11 6 5 7 4 8 3 9 2 10 1 11
REMARK H PARENT
REMARK Flexibility Score: inf
ROOT
ATOM      1  C   UNL     1      23.956  -4.993  39.165  1.00  0.00     0.000 C 
ENDROOT
BRANCH   1   2
ATOM      2  C   UNL     1      24.892  -5.661  40.190  1.00  0.00     0.006 C 
BRANCH   2   3
ATOM      3  C   UNL     1      25.584  -6.936  39.681  1.00  0.00     0.053 C 
BRANCH   3   4
ATOM      4  C   UNL     1      27.054  -6.733  39.478  1.00  0.00     0.041 C 
ATOM      5  O   UNL     1      27.549  -5.577  39.537  1.00  0.00    -0.550 OA
ATOM      6  O   UNL     1      27.882  -7.826  39.255  1.00  0.00    -0.550 OA
ENDBRANCH   3   4
ENDBRANCH   2   3
ENDBRANCH   1   2
BRANCH   1   7
ATOM      7  C   UNL     1      23.893  -5.756  37.831  1.00  0.00     0.000 C 
BRANCH   7   8
ATOM      8  C   UNL     1      22.599  -6.574  37.682  1.00  0.00     0.004 C 
BRANCH   8   9
ATOM      9  C   UNL     1      21.483  -6.095  38.623  1.00  0.00     0.027 C 
BRANCH   9  10
ATOM     10  C   UNL     1      21.071  -7.186  39.573  1.00  0.00    -0.035 C 
ATOM     11  C   UNL     1      21.761  -8.325  39.678  1.00  0.00     0.004 C 
ENDBRANCH   9  10
ENDBRANCH   8   9
ENDBRANCH   7   8
ENDBRANCH   1   7
TORSDOF 7
ENDMDL
MODEL 5
REMARK VINA RESULT:    -4.164      9.700     11.654
REMARK INTER + INTRA:          -6.389
REMARK INTER:                  -6.120
REMARK INTRA:                  -0.268
REMARK UNBOUND:                -0.520
REMARK SMILES C=CCCCCCCC(=O)[O-]
REMARK SMILES IDX 6 1 7 2 8 3 9 4 10 5 11 6 5 7 4 8 3 9 2 10 1 11
REMARK H PARENT
REMARK Flexibility Score: inf
ROOT
ATOM      1  C   UNL     1      18.739  -0.652  44.098  1.00  0.00     0.000 C 
ENDROOT
BRANCH   1   2
ATOM      2  C   UNL     1      20.268  -0.494  44.192  1.00  0.00     0.006 C 
BRANCH   2   3
ATOM      3  C   UNL     1      20.836   0.680  43.379  1.00  0.00     0.053 C 
BRANCH   3   4
ATOM      4  C   UNL     1      21.925   1.398  44.116  1.00  0.00     0.041 C 
ATOM      5  O   UNL     1      22.687   0.766  44.895  1.00  0.00    -0.550 OA
ATOM      6  O   UNL     1      22.119   2.759  43.918  1.00  0.00    -0.550 OA
ENDBRANCH   3   4
ENDBRANCH   2   3
ENDBRANCH   1   2
BRANCH   1   7
ATOM      7  C   UNL     1      18.053  -0.625  45.475  1.00  0.00     0.000 C 
BRANCH   7   8
ATOM      8  C   UNL     1      16.579  -0.195  45.389  1.00  0.00     0.004 C 
BRANCH   8   9
ATOM      9  C   UNL     1      16.004  -0.329  43.971  1.00  0.00     0.027 C 
BRANCH   9  10
ATOM     10  C   UNL     1      15.248   0.910  43.574  1.00  0.00    -0.035 C 
ATOM     11  C   UNL     1      14.071   0.845  42.947  1.00  0.00     0.004 C 
ENDBRANCH   9  10
ENDBRANCH   8   9
ENDBRANCH   7   8
ENDBRANCH   1   7
TORSDOF 7
ENDMDL
MODEL 6
REMARK VINA RESULT:    -4.090      2.960      5.087
REMARK INTER + INTRA:          -6.284
REMARK INTER:                  -5.833
REMARK INTRA:                  -0.451
REMARK UNBOUND:                -0.520
REMARK SMILES C=CCCCCCCC(=O)[O-]
REMARK SMILES IDX 6 1 7 2 8 3 9 4 10 5 11 6 5 7 4 8 3 9 2 10 1 11
REMARK H PARENT
REMARK Flexibility Score: inf
ROOT
ATOM      1  C   UNL     1      24.324  -5.376  39.859  1.00  0.00     0.000 C 
ENDROOT
BRANCH   1   2
ATOM      2  C   UNL     1      25.655  -5.368  39.083  1.00  0.00     0.006 C 
BRANCH   2   3
ATOM      3  C   UNL     1      26.851  -5.931  39.868  1.00  0.00     0.053 C 
BRANCH   3   4
ATOM      4  C   UNL     1      27.145  -7.352  39.497  1.00  0.00     0.041 C 
ATOM      5  O   UNL     1      26.324  -8.264  39.777  1.00  0.00    -0.550 OA
ATOM      6  O   UNL     1      28.313  -7.664  38.812  1.00  0.00    -0.550 OA
ENDBRANCH   3   4
ENDBRANCH   2   3
ENDBRANCH   1   2
BRANCH   1   7
ATOM      7  C   UNL     1      23.102  -5.178  38.946  1.00  0.00     0.000 C 
BRANCH   7   8
ATOM      8  C   UNL     1      23.274  -5.858  37.578  1.00  0.00     0.004 C 
BRANCH   8   9
ATOM      9  C   UNL     1      22.846  -4.958  36.409  1.00  0.00     0.027 C 
BRANCH   9  10
ATOM     10  C   UNL     1      23.229  -3.525  36.661  1.00  0.00    -0.035 C 
ATOM     11  C   UNL     1      23.324  -2.638  35.667  1.00  0.00     0.004 C 
ENDBRANCH   9  10
ENDBRANCH   8   9
ENDBRANCH   7   8
ENDBRANCH   1   7
TORSDOF 7
ENDMDL
MODEL 7
REMARK VINA RESULT:    -4.070      9.369     10.437
REMARK INTER + INTRA:          -6.256
REMARK INTER:                  -5.869
REMARK INTRA:                  -0.387
REMARK UNBOUND:                -0.520
REMARK SMILES C=CCCCCCCC(=O)[O-]
REMARK SMILES IDX 6 1 7 2 8 3 9 4 10 5 11 6 5 7 4 8 3 9 2 10 1 11
REMARK H PARENT
REMARK Flexibility Score: inf
ROOT
ATOM      1  C   UNL     1      20.616   2.528  36.153  1.00  0.00     0.000 C 
ENDROOT
BRANCH   1   2
ATOM      2  C   UNL     1      20.585   3.522  37.329  1.00  0.00     0.006 C 
BRANCH   2   3
ATOM      3  C   UNL     1      20.528   2.862  38.717  1.00  0.00     0.053 C 
BRANCH   3   4
ATOM      4  C   UNL     1      20.313   3.865  39.807  1.00  0.00     0.041 C 
ATOM      5  O   UNL     1      21.277   4.238  40.526  1.00  0.00    -0.550 OA
ATOM      6  O   UNL     1      19.052   4.413  40.008  1.00  0.00    -0.550 OA
ENDBRANCH   3   4
ENDBRANCH   2   3
ENDBRANCH   1   2
BRANCH   1   7
ATOM      7  C   UNL     1      21.800   2.770  35.201  1.00  0.00     0.000 C 
BRANCH   7   8
ATOM      8  C   UNL     1      22.204   1.502  34.432  1.00  0.00     0.004 C 
BRANCH   8   9
ATOM      9  C   UNL     1      21.731   0.213  35.121  1.00  0.00     0.027 C 
BRANCH   9  10
ATOM     10  C   UNL     1      22.875  -0.491  35.798  1.00  0.00    -0.035 C 
ATOM     11  C   UNL     1      22.699  -1.206  36.912  1.00  0.00     0.004 C 
ENDBRANCH   9  10
ENDBRANCH   8   9
ENDBRANCH   7   8
ENDBRANCH   1   7
TORSDOF 7
ENDMDL
MODEL 8
REMARK VINA RESULT:    -4.065      7.370      8.785
REMARK INTER + INTRA:          -6.249
REMARK INTER:                  -5.545
REMARK INTRA:                  -0.704
REMARK UNBOUND:                -0.520
REMARK SMILES C=CCCCCCCC(=O)[O-]
REMARK SMILES IDX 6 1 7 2 8 3 9 4 10 5 11 6 5 7 4 8 3 9 2 10 1 11
REMARK H PARENT
REMARK Flexibility Score: inf
ROOT
ATOM      1  C   UNL     1      22.661  -1.225  36.961  1.00  0.00     0.000 C 
ENDROOT
BRANCH   1   2
ATOM      2  C   UNL     1      21.663  -0.156  36.477  1.00  0.00     0.006 C 
BRANCH   2   3
ATOM      3  C   UNL     1      21.784   0.195  34.985  1.00  0.00     0.053 C 
BRANCH   3   4
ATOM      4  C   UNL     1      22.152   1.632  34.776  1.00  0.00     0.041 C 
ATOM      5  O   UNL     1      21.317   2.542  35.023  1.00  0.00    -0.550 OA
ATOM      6  O   UNL     1      23.427   1.967  34.338  1.00  0.00    -0.550 OA
ENDBRANCH   3   4
ENDBRANCH   2   3
ENDBRANCH   1   2
BRANCH   1   7
ATOM      7  C   UNL     1      23.273  -2.034  35.805  1.00  0.00     0.000 C 
BRANCH   7   8
ATOM      8  C   UNL     1      22.927  -3.531  35.886  1.00  0.00     0.004 C 
BRANCH   8   9
ATOM      9  C   UNL     1      22.182  -4.036  34.642  1.00  0.00     0.027 C 
BRANCH   9  10
ATOM     10  C   UNL     1      20.768  -3.525  34.612  1.00  0.00    -0.035 C 
ATOM     11  C   UNL     1      20.273  -2.885  33.549  1.00  0.00     0.004 C 
ENDBRANCH   9  10
ENDBRANCH   8   9
ENDBRANCH   7   8
ENDBRANCH   1   7
TORSDOF 7
ENDMDL
MODEL 9
REMARK VINA RESULT:    -3.997     14.291     15.943
REMARK INTER + INTRA:          -6.152
REMARK INTER:                  -5.953
REMARK INTRA:                  -0.199
REMARK UNBOUND:                -0.520
REMARK SMILES C=CCCCCCCC(=O)[O-]
REMARK SMILES IDX 6 1 7 2 8 3 9 4 10 5 11 6 5 7 4 8 3 9 2 10 1 11
REMARK H PARENT
REMARK Flexibility Score: inf
ROOT
ATOM      1  C   UNL     1      12.139   3.572  40.429  1.00  0.00     0.000 C 
ENDROOT
BRANCH   1   2
ATOM      2  C   UNL     1      12.539   4.409  39.199  1.00  0.00     0.006 C 
BRANCH   2   3
ATOM      3  C   UNL     1      12.435   5.929  39.404  1.00  0.00     0.053 C 
BRANCH   3   4
ATOM      4  C   UNL     1      11.036   6.426  39.214  1.00  0.00     0.041 C 
ATOM      5  O   UNL     1      10.543   7.257  40.022  1.00  0.00    -0.550 OA
ATOM      6  O   UNL     1      10.287   5.997  38.126  1.00  0.00    -0.550 OA
ENDBRANCH   3   4
ENDBRANCH   2   3
ENDBRANCH   1   2
BRANCH   1   7
ATOM      7  C   UNL     1      12.770   2.170  40.425  1.00  0.00     0.000 C 
BRANCH   7   8
ATOM      8  C   UNL     1      13.953   2.055  41.401  1.00  0.00     0.004 C 
BRANCH   8   9
ATOM      9  C   UNL     1      13.625   1.198  42.633  1.00  0.00     0.027 C 
BRANCH   9  10
ATOM     10  C   UNL     1      14.868   0.879  43.418  1.00  0.00    -0.035 C 
ATOM     11  C   UNL     1      15.357  -0.361  43.486  1.00  0.00     0.004 C 
ENDBRANCH   9  10
ENDBRANCH   8   9
ENDBRANCH   7   8
ENDBRANCH   1   7
TORSDOF 7
ENDMDL
