MODEL 1
REMARK VINA RESULT:     5.233      0.000      0.000
REMARK INTER + INTRA:           6.825
REMARK INTER:                   7.221
REMARK INTRA:                  -0.397
REMARK UNBOUND:                -0.397
REMARK SMILES CC[C@H](CC[C@@H](C)[C@H]1CC[C@H]2[C@H]3CC=C4C[C@@H](O)CC[C@]4(C)[C@@H]3CC[C@]12C)C(C)C
REMARK SMILES IDX 5 1 4 2 3 3 2 4 1 5 28 6 29 7 30 8 6 9 7 10 8 11 9 12 26 13
REMARK SMILES IDX 10 14 11 15 25 16 27 17 12 18 24 19 23 20 13 21 21 22 14 23
REMARK SMILES IDX 15 24 20 25 22 26 16 27 19 28 17 29 18 30
REMARK H PARENT 18 31
REMARK Flexibility Score: inf
ROOT
ATOM      1  C   UNL     1     135.003 121.480 138.701  1.00  0.00     0.004 C 
ENDROOT
BRANCH   1   2
ATOM      2  C   UNL     1     135.771 122.245 137.605  1.00  0.00     0.004 C 
BRANCH   2   3
ATOM      3  C   UNL     1     136.600 123.474 138.089  1.00  0.00    -0.009 C 
BRANCH   3   4
ATOM      4  C   UNL     1     138.125 123.330 137.795  1.00  0.00     0.000 C 
ATOM      5  C   UNL     1     139.040 123.055 138.995  1.00  0.00     0.004 C 
ENDBRANCH   3   4
BRANCH   3   6
ATOM      6  C   UNL     1     135.987 124.869 137.721  1.00  0.00    -0.014 C 
ATOM      7  C   UNL     1     136.434 125.961 138.710  1.00  0.00     0.007 C 
ATOM      8  C   UNL     1     134.448 124.829 137.694  1.00  0.00     0.007 C 
ENDBRANCH   3   6
ENDBRANCH   2   3
ENDBRANCH   1   2
BRANCH   1   9
ATOM      9  C   UNL     1     134.541 122.411 139.859  1.00  0.00    -0.011 C 
ATOM     10  C   UNL     1     133.050 122.162 140.162  1.00  0.00     0.008 C 
BRANCH   9  11
ATOM     11  C   UNL     1     135.381 122.292 141.181  1.00  0.00    -0.002 C 
ATOM     12  C   UNL     1     136.776 121.614 141.074  1.00  0.00     0.005 C 
ATOM     13  C   UNL     1     135.623 123.597 141.998  1.00  0.00    -0.026 C 
ATOM     14  C   UNL     1     137.654 122.245 142.170  1.00  0.00     0.005 C 
ATOM     15  C   UNL     1     136.678 123.080 142.990  1.00  0.00    -0.001 C 
ATOM     16  C   UNL     1     134.369 124.101 142.796  1.00  0.00     0.007 C 
ATOM     17  C   UNL     1     136.169 124.726 141.070  1.00  0.00     0.012 C 
ATOM     18  C   UNL     1     137.190 124.103 144.040  1.00  0.00     0.000 C 
ATOM     19  C   UNL     1     134.682 124.560 144.256  1.00  0.00     0.005 C 
ATOM     20  C   UNL     1     136.107 125.160 144.387  1.00  0.00     0.003 C 
ATOM     21  C   UNL     1     138.488 124.848 143.723  1.00  0.00     0.031 C 
ATOM     22  C   UNL     1     136.455 125.894 145.734  1.00  0.00    -0.008 C 
ATOM     23  C   UNL     1     138.873 125.692 144.917  1.00  0.00    -0.027 C 
ATOM     24  C   UNL     1     137.977 126.150 145.834  1.00  0.00    -0.065 C 
ATOM     25  C   UNL     1     136.026 125.052 146.974  1.00  0.00     0.014 C 
ATOM     26  C   UNL     1     135.719 127.262 145.751  1.00  0.00     0.016 C 
ATOM     27  C   UNL     1     138.496 126.736 147.130  1.00  0.00     0.063 C 
ATOM     28  C   UNL     1     136.544 125.624 148.310  1.00  0.00     0.033 C 
ATOM     29  C   UNL     1     138.067 125.835 148.300  1.00  0.00     0.118 C 
BRANCH  29  30
ATOM     30  O   UNL     1     138.456 126.421 149.515  1.00  0.00    -0.393 OA
ATOM     31  H   UNL     1     138.614 127.384 149.332  1.00  0.00     0.210 HD
ENDBRANCH  29  30
ENDBRANCH   9  11
ENDBRANCH   1   9
TORSDOF 7
ENDMDL
MODEL 2
REMARK VINA RESULT:     5.589      2.451      3.831
REMARK INTER + INTRA:           7.316
REMARK INTER:                   7.451
REMARK INTRA:                  -0.135
REMARK UNBOUND:                -0.397
REMARK SMILES CC[C@H](CC[C@@H](C)[C@H]1CC[C@H]2[C@H]3CC=C4C[C@@H](O)CC[C@]4(C)[C@@H]3CC[C@]12C)C(C)C
REMARK SMILES IDX 5 1 4 2 3 3 2 4 1 5 28 6 29 7 30 8 6 9 7 10 8 11 9 12 26 13
REMARK SMILES IDX 10 14 11 15 25 16 27 17 12 18 24 19 23 20 13 21 21 22 14 23
REMARK SMILES IDX 15 24 20 25 22 26 16 27 19 28 17 29 18 30
REMARK H PARENT 18 31
REMARK Flexibility Score: inf
ROOT
ATOM      1  C   UNL     1     133.394 125.103 137.955  1.00  0.00     0.004 C 
ENDROOT
BRANCH   1   2
ATOM      2  C   UNL     1     131.979 125.089 137.345  1.00  0.00     0.004 C 
BRANCH   2   3
ATOM      3  C   UNL     1     131.309 126.483 137.149  1.00  0.00    -0.009 C 
BRANCH   3   4
ATOM      4  C   UNL     1     130.999 126.802 135.654  1.00  0.00     0.000 C 
ATOM      5  C   UNL     1     132.076 126.426 134.628  1.00  0.00     0.004 C 
ENDBRANCH   3   4
BRANCH   3   6
ATOM      6  C   UNL     1     130.140 126.797 138.145  1.00  0.00    -0.014 C 
ATOM      7  C   UNL     1     128.769 126.451 137.535  1.00  0.00     0.007 C 
ATOM      8  C   UNL     1     130.130 128.279 138.568  1.00  0.00     0.007 C 
ENDBRANCH   3   6
ENDBRANCH   2   3
ENDBRANCH   1   2
BRANCH   1   9
ATOM      9  C   UNL     1     134.075 123.705 137.900  1.00  0.00    -0.011 C 
ATOM     10  C   UNL     1     135.261 123.742 136.915  1.00  0.00     0.008 C 
BRANCH   9  11
ATOM     11  C   UNL     1     134.553 123.146 139.288  1.00  0.00    -0.002 C 
ATOM     12  C   UNL     1     135.622 122.017 139.266  1.00  0.00     0.005 C 
ATOM     13  C   UNL     1     135.070 124.176 140.338  1.00  0.00    -0.026 C 
ATOM     14  C   UNL     1     136.438 122.160 140.564  1.00  0.00     0.005 C 
ATOM     15  C   UNL     1     135.672 123.205 141.367  1.00  0.00    -0.001 C 
ATOM     16  C   UNL     1     133.938 125.018 141.026  1.00  0.00     0.007 C 
ATOM     17  C   UNL     1     136.137 125.116 139.698  1.00  0.00     0.012 C 
ATOM     18  C   UNL     1     136.293 123.850 142.635  1.00  0.00     0.000 C 
ATOM     19  C   UNL     1     134.105 125.173 142.571  1.00  0.00     0.005 C 
ATOM     20  C   UNL     1     135.597 125.189 143.000  1.00  0.00     0.003 C 
ATOM     21  C   UNL     1     137.804 124.093 142.633  1.00  0.00     0.031 C 
ATOM     22  C   UNL     1     135.911 125.596 144.486  1.00  0.00    -0.008 C 
ATOM     23  C   UNL     1     138.221 124.605 143.993  1.00  0.00    -0.027 C 
ATOM     24  C   UNL     1     137.379 125.262 144.839  1.00  0.00    -0.065 C 
ATOM     25  C   UNL     1     134.990 124.845 145.494  1.00  0.00     0.014 C 
ATOM     26  C   UNL     1     135.703 127.129 144.628  1.00  0.00     0.016 C 
ATOM     27  C   UNL     1     137.811 125.474 146.274  1.00  0.00     0.063 C 
ATOM     28  C   UNL     1     135.408 125.041 146.967  1.00  0.00     0.033 C 
ATOM     29  C   UNL     1     136.883 124.676 147.205  1.00  0.00     0.118 C 
BRANCH  29  30
ATOM     30  O   UNL     1     137.210 124.946 148.543  1.00  0.00    -0.393 OA
ATOM     31  H   UNL     1     138.034 125.500 148.533  1.00  0.00     0.210 HD
ENDBRANCH  29  30
ENDBRANCH   9  11
ENDBRANCH   1   9
TORSDOF 7
ENDMDL
MODEL 3
REMARK VINA RESULT:     7.940      1.192      2.609
REMARK INTER + INTRA:          10.561
REMARK INTER:                   8.522
REMARK INTRA:                   2.039
REMARK UNBOUND:                -0.397
REMARK SMILES CC[C@H](CC[C@@H](C)[C@H]1CC[C@H]2[C@H]3CC=C4C[C@@H](O)CC[C@]4(C)[C@@H]3CC[C@]12C)C(C)C
REMARK SMILES IDX 5 1 4 2 3 3 2 4 1 5 28 6 29 7 30 8 6 9 7 10 8 11 9 12 26 13
REMARK SMILES IDX 10 14 11 15 25 16 27 17 12 18 24 19 23 20 13 21 21 22 14 23
REMARK SMILES IDX 15 24 20 25 22 26 16 27 19 28 17 29 18 30
REMARK H PARENT 18 31
REMARK Flexibility Score: inf
ROOT
ATOM      1  C   UNL     1     134.998 122.596 137.512  1.00  0.00     0.004 C 
ENDROOT
BRANCH   1   2
ATOM      2  C   UNL     1     136.525 122.595 137.300  1.00  0.00     0.004 C 
BRANCH   2   3
ATOM      3  C   UNL     1     137.349 123.474 138.289  1.00  0.00    -0.009 C 
BRANCH   3   4
ATOM      4  C   UNL     1     138.828 123.000 138.433  1.00  0.00     0.000 C 
ATOM      5  C   UNL     1     139.313 122.668 139.850  1.00  0.00     0.004 C 
ENDBRANCH   3   4
BRANCH   3   6
ATOM      6  C   UNL     1     137.168 125.020 138.102  1.00  0.00    -0.014 C 
ATOM      7  C   UNL     1     137.892 125.810 139.208  1.00  0.00     0.007 C 
ATOM      8  C   UNL     1     135.682 125.427 138.099  1.00  0.00     0.007 C 
ENDBRANCH   3   6
ENDBRANCH   2   3
ENDBRANCH   1   2
BRANCH   1   9
ATOM      9  C   UNL     1     134.608 122.350 138.998  1.00  0.00    -0.011 C 
ATOM     10  C   UNL     1     135.386 121.137 139.546  1.00  0.00     0.008 C 
BRANCH   9  11
ATOM     11  C   UNL     1     134.808 123.584 139.949  1.00  0.00    -0.002 C 
ATOM     12  C   UNL     1     133.621 124.580 140.075  1.00  0.00     0.005 C 
ATOM     13  C   UNL     1     135.256 123.296 141.414  1.00  0.00    -0.026 C 
ATOM     14  C   UNL     1     133.708 125.189 141.487  1.00  0.00     0.005 C 
ATOM     15  C   UNL     1     135.047 124.694 142.020  1.00  0.00    -0.001 C 
ATOM     16  C   UNL     1     136.766 122.893 141.559  1.00  0.00     0.007 C 
ATOM     17  C   UNL     1     134.338 122.214 142.062  1.00  0.00     0.012 C 
ATOM     18  C   UNL     1     135.417 124.854 143.519  1.00  0.00     0.000 C 
ATOM     19  C   UNL     1     137.504 123.591 142.746  1.00  0.00     0.005 C 
ATOM     20  C   UNL     1     136.552 123.880 143.938  1.00  0.00     0.003 C 
ATOM     21  C   UNL     1     134.286 124.721 144.541  1.00  0.00     0.031 C 
ATOM     22  C   UNL     1     137.214 124.341 145.288  1.00  0.00    -0.008 C 
ATOM     23  C   UNL     1     134.829 125.032 145.917  1.00  0.00    -0.027 C 
ATOM     24  C   UNL     1     136.140 124.885 146.259  1.00  0.00    -0.065 C 
ATOM     25  C   UNL     1     138.267 125.467 145.056  1.00  0.00     0.014 C 
ATOM     26  C   UNL     1     137.898 123.110 145.943  1.00  0.00     0.016 C 
ATOM     27  C   UNL     1     136.625 125.489 147.559  1.00  0.00     0.063 C 
ATOM     28  C   UNL     1     138.779 126.104 146.365  1.00  0.00     0.033 C 
ATOM     29  C   UNL     1     137.629 126.612 147.252  1.00  0.00     0.118 C 
BRANCH  29  30
ATOM     30  O   UNL     1     138.162 127.112 148.450  1.00  0.00    -0.393 OA
ATOM     31  H   UNL     1     137.882 128.062 148.515  1.00  0.00     0.210 HD
ENDBRANCH  29  30
ENDBRANCH   9  11
ENDBRANCH   1   9
TORSDOF 7
ENDMDL
