MODEL 1
REMARK VINA RESULT:    -5.319      0.000      0.000
REMARK INTER + INTRA:         -11.538
REMARK INTER:                  -9.672
REMARK INTRA:                  -1.865
REMARK UNBOUND:                -1.865
REMARK SMILES CCCCCCCCCCCCCCCC(=O)[O-]
REMARK SMILES IDX 9 1 10 2 11 3 12 4 13 5 14 6 15 7 16 8 17 9 18 10 8 11 7 12
REMARK SMILES IDX 6 13 5 14 4 15 3 16 2 17 1 18
REMARK H PARENT
REMARK Flexibility Score: inf
ROOT
ATOM      1  C   UNL     1     -29.687  -1.991  22.052  1.00  0.00     0.000 C 
ENDROOT
BRANCH   1   2
ATOM      2  C   UNL     1     -28.610  -2.225  20.982  1.00  0.00     0.000 C 
BRANCH   2   3
ATOM      3  C   UNL     1     -28.528  -1.036  20.017  1.00  0.00     0.000 C 
BRANCH   3   4
ATOM      4  C   UNL     1     -28.185  -1.503  18.595  1.00  0.00     0.000 C 
BRANCH   4   5
ATOM      5  C   UNL     1     -28.934  -2.784  18.186  1.00  0.00     0.000 C 
BRANCH   5   6
ATOM      6  C   UNL     1     -28.644  -3.282  16.755  1.00  0.00     0.006 C 
BRANCH   6   7
ATOM      7  C   UNL     1     -28.347  -2.169  15.739  1.00  0.00     0.053 C 
BRANCH   7   8
ATOM      8  C   UNL     1     -27.053  -2.394  15.021  1.00  0.00     0.041 C 
ATOM      9  O   UNL     1     -26.598  -1.513  14.244  1.00  0.00    -0.550 OA
ATOM     10  O   UNL     1     -26.330  -3.561  15.236  1.00  0.00    -0.550 OA
ENDBRANCH   7   8
ENDBRANCH   6   7
ENDBRANCH   5   6
ENDBRANCH   4   5
ENDBRANCH   3   4
ENDBRANCH   2   3
ENDBRANCH   1   2
BRANCH   1  11
ATOM     11  C   UNL     1     -30.539  -0.740  21.775  1.00  0.00     0.000 C 
BRANCH  11  12
ATOM     12  C   UNL     1     -31.236  -0.209  23.038  1.00  0.00    -0.000 C 
BRANCH  12  13
ATOM     13  C   UNL     1     -30.861  -1.002  24.304  1.00  0.00    -0.000 C 
BRANCH  13  14
ATOM     14  C   UNL     1     -30.171  -0.179  25.411  1.00  0.00    -0.000 C 
BRANCH  14  15
ATOM     15  C   UNL     1     -28.800   0.413  25.031  1.00  0.00    -0.000 C 
BRANCH  15  16
ATOM     16  C   UNL     1     -27.663  -0.615  24.898  1.00  0.00    -0.000 C 
BRANCH  16  17
ATOM     17  C   UNL     1     -26.752  -0.342  23.692  1.00  0.00    -0.003 C 
ATOM     18  C   UNL     1     -27.198   0.907  22.938  1.00  0.00     0.004 C 
ENDBRANCH  16  17
ENDBRANCH  15  16
ENDBRANCH  14  15
ENDBRANCH  13  14
ENDBRANCH  12  13
ENDBRANCH  11  12
ENDBRANCH   1  11
TORSDOF 14
ENDMDL
MODEL 2
REMARK VINA RESULT:    -5.272      2.468      4.215
REMARK INTER + INTRA:         -11.452
REMARK INTER:                  -9.182
REMARK INTRA:                  -2.271
REMARK UNBOUND:                -1.865
REMARK SMILES CCCCCCCCCCCCCCCC(=O)[O-]
REMARK SMILES IDX 9 1 10 2 11 3 12 4 13 5 14 6 15 7 16 8 17 9 18 10 8 11 7 12
REMARK SMILES IDX 6 13 5 14 4 15 3 16 2 17 1 18
REMARK H PARENT
REMARK Flexibility Score: inf
ROOT
ATOM      1  C   UNL     1     -26.848   0.609  23.782  1.00  0.00     0.000 C 
ENDROOT
BRANCH   1   2
ATOM      2  C   UNL     1     -26.453  -0.865  23.602  1.00  0.00     0.000 C 
BRANCH   2   3
ATOM      3  C   UNL     1     -27.238  -1.764  24.565  1.00  0.00     0.000 C 
BRANCH   3   4
ATOM      4  C   UNL     1     -28.254  -2.630  23.805  1.00  0.00     0.000 C 
BRANCH   4   5
ATOM      5  C   UNL     1     -28.341  -2.281  22.309  1.00  0.00     0.000 C 
BRANCH   5   6
ATOM      6  C   UNL     1     -29.772  -2.142  21.751  1.00  0.00     0.006 C 
BRANCH   6   7
ATOM      7  C   UNL     1     -29.875  -1.323  20.454  1.00  0.00     0.053 C 
BRANCH   7   8
ATOM      8  C   UNL     1     -28.931  -1.817  19.403  1.00  0.00     0.041 C 
ATOM      9  O   UNL     1     -27.945  -1.114  19.057  1.00  0.00    -0.550 OA
ATOM     10  O   UNL     1     -29.119  -3.068  18.828  1.00  0.00    -0.550 OA
ENDBRANCH   7   8
ENDBRANCH   6   7
ENDBRANCH   5   6
ENDBRANCH   4   5
ENDBRANCH   3   4
ENDBRANCH   2   3
ENDBRANCH   1   2
BRANCH   1  11
ATOM     11  C   UNL     1     -27.488   1.211  22.519  1.00  0.00     0.000 C 
BRANCH  11  12
ATOM     12  C   UNL     1     -29.010   1.384  22.654  1.00  0.00    -0.000 C 
BRANCH  12  13
ATOM     13  C   UNL     1     -29.507   1.183  24.097  1.00  0.00    -0.000 C 
BRANCH  13  14
ATOM     14  C   UNL     1     -30.626   0.135  24.264  1.00  0.00    -0.000 C 
BRANCH  14  15
ATOM     15  C   UNL     1     -30.583  -0.666  25.581  1.00  0.00    -0.000 C 
BRANCH  15  16
ATOM     16  C   UNL     1     -30.975   0.130  26.838  1.00  0.00    -0.000 C 
BRANCH  16  17
ATOM     17  C   UNL     1     -29.775   0.822  27.502  1.00  0.00    -0.003 C 
ATOM     18  C   UNL     1     -28.538  -0.070  27.466  1.00  0.00     0.004 C 
ENDBRANCH  16  17
ENDBRANCH  15  16
ENDBRANCH  14  15
ENDBRANCH  13  14
ENDBRANCH  12  13
ENDBRANCH  11  12
ENDBRANCH   1  11
TORSDOF 14
ENDMDL
MODEL 3
REMARK VINA RESULT:    -5.243      1.236      3.056
REMARK INTER + INTRA:         -11.399
REMARK INTER:                  -9.543
REMARK INTRA:                  -1.856
REMARK UNBOUND:                -1.865
REMARK SMILES CCCCCCCCCCCCCCCC(=O)[O-]
REMARK SMILES IDX 9 1 10 2 11 3 12 4 13 5 14 6 15 7 16 8 17 9 18 10 8 11 7 12
REMARK SMILES IDX 6 13 5 14 4 15 3 16 2 17 1 18
REMARK H PARENT
REMARK Flexibility Score: inf
ROOT
ATOM      1  C   UNL     1     -26.898   0.177  23.242  1.00  0.00     0.000 C 
ENDROOT
BRANCH   1   2
ATOM      2  C   UNL     1     -27.780  -0.144  22.026  1.00  0.00     0.000 C 
BRANCH   2   3
ATOM      3  C   UNL     1     -27.270  -1.390  21.293  1.00  0.00     0.000 C 
BRANCH   3   4
ATOM      4  C   UNL     1     -28.426  -2.342  20.953  1.00  0.00     0.000 C 
BRANCH   4   5
ATOM      5  C   UNL     1     -29.236  -1.890  19.725  1.00  0.00     0.000 C 
BRANCH   5   6
ATOM      6  C   UNL     1     -28.497  -2.001  18.376  1.00  0.00     0.006 C 
BRANCH   6   7
ATOM      7  C   UNL     1     -28.941  -3.184  17.501  1.00  0.00     0.053 C 
BRANCH   7   8
ATOM      8  C   UNL     1     -28.526  -3.012  16.073  1.00  0.00     0.041 C 
ATOM      9  O   UNL     1     -27.937  -1.960  15.707  1.00  0.00    -0.550 OA
ATOM     10  O   UNL     1     -28.758  -4.026  15.152  1.00  0.00    -0.550 OA
ENDBRANCH   7   8
ENDBRANCH   6   7
ENDBRANCH   5   6
ENDBRANCH   4   5
ENDBRANCH   3   4
ENDBRANCH   2   3
ENDBRANCH   1   2
BRANCH   1  11
ATOM     11  C   UNL     1     -26.727  -1.024  24.187  1.00  0.00     0.000 C 
BRANCH  11  12
ATOM     12  C   UNL     1     -27.834  -1.099  25.251  1.00  0.00    -0.000 C 
BRANCH  12  13
ATOM     13  C   UNL     1     -28.020   0.225  26.014  1.00  0.00    -0.000 C 
BRANCH  13  14
ATOM     14  C   UNL     1     -29.460   0.778  26.025  1.00  0.00    -0.000 C 
BRANCH  14  15
ATOM     15  C   UNL     1     -30.507  -0.103  25.315  1.00  0.00    -0.000 C 
BRANCH  15  16
ATOM     16  C   UNL     1     -30.845   0.322  23.876  1.00  0.00    -0.000 C 
BRANCH  16  17
ATOM     17  C   UNL     1     -31.290  -0.855  22.996  1.00  0.00    -0.003 C 
ATOM     18  C   UNL     1     -30.903  -2.189  23.627  1.00  0.00     0.004 C 
ENDBRANCH  16  17
ENDBRANCH  15  16
ENDBRANCH  14  15
ENDBRANCH  13  14
ENDBRANCH  12  13
ENDBRANCH  11  12
ENDBRANCH   1  11
TORSDOF 14
ENDMDL
MODEL 4
REMARK VINA RESULT:    -5.225      1.372      2.843
REMARK INTER + INTRA:         -11.367
REMARK INTER:                  -9.624
REMARK INTRA:                  -1.743
REMARK UNBOUND:                -1.865
REMARK SMILES CCCCCCCCCCCCCCCC(=O)[O-]
REMARK SMILES IDX 9 1 10 2 11 3 12 4 13 5 14 6 15 7 16 8 17 9 18 10 8 11 7 12
REMARK SMILES IDX 6 13 5 14 4 15 3 16 2 17 1 18
REMARK H PARENT
REMARK Flexibility Score: inf
ROOT
ATOM      1  C   UNL     1     -27.568  -0.372  21.732  1.00  0.00     0.000 C 
ENDROOT
BRANCH   1   2
ATOM      2  C   UNL     1     -28.711  -0.755  20.780  1.00  0.00     0.000 C 
BRANCH   2   3
ATOM      3  C   UNL     1     -28.688  -2.256  20.470  1.00  0.00     0.000 C 
BRANCH   3   4
ATOM      4  C   UNL     1     -29.048  -2.521  19.000  1.00  0.00     0.000 C 
BRANCH   4   5
ATOM      5  C   UNL     1     -28.057  -1.879  18.014  1.00  0.00     0.000 C 
BRANCH   5   6
ATOM      6  C   UNL     1     -28.278  -2.247  16.532  1.00  0.00     0.006 C 
BRANCH   6   7
ATOM      7  C   UNL     1     -28.660  -3.716  16.290  1.00  0.00     0.053 C 
BRANCH   7   8
ATOM      8  C   UNL     1     -28.461  -4.119  14.862  1.00  0.00     0.041 C 
ATOM      9  O   UNL     1     -27.643  -3.494  14.136  1.00  0.00    -0.550 OA
ATOM     10  O   UNL     1     -29.153  -5.205  14.340  1.00  0.00    -0.550 OA
ENDBRANCH   7   8
ENDBRANCH   6   7
ENDBRANCH   5   6
ENDBRANCH   4   5
ENDBRANCH   3   4
ENDBRANCH   2   3
ENDBRANCH   1   2
BRANCH   1  11
ATOM     11  C   UNL     1     -27.242  -1.482  22.746  1.00  0.00     0.000 C 
BRANCH  11  12
ATOM     12  C   UNL     1     -26.909  -0.928  24.141  1.00  0.00    -0.000 C 
BRANCH  12  13
ATOM     13  C   UNL     1     -27.724   0.330  24.492  1.00  0.00    -0.000 C 
BRANCH  13  14
ATOM     14  C   UNL     1     -28.653   0.188  25.716  1.00  0.00    -0.000 C 
BRANCH  14  15
ATOM     15  C   UNL     1     -30.081  -0.300  25.403  1.00  0.00    -0.000 C 
BRANCH  15  16
ATOM     16  C   UNL     1     -30.662   0.204  24.070  1.00  0.00    -0.000 C 
BRANCH  16  17
ATOM     17  C   UNL     1     -31.288  -0.919  23.231  1.00  0.00    -0.003 C 
ATOM     18  C   UNL     1     -30.879  -2.291  23.757  1.00  0.00     0.004 C 
ENDBRANCH  16  17
ENDBRANCH  15  16
ENDBRANCH  14  15
ENDBRANCH  13  14
ENDBRANCH  12  13
ENDBRANCH  11  12
ENDBRANCH   1  11
TORSDOF 14
ENDMDL
MODEL 5
REMARK VINA RESULT:    -5.190      1.092      2.187
REMARK INTER + INTRA:         -11.302
REMARK INTER:                  -9.248
REMARK INTRA:                  -2.055
REMARK UNBOUND:                -1.865
REMARK SMILES CCCCCCCCCCCCCCCC(=O)[O-]
REMARK SMILES IDX 9 1 10 2 11 3 12 4 13 5 14 6 15 7 16 8 17 9 18 10 8 11 7 12
REMARK SMILES IDX 6 13 5 14 4 15 3 16 2 17 1 18
REMARK H PARENT
REMARK Flexibility Score: inf
ROOT
ATOM      1  C   UNL     1     -31.448  -0.396  22.464  1.00  0.00     0.000 C 
ENDROOT
BRANCH   1   2
ATOM      2  C   UNL     1     -30.430  -0.765  21.374  1.00  0.00     0.000 C 
BRANCH   2   3
ATOM      3  C   UNL     1     -29.672  -2.046  21.743  1.00  0.00     0.000 C 
BRANCH   3   4
ATOM      4  C   UNL     1     -28.647  -2.411  20.658  1.00  0.00     0.000 C 
BRANCH   4   5
ATOM      5  C   UNL     1     -28.277  -1.221  19.756  1.00  0.00     0.000 C 
BRANCH   5   6
ATOM      6  C   UNL     1     -28.000  -1.578  18.282  1.00  0.00     0.006 C 
BRANCH   6   7
ATOM      7  C   UNL     1     -28.813  -2.769  17.751  1.00  0.00     0.053 C 
BRANCH   7   8
ATOM      8  C   UNL     1     -28.695  -2.911  16.265  1.00  0.00     0.041 C 
ATOM      9  O   UNL     1     -27.561  -2.910  15.717  1.00  0.00    -0.550 OA
ATOM     10  O   UNL     1     -29.834  -3.079  15.487  1.00  0.00    -0.550 OA
ENDBRANCH   7   8
ENDBRANCH   6   7
ENDBRANCH   5   6
ENDBRANCH   4   5
ENDBRANCH   3   4
ENDBRANCH   2   3
ENDBRANCH   1   2
BRANCH   1  11
ATOM     11  C   UNL     1     -31.035  -0.900  23.857  1.00  0.00     0.000 C 
BRANCH  11  12
ATOM     12  C   UNL     1     -30.340   0.187  24.695  1.00  0.00    -0.000 C 
BRANCH  12  13
ATOM     13  C   UNL     1     -29.642  -0.380  25.945  1.00  0.00    -0.000 C 
BRANCH  13  14
ATOM     14  C   UNL     1     -28.108  -0.500  25.841  1.00  0.00    -0.000 C 
BRANCH  14  15
ATOM     15  C   UNL     1     -27.599  -1.547  24.830  1.00  0.00    -0.000 C 
BRANCH  15  16
ATOM     16  C   UNL     1     -26.754  -0.979  23.677  1.00  0.00    -0.000 C 
BRANCH  16  17
ATOM     17  C   UNL     1     -26.676   0.554  23.696  1.00  0.00    -0.003 C 
ATOM     18  C   UNL     1     -27.506   1.162  22.570  1.00  0.00     0.004 C 
ENDBRANCH  16  17
ENDBRANCH  15  16
ENDBRANCH  14  15
ENDBRANCH  13  14
ENDBRANCH  12  13
ENDBRANCH  11  12
ENDBRANCH   1  11
TORSDOF 14
ENDMDL
MODEL 6
REMARK VINA RESULT:    -5.166      1.643      2.364
REMARK INTER + INTRA:         -11.259
REMARK INTER:                  -9.582
REMARK INTRA:                  -1.677
REMARK UNBOUND:                -1.865
REMARK SMILES CCCCCCCCCCCCCCCC(=O)[O-]
REMARK SMILES IDX 9 1 10 2 11 3 12 4 13 5 14 6 15 7 16 8 17 9 18 10 8 11 7 12
REMARK SMILES IDX 6 13 5 14 4 15 3 16 2 17 1 18
REMARK H PARENT
REMARK Flexibility Score: inf
ROOT
ATOM      1  C   UNL     1     -27.679  -0.339  21.751  1.00  0.00     0.000 C 
ENDROOT
BRANCH   1   2
ATOM      2  C   UNL     1     -27.483  -1.453  20.712  1.00  0.00     0.000 C 
BRANCH   2   3
ATOM      3  C   UNL     1     -28.758  -2.293  20.562  1.00  0.00     0.000 C 
BRANCH   3   4
ATOM      4  C   UNL     1     -29.017  -2.643  19.089  1.00  0.00     0.000 C 
BRANCH   4   5
ATOM      5  C   UNL     1     -28.225  -1.756  18.113  1.00  0.00     0.000 C 
BRANCH   5   6
ATOM      6  C   UNL     1     -28.140  -2.288  16.667  1.00  0.00     0.006 C 
BRANCH   6   7
ATOM      7  C   UNL     1     -28.659  -3.723  16.484  1.00  0.00     0.053 C 
BRANCH   7   8
ATOM      8  C   UNL     1     -28.891  -4.056  15.043  1.00  0.00     0.041 C 
ATOM      9  O   UNL     1     -28.443  -3.302  14.139  1.00  0.00    -0.550 OA
ATOM     10  O   UNL     1     -29.574  -5.215  14.696  1.00  0.00    -0.550 OA
ENDBRANCH   7   8
ENDBRANCH   6   7
ENDBRANCH   5   6
ENDBRANCH   4   5
ENDBRANCH   3   4
ENDBRANCH   2   3
ENDBRANCH   1   2
BRANCH   1  11
ATOM     11  C   UNL     1     -28.982   0.450  21.539  1.00  0.00     0.000 C 
BRANCH  11  12
ATOM     12  C   UNL     1     -29.513   1.074  22.840  1.00  0.00    -0.000 C 
BRANCH  12  13
ATOM     13  C   UNL     1     -30.914   0.561  23.219  1.00  0.00    -0.000 C 
BRANCH  13  14
ATOM     14  C   UNL     1     -31.098  -0.968  23.130  1.00  0.00    -0.000 C 
BRANCH  14  15
ATOM     15  C   UNL     1     -30.652  -1.757  24.377  1.00  0.00    -0.000 C 
BRANCH  15  16
ATOM     16  C   UNL     1     -29.179  -2.201  24.371  1.00  0.00    -0.000 C 
BRANCH  16  17
ATOM     17  C   UNL     1     -28.267  -1.251  25.162  1.00  0.00    -0.003 C 
ATOM     18  C   UNL     1     -28.985  -0.693  26.386  1.00  0.00     0.004 C 
ENDBRANCH  16  17
ENDBRANCH  15  16
ENDBRANCH  14  15
ENDBRANCH  13  14
ENDBRANCH  12  13
ENDBRANCH  11  12
ENDBRANCH   1  11
TORSDOF 14
ENDMDL
MODEL 7
REMARK VINA RESULT:    -5.115      1.326      2.904
REMARK INTER + INTRA:         -11.167
REMARK INTER:                  -9.347
REMARK INTRA:                  -1.820
REMARK UNBOUND:                -1.865
REMARK SMILES CCCCCCCCCCCCCCCC(=O)[O-]
REMARK SMILES IDX 9 1 10 2 11 3 12 4 13 5 14 6 15 7 16 8 17 9 18 10 8 11 7 12
REMARK SMILES IDX 6 13 5 14 4 15 3 16 2 17 1 18
REMARK H PARENT
REMARK Flexibility Score: inf
ROOT
ATOM      1  C   UNL     1     -30.564   0.235  22.883  1.00  0.00     0.000 C 
ENDROOT
BRANCH   1   2
ATOM      2  C   UNL     1     -30.574  -1.209  22.359  1.00  0.00     0.000 C 
BRANCH   2   3
ATOM      3  C   UNL     1     -30.454  -1.239  20.831  1.00  0.00     0.000 C 
BRANCH   3   4
ATOM      4  C   UNL     1     -29.234  -2.062  20.390  1.00  0.00     0.000 C 
BRANCH   4   5
ATOM      5  C   UNL     1     -28.196  -1.231  19.616  1.00  0.00     0.000 C 
BRANCH   5   6
ATOM      6  C   UNL     1     -28.048  -1.594  18.124  1.00  0.00     0.006 C 
BRANCH   6   7
ATOM      7  C   UNL     1     -28.780  -2.878  17.704  1.00  0.00     0.053 C 
BRANCH   7   8
ATOM      8  C   UNL     1     -28.670  -3.130  16.232  1.00  0.00     0.041 C 
ATOM      9  O   UNL     1     -29.194  -4.157  15.725  1.00  0.00    -0.550 OA
ATOM     10  O   UNL     1     -28.016  -2.217  15.414  1.00  0.00    -0.550 OA
ENDBRANCH   7   8
ENDBRANCH   6   7
ENDBRANCH   5   6
ENDBRANCH   4   5
ENDBRANCH   3   4
ENDBRANCH   2   3
ENDBRANCH   1   2
BRANCH   1  11
ATOM     11  C   UNL     1     -29.397   1.064  22.321  1.00  0.00     0.000 C 
BRANCH  11  12
ATOM     12  C   UNL     1     -28.165   1.048  23.242  1.00  0.00    -0.000 C 
BRANCH  12  13
ATOM     13  C   UNL     1     -27.152  -0.048  22.866  1.00  0.00    -0.000 C 
BRANCH  13  14
ATOM     14  C   UNL     1     -26.803  -1.034  23.999  1.00  0.00    -0.000 C 
BRANCH  14  15
ATOM     15  C   UNL     1     -28.010  -1.598  24.774  1.00  0.00    -0.000 C 
BRANCH  15  16
ATOM     16  C   UNL     1     -28.290  -0.916  26.125  1.00  0.00    -0.000 C 
BRANCH  16  17
ATOM     17  C   UNL     1     -29.740  -0.426  26.254  1.00  0.00    -0.003 C 
ATOM     18  C   UNL     1     -29.789   1.039  26.678  1.00  0.00     0.004 C 
ENDBRANCH  16  17
ENDBRANCH  15  16
ENDBRANCH  14  15
ENDBRANCH  13  14
ENDBRANCH  12  13
ENDBRANCH  11  12
ENDBRANCH   1  11
TORSDOF 14
ENDMDL
MODEL 8
REMARK VINA RESULT:    -5.072      7.088     10.602
REMARK INTER + INTRA:         -11.089
REMARK INTER:                  -9.427
REMARK INTRA:                  -1.662
REMARK UNBOUND:                -1.865
REMARK SMILES CCCCCCCCCCCCCCCC(=O)[O-]
REMARK SMILES IDX 9 1 10 2 11 3 12 4 13 5 14 6 15 7 16 8 17 9 18 10 8 11 7 12
REMARK SMILES IDX 6 13 5 14 4 15 3 16 2 17 1 18
REMARK H PARENT
REMARK Flexibility Score: inf
ROOT
ATOM      1  C   UNL     1     -27.613  -0.032  25.790  1.00  0.00     0.000 C 
ENDROOT
BRANCH   1   2
ATOM      2  C   UNL     1     -28.699  -0.618  26.706  1.00  0.00     0.000 C 
BRANCH   2   3
ATOM      3  C   UNL     1     -29.999   0.189  26.601  1.00  0.00     0.000 C 
BRANCH   3   4
ATOM      4  C   UNL     1     -30.108   1.210  27.744  1.00  0.00     0.000 C 
BRANCH   4   5
ATOM      5  C   UNL     1     -29.320   0.793  28.998  1.00  0.00     0.000 C 
BRANCH   5   6
ATOM      6  C   UNL     1     -29.802   1.433  30.316  1.00  0.00     0.006 C 
BRANCH   6   7
ATOM      7  C   UNL     1     -28.960   1.067  31.548  1.00  0.00     0.053 C 
BRANCH   7   8
ATOM      8  C   UNL     1     -29.257   1.958  32.715  1.00  0.00     0.041 C 
ATOM      9  O   UNL     1     -29.825   3.068  32.536  1.00  0.00    -0.550 OA
ATOM     10  O   UNL     1     -28.937   1.550  34.004  1.00  0.00    -0.550 OA
ENDBRANCH   7   8
ENDBRANCH   6   7
ENDBRANCH   5   6
ENDBRANCH   4   5
ENDBRANCH   3   4
ENDBRANCH   2   3
ENDBRANCH   1   2
BRANCH   1  11
ATOM     11  C   UNL     1     -27.133  -1.031  24.724  1.00  0.00     0.000 C 
BRANCH  11  12
ATOM     12  C   UNL     1     -27.085  -0.414  23.317  1.00  0.00    -0.000 C 
BRANCH  12  13
ATOM     13  C   UNL     1     -27.734   0.981  23.255  1.00  0.00    -0.000 C 
BRANCH  13  14
ATOM     14  C   UNL     1     -29.074   1.046  22.494  1.00  0.00    -0.000 C 
BRANCH  14  15
ATOM     15  C   UNL     1     -29.364  -0.155  21.571  1.00  0.00    -0.000 C 
BRANCH  15  16
ATOM     16  C   UNL     1     -30.740  -0.813  21.776  1.00  0.00    -0.000 C 
BRANCH  16  17
ATOM     17  C   UNL     1     -31.135  -0.918  23.256  1.00  0.00    -0.003 C 
ATOM     18  C   UNL     1     -30.635  -2.223  23.867  1.00  0.00     0.004 C 
ENDBRANCH  16  17
ENDBRANCH  15  16
ENDBRANCH  14  15
ENDBRANCH  13  14
ENDBRANCH  12  13
ENDBRANCH  11  12
ENDBRANCH   1  11
TORSDOF 14
ENDMDL
MODEL 9
REMARK VINA RESULT:    -5.010      7.957     11.758
REMARK INTER + INTRA:         -10.976
REMARK INTER:                  -9.641
REMARK INTRA:                  -1.335
REMARK UNBOUND:                -1.865
REMARK SMILES CCCCCCCCCCCCCCCC(=O)[O-]
REMARK SMILES IDX 9 1 10 2 11 3 12 4 13 5 14 6 15 7 16 8 17 9 18 10 8 11 7 12
REMARK SMILES IDX 6 13 5 14 4 15 3 16 2 17 1 18
REMARK H PARENT
REMARK Flexibility Score: inf
ROOT
ATOM      1  C   UNL     1     -29.416   0.758  26.416  1.00  0.00     0.000 C 
ENDROOT
BRANCH   1   2
ATOM      2  C   UNL     1     -30.121   1.135  27.727  1.00  0.00     0.000 C 
BRANCH   2   3
ATOM      3  C   UNL     1     -29.264   0.755  28.940  1.00  0.00     0.000 C 
BRANCH   3   4
ATOM      4  C   UNL     1     -29.728   1.503  30.199  1.00  0.00     0.000 C 
BRANCH   4   5
ATOM      5  C   UNL     1     -28.977   1.065  31.469  1.00  0.00     0.000 C 
BRANCH   5   6
ATOM      6  C   UNL     1     -29.179   1.976  32.696  1.00  0.00     0.006 C 
BRANCH   6   7
ATOM      7  C   UNL     1     -30.341   1.563  33.614  1.00  0.00     0.053 C 
BRANCH   7   8
ATOM      8  C   UNL     1     -31.412   2.607  33.667  1.00  0.00     0.041 C 
ATOM      9  O   UNL     1     -31.156   3.754  34.119  1.00  0.00    -0.550 OA
ATOM     10  O   UNL     1     -32.686   2.325  33.188  1.00  0.00    -0.550 OA
ENDBRANCH   7   8
ENDBRANCH   6   7
ENDBRANCH   5   6
ENDBRANCH   4   5
ENDBRANCH   3   4
ENDBRANCH   2   3
ENDBRANCH   1   2
BRANCH   1  11
ATOM     11  C   UNL     1     -28.745  -0.625  26.478  1.00  0.00     0.000 C 
BRANCH  11  12
ATOM     12  C   UNL     1     -27.758  -0.855  25.321  1.00  0.00    -0.000 C 
BRANCH  12  13
ATOM     13  C   UNL     1     -27.432   0.438  24.551  1.00  0.00    -0.000 C 
BRANCH  13  14
ATOM     14  C   UNL     1     -27.435   0.302  23.014  1.00  0.00    -0.000 C 
BRANCH  14  15
ATOM     15  C   UNL     1     -28.827   0.139  22.372  1.00  0.00    -0.000 C 
BRANCH  15  16
ATOM     16  C   UNL     1     -29.911   1.081  22.924  1.00  0.00    -0.000 C 
BRANCH  16  17
ATOM     17  C   UNL     1     -31.270   0.387  23.096  1.00  0.00    -0.003 C 
ATOM     18  C   UNL     1     -31.097  -1.059  23.548  1.00  0.00     0.004 C 
ENDBRANCH  16  17
ENDBRANCH  15  16
ENDBRANCH  14  15
ENDBRANCH  13  14
ENDBRANCH  12  13
ENDBRANCH  11  12
ENDBRANCH   1  11
TORSDOF 14
ENDMDL
