MODEL 1
REMARK VINA RESULT:    -8.125      0.000      0.000
REMARK INTER + INTRA:         -12.571
REMARK INTER:                 -11.212
REMARK INTRA:                  -1.359
REMARK UNBOUND:                -1.359
REMARK SMILES O=C([O-])[C@@H]1O[C@@H](Oc2cc3oc(-c4ccccc4)cc(=O)c3c(O)c2O)[C@H](O)[C@@H](O)[C@@H]1O
REMARK SMILES IDX 7 1 6 2 4 3 31 4 5 5 29 6 27 7 2 8 1 9 3 10 32 11 30 13
REMARK SMILES IDX 28 15 8 17 25 18 9 19 23 20 10 21 22 22 11 23 20 24 12 25
REMARK SMILES IDX 19 26 21 27 26 28 24 30 13 32 14 33 18 34 15 35 17 36 16 37
REMARK H PARENT 32 12 30 14 28 16 26 29 24 31
REMARK Flexibility Score: inf
ROOT
ATOM      1  O   UNL     1     -10.323 -22.096  -6.980  1.00  0.00    -0.458 OA
ENDROOT
BRANCH   1   2
ATOM      2  C   UNL     1     -10.503 -22.160  -5.561  1.00  0.00     0.339 C 
ATOM      3  C   UNL     1     -12.817 -22.496  -5.736  1.00  0.00     0.199 C 
ATOM      4  C   UNL     1     -13.188 -21.154  -5.062  1.00  0.00     0.180 C 
ATOM      5  O   UNL     1     -11.598 -22.994  -5.212  1.00  0.00    -0.328 OA
ATOM      6  C   UNL     1     -12.045 -20.123  -5.227  1.00  0.00     0.181 C 
ATOM      7  C   UNL     1     -10.649 -20.742  -4.964  1.00  0.00     0.214 C 
BRANCH   3   8
ATOM      8  C   UNL     1     -13.883 -23.541  -5.539  1.00  0.00     0.073 C 
ATOM      9  O   UNL     1     -13.583 -24.763  -5.444  1.00  0.00    -0.547 OA
ATOM     10  O   UNL     1     -15.208 -23.151  -5.377  1.00  0.00    -0.547 OA
ENDBRANCH   3   8
BRANCH   4  11
ATOM     11  O   UNL     1     -13.451 -21.369  -3.699  1.00  0.00    -0.387 OA
ATOM     12  H   UNL     1     -14.438 -21.431  -3.602  1.00  0.00     0.211 HD
ENDBRANCH   4  11
BRANCH   6  13
ATOM     13  O   UNL     1     -12.088 -19.504  -6.490  1.00  0.00    -0.387 OA
ATOM     14  H   UNL     1     -11.470 -18.731  -6.480  1.00  0.00     0.211 HD
ENDBRANCH   6  13
BRANCH   7  15
ATOM     15  O   UNL     1     -10.365 -20.753  -3.585  1.00  0.00    -0.384 OA
ATOM     16  H   UNL     1     -10.975 -20.104  -3.144  1.00  0.00     0.211 HD
ENDBRANCH   7  15
ENDBRANCH   1   2
BRANCH   1  17
ATOM     17  C   UNL     1      -9.099 -21.861  -7.631  1.00  0.00     0.172 A 
ATOM     18  C   UNL     1      -8.859 -20.590  -8.183  1.00  0.00     0.201 A 
ATOM     19  C   UNL     1      -8.115 -22.858  -7.744  1.00  0.00     0.098 A 
ATOM     20  C   UNL     1      -7.644 -20.315  -8.839  1.00  0.00     0.176 A 
ATOM     21  C   UNL     1      -6.910 -22.599  -8.396  1.00  0.00     0.146 A 
ATOM     22  C   UNL     1      -6.658 -21.323  -8.949  1.00  0.00     0.111 A 
ATOM     23  O   UNL     1      -6.006 -23.568  -8.491  1.00  0.00    -0.456 OA
ATOM     24  C   UNL     1      -5.422 -21.125  -9.597  1.00  0.00     0.197 A 
ATOM     25  C   UNL     1      -4.828 -23.413  -9.089  1.00  0.00     0.138 A 
ATOM     26  C   UNL     1      -4.503 -22.175  -9.662  1.00  0.00     0.100 A 
ATOM     27  O   UNL     1      -5.124 -20.020 -10.125  1.00  0.00    -0.289 OA
BRANCH  18  28
ATOM     28  O   UNL     1      -9.827 -19.586  -8.086  1.00  0.00    -0.502 OA
ATOM     29  H   UNL     1     -10.419 -19.325  -8.865  1.00  0.00     0.293 HD
ENDBRANCH  18  28
BRANCH  20  30
ATOM     30  O   UNL     1      -7.419 -19.046  -9.381  1.00  0.00    -0.504 OA
ATOM     31  H   UNL     1      -7.624 -18.194  -8.875  1.00  0.00     0.293 HD
ENDBRANCH  20  30
BRANCH  25  32
ATOM     32  C   UNL     1      -3.899 -24.569  -9.145  1.00  0.00     0.017 A 
ATOM     33  C   UNL     1      -2.526 -24.365  -8.917  1.00  0.00     0.012 A 
ATOM     34  C   UNL     1      -4.352 -25.868  -9.448  1.00  0.00     0.012 A 
ATOM     35  C   UNL     1      -1.630 -25.437  -8.972  1.00  0.00     0.001 A 
ATOM     36  C   UNL     1      -3.452 -26.937  -9.500  1.00  0.00     0.001 A 
ATOM     37  C   UNL     1      -2.094 -26.723  -9.258  1.00  0.00     0.000 A 
ENDBRANCH  25  32
ENDBRANCH   1  17
TORSDOF 9
ENDMDL
MODEL 2
REMARK VINA RESULT:    -7.696     13.732     16.119
REMARK INTER + INTRA:         -11.979
REMARK INTER:                 -10.996
REMARK INTRA:                  -0.983
REMARK UNBOUND:                -1.359
REMARK SMILES O=C([O-])[C@@H]1O[C@@H](Oc2cc3oc(-c4ccccc4)cc(=O)c3c(O)c2O)[C@H](O)[C@@H](O)[C@@H]1O
REMARK SMILES IDX 7 1 6 2 4 3 31 4 5 5 29 6 27 7 2 8 1 9 3 10 32 11 30 13
REMARK SMILES IDX 28 15 8 17 25 18 9 19 23 20 10 21 22 22 11 23 20 24 12 25
REMARK SMILES IDX 19 26 21 27 26 28 24 30 13 32 14 33 18 34 15 35 17 36 16 37
REMARK H PARENT 32 12 30 14 28 16 26 29 24 31
REMARK Flexibility Score: inf
ROOT
ATOM      1  O   UNL     1      -5.709 -12.915   1.730  1.00  0.00    -0.458 OA
ENDROOT
BRANCH   1   2
ATOM      2  C   UNL     1      -6.842 -13.780   1.600  1.00  0.00     0.339 C 
ATOM      3  C   UNL     1      -8.351 -11.995   1.417  1.00  0.00     0.199 C 
ATOM      4  C   UNL     1      -9.084 -12.316   2.741  1.00  0.00     0.180 C 
ATOM      5  O   UNL     1      -7.866 -13.184   0.818  1.00  0.00    -0.328 OA
ATOM      6  C   UNL     1      -8.156 -13.092   3.707  1.00  0.00     0.181 C 
ATOM      7  C   UNL     1      -7.362 -14.213   2.990  1.00  0.00     0.214 C 
BRANCH   3   8
ATOM      8  C   UNL     1      -9.247 -11.295   0.430  1.00  0.00     0.073 C 
ATOM      9  O   UNL     1      -8.869 -11.089  -0.756  1.00  0.00    -0.547 OA
ATOM     10  O   UNL     1     -10.540 -10.943   0.804  1.00  0.00    -0.547 OA
ENDBRANCH   3   8
BRANCH   4  11
ATOM     11  O   UNL     1     -10.237 -13.071   2.469  1.00  0.00    -0.387 OA
ATOM     12  H   UNL     1     -10.388 -13.659   3.255  1.00  0.00     0.211 HD
ENDBRANCH   4  11
BRANCH   6  13
ATOM     13  O   UNL     1      -7.287 -12.224   4.395  1.00  0.00    -0.387 OA
ATOM     14  H   UNL     1      -7.199 -12.545   5.327  1.00  0.00     0.211 HD
ENDBRANCH   6  13
BRANCH   7  15
ATOM     15  O   UNL     1      -8.139 -15.382   2.888  1.00  0.00    -0.384 OA
ATOM     16  H   UNL     1      -7.686 -15.993   2.249  1.00  0.00     0.211 HD
ENDBRANCH   7  15
ENDBRANCH   1   2
BRANCH   1  17
ATOM     17  C   UNL     1      -4.499 -13.255   2.360  1.00  0.00     0.172 A 
ATOM     18  C   UNL     1      -3.620 -14.140   1.707  1.00  0.00     0.201 A 
ATOM     19  C   UNL     1      -4.146 -12.738   3.618  1.00  0.00     0.098 A 
ATOM     20  C   UNL     1      -2.398 -14.500   2.304  1.00  0.00     0.176 A 
ATOM     21  C   UNL     1      -2.940 -13.093   4.222  1.00  0.00     0.146 A 
ATOM     22  C   UNL     1      -2.049 -13.976   3.571  1.00  0.00     0.111 A 
ATOM     23  O   UNL     1      -2.644 -12.590   5.416  1.00  0.00    -0.456 OA
ATOM     24  C   UNL     1      -0.848 -14.296   4.235  1.00  0.00     0.197 A 
ATOM     25  C   UNL     1      -1.516 -12.866   6.066  1.00  0.00     0.138 A 
ATOM     26  C   UNL     1      -0.580 -13.735   5.486  1.00  0.00     0.100 A 
ATOM     27  O   UNL     1      -0.004 -15.084   3.727  1.00  0.00    -0.289 OA
BRANCH  18  28
ATOM     28  O   UNL     1      -3.954 -14.670   0.458  1.00  0.00    -0.502 OA
ATOM     29  H   UNL     1      -3.635 -15.580   0.151  1.00  0.00     0.293 HD
ENDBRANCH  18  28
BRANCH  20  30
ATOM     30  O   UNL     1      -1.534 -15.379   1.644  1.00  0.00    -0.504 OA
ATOM     31  H   UNL     1      -0.640 -15.656   2.030  1.00  0.00     0.293 HD
ENDBRANCH  20  30
BRANCH  25  32
ATOM     32  C   UNL     1      -1.295 -12.255   7.400  1.00  0.00     0.017 A 
ATOM     33  C   UNL     1      -0.077 -12.475   8.068  1.00  0.00     0.012 A 
ATOM     34  C   UNL     1      -2.286 -11.480   8.033  1.00  0.00     0.012 A 
ATOM     35  C   UNL     1       0.153 -11.916   9.329  1.00  0.00     0.001 A 
ATOM     36  C   UNL     1      -2.051 -10.923   9.293  1.00  0.00     0.001 A 
ATOM     37  C   UNL     1      -0.833 -11.136   9.938  1.00  0.00     0.000 A 
ENDBRANCH  25  32
ENDBRANCH   1  17
TORSDOF 9
ENDMDL
MODEL 3
REMARK VINA RESULT:    -7.162      1.525      3.007
REMARK INTER + INTRA:         -11.243
REMARK INTER:                 -10.937
REMARK INTRA:                  -0.305
REMARK UNBOUND:                -1.359
REMARK SMILES O=C([O-])[C@@H]1O[C@@H](Oc2cc3oc(-c4ccccc4)cc(=O)c3c(O)c2O)[C@H](O)[C@@H](O)[C@@H]1O
REMARK SMILES IDX 7 1 6 2 4 3 31 4 5 5 29 6 27 7 2 8 1 9 3 10 32 11 30 13
REMARK SMILES IDX 28 15 8 17 25 18 9 19 23 20 10 21 22 22 11 23 20 24 12 25
REMARK SMILES IDX 19 26 21 27 26 28 24 30 13 32 14 33 18 34 15 35 17 36 16 37
REMARK H PARENT 32 12 30 14 28 16 26 29 24 31
REMARK Flexibility Score: inf
ROOT
ATOM      1  O   UNL     1      -9.227 -21.975  -7.746  1.00  0.00    -0.458 OA
ENDROOT
BRANCH   1   2
ATOM      2  C   UNL     1      -9.912 -20.890  -7.112  1.00  0.00     0.339 C 
ATOM      3  C   UNL     1      -9.185 -21.507  -4.970  1.00  0.00     0.199 C 
ATOM      4  C   UNL     1     -10.602 -21.842  -4.450  1.00  0.00     0.180 C 
ATOM      5  O   UNL     1      -9.243 -20.468  -5.933  1.00  0.00    -0.328 OA
ATOM      6  C   UNL     1     -11.542 -22.217  -5.622  1.00  0.00     0.181 C 
ATOM      7  C   UNL     1     -11.386 -21.262  -6.832  1.00  0.00     0.214 C 
BRANCH   3   8
ATOM      8  C   UNL     1      -8.262 -21.076  -3.860  1.00  0.00     0.073 C 
ATOM      9  O   UNL     1      -8.689 -20.937  -2.680  1.00  0.00    -0.547 OA
ATOM     10  O   UNL     1      -6.906 -20.909  -4.118  1.00  0.00    -0.547 OA
ENDBRANCH   3   8
BRANCH   4  11
ATOM     11  O   UNL     1     -11.120 -20.740  -3.750  1.00  0.00    -0.387 OA
ATOM     12  H   UNL     1     -11.398 -21.071  -2.856  1.00  0.00     0.211 HD
ENDBRANCH   4  11
BRANCH   6  13
ATOM     13  O   UNL     1     -11.366 -23.557  -6.015  1.00  0.00    -0.387 OA
ATOM     14  H   UNL     1     -10.735 -23.986  -5.384  1.00  0.00     0.211 HD
ENDBRANCH   6  13
BRANCH   7  15
ATOM     15  O   UNL     1     -12.165 -20.104  -6.651  1.00  0.00    -0.384 OA
ATOM     16  H   UNL     1     -13.110 -20.340  -6.845  1.00  0.00     0.211 HD
ENDBRANCH   7  15
ENDBRANCH   1   2
BRANCH   1  17
ATOM     17  C   UNL     1      -7.918 -21.918  -8.256  1.00  0.00     0.172 A 
ATOM     18  C   UNL     1      -7.375 -20.663  -8.588  1.00  0.00     0.201 A 
ATOM     19  C   UNL     1      -7.143 -23.075  -8.443  1.00  0.00     0.098 A 
ATOM     20  C   UNL     1      -6.066 -20.564  -9.098  1.00  0.00     0.176 A 
ATOM     21  C   UNL     1      -5.848 -22.990  -8.953  1.00  0.00     0.146 A 
ATOM     22  C   UNL     1      -5.292 -21.734  -9.284  1.00  0.00     0.111 A 
ATOM     23  O   UNL     1      -5.147 -24.106  -9.124  1.00  0.00    -0.456 OA
ATOM     24  C   UNL     1      -3.979 -21.716  -9.796  1.00  0.00     0.197 A 
ATOM     25  C   UNL     1      -3.904 -24.124  -9.598  1.00  0.00     0.138 A 
ATOM     26  C   UNL     1      -3.282 -22.917  -9.949  1.00  0.00     0.100 A 
ATOM     27  O   UNL     1      -3.414 -20.637 -10.125  1.00  0.00    -0.289 OA
BRANCH  18  28
ATOM     28  O   UNL     1      -8.130 -19.500  -8.415  1.00  0.00    -0.502 OA
ATOM     29  H   UNL     1      -7.831 -18.742  -7.815  1.00  0.00     0.293 HD
ENDBRANCH  18  28
BRANCH  20  30
ATOM     30  O   UNL     1      -5.539 -19.311  -9.422  1.00  0.00    -0.504 OA
ATOM     31  H   UNL     1      -4.937 -19.165 -10.223  1.00  0.00     0.293 HD
ENDBRANCH  20  30
BRANCH  25  32
ATOM     32  C   UNL     1      -3.220 -25.431  -9.757  1.00  0.00     0.017 A 
ATOM     33  C   UNL     1      -1.826 -25.465  -9.937  1.00  0.00     0.012 A 
ATOM     34  C   UNL     1      -3.935 -26.645  -9.760  1.00  0.00     0.012 A 
ATOM     35  C   UNL     1      -1.160 -26.685 -10.096  1.00  0.00     0.001 A 
ATOM     36  C   UNL     1      -3.265 -27.861  -9.918  1.00  0.00     0.001 A 
ATOM     37  C   UNL     1      -1.879 -27.882 -10.081  1.00  0.00     0.000 A 
ENDBRANCH  25  32
ENDBRANCH   1  17
TORSDOF 9
ENDMDL
MODEL 4
REMARK VINA RESULT:    -7.152      4.119      9.003
REMARK INTER + INTRA:         -11.229
REMARK INTER:                 -10.618
REMARK INTRA:                  -0.612
REMARK UNBOUND:                -1.359
REMARK SMILES O=C([O-])[C@@H]1O[C@@H](Oc2cc3oc(-c4ccccc4)cc(=O)c3c(O)c2O)[C@H](O)[C@@H](O)[C@@H]1O
REMARK SMILES IDX 7 1 6 2 4 3 31 4 5 5 29 6 27 7 2 8 1 9 3 10 32 11 30 13
REMARK SMILES IDX 28 15 8 17 25 18 9 19 23 20 10 21 22 22 11 23 20 24 12 25
REMARK SMILES IDX 19 26 21 27 26 28 24 30 13 32 14 33 18 34 15 35 17 36 16 37
REMARK H PARENT 32 12 30 14 28 16 26 29 24 31
REMARK Flexibility Score: inf
ROOT
ATOM      1  O   UNL     1     -10.086 -23.109  -6.192  1.00  0.00    -0.458 OA
ENDROOT
BRANCH   1   2
ATOM      2  C   UNL     1      -8.752 -22.639  -6.411  1.00  0.00     0.339 C 
ATOM      3  C   UNL     1      -8.120 -22.990  -4.180  1.00  0.00     0.199 C 
ATOM      4  C   UNL     1      -7.896 -21.489  -3.878  1.00  0.00     0.180 C 
ATOM      5  O   UNL     1      -7.827 -23.271  -5.538  1.00  0.00    -0.328 OA
ATOM      6  C   UNL     1      -8.742 -20.606  -4.828  1.00  0.00     0.181 C 
ATOM      7  C   UNL     1      -8.688 -21.099  -6.296  1.00  0.00     0.214 C 
BRANCH   3   8
ATOM      8  C   UNL     1      -7.263 -23.875  -3.315  1.00  0.00     0.073 C 
ATOM      9  O   UNL     1      -6.492 -23.381  -2.446  1.00  0.00    -0.547 OA
ATOM     10  O   UNL     1      -7.380 -25.257  -3.415  1.00  0.00    -0.547 OA
ENDBRANCH   3   8
BRANCH   4  11
ATOM     11  O   UNL     1      -6.533 -21.179  -4.017  1.00  0.00    -0.387 OA
ATOM     12  H   UNL     1      -6.381 -20.976  -4.978  1.00  0.00     0.211 HD
ENDBRANCH   4  11
BRANCH   6  13
ATOM     13  O   UNL     1     -10.073 -20.501  -4.384  1.00  0.00    -0.387 OA
ATOM     14  H   UNL     1     -10.659 -20.403  -5.176  1.00  0.00     0.211 HD
ENDBRANCH   6  13
BRANCH   7  15
ATOM     15  O   UNL     1      -7.542 -20.600  -6.943  1.00  0.00    -0.384 OA
ATOM     16  H   UNL     1      -7.524 -20.977  -7.863  1.00  0.00     0.211 HD
ENDBRANCH   7  15
ENDBRANCH   1   2
BRANCH   1  17
ATOM     17  C   UNL     1     -11.219 -22.693  -6.913  1.00  0.00     0.172 A 
ATOM     18  C   UNL     1     -11.716 -23.525  -7.933  1.00  0.00     0.201 A 
ATOM     19  C   UNL     1     -11.864 -21.474  -6.643  1.00  0.00     0.098 A 
ATOM     20  C   UNL     1     -12.852 -23.145  -8.673  1.00  0.00     0.176 A 
ATOM     21  C   UNL     1     -12.986 -21.085  -7.374  1.00  0.00     0.146 A 
ATOM     22  C   UNL     1     -13.496 -21.917  -8.396  1.00  0.00     0.111 A 
ATOM     23  O   UNL     1     -13.566 -19.921  -7.096  1.00  0.00    -0.456 OA
ATOM     24  C   UNL     1     -14.631 -21.465  -9.099  1.00  0.00     0.197 A 
ATOM     25  C   UNL     1     -14.641 -19.469  -7.735  1.00  0.00     0.138 A 
ATOM     26  C   UNL     1     -15.207 -20.238  -8.763  1.00  0.00     0.100 A 
ATOM     27  O   UNL     1     -15.142 -22.144 -10.032  1.00  0.00    -0.289 OA
BRANCH  18  28
ATOM     28  O   UNL     1     -11.087 -24.739  -8.221  1.00  0.00    -0.502 OA
ATOM     29  H   UNL     1     -10.332 -24.814  -8.891  1.00  0.00     0.293 HD
ENDBRANCH  18  28
BRANCH  20  30
ATOM     30  O   UNL     1     -13.335 -23.983  -9.682  1.00  0.00    -0.504 OA
ATOM     31  H   UNL     1     -12.746 -24.650 -10.164  1.00  0.00     0.293 HD
ENDBRANCH  20  30
BRANCH  25  32
ATOM     32  C   UNL     1     -15.199 -18.150  -7.348  1.00  0.00     0.017 A 
ATOM     33  C   UNL     1     -15.630 -17.942  -6.025  1.00  0.00     0.012 A 
ATOM     34  C   UNL     1     -15.334 -17.102  -8.279  1.00  0.00     0.012 A 
ATOM     35  C   UNL     1     -16.165 -16.710  -5.638  1.00  0.00     0.001 A 
ATOM     36  C   UNL     1     -15.869 -15.871  -7.886  1.00  0.00     0.001 A 
ATOM     37  C   UNL     1     -16.279 -15.673  -6.567  1.00  0.00     0.000 A 
ENDBRANCH  25  32
ENDBRANCH   1  17
TORSDOF 9
ENDMDL
MODEL 5
REMARK VINA RESULT:    -7.133      2.793      9.519
REMARK INTER + INTRA:         -11.202
REMARK INTER:                 -10.759
REMARK INTRA:                  -0.443
REMARK UNBOUND:                -1.359
REMARK SMILES O=C([O-])[C@@H]1O[C@@H](Oc2cc3oc(-c4ccccc4)cc(=O)c3c(O)c2O)[C@H](O)[C@@H](O)[C@@H]1O
REMARK SMILES IDX 7 1 6 2 4 3 31 4 5 5 29 6 27 7 2 8 1 9 3 10 32 11 30 13
REMARK SMILES IDX 28 15 8 17 25 18 9 19 23 20 10 21 22 22 11 23 20 24 12 25
REMARK SMILES IDX 19 26 21 27 26 28 24 30 13 32 14 33 18 34 15 35 17 36 16 37
REMARK H PARENT 32 12 30 14 28 16 26 29 24 31
REMARK Flexibility Score: inf
ROOT
ATOM      1  O   UNL     1      -9.809 -22.379  -8.946  1.00  0.00    -0.458 OA
ENDROOT
BRANCH   1   2
ATOM      2  C   UNL     1      -8.890 -21.367  -9.371  1.00  0.00     0.339 C 
ATOM      3  C   UNL     1      -7.012 -22.617  -8.734  1.00  0.00     0.199 C 
ATOM      4  C   UNL     1      -6.572 -21.627  -7.630  1.00  0.00     0.180 C 
ATOM      5  O   UNL     1      -7.655 -21.927  -9.791  1.00  0.00    -0.328 OA
ATOM      6  C   UNL     1      -7.783 -20.812  -7.111  1.00  0.00     0.181 C 
ATOM      7  C   UNL     1      -8.691 -20.309  -8.262  1.00  0.00     0.214 C 
BRANCH   3   8
ATOM      8  C   UNL     1      -5.846 -23.382  -9.304  1.00  0.00     0.073 C 
ATOM      9  O   UNL     1      -4.794 -22.785  -9.664  1.00  0.00    -0.547 OA
ATOM     10  O   UNL     1      -5.895 -24.771  -9.359  1.00  0.00    -0.547 OA
ENDBRANCH   3   8
BRANCH   4  11
ATOM     11  O   UNL     1      -5.589 -20.762  -8.137  1.00  0.00    -0.387 OA
ATOM     12  H   UNL     1      -6.018 -19.873  -8.249  1.00  0.00     0.211 HD
ENDBRANCH   4  11
BRANCH   6  13
ATOM     13  O   UNL     1      -8.528 -21.540  -6.166  1.00  0.00    -0.387 OA
ATOM     14  H   UNL     1      -9.089 -20.905  -5.655  1.00  0.00     0.211 HD
ENDBRANCH   6  13
BRANCH   7  15
ATOM     15  O   UNL     1      -8.187 -19.111  -8.803  1.00  0.00    -0.384 OA
ATOM     16  H   UNL     1      -8.196 -18.425  -8.084  1.00  0.00     0.211 HD
ENDBRANCH   7  15
ENDBRANCH   1   2
BRANCH   1  17
ATOM     17  C   UNL     1     -10.896 -22.174  -8.078  1.00  0.00     0.172 A 
ATOM     18  C   UNL     1     -11.248 -23.198  -7.180  1.00  0.00     0.201 A 
ATOM     19  C   UNL     1     -11.636 -20.979  -8.085  1.00  0.00     0.098 A 
ATOM     20  C   UNL     1     -12.327 -23.028  -6.292  1.00  0.00     0.176 A 
ATOM     21  C   UNL     1     -12.711 -20.802  -7.214  1.00  0.00     0.146 A 
ATOM     22  C   UNL     1     -13.068 -21.823  -6.305  1.00  0.00     0.111 A 
ATOM     23  O   UNL     1     -13.393 -19.662  -7.254  1.00  0.00    -0.456 OA
ATOM     24  C   UNL     1     -14.165 -21.583  -5.453  1.00  0.00     0.197 A 
ATOM     25  C   UNL     1     -14.427 -19.401  -6.460  1.00  0.00     0.138 A 
ATOM     26  C   UNL     1     -14.843 -20.364  -5.529  1.00  0.00     0.100 A 
ATOM     27  O   UNL     1     -14.554 -22.446  -4.620  1.00  0.00    -0.289 OA
BRANCH  18  28
ATOM     28  O   UNL     1     -10.529 -24.396  -7.161  1.00  0.00    -0.502 OA
ATOM     29  H   UNL     1     -10.654 -25.094  -6.438  1.00  0.00     0.293 HD
ENDBRANCH  18  28
BRANCH  20  30
ATOM     30  O   UNL     1     -12.665 -24.054  -5.404  1.00  0.00    -0.504 OA
ATOM     31  H   UNL     1     -12.252 -24.133  -4.483  1.00  0.00     0.293 HD
ENDBRANCH  20  30
BRANCH  25  32
ATOM     32  C   UNL     1     -15.121 -18.097  -6.599  1.00  0.00     0.017 A 
ATOM     33  C   UNL     1     -14.943 -17.340  -7.771  1.00  0.00     0.012 A 
ATOM     34  C   UNL     1     -15.937 -17.580  -5.574  1.00  0.00     0.012 A 
ATOM     35  C   UNL     1     -15.581 -16.105  -7.923  1.00  0.00     0.001 A 
ATOM     36  C   UNL     1     -16.574 -16.345  -5.731  1.00  0.00     0.001 A 
ATOM     37  C   UNL     1     -16.400 -15.611  -6.905  1.00  0.00     0.000 A 
ENDBRANCH  25  32
ENDBRANCH   1  17
TORSDOF 9
ENDMDL
MODEL 6
REMARK VINA RESULT:    -7.099      3.669      9.648
REMARK INTER + INTRA:         -11.155
REMARK INTER:                 -10.395
REMARK INTRA:                  -0.760
REMARK UNBOUND:                -1.359
REMARK SMILES O=C([O-])[C@@H]1O[C@@H](Oc2cc3oc(-c4ccccc4)cc(=O)c3c(O)c2O)[C@H](O)[C@@H](O)[C@@H]1O
REMARK SMILES IDX 7 1 6 2 4 3 31 4 5 5 29 6 27 7 2 8 1 9 3 10 32 11 30 13
REMARK SMILES IDX 28 15 8 17 25 18 9 19 23 20 10 21 22 22 11 23 20 24 12 25
REMARK SMILES IDX 19 26 21 27 26 28 24 30 13 32 14 33 18 34 15 35 17 36 16 37
REMARK H PARENT 32 12 30 14 28 16 26 29 24 31
REMARK Flexibility Score: inf
ROOT
ATOM      1  O   UNL     1     -10.596 -21.354  -4.280  1.00  0.00    -0.458 OA
ENDROOT
BRANCH   1   2
ATOM      2  C   UNL     1      -9.365 -20.650  -4.479  1.00  0.00     0.339 C 
ATOM      3  C   UNL     1      -9.364 -21.036  -6.792  1.00  0.00     0.199 C 
ATOM      4  C   UNL     1      -8.094 -21.918  -6.770  1.00  0.00     0.180 C 
ATOM      5  O   UNL     1      -9.306 -20.057  -5.768  1.00  0.00    -0.328 OA
ATOM      6  C   UNL     1      -7.906 -22.574  -5.379  1.00  0.00     0.181 C 
ATOM      7  C   UNL     1      -8.156 -21.578  -4.219  1.00  0.00     0.214 C 
BRANCH   3   8
ATOM      8  C   UNL     1      -9.541 -20.333  -8.112  1.00  0.00     0.073 C 
ATOM      9  O   UNL     1     -10.434 -19.454  -8.264  1.00  0.00    -0.547 OA
ATOM     10  O   UNL     1      -8.659 -20.595  -9.155  1.00  0.00    -0.547 OA
ENDBRANCH   3   8
BRANCH   4  11
ATOM     11  O   UNL     1      -6.972 -21.137  -7.091  1.00  0.00    -0.387 OA
ATOM     12  H   UNL     1      -6.204 -21.516  -6.589  1.00  0.00     0.211 HD
ENDBRANCH   4  11
BRANCH   6  13
ATOM     13  O   UNL     1      -8.710 -23.720  -5.238  1.00  0.00    -0.387 OA
ATOM     14  H   UNL     1      -9.455 -23.504  -4.623  1.00  0.00     0.211 HD
ENDBRANCH   6  13
BRANCH   7  15
ATOM     15  O   UNL     1      -6.998 -20.822  -3.958  1.00  0.00    -0.384 OA
ATOM     16  H   UNL     1      -6.732 -20.371  -4.802  1.00  0.00     0.211 HD
ENDBRANCH   7  15
ENDBRANCH   1   2
BRANCH   1  17
ATOM     17  C   UNL     1     -11.738 -21.231  -5.090  1.00  0.00     0.172 A 
ATOM     18  C   UNL     1     -12.176 -22.353  -5.819  1.00  0.00     0.201 A 
ATOM     19  C   UNL     1     -12.451 -20.024  -5.191  1.00  0.00     0.098 A 
ATOM     20  C   UNL     1     -13.318 -22.271  -6.637  1.00  0.00     0.176 A 
ATOM     21  C   UNL     1     -13.580 -19.929  -6.004  1.00  0.00     0.146 A 
ATOM     22  C   UNL     1     -14.030 -21.052  -6.735  1.00  0.00     0.111 A 
ATOM     23  O   UNL     1     -14.225 -18.769  -6.081  1.00  0.00    -0.456 OA
ATOM     24  C   UNL     1     -15.177 -20.891  -7.538  1.00  0.00     0.197 A 
ATOM     25  C   UNL     1     -15.313 -18.585  -6.824  1.00  0.00     0.138 A 
ATOM     26  C   UNL     1     -15.822 -19.652  -7.578  1.00  0.00     0.100 A 
ATOM     27  O   UNL     1     -15.637 -21.840  -8.229  1.00  0.00    -0.289 OA
BRANCH  18  28
ATOM     28  O   UNL     1     -11.479 -23.561  -5.737  1.00  0.00    -0.502 OA
ATOM     29  H   UNL     1     -11.317 -24.151  -6.544  1.00  0.00     0.293 HD
ENDBRANCH  18  28
BRANCH  20  30
ATOM     30  O   UNL     1     -13.742 -23.394  -7.354  1.00  0.00    -0.504 OA
ATOM     31  H   UNL     1     -13.103 -24.119  -7.655  1.00  0.00     0.293 HD
ENDBRANCH  20  30
BRANCH  25  32
ATOM     32  C   UNL     1     -15.944 -17.242  -6.842  1.00  0.00     0.017 A 
ATOM     33  C   UNL     1     -16.257 -16.643  -8.075  1.00  0.00     0.012 A 
ATOM     34  C   UNL     1     -16.216 -16.536  -5.655  1.00  0.00     0.012 A 
ATOM     35  C   UNL     1     -16.846 -15.375  -8.119  1.00  0.00     0.001 A 
ATOM     36  C   UNL     1     -16.806 -15.269  -5.704  1.00  0.00     0.001 A 
ATOM     37  C   UNL     1     -17.125 -14.692  -6.933  1.00  0.00     0.000 A 
ENDBRANCH  25  32
ENDBRANCH   1  17
TORSDOF 9
ENDMDL
MODEL 7
REMARK VINA RESULT:    -7.091      3.259     10.025
REMARK INTER + INTRA:         -11.144
REMARK INTER:                 -10.566
REMARK INTRA:                  -0.578
REMARK UNBOUND:                -1.359
REMARK SMILES O=C([O-])[C@@H]1O[C@@H](Oc2cc3oc(-c4ccccc4)cc(=O)c3c(O)c2O)[C@H](O)[C@@H](O)[C@@H]1O
REMARK SMILES IDX 7 1 6 2 4 3 31 4 5 5 29 6 27 7 2 8 1 9 3 10 32 11 30 13
REMARK SMILES IDX 28 15 8 17 25 18 9 19 23 20 10 21 22 22 11 23 20 24 12 25
REMARK SMILES IDX 19 26 21 27 26 28 24 30 13 32 14 33 18 34 15 35 17 36 16 37
REMARK H PARENT 32 12 30 14 28 16 26 29 24 31
REMARK Flexibility Score: inf
ROOT
ATOM      1  O   UNL     1     -11.211 -22.803  -6.835  1.00  0.00    -0.458 OA
ENDROOT
BRANCH   1   2
ATOM      2  C   UNL     1     -10.363 -22.061  -7.718  1.00  0.00     0.339 C 
ATOM      3  C   UNL     1      -8.399 -22.900  -6.751  1.00  0.00     0.199 C 
ATOM      4  C   UNL     1      -7.931 -21.528  -6.211  1.00  0.00     0.180 C 
ATOM      5  O   UNL     1      -9.135 -22.736  -7.951  1.00  0.00    -0.328 OA
ATOM      6  C   UNL     1      -9.138 -20.581  -6.002  1.00  0.00     0.181 C 
ATOM      7  C   UNL     1     -10.137 -20.628  -7.185  1.00  0.00     0.214 C 
BRANCH   3   8
ATOM      8  C   UNL     1      -7.242 -23.824  -7.026  1.00  0.00     0.073 C 
ATOM      9  O   UNL     1      -7.041 -24.842  -6.308  1.00  0.00    -0.547 OA
ATOM     10  O   UNL     1      -6.430 -23.600  -8.133  1.00  0.00    -0.547 OA
ENDBRANCH   3   8
BRANCH   4  11
ATOM     11  O   UNL     1      -7.018 -20.955  -7.111  1.00  0.00    -0.387 OA
ATOM     12  H   UNL     1      -6.484 -21.700  -7.495  1.00  0.00     0.211 HD
ENDBRANCH   4  11
BRANCH   6  13
ATOM     13  O   UNL     1      -9.792 -20.841  -4.783  1.00  0.00    -0.387 OA
ATOM     14  H   UNL     1     -10.760 -20.683  -4.909  1.00  0.00     0.211 HD
ENDBRANCH   6  13
BRANCH   7  15
ATOM     15  O   UNL     1      -9.717 -19.773  -8.221  1.00  0.00    -0.384 OA
ATOM     16  H   UNL     1      -9.553 -18.876  -7.827  1.00  0.00     0.211 HD
ENDBRANCH   7  15
ENDBRANCH   1   2
BRANCH   1  17
ATOM     17  C   UNL     1     -12.463 -22.372  -6.364  1.00  0.00     0.172 A 
ATOM     18  C   UNL     1     -13.212 -23.236  -5.544  1.00  0.00     0.201 A 
ATOM     19  C   UNL     1     -12.985 -21.108  -6.689  1.00  0.00     0.098 A 
ATOM     20  C   UNL     1     -14.469 -22.839  -5.049  1.00  0.00     0.176 A 
ATOM     21  C   UNL     1     -14.231 -20.706  -6.210  1.00  0.00     0.146 A 
ATOM     22  C   UNL     1     -14.988 -21.565  -5.381  1.00  0.00     0.111 A 
ATOM     23  O   UNL     1     -14.696 -19.507  -6.545  1.00  0.00    -0.456 OA
ATOM     24  C   UNL     1     -16.240 -21.101  -4.930  1.00  0.00     0.197 A 
ATOM     25  C   UNL     1     -15.869 -19.036  -6.131  1.00  0.00     0.138 A 
ATOM     26  C   UNL     1     -16.678 -19.829  -5.305  1.00  0.00     0.100 A 
ATOM     27  O   UNL     1     -16.980 -21.809  -4.196  1.00  0.00    -0.289 OA
BRANCH  18  28
ATOM     28  O   UNL     1     -12.715 -24.499  -5.213  1.00  0.00    -0.502 OA
ATOM     29  H   UNL     1     -12.422 -25.169  -5.913  1.00  0.00     0.293 HD
ENDBRANCH  18  28
BRANCH  20  30
ATOM     30  O   UNL     1     -15.201 -23.707  -4.234  1.00  0.00    -0.504 OA
ATOM     31  H   UNL     1     -14.965 -24.687  -4.133  1.00  0.00     0.293 HD
ENDBRANCH  20  30
BRANCH  25  32
ATOM     32  C   UNL     1     -16.291 -17.685  -6.577  1.00  0.00     0.017 A 
ATOM     33  C   UNL     1     -16.336 -16.632  -5.645  1.00  0.00     0.012 A 
ATOM     34  C   UNL     1     -16.677 -17.432  -7.907  1.00  0.00     0.012 A 
ATOM     35  C   UNL     1     -16.738 -15.352  -6.040  1.00  0.00     0.001 A 
ATOM     36  C   UNL     1     -17.077 -16.150  -8.297  1.00  0.00     0.001 A 
ATOM     37  C   UNL     1     -17.103 -15.110  -7.366  1.00  0.00     0.000 A 
ENDBRANCH  25  32
ENDBRANCH   1  17
TORSDOF 9
ENDMDL
MODEL 8
REMARK VINA RESULT:    -7.026      2.498      5.457
REMARK INTER + INTRA:         -11.054
REMARK INTER:                 -10.135
REMARK INTRA:                  -0.920
REMARK UNBOUND:                -1.359
REMARK SMILES O=C([O-])[C@@H]1O[C@@H](Oc2cc3oc(-c4ccccc4)cc(=O)c3c(O)c2O)[C@H](O)[C@@H](O)[C@@H]1O
REMARK SMILES IDX 7 1 6 2 4 3 31 4 5 5 29 6 27 7 2 8 1 9 3 10 32 11 30 13
REMARK SMILES IDX 28 15 8 17 25 18 9 19 23 20 10 21 22 22 11 23 20 24 12 25
REMARK SMILES IDX 19 26 21 27 26 28 24 30 13 32 14 33 18 34 15 35 17 36 16 37
REMARK H PARENT 32 12 30 14 28 16 26 29 24 31
REMARK Flexibility Score: inf
ROOT
ATOM      1  O   UNL     1     -13.712 -23.552  -7.051  1.00  0.00    -0.458 OA
ENDROOT
BRANCH   1   2
ATOM      2  C   UNL     1     -14.331 -24.660  -6.389  1.00  0.00     0.339 C 
ATOM      3  C   UNL     1     -13.750 -26.169  -8.087  1.00  0.00     0.199 C 
ATOM      4  C   UNL     1     -15.211 -26.451  -8.508  1.00  0.00     0.180 C 
ATOM      5  O   UNL     1     -13.680 -25.882  -6.700  1.00  0.00    -0.328 OA
ATOM      6  C   UNL     1     -16.128 -25.259  -8.136  1.00  0.00     0.181 C 
ATOM      7  C   UNL     1     -15.842 -24.717  -6.713  1.00  0.00     0.214 C 
BRANCH   3   8
ATOM      8  C   UNL     1     -12.843 -27.336  -8.378  1.00  0.00     0.073 C 
ATOM      9  O   UNL     1     -12.662 -28.245  -7.522  1.00  0.00    -0.547 OA
ATOM     10  O   UNL     1     -12.261 -27.458  -9.635  1.00  0.00    -0.547 OA
ENDBRANCH   3   8
BRANCH   4  11
ATOM     11  O   UNL     1     -15.665 -27.623  -7.881  1.00  0.00    -0.387 OA
ATOM     12  H   UNL     1     -15.673 -27.442  -6.904  1.00  0.00     0.211 HD
ENDBRANCH   4  11
BRANCH   6  13
ATOM     13  O   UNL     1     -16.048 -24.229  -9.091  1.00  0.00    -0.387 OA
ATOM     14  H   UNL     1     -15.206 -23.730  -8.941  1.00  0.00     0.211 HD
ENDBRANCH   6  13
BRANCH   7  15
ATOM     15  O   UNL     1     -16.529 -25.475  -5.746  1.00  0.00    -0.384 OA
ATOM     16  H   UNL     1     -17.419 -25.708  -6.120  1.00  0.00     0.211 HD
ENDBRANCH   7  15
ENDBRANCH   1   2
BRANCH   1  17
ATOM     17  C   UNL     1     -12.540 -22.905  -6.623  1.00  0.00     0.172 A 
ATOM     18  C   UNL     1     -12.557 -22.212  -5.398  1.00  0.00     0.201 A 
ATOM     19  C   UNL     1     -11.357 -22.933  -7.382  1.00  0.00     0.098 A 
ATOM     20  C   UNL     1     -11.401 -21.557  -4.934  1.00  0.00     0.176 A 
ATOM     21  C   UNL     1     -10.208 -22.281  -6.934  1.00  0.00     0.146 A 
ATOM     22  C   UNL     1     -10.214 -21.588  -5.703  1.00  0.00     0.111 A 
ATOM     23  O   UNL     1      -9.110 -22.321  -7.683  1.00  0.00    -0.456 OA
ATOM     24  C   UNL     1      -9.021 -20.950  -5.308  1.00  0.00     0.197 A 
ATOM     25  C   UNL     1      -7.967 -21.736  -7.336  1.00  0.00     0.138 A 
ATOM     26  C   UNL     1      -7.893 -21.029  -6.127  1.00  0.00     0.100 A 
ATOM     27  O   UNL     1      -8.947 -20.302  -4.228  1.00  0.00    -0.289 OA
BRANCH  18  28
ATOM     28  O   UNL     1     -13.723 -22.168  -4.630  1.00  0.00    -0.502 OA
ATOM     29  H   UNL     1     -14.131 -22.996  -4.213  1.00  0.00     0.293 HD
ENDBRANCH  18  28
BRANCH  20  30
ATOM     30  O   UNL     1     -11.432 -20.874  -3.714  1.00  0.00    -0.504 OA
ATOM     31  H   UNL     1     -10.626 -20.386  -3.344  1.00  0.00     0.293 HD
ENDBRANCH  20  30
BRANCH  25  32
ATOM     32  C   UNL     1      -6.807 -21.838  -8.256  1.00  0.00     0.017 A 
ATOM     33  C   UNL     1      -6.260 -23.102  -8.542  1.00  0.00     0.012 A 
ATOM     34  C   UNL     1      -6.217 -20.696  -8.832  1.00  0.00     0.012 A 
ATOM     35  C   UNL     1      -5.162 -23.222  -9.400  1.00  0.00     0.001 A 
ATOM     36  C   UNL     1      -5.120 -20.822  -9.690  1.00  0.00     0.001 A 
ATOM     37  C   UNL     1      -4.596 -22.083  -9.977  1.00  0.00     0.000 A 
ENDBRANCH  25  32
ENDBRANCH   1  17
TORSDOF 9
ENDMDL
