MODEL 1
REMARK VINA RESULT:    -3.817      0.000      0.000
REMARK INTER + INTRA:          -5.740
REMARK INTER:                  -5.379
REMARK INTRA:                  -0.361
REMARK UNBOUND:                -0.361
REMARK SMILES CC1=CCC(=C(C)C)C(=O)CC(C)=CCC1
REMARK SMILES IDX 12 1 14 2 13 3 15 4 16 5 2 6 1 7 3 8 11 10 9 11 10 12 5 13
REMARK SMILES IDX 6 14 7 15 8 16 4 17
REMARK H PARENT
REMARK Flexibility Score: 60.00
ROOT
ATOM      1  C   UNL     1     -15.006   2.453  28.117  1.00  0.00    -0.070 C 
ATOM      2  C   UNL     1     -14.124   3.386  27.650  1.00  0.00    -0.027 C 
ATOM      3  C   UNL     1     -16.464   2.786  28.309  1.00  0.00     0.039 C 
ENDROOT
BRANCH   2   4
ATOM      4  C   UNL     1     -14.320   4.899  27.809  1.00  0.00     0.032 C 
BRANCH   4   5
ATOM      5  C   UNL     1     -13.742   5.459  29.156  1.00  0.00     0.034 C 
BRANCH   5   6
ATOM      6  C   UNL     1     -14.630   5.349  30.427  1.00  0.00    -0.077 C 
ATOM      7  C   UNL     1     -15.791   6.295  30.594  1.00  0.00     0.039 C 
ATOM      8  C   UNL     1     -14.360   4.489  31.453  1.00  0.00    -0.023 CG0
ATOM      9  G   UNL     1     -13.333   3.438  31.227  1.00  0.00     0.000 G0
ENDBRANCH   5   6
ENDBRANCH   4   5
ENDBRANCH   2   4
BRANCH   1  10
ATOM     10  C   UNL     1     -14.467   1.189  28.797  1.00  0.00     0.111 C 
BRANCH  10  11
ATOM     11  C   UNL     1     -13.259   1.451  29.714  1.00  0.00     0.163 C 
ATOM     12  O   UNL     1     -12.109   1.196  29.267  1.00  0.00    -0.294 OA
BRANCH  11  13
ATOM     13  C   UNL     1     -13.415   1.947  31.139  1.00  0.00    -0.002 C 
ATOM     14  C   UNL     1     -13.404   1.113  32.214  1.00  0.00    -0.069 C 
ATOM     15  C   UNL     1     -13.374   1.650  33.625  1.00  0.00     0.039 C 
ATOM     16  C   UNL     1     -13.357  -0.386  32.038  1.00  0.00     0.039 C 
BRANCH  13  17
ATOM     17  C   UNL     1     -13.315   3.441  31.247  1.00  0.00     0.066 CG0
ATOM     18  G   UNL     1     -14.363   4.475  31.447  1.00  0.00     0.000 G0
ENDBRANCH  13  17
ENDBRANCH  11  13
ENDBRANCH  10  11
ENDBRANCH   1  10
TORSDOF 0
ENDMDL
MODEL 2
REMARK VINA RESULT:    -3.768      1.936      3.713
REMARK INTER + INTRA:          -5.672
REMARK INTER:                  -5.688
REMARK INTRA:                   0.016
REMARK UNBOUND:                -0.361
REMARK SMILES CC1=CCC(=C(C)C)C(=O)CC(C)=CCC1
REMARK SMILES IDX 12 1 14 2 13 3 15 4 16 5 2 6 1 7 3 8 11 10 9 11 10 12 5 13
REMARK SMILES IDX 6 14 7 15 8 16 4 17
REMARK H PARENT
REMARK Flexibility Score: 60.00
ROOT
ATOM      1  C   UNL     1     -12.776   0.080  31.567  1.00  0.00    -0.070 C 
ATOM      2  C   UNL     1     -12.647   0.184  30.211  1.00  0.00    -0.027 C 
ATOM      3  C   UNL     1     -14.065  -0.390  32.194  1.00  0.00     0.039 C 
ENDROOT
BRANCH   2   4
ATOM      4  C   UNL     1     -13.828   0.401  29.257  1.00  0.00     0.032 C 
BRANCH   4   5
ATOM      5  C   UNL     1     -14.171   1.917  29.034  1.00  0.00     0.034 C 
BRANCH   5   6
ATOM      6  C   UNL     1     -12.999   2.885  28.711  1.00  0.00    -0.077 C 
ATOM      7  C   UNL     1     -12.374   2.848  27.340  1.00  0.00     0.039 C 
ATOM      8  C   UNL     1     -12.442   3.718  29.639  1.00  0.00    -0.023 CG0
ATOM      9  G   UNL     1     -13.154   3.891  30.933  1.00  0.00     0.000 G0
ENDBRANCH   5   6
ENDBRANCH   4   5
ENDBRANCH   2   4
BRANCH   1  10
ATOM     10  C   UNL     1     -11.759   0.786  32.471  1.00  0.00     0.111 C 
BRANCH  10  11
ATOM     11  C   UNL     1     -11.824   2.322  32.389  1.00  0.00     0.163 C 
ATOM     12  O   UNL     1     -10.750   2.968  32.521  1.00  0.00    -0.294 OA
BRANCH  11  13
ATOM     13  C   UNL     1     -13.131   3.070  32.212  1.00  0.00    -0.002 C 
ATOM     14  C   UNL     1     -14.057   3.180  33.202  1.00  0.00    -0.069 C 
ATOM     15  C   UNL     1     -15.258   4.083  33.060  1.00  0.00     0.039 C 
ATOM     16  C   UNL     1     -13.886   2.449  34.513  1.00  0.00     0.039 C 
BRANCH  13  17
ATOM     17  C   UNL     1     -13.168   3.881  30.948  1.00  0.00     0.066 CG0
ATOM     18  G   UNL     1     -12.441   3.714  29.663  1.00  0.00     0.000 G0
ENDBRANCH  13  17
ENDBRANCH  11  13
ENDBRANCH  10  11
ENDBRANCH   1  10
TORSDOF 0
ENDMDL
MODEL 3
REMARK VINA RESULT:    -3.633     11.199     12.352
REMARK INTER + INTRA:          -5.481
REMARK INTER:                  -5.075
REMARK INTRA:                  -0.406
REMARK UNBOUND:                -0.361
REMARK SMILES CC1=CCC(=C(C)C)C(=O)CC(C)=CCC1
REMARK SMILES IDX 12 1 14 2 13 3 15 4 16 5 2 6 1 7 3 8 11 10 9 11 10 12 5 13
REMARK SMILES IDX 6 14 7 15 8 16 4 17
REMARK H PARENT
REMARK Flexibility Score: 60.00
ROOT
ATOM      1  C   UNL     1      -0.302   2.713  29.909  1.00  0.00    -0.070 C 
ATOM      2  C   UNL     1      -0.921   2.994  31.095  1.00  0.00    -0.027 C 
ATOM      3  C   UNL     1      -0.091   3.783  28.868  1.00  0.00     0.039 C 
ENDROOT
BRANCH   2   4
ATOM      4  C   UNL     1      -1.918   4.143  31.285  1.00  0.00     0.032 C 
BRANCH   4   5
ATOM      5  C   UNL     1      -3.341   3.828  30.703  1.00  0.00     0.034 C 
BRANCH   5   6
ATOM      6  C   UNL     1      -3.605   4.167  29.210  1.00  0.00    -0.077 C 
ATOM      7  C   UNL     1      -3.712   5.611  28.794  1.00  0.00     0.039 C 
ATOM      8  C   UNL     1      -3.834   3.215  28.258  1.00  0.00    -0.023 CG0
ATOM      9  G   UNL     1      -3.560   1.797  28.614  1.00  0.00     0.000 G0
ENDBRANCH   5   6
ENDBRANCH   4   5
ENDBRANCH   2   4
BRANCH   1  10
ATOM     10  C   UNL     1      -0.156   1.252  29.470  1.00  0.00     0.111 C 
BRANCH  10  11
ATOM     11  C   UNL     1      -1.501   0.523  29.294  1.00  0.00     0.163 C 
ATOM     12  O   UNL     1      -1.778  -0.410  30.093  1.00  0.00    -0.294 OA
BRANCH  11  13
ATOM     13  C   UNL     1      -2.461   0.856  28.168  1.00  0.00    -0.002 C 
ATOM     14  C   UNL     1      -2.453   0.203  26.976  1.00  0.00    -0.069 C 
ATOM     15  C   UNL     1      -3.537   0.427  25.949  1.00  0.00     0.039 C 
ATOM     16  C   UNL     1      -1.391  -0.823  26.656  1.00  0.00     0.039 C 
BRANCH  13  17
ATOM     17  C   UNL     1      -3.566   1.775  28.603  1.00  0.00     0.066 CG0
ATOM     18  G   UNL     1      -3.833   3.201  28.276  1.00  0.00     0.000 G0
ENDBRANCH  13  17
ENDBRANCH  11  13
ENDBRANCH  10  11
ENDBRANCH   1  10
TORSDOF 0
ENDMDL
MODEL 4
REMARK VINA RESULT:    -3.609      1.563      4.047
REMARK INTER + INTRA:          -5.447
REMARK INTER:                  -5.621
REMARK INTRA:                   0.173
REMARK UNBOUND:                -0.361
REMARK SMILES CC1=CCC(=C(C)C)C(=O)CC(C)=CCC1
REMARK SMILES IDX 12 1 14 2 13 3 15 4 16 5 2 6 1 7 3 8 11 10 9 11 10 12 5 13
REMARK SMILES IDX 6 14 7 15 8 16 4 17
REMARK H PARENT
REMARK Flexibility Score: 60.00
ROOT
ATOM      1  C   UNL     1     -13.900   0.942  28.909  1.00  0.00    -0.070 C 
ATOM      2  C   UNL     1     -13.941   0.337  30.134  1.00  0.00    -0.027 C 
ATOM      3  C   UNL     1     -12.648   0.919  28.070  1.00  0.00     0.039 C 
ENDROOT
BRANCH   2   4
ATOM      4  C   UNL     1     -12.704   0.100  31.009  1.00  0.00     0.032 C 
BRANCH   4   5
ATOM      5  C   UNL     1     -12.215   1.394  31.751  1.00  0.00     0.034 C 
BRANCH   5   6
ATOM      6  C   UNL     1     -13.161   2.022  32.813  1.00  0.00    -0.077 C 
ATOM      7  C   UNL     1     -13.210   1.424  34.195  1.00  0.00     0.039 C 
ATOM      8  C   UNL     1     -14.023   3.043  32.533  1.00  0.00    -0.023 CG0
ATOM      9  G   UNL     1     -13.862   3.752  31.236  1.00  0.00     0.000 G0
ENDBRANCH   5   6
ENDBRANCH   4   5
ENDBRANCH   2   4
BRANCH   1  10
ATOM     10  C   UNL     1     -14.988   1.956  28.540  1.00  0.00     0.111 C 
BRANCH  10  11
ATOM     11  C   UNL     1     -14.597   3.415  28.840  1.00  0.00     0.163 C 
ATOM     12  O   UNL     1     -13.959   4.050  27.959  1.00  0.00    -0.294 OA
BRANCH  11  13
ATOM     13  C   UNL     1     -14.905   4.080  30.167  1.00  0.00    -0.002 C 
ATOM     14  C   UNL     1     -16.090   4.696  30.426  1.00  0.00    -0.069 C 
ATOM     15  C   UNL     1     -16.438   5.183  31.812  1.00  0.00     0.039 C 
ATOM     16  C   UNL     1     -17.135   4.860  29.347  1.00  0.00     0.039 C 
BRANCH  13  17
ATOM     17  C   UNL     1     -13.890   3.758  31.226  1.00  0.00     0.066 CG0
ATOM     18  G   UNL     1     -14.030   3.049  32.525  1.00  0.00     0.000 G0
ENDBRANCH  13  17
ENDBRANCH  11  13
ENDBRANCH  10  11
ENDBRANCH   1  10
TORSDOF 0
ENDMDL
MODEL 5
REMARK VINA RESULT:    -3.597      5.401      8.050
REMARK INTER + INTRA:          -5.430
REMARK INTER:                  -5.131
REMARK INTRA:                  -0.299
REMARK UNBOUND:                -0.361
REMARK SMILES CC1=CCC(=C(C)C)C(=O)CC(C)=CCC1
REMARK SMILES IDX 12 1 14 2 13 3 15 4 16 5 2 6 1 7 3 8 11 10 9 11 10 12 5 13
REMARK SMILES IDX 6 14 7 15 8 16 4 17
REMARK H PARENT
REMARK Flexibility Score: 60.00
ROOT
ATOM      1  C   UNL     1     -10.480   9.883  32.422  1.00  0.00    -0.070 C 
ATOM      2  C   UNL     1      -9.972   8.881  31.645  1.00  0.00    -0.027 C 
ATOM      3  C   UNL     1     -10.715   9.682  33.897  1.00  0.00     0.039 C 
ENDROOT
BRANCH   2   4
ATOM      4  C   UNL     1     -10.117   7.390  31.975  1.00  0.00     0.032 C 
BRANCH   4   5
ATOM      5  C   UNL     1     -11.456   6.767  31.444  1.00  0.00     0.034 C 
BRANCH   5   6
ATOM      6  C   UNL     1     -12.751   7.027  32.263  1.00  0.00    -0.077 C 
ATOM      7  C   UNL     1     -12.967   6.275  33.551  1.00  0.00     0.039 C 
ATOM      8  C   UNL     1     -13.756   7.846  31.831  1.00  0.00    -0.023 CG0
ATOM      9  G   UNL     1     -13.483   8.721  30.660  1.00  0.00     0.000 G0
ENDBRANCH   5   6
ENDBRANCH   4   5
ENDBRANCH   2   4
BRANCH   1  10
ATOM     10  C   UNL     1     -11.159  11.081  31.748  1.00  0.00     0.111 C 
BRANCH  10  11
ATOM     11  C   UNL     1     -11.965  10.705  30.491  1.00  0.00     0.163 C 
ATOM     12  O   UNL     1     -11.416  10.860  29.368  1.00  0.00    -0.294 OA
BRANCH  11  13
ATOM     13  C   UNL     1     -13.398  10.215  30.564  1.00  0.00    -0.002 C 
ATOM     14  C   UNL     1     -14.466  11.024  30.330  1.00  0.00    -0.069 C 
ATOM     15  C   UNL     1     -15.866  10.468  30.225  1.00  0.00     0.039 C 
ATOM     16  C   UNL     1     -14.286  12.506  30.101  1.00  0.00     0.039 C 
BRANCH  13  17
ATOM     17  C   UNL     1     -13.494   8.719  30.654  1.00  0.00     0.066 CG0
ATOM     18  G   UNL     1     -13.749   7.828  31.816  1.00  0.00     0.000 G0
ENDBRANCH  13  17
ENDBRANCH  11  13
ENDBRANCH  10  11
ENDBRANCH   1  10
TORSDOF 0
ENDMDL
MODEL 6
REMARK VINA RESULT:    -3.485      1.601      2.327
REMARK INTER + INTRA:          -5.272
REMARK INTER:                  -4.893
REMARK INTRA:                  -0.379
REMARK UNBOUND:                -0.361
REMARK SMILES CC1=CCC(=C(C)C)C(=O)CC(C)=CCC1
REMARK SMILES IDX 12 1 14 2 13 3 15 4 16 5 2 6 1 7 3 8 11 10 9 11 10 12 5 13
REMARK SMILES IDX 6 14 7 15 8 16 4 17
REMARK H PARENT
REMARK Flexibility Score: 60.00
ROOT
ATOM      1  C   UNL     1     -17.014   4.170  28.639  1.00  0.00    -0.070 C 
ATOM      2  C   UNL     1     -16.580   5.356  28.117  1.00  0.00    -0.027 C 
ATOM      3  C   UNL     1     -17.855   4.131  29.890  1.00  0.00     0.039 C 
ENDROOT
BRANCH   2   4
ATOM      4  C   UNL     1     -16.384   6.632  28.945  1.00  0.00     0.032 C 
BRANCH   4   5
ATOM      5  C   UNL     1     -14.996   6.687  29.675  1.00  0.00     0.034 C 
BRANCH   5   6
ATOM      6  C   UNL     1     -14.867   5.966  31.045  1.00  0.00    -0.077 C 
ATOM      7  C   UNL     1     -15.528   6.571  32.257  1.00  0.00     0.039 C 
ATOM      8  C   UNL     1     -14.107   4.846  31.230  1.00  0.00    -0.023 CG0
ATOM      9  G   UNL     1     -13.598   4.145  30.022  1.00  0.00     0.000 G0
ENDBRANCH   5   6
ENDBRANCH   4   5
ENDBRANCH   2   4
BRANCH   1  10
ATOM     10  C   UNL     1     -16.349   2.866  28.186  1.00  0.00     0.111 C 
BRANCH  10  11
ATOM     11  C   UNL     1     -14.810   2.933  28.168  1.00  0.00     0.163 C 
ATOM     12  O   UNL     1     -14.236   3.053  27.053  1.00  0.00    -0.294 OA
BRANCH  11  13
ATOM     13  C   UNL     1     -13.979   2.803  29.430  1.00  0.00    -0.002 C 
ATOM     14  C   UNL     1     -13.427   1.626  29.830  1.00  0.00    -0.069 C 
ATOM     15  C   UNL     1     -12.453   1.566  30.983  1.00  0.00     0.039 C 
ATOM     16  C   UNL     1     -13.717   0.339  29.095  1.00  0.00     0.039 C 
BRANCH  13  17
ATOM     17  C   UNL     1     -13.618   4.133  30.024  1.00  0.00     0.066 CG0
ATOM     18  G   UNL     1     -14.114   4.821  31.245  1.00  0.00     0.000 G0
ENDBRANCH  13  17
ENDBRANCH  11  13
ENDBRANCH  10  11
ENDBRANCH   1  10
TORSDOF 0
ENDMDL
MODEL 7
REMARK VINA RESULT:    -3.473      4.719      7.372
REMARK INTER + INTRA:          -5.256
REMARK INTER:                  -4.901
REMARK INTRA:                  -0.355
REMARK UNBOUND:                -0.361
REMARK SMILES CC1=CCC(=C(C)C)C(=O)CC(C)=CCC1
REMARK SMILES IDX 12 1 14 2 13 3 15 4 16 5 2 6 1 7 3 8 11 10 9 11 10 12 5 13
REMARK SMILES IDX 6 14 7 15 8 16 4 17
REMARK H PARENT
REMARK Flexibility Score: 60.00
ROOT
ATOM      1  C   UNL     1     -11.271   7.617  34.221  1.00  0.00    -0.070 C 
ATOM      2  C   UNL     1     -11.199   6.401  33.602  1.00  0.00    -0.027 C 
ATOM      3  C   UNL     1     -12.207   7.847  35.380  1.00  0.00     0.039 C 
ENDROOT
BRANCH   2   4
ATOM      4  C   UNL     1     -12.347   5.383  33.586  1.00  0.00     0.032 C 
BRANCH   4   5
ATOM      5  C   UNL     1     -13.340   5.591  32.389  1.00  0.00     0.034 C 
BRANCH   5   6
ATOM      6  C   UNL     1     -14.442   6.676  32.542  1.00  0.00    -0.077 C 
ATOM      7  C   UNL     1     -15.633   6.393  33.421  1.00  0.00     0.039 C 
ATOM      8  C   UNL     1     -14.433   7.852  31.847  1.00  0.00    -0.023 CG0
ATOM      9  G   UNL     1     -13.190   8.218  31.118  1.00  0.00     0.000 G0
ENDBRANCH   5   6
ENDBRANCH   4   5
ENDBRANCH   2   4
BRANCH   1  10
ATOM     10  C   UNL     1     -10.690   8.849  33.518  1.00  0.00     0.111 C 
BRANCH  10  11
ATOM     11  C   UNL     1     -10.926   8.858  31.996  1.00  0.00     0.163 C 
ATOM     12  O   UNL     1      -9.984   8.481  31.249  1.00  0.00    -0.294 OA
BRANCH  11  13
ATOM     13  C   UNL     1     -12.219   9.354  31.380  1.00  0.00    -0.002 C 
ATOM     14  C   UNL     1     -12.370  10.619  30.901  1.00  0.00    -0.069 C 
ATOM     15  C   UNL     1     -13.601  11.025  30.127  1.00  0.00     0.039 C 
ATOM     16  C   UNL     1     -11.280  11.651  31.070  1.00  0.00     0.039 C 
BRANCH  13  17
ATOM     17  C   UNL     1     -13.198   8.246  31.118  1.00  0.00     0.066 CG0
ATOM     18  G   UNL     1     -14.440   7.854  31.835  1.00  0.00     0.000 G0
ENDBRANCH  13  17
ENDBRANCH  11  13
ENDBRANCH  10  11
ENDBRANCH   1  10
TORSDOF 0
ENDMDL
MODEL 8
REMARK VINA RESULT:    -3.382      2.461      4.203
REMARK INTER + INTRA:          -5.128
REMARK INTER:                  -4.708
REMARK INTRA:                  -0.420
REMARK UNBOUND:                -0.361
REMARK SMILES CC1=CCC(=C(C)C)C(=O)CC(C)=CCC1
REMARK SMILES IDX 12 1 14 2 13 3 15 4 16 5 2 6 1 7 3 8 11 10 9 11 10 12 5 13
REMARK SMILES IDX 6 14 7 15 8 16 4 17
REMARK H PARENT
REMARK Flexibility Score: 60.00
ROOT
ATOM      1  C   UNL     1     -16.217   5.496  28.212  1.00  0.00    -0.070 C 
ATOM      2  C   UNL     1     -16.946   4.342  28.156  1.00  0.00    -0.027 C 
ATOM      3  C   UNL     1     -15.144   5.790  27.194  1.00  0.00     0.039 C 
ENDROOT
BRANCH   2   4
ATOM      4  C   UNL     1     -16.445   3.048  27.504  1.00  0.00     0.032 C 
BRANCH   4   5
ATOM      5  C   UNL     1     -15.494   2.216  28.435  1.00  0.00     0.034 C 
BRANCH   5   6
ATOM      6  C   UNL     1     -13.985   2.587  28.447  1.00  0.00    -0.077 C 
ATOM      7  C   UNL     1     -13.134   2.235  27.255  1.00  0.00     0.039 C 
ATOM      8  C   UNL     1     -13.363   3.145  29.528  1.00  0.00    -0.023 CG0
ATOM      9  G   UNL     1     -14.216   3.655  30.633  1.00  0.00     0.000 G0
ENDBRANCH   5   6
ENDBRANCH   4   5
ENDBRANCH   2   4
BRANCH   1  10
ATOM     10  C   UNL     1     -16.218   6.319  29.505  1.00  0.00     0.111 C 
BRANCH  10  11
ATOM     11  C   UNL     1     -15.911   5.489  30.765  1.00  0.00     0.163 C 
ATOM     12  O   UNL     1     -16.865   5.216  31.541  1.00  0.00    -0.294 OA
BRANCH  11  13
ATOM     13  C   UNL     1     -14.505   5.046  31.120  1.00  0.00    -0.002 C 
ATOM     14  C   UNL     1     -13.707   5.742  31.973  1.00  0.00    -0.069 C 
ATOM     15  C   UNL     1     -12.389   5.182  32.452  1.00  0.00     0.039 C 
ATOM     16  C   UNL     1     -14.137   7.081  32.525  1.00  0.00     0.039 C 
BRANCH  13  17
ATOM     17  C   UNL     1     -14.202   3.651  30.653  1.00  0.00     0.066 CG0
ATOM     18  G   UNL     1     -13.367   3.162  29.525  1.00  0.00     0.000 G0
ENDBRANCH  13  17
ENDBRANCH  11  13
ENDBRANCH  10  11
ENDBRANCH   1  10
TORSDOF 0
ENDMDL
MODEL 9
REMARK VINA RESULT:    -3.297      4.706      6.873
REMARK INTER + INTRA:          -5.008
REMARK INTER:                  -4.641
REMARK INTRA:                  -0.368
REMARK UNBOUND:                -0.361
REMARK SMILES CC1=CCC(=C(C)C)C(=O)CC(C)=CCC1
REMARK SMILES IDX 12 1 14 2 13 3 15 4 16 5 2 6 1 7 3 8 11 10 9 11 10 12 5 13
REMARK SMILES IDX 6 14 7 15 8 16 4 17
REMARK H PARENT
REMARK Flexibility Score: 60.00
ROOT
ATOM      1  C   UNL     1     -11.436   6.263  33.600  1.00  0.00    -0.070 C 
ATOM      2  C   UNL     1     -11.159   7.240  34.514  1.00  0.00    -0.027 C 
ATOM      3  C   UNL     1     -10.418   5.852  32.566  1.00  0.00     0.039 C 
ENDROOT
BRANCH   2   4
ATOM      4  C   UNL     1     -10.137   8.359  34.281  1.00  0.00     0.032 C 
BRANCH   4   5
ATOM      5  C   UNL     1     -10.663   9.487  33.324  1.00  0.00     0.034 C 
BRANCH   5   6
ATOM      6  C   UNL     1     -10.525   9.261  31.793  1.00  0.00    -0.077 C 
ATOM      7  C   UNL     1      -9.155   9.305  31.166  1.00  0.00     0.039 C 
ATOM      8  C   UNL     1     -11.598   9.108  30.961  1.00  0.00    -0.023 CG0
ATOM      9  G   UNL     1     -12.931   8.889  31.582  1.00  0.00     0.000 G0
ENDBRANCH   5   6
ENDBRANCH   4   5
ENDBRANCH   2   4
BRANCH   1  10
ATOM     10  C   UNL     1     -12.892   5.840  33.375  1.00  0.00     0.111 C 
BRANCH  10  11
ATOM     11  C   UNL     1     -13.820   7.007  32.992  1.00  0.00     0.163 C 
ATOM     12  O   UNL     1     -14.656   7.404  33.847  1.00  0.00    -0.294 OA
BRANCH  11  13
ATOM     13  C   UNL     1     -13.796   7.644  31.616  1.00  0.00    -0.002 C 
ATOM     14  C   UNL     1     -14.644   7.276  30.618  1.00  0.00    -0.069 C 
ATOM     15  C   UNL     1     -14.722   8.052  29.326  1.00  0.00     0.039 C 
ATOM     16  C   UNL     1     -15.591   6.111  30.790  1.00  0.00     0.039 C 
BRANCH  13  17
ATOM     17  C   UNL     1     -12.938   8.875  31.563  1.00  0.00     0.066 CG0
ATOM     18  G   UNL     1     -11.599   9.104  30.961  1.00  0.00     0.000 G0
ENDBRANCH  13  17
ENDBRANCH  11  13
ENDBRANCH  10  11
ENDBRANCH   1  10
TORSDOF 0
ENDMDL
