MODEL 1
REMARK VINA RESULT:     0.000      0.000      0.000
REMARK INTER + INTRA:          -0.282
REMARK INTER:                   0.000
REMARK INTRA:                  -0.282
REMARK UNBOUND:                -0.282
REMARK SMILES CCCCCC(=O)[O-]
REMARK SMILES IDX 4 1 5 2 6 3 7 4 8 5 3 6 2 7 1 8
REMARK H PARENT
REMARK Flexibility Score: inf
ROOT
ATOM      1  C   UNL     1     180.220 182.959 181.210  1.00  0.00     0.006 C 
ENDROOT
BRANCH   1   2
ATOM      2  C   UNL     1     179.226 182.173 182.071  1.00  0.00     0.053 C 
BRANCH   2   3
ATOM      3  C   UNL     1     179.698 180.766 182.264  1.00  0.00     0.041 C 
ATOM      4  O   UNL     1     179.841 180.301 183.426  1.00  0.00    -0.550 OA
ATOM      5  O   UNL     1     180.028 179.985 181.165  1.00  0.00    -0.550 OA
ENDBRANCH   2   3
ENDBRANCH   1   2
BRANCH   1   6
ATOM      6  C   UNL     1     181.541 183.184 181.963  1.00  0.00     0.000 C 
BRANCH   6   7
ATOM      7  C   UNL     1     182.757 182.651 181.193  1.00  0.00    -0.003 C 
ATOM      8  C   UNL     1     183.360 181.399 181.830  1.00  0.00     0.004 C 
ENDBRANCH   6   7
ENDBRANCH   1   6
TORSDOF 4
ENDMDL
MODEL 2
REMARK VINA RESULT:     0.000      9.696     10.754
REMARK INTER + INTRA:          -0.282
REMARK INTER:                   0.000
REMARK INTRA:                  -0.282
REMARK UNBOUND:                -0.282
REMARK SMILES CCCCCC(=O)[O-]
REMARK SMILES IDX 4 1 5 2 6 3 7 4 8 5 3 6 2 7 1 8
REMARK H PARENT
REMARK Flexibility Score: inf
ROOT
ATOM      1  C   UNL     1     186.389 189.325 188.867  1.00  0.00     0.006 C 
ENDROOT
BRANCH   1   2
ATOM      2  C   UNL     1     187.627 188.424 188.819  1.00  0.00     0.053 C 
BRANCH   2   3
ATOM      3  C   UNL     1     187.296 187.111 188.184  1.00  0.00     0.041 C 
ATOM      4  O   UNL     1     187.951 186.707 187.188  1.00  0.00    -0.550 OA
ATOM      5  O   UNL     1     186.232 186.356 188.660  1.00  0.00    -0.550 OA
ENDBRANCH   2   3
ENDBRANCH   1   2
BRANCH   1   6
ATOM      6  C   UNL     1     185.976 189.767 187.455  1.00  0.00     0.000 C 
BRANCH   6   7
ATOM      7  C   UNL     1     184.523 189.402 187.123  1.00  0.00    -0.003 C 
ATOM      8  C   UNL     1     184.416 188.273 186.097  1.00  0.00     0.004 C 
ENDBRANCH   6   7
ENDBRANCH   1   6
TORSDOF 4
ENDMDL
MODEL 3
REMARK VINA RESULT:     0.000     11.318     12.161
REMARK INTER + INTRA:          -0.281
REMARK INTER:                   0.000
REMARK INTRA:                  -0.281
REMARK UNBOUND:                -0.282
REMARK SMILES CCCCCC(=O)[O-]
REMARK SMILES IDX 4 1 5 2 6 3 7 4 8 5 3 6 2 7 1 8
REMARK H PARENT
REMARK Flexibility Score: inf
ROOT
ATOM      1  C   UNL     1     176.748 181.458 193.235  1.00  0.00     0.006 C 
ENDROOT
BRANCH   1   2
ATOM      2  C   UNL     1     175.847 182.696 193.292  1.00  0.00     0.053 C 
BRANCH   2   3
ATOM      3  C   UNL     1     176.615 183.882 193.782  1.00  0.00     0.041 C 
ATOM      4  O   UNL     1     176.661 184.935 193.093  1.00  0.00    -0.550 OA
ATOM      5  O   UNL     1     177.320 183.809 194.976  1.00  0.00    -0.550 OA
ENDBRANCH   2   3
ENDBRANCH   1   2
BRANCH   1   6
ATOM      6  C   UNL     1     177.814 181.605 192.139  1.00  0.00     0.000 C 
BRANCH   6   7
ATOM      7  C   UNL     1     179.242 181.445 192.679  1.00  0.00    -0.003 C 
ATOM      8  C   UNL     1     180.018 182.762 192.703  1.00  0.00     0.004 C 
ENDBRANCH   6   7
ENDBRANCH   1   6
TORSDOF 4
ENDMDL
MODEL 4
REMARK VINA RESULT:     0.000      8.366      9.305
REMARK INTER + INTRA:          -0.281
REMARK INTER:                   0.000
REMARK INTRA:                  -0.281
REMARK UNBOUND:                -0.282
REMARK SMILES CCCCCC(=O)[O-]
REMARK SMILES IDX 4 1 5 2 6 3 7 4 8 5 3 6 2 7 1 8
REMARK H PARENT
REMARK Flexibility Score: inf
ROOT
ATOM      1  C   UNL     1     175.081 187.271 188.565  1.00  0.00     0.006 C 
ENDROOT
BRANCH   1   2
ATOM      2  C   UNL     1     174.520 186.135 187.705  1.00  0.00     0.053 C 
BRANCH   2   3
ATOM      3  C   UNL     1     174.919 186.315 186.274  1.00  0.00     0.041 C 
ATOM      4  O   UNL     1     175.531 185.397 185.667  1.00  0.00    -0.550 OA
ATOM      5  O   UNL     1     174.660 187.515 185.625  1.00  0.00    -0.550 OA
ENDBRANCH   2   3
ENDBRANCH   1   2
BRANCH   1   6
ATOM      6  C   UNL     1     176.611 187.183 188.664  1.00  0.00     0.000 C 
BRANCH   6   7
ATOM      7  C   UNL     1     177.308 188.470 188.201  1.00  0.00    -0.003 C 
ATOM      8  C   UNL     1     178.034 188.302 186.866  1.00  0.00     0.004 C 
ENDBRANCH   6   7
ENDBRANCH   1   6
TORSDOF 4
ENDMDL
MODEL 5
REMARK VINA RESULT:     0.000     16.584     17.241
REMARK INTER + INTRA:          -0.281
REMARK INTER:                   0.000
REMARK INTRA:                  -0.281
REMARK UNBOUND:                -0.282
REMARK SMILES CCCCCC(=O)[O-]
REMARK SMILES IDX 4 1 5 2 6 3 7 4 8 5 3 6 2 7 1 8
REMARK H PARENT
REMARK Flexibility Score: inf
ROOT
ATOM      1  C   UNL     1     179.604 188.490 197.500  1.00  0.00     0.006 C 
ENDROOT
BRANCH   1   2
ATOM      2  C   UNL     1     179.834 187.403 196.445  1.00  0.00     0.053 C 
BRANCH   2   3
ATOM      3  C   UNL     1     181.116 186.678 196.710  1.00  0.00     0.041 C 
ATOM      4  O   UNL     1     181.119 185.426 196.843  1.00  0.00    -0.550 OA
ATOM      5  O   UNL     1     182.299 187.390 196.860  1.00  0.00    -0.550 OA
ENDBRANCH   2   3
ENDBRANCH   1   2
BRANCH   1   6
ATOM      6  C   UNL     1     179.323 187.868 198.877  1.00  0.00     0.000 C 
BRANCH   6   7
ATOM      7  C   UNL     1     180.294 188.364 199.957  1.00  0.00    -0.003 C 
ATOM      8  C   UNL     1     181.289 187.291 200.397  1.00  0.00     0.004 C 
ENDBRANCH   6   7
ENDBRANCH   1   6
TORSDOF 4
ENDMDL
MODEL 6
REMARK VINA RESULT:     0.000      6.731      7.608
REMARK INTER + INTRA:          -0.281
REMARK INTER:                   0.000
REMARK INTRA:                  -0.281
REMARK UNBOUND:                -0.282
REMARK SMILES CCCCCC(=O)[O-]
REMARK SMILES IDX 4 1 5 2 6 3 7 4 8 5 3 6 2 7 1 8
REMARK H PARENT
REMARK Flexibility Score: inf
ROOT
ATOM      1  C   UNL     1     180.270 187.773 187.383  1.00  0.00     0.006 C 
ENDROOT
BRANCH   1   2
ATOM      2  C   UNL     1     180.238 188.855 186.300  1.00  0.00     0.053 C 
BRANCH   2   3
ATOM      3  C   UNL     1     180.771 188.321 185.008  1.00  0.00     0.041 C 
ATOM      4  O   UNL     1     180.073 188.381 183.962  1.00  0.00    -0.550 OA
ATOM      5  O   UNL     1     182.018 187.711 184.970  1.00  0.00    -0.550 OA
ENDBRANCH   2   3
ENDBRANCH   1   2
BRANCH   1   6
ATOM      6  C   UNL     1     179.260 186.657 187.075  1.00  0.00     0.000 C 
BRANCH   6   7
ATOM      7  C   UNL     1     179.914 185.269 187.012  1.00  0.00    -0.003 C 
ATOM      8  C   UNL     1     179.981 184.710 185.591  1.00  0.00     0.004 C 
ENDBRANCH   6   7
ENDBRANCH   1   6
TORSDOF 4
ENDMDL
MODEL 7
REMARK VINA RESULT:     0.000     11.181     12.092
REMARK INTER + INTRA:          -0.281
REMARK INTER:                   0.000
REMARK INTRA:                  -0.281
REMARK UNBOUND:                -0.282
REMARK SMILES CCCCCC(=O)[O-]
REMARK SMILES IDX 4 1 5 2 6 3 7 4 8 5 3 6 2 7 1 8
REMARK H PARENT
REMARK Flexibility Score: inf
ROOT
ATOM      1  C   UNL     1     181.636 191.856 188.171  1.00  0.00     0.006 C 
ENDROOT
BRANCH   1   2
ATOM      2  C   UNL     1     181.987 192.523 189.504  1.00  0.00     0.053 C 
BRANCH   2   3
ATOM      3  C   UNL     1     182.195 191.491 190.568  1.00  0.00     0.041 C 
ATOM      4  O   UNL     1     183.274 191.459 191.216  1.00  0.00    -0.550 OA
ATOM      5  O   UNL     1     181.219 190.534 190.808  1.00  0.00    -0.550 OA
ENDBRANCH   2   3
ENDBRANCH   1   2
BRANCH   1   6
ATOM      6  C   UNL     1     182.839 191.082 187.611  1.00  0.00     0.000 C 
BRANCH   6   7
ATOM      7  C   UNL     1     182.518 189.604 187.343  1.00  0.00    -0.003 C 
ATOM      8  C   UNL     1     183.198 188.661 188.335  1.00  0.00     0.004 C 
ENDBRANCH   6   7
ENDBRANCH   1   6
TORSDOF 4
ENDMDL
MODEL 8
REMARK VINA RESULT:     0.000     16.274     17.220
REMARK INTER + INTRA:          -0.281
REMARK INTER:                   0.000
REMARK INTRA:                  -0.281
REMARK UNBOUND:                -0.282
REMARK SMILES CCCCCC(=O)[O-]
REMARK SMILES IDX 4 1 5 2 6 3 7 4 8 5 3 6 2 7 1 8
REMARK H PARENT
REMARK Flexibility Score: inf
ROOT
ATOM      1  C   UNL     1     182.345 193.695 194.538  1.00  0.00     0.006 C 
ENDROOT
BRANCH   1   2
ATOM      2  C   UNL     1     183.472 193.457 195.548  1.00  0.00     0.053 C 
BRANCH   2   3
ATOM      3  C   UNL     1     183.183 192.249 196.382  1.00  0.00     0.041 C 
ATOM      4  O   UNL     1     184.017 191.307 196.441  1.00  0.00    -0.550 OA
ATOM      5  O   UNL     1     181.973 192.140 197.053  1.00  0.00    -0.550 OA
ENDBRANCH   2   3
ENDBRANCH   1   2
BRANCH   1   6
ATOM      6  C   UNL     1     182.321 192.589 193.472  1.00  0.00     0.000 C 
BRANCH   6   7
ATOM      7  C   UNL     1     180.961 191.883 193.384  1.00  0.00    -0.003 C 
ATOM      8  C   UNL     1     180.997 190.456 193.931  1.00  0.00     0.004 C 
ENDBRANCH   6   7
ENDBRANCH   1   6
TORSDOF 4
ENDMDL
MODEL 9
REMARK VINA RESULT:     0.000     14.859     15.530
REMARK INTER + INTRA:          -0.281
REMARK INTER:                   0.000
REMARK INTRA:                  -0.281
REMARK UNBOUND:                -0.282
REMARK SMILES CCCCCC(=O)[O-]
REMARK SMILES IDX 4 1 5 2 6 3 7 4 8 5 3 6 2 7 1 8
REMARK H PARENT
REMARK Flexibility Score: inf
ROOT
ATOM      1  C   UNL     1     181.896 185.863 196.502  1.00  0.00     0.006 C 
ENDROOT
BRANCH   1   2
ATOM      2  C   UNL     1     181.658 187.233 195.858  1.00  0.00     0.053 C 
BRANCH   2   3
ATOM      3  C   UNL     1     182.884 188.083 195.966  1.00  0.00     0.041 C 
ATOM      4  O   UNL     1     183.403 188.580 194.932  1.00  0.00    -0.550 OA
ATOM      5  O   UNL     1     183.482 188.287 197.203  1.00  0.00    -0.550 OA
ENDBRANCH   2   3
ENDBRANCH   1   2
BRANCH   1   6
ATOM      6  C   UNL     1     182.908 185.042 195.688  1.00  0.00     0.000 C 
BRANCH   6   7
ATOM      7  C   UNL     1     184.108 184.584 196.529  1.00  0.00    -0.003 C 
ATOM      8  C   UNL     1     185.398 185.320 196.170  1.00  0.00     0.004 C 
ENDBRANCH   6   7
ENDBRANCH   1   6
TORSDOF 4
ENDMDL
