MODEL 1
REMARK VINA RESULT:    -3.796      0.000      0.000
REMARK INTER + INTRA:          -8.400
REMARK INTER:                  -6.460
REMARK INTRA:                  -1.941
REMARK UNBOUND:                -1.941
REMARK SMILES CCCCCCCCCCCCCC(=O)[O-]
REMARK SMILES IDX 8 1 9 2 10 3 11 4 12 5 13 6 14 7 15 8 16 9 7 10 6 11 5 12
REMARK SMILES IDX 4 13 3 14 2 15 1 16
REMARK H PARENT
REMARK Flexibility Score: inf
ROOT
ATOM      1  C   UNL     1      28.550   1.226   7.856  1.00  0.00     0.000 C 
ENDROOT
BRANCH   1   2
ATOM      2  C   UNL     1      28.416   1.861   9.251  1.00  0.00     0.000 C 
BRANCH   2   3
ATOM      3  C   UNL     1      28.343   3.396   9.199  1.00  0.00     0.000 C 
BRANCH   3   4
ATOM      4  C   UNL     1      27.588   4.048  10.373  1.00  0.00     0.000 C 
BRANCH   4   5
ATOM      5  C   UNL     1      26.759   5.286   9.970  1.00  0.00     0.006 C 
BRANCH   5   6
ATOM      6  C   UNL     1      27.036   5.728   8.526  1.00  0.00     0.053 C 
BRANCH   6   7
ATOM      7  C   UNL     1      26.588   7.139   8.315  1.00  0.00     0.041 C 
ATOM      8  O   UNL     1      25.494   7.536   8.795  1.00  0.00    -0.550 OA
ATOM      9  O   UNL     1      27.404   8.031   7.629  1.00  0.00    -0.550 OA
ENDBRANCH   6   7
ENDBRANCH   5   6
ENDBRANCH   4   5
ENDBRANCH   3   4
ENDBRANCH   2   3
ENDBRANCH   1   2
BRANCH   1  10
ATOM     10  C   UNL     1      28.398   2.257   6.726  1.00  0.00     0.000 C 
BRANCH  10  11
ATOM     11  C   UNL     1      27.567   1.721   5.550  1.00  0.00    -0.000 C 
BRANCH  11  12
ATOM     12  C   UNL     1      26.099   1.537   5.951  1.00  0.00    -0.000 C 
BRANCH  12  13
ATOM     13  C   UNL     1      25.543   2.809   6.610  1.00  0.00    -0.000 C 
BRANCH  13  14
ATOM     14  C   UNL     1      24.844   2.514   7.953  1.00  0.00    -0.000 C 
BRANCH  14  15
ATOM     15  C   UNL     1      23.843   3.601   8.377  1.00  0.00    -0.003 C 
ATOM     16  C   UNL     1      23.674   4.700   7.330  1.00  0.00     0.004 C 
ENDBRANCH  14  15
ENDBRANCH  13  14
ENDBRANCH  12  13
ENDBRANCH  11  12
ENDBRANCH  10  11
ENDBRANCH   1  10
TORSDOF 12
ENDMDL
MODEL 2
REMARK VINA RESULT:    -3.764      9.353     11.014
REMARK INTER + INTRA:          -8.345
REMARK INTER:                  -6.784
REMARK INTRA:                  -1.561
REMARK UNBOUND:                -1.941
REMARK SMILES CCCCCCCCCCCCCC(=O)[O-]
REMARK SMILES IDX 8 1 9 2 10 3 11 4 12 5 13 6 14 7 15 8 16 9 7 10 6 11 5 12
REMARK SMILES IDX 4 13 3 14 2 15 1 16
REMARK H PARENT
REMARK Flexibility Score: inf
ROOT
ATOM      1  C   UNL     1      22.919   4.800  17.749  1.00  0.00     0.000 C 
ENDROOT
BRANCH   1   2
ATOM      2  C   UNL     1      22.995   4.789  19.286  1.00  0.00     0.000 C 
BRANCH   2   3
ATOM      3  C   UNL     1      22.986   6.203  19.890  1.00  0.00     0.000 C 
BRANCH   3   4
ATOM      4  C   UNL     1      22.348   7.285  18.995  1.00  0.00     0.000 C 
BRANCH   4   5
ATOM      5  C   UNL     1      23.267   8.497  18.734  1.00  0.00     0.006 C 
BRANCH   5   6
ATOM      6  C   UNL     1      24.111   8.327  17.463  1.00  0.00     0.053 C 
BRANCH   6   7
ATOM      7  C   UNL     1      23.248   8.417  16.245  1.00  0.00     0.041 C 
ATOM      8  O   UNL     1      23.220   7.471  15.416  1.00  0.00    -0.550 OA
ATOM      9  O   UNL     1      22.436   9.528  16.050  1.00  0.00    -0.550 OA
ENDBRANCH   6   7
ENDBRANCH   5   6
ENDBRANCH   4   5
ENDBRANCH   3   4
ENDBRANCH   2   3
ENDBRANCH   1   2
BRANCH   1  10
ATOM     10  C   UNL     1      24.227   4.329  17.095  1.00  0.00     0.000 C 
BRANCH  10  11
ATOM     11  C   UNL     1      25.013   3.355  17.986  1.00  0.00    -0.000 C 
BRANCH  11  12
ATOM     12  C   UNL     1      25.401   2.090  17.210  1.00  0.00    -0.000 C 
BRANCH  12  13
ATOM     13  C   UNL     1      24.992   0.825  17.979  1.00  0.00    -0.000 C 
BRANCH  13  14
ATOM     14  C   UNL     1      24.079   1.141  19.182  1.00  0.00    -0.000 C 
BRANCH  14  15
ATOM     15  C   UNL     1      22.632   0.652  19.001  1.00  0.00    -0.003 C 
ATOM     16  C   UNL     1      21.644   1.352  19.932  1.00  0.00     0.004 C 
ENDBRANCH  14  15
ENDBRANCH  13  14
ENDBRANCH  12  13
ENDBRANCH  11  12
ENDBRANCH  10  11
ENDBRANCH   1  10
TORSDOF 12
ENDMDL
MODEL 3
REMARK VINA RESULT:    -3.722     10.239     11.970
REMARK INTER + INTRA:          -8.273
REMARK INTER:                  -6.550
REMARK INTRA:                  -1.723
REMARK UNBOUND:                -1.941
REMARK SMILES CCCCCCCCCCCCCC(=O)[O-]
REMARK SMILES IDX 8 1 9 2 10 3 11 4 12 5 13 6 14 7 15 8 16 9 7 10 6 11 5 12
REMARK SMILES IDX 4 13 3 14 2 15 1 16
REMARK H PARENT
REMARK Flexibility Score: inf
ROOT
ATOM      1  C   UNL     1      25.399   2.775  17.594  1.00  0.00     0.000 C 
ENDROOT
BRANCH   1   2
ATOM      2  C   UNL     1      24.998   1.350  17.174  1.00  0.00     0.000 C 
BRANCH   2   3
ATOM      3  C   UNL     1      25.381   0.293  18.224  1.00  0.00     0.000 C 
BRANCH   3   4
ATOM      4  C   UNL     1      24.768  -1.101  17.992  1.00  0.00     0.000 C 
BRANCH   4   5
ATOM      5  C   UNL     1      24.526  -1.435  16.504  1.00  0.00     0.006 C 
BRANCH   5   6
ATOM      6  C   UNL     1      23.146  -2.063  16.263  1.00  0.00     0.053 C 
BRANCH   6   7
ATOM      7  C   UNL     1      23.211  -3.548  16.429  1.00  0.00     0.041 C 
ATOM      8  O   UNL     1      24.258  -4.176  16.119  1.00  0.00    -0.550 OA
ATOM      9  O   UNL     1      22.132  -4.234  16.971  1.00  0.00    -0.550 OA
ENDBRANCH   6   7
ENDBRANCH   5   6
ENDBRANCH   4   5
ENDBRANCH   3   4
ENDBRANCH   2   3
ENDBRANCH   1   2
BRANCH   1  10
ATOM     10  C   UNL     1      24.579   3.853  16.867  1.00  0.00     0.000 C 
BRANCH  10  11
ATOM     11  C   UNL     1      23.346   4.294  17.669  1.00  0.00    -0.000 C 
BRANCH  11  12
ATOM     12  C   UNL     1      23.315   3.621  19.046  1.00  0.00    -0.000 C 
BRANCH  12  13
ATOM     13  C   UNL     1      21.996   2.865  19.261  1.00  0.00    -0.000 C 
BRANCH  13  14
ATOM     14  C   UNL     1      22.225   1.405  19.707  1.00  0.00    -0.000 C 
BRANCH  14  15
ATOM     15  C   UNL     1      21.516   0.371  18.817  1.00  0.00    -0.003 C 
ATOM     16  C   UNL     1      21.241   0.886  17.406  1.00  0.00     0.004 C 
ENDBRANCH  14  15
ENDBRANCH  13  14
ENDBRANCH  12  13
ENDBRANCH  11  12
ENDBRANCH  10  11
ENDBRANCH   1  10
TORSDOF 12
ENDMDL
MODEL 4
REMARK VINA RESULT:    -3.696      1.072      3.478
REMARK INTER + INTRA:          -8.230
REMARK INTER:                  -6.485
REMARK INTRA:                  -1.745
REMARK UNBOUND:                -1.941
REMARK SMILES CCCCCCCCCCCCCC(=O)[O-]
REMARK SMILES IDX 8 1 9 2 10 3 11 4 12 5 13 6 14 7 15 8 16 9 7 10 6 11 5 12
REMARK SMILES IDX 4 13 3 14 2 15 1 16
REMARK H PARENT
REMARK Flexibility Score: inf
ROOT
ATOM      1  C   UNL     1      24.760   2.658   7.342  1.00  0.00     0.000 C 
ENDROOT
BRANCH   1   2
ATOM      2  C   UNL     1      24.238   2.715   8.788  1.00  0.00     0.000 C 
BRANCH   2   3
ATOM      3  C   UNL     1      24.638   4.011   9.512  1.00  0.00     0.000 C 
BRANCH   3   4
ATOM      4  C   UNL     1      25.999   3.955  10.233  1.00  0.00     0.000 C 
BRANCH   4   5
ATOM      5  C   UNL     1      26.834   5.245  10.088  1.00  0.00     0.006 C 
BRANCH   5   6
ATOM      6  C   UNL     1      26.972   5.689   8.625  1.00  0.00     0.053 C 
BRANCH   6   7
ATOM      7  C   UNL     1      26.535   7.110   8.466  1.00  0.00     0.041 C 
ATOM      8  O   UNL     1      27.096   7.856   7.620  1.00  0.00    -0.550 OA
ATOM      9  O   UNL     1      25.474   7.599   9.219  1.00  0.00    -0.550 OA
ENDBRANCH   6   7
ENDBRANCH   5   6
ENDBRANCH   4   5
ENDBRANCH   3   4
ENDBRANCH   2   3
ENDBRANCH   1   2
BRANCH   1  10
ATOM     10  C   UNL     1      25.341   1.281   6.982  1.00  0.00     0.000 C 
BRANCH  10  11
ATOM     11  C   UNL     1      26.667   1.385   6.214  1.00  0.00    -0.000 C 
BRANCH  11  12
ATOM     12  C   UNL     1      27.468   2.614   6.661  1.00  0.00    -0.000 C 
BRANCH  12  13
ATOM     13  C   UNL     1      28.723   2.200   7.444  1.00  0.00    -0.000 C 
BRANCH  13  14
ATOM     14  C   UNL     1      28.388   1.708   8.868  1.00  0.00    -0.000 C 
BRANCH  14  15
ATOM     15  C   UNL     1      29.016   0.347   9.212  1.00  0.00    -0.003 C 
ATOM     16  C   UNL     1      28.117  -0.834   8.852  1.00  0.00     0.004 C 
ENDBRANCH  14  15
ENDBRANCH  13  14
ENDBRANCH  12  13
ENDBRANCH  11  12
ENDBRANCH  10  11
ENDBRANCH   1  10
TORSDOF 12
ENDMDL
MODEL 5
REMARK VINA RESULT:    -3.686      9.477     10.519
REMARK INTER + INTRA:          -8.212
REMARK INTER:                  -6.704
REMARK INTRA:                  -1.508
REMARK UNBOUND:                -1.941
REMARK SMILES CCCCCCCCCCCCCC(=O)[O-]
REMARK SMILES IDX 8 1 9 2 10 3 11 4 12 5 13 6 14 7 15 8 16 9 7 10 6 11 5 12
REMARK SMILES IDX 4 13 3 14 2 15 1 16
REMARK H PARENT
REMARK Flexibility Score: inf
ROOT
ATOM      1  C   UNL     1      25.019   0.667  18.498  1.00  0.00     0.000 C 
ENDROOT
BRANCH   1   2
ATOM      2  C   UNL     1      25.729   1.546  17.454  1.00  0.00     0.000 C 
BRANCH   2   3
ATOM      3  C   UNL     1      25.292   3.019  17.524  1.00  0.00     0.000 C 
BRANCH   3   4
ATOM      4  C   UNL     1      24.474   3.392  18.775  1.00  0.00     0.000 C 
BRANCH   4   5
ATOM      5  C   UNL     1      23.384   4.453  18.513  1.00  0.00     0.006 C 
BRANCH   5   6
ATOM      6  C   UNL     1      23.393   4.952  17.061  1.00  0.00     0.053 C 
BRANCH   6   7
ATOM      7  C   UNL     1      23.316   6.445  17.019  1.00  0.00     0.041 C 
ATOM      8  O   UNL     1      23.201   7.104  18.086  1.00  0.00    -0.550 OA
ATOM      9  O   UNL     1      23.420   7.112  15.805  1.00  0.00    -0.550 OA
ENDBRANCH   6   7
ENDBRANCH   5   6
ENDBRANCH   4   5
ENDBRANCH   3   4
ENDBRANCH   2   3
ENDBRANCH   1   2
BRANCH   1  10
ATOM     10  C   UNL     1      24.919  -0.802  18.057  1.00  0.00     0.000 C 
BRANCH  10  11
ATOM     11  C   UNL     1      24.445  -0.948  16.604  1.00  0.00    -0.000 C 
BRANCH  11  12
ATOM     12  C   UNL     1      22.978  -0.524  16.458  1.00  0.00    -0.000 C 
BRANCH  12  13
ATOM     13  C   UNL     1      22.132  -1.056  17.625  1.00  0.00    -0.000 C 
BRANCH  13  14
ATOM     14  C   UNL     1      20.929  -0.141  17.938  1.00  0.00    -0.000 C 
BRANCH  14  15
ATOM     15  C   UNL     1      21.330   1.218  18.535  1.00  0.00    -0.003 C 
ATOM     16  C   UNL     1      21.688   1.138  20.018  1.00  0.00     0.004 C 
ENDBRANCH  14  15
ENDBRANCH  13  14
ENDBRANCH  12  13
ENDBRANCH  11  12
ENDBRANCH  10  11
ENDBRANCH   1  10
TORSDOF 12
ENDMDL
MODEL 6
REMARK VINA RESULT:    -3.685      4.068      5.794
REMARK INTER + INTRA:          -8.211
REMARK INTER:                  -6.515
REMARK INTRA:                  -1.697
REMARK UNBOUND:                -1.941
REMARK SMILES CCCCCCCCCCCCCC(=O)[O-]
REMARK SMILES IDX 8 1 9 2 10 3 11 4 12 5 13 6 14 7 15 8 16 9 7 10 6 11 5 12
REMARK SMILES IDX 4 13 3 14 2 15 1 16
REMARK H PARENT
REMARK Flexibility Score: inf
ROOT
ATOM      1  C   UNL     1      27.586   3.772  10.029  1.00  0.00     0.000 C 
ENDROOT
BRANCH   1   2
ATOM      2  C   UNL     1      28.595   3.762   8.866  1.00  0.00     0.000 C 
BRANCH   2   3
ATOM      3  C   UNL     1      28.354   2.604   7.883  1.00  0.00     0.000 C 
BRANCH   3   4
ATOM      4  C   UNL     1      27.709   1.350   8.506  1.00  0.00     0.000 C 
BRANCH   4   5
ATOM      5  C   UNL     1      28.665   0.142   8.601  1.00  0.00     0.006 C 
BRANCH   5   6
ATOM      6  C   UNL     1      28.672  -0.700   7.317  1.00  0.00     0.053 C 
BRANCH   6   7
ATOM      7  C   UNL     1      28.703  -2.158   7.646  1.00  0.00     0.041 C 
ATOM      8  O   UNL     1      29.092  -2.994   6.789  1.00  0.00    -0.550 OA
ATOM      9  O   UNL     1      28.348  -2.590   8.918  1.00  0.00    -0.550 OA
ENDBRANCH   6   7
ENDBRANCH   5   6
ENDBRANCH   4   5
ENDBRANCH   3   4
ENDBRANCH   2   3
ENDBRANCH   1   2
BRANCH   1  10
ATOM     10  C   UNL     1      26.701   5.028  10.025  1.00  0.00     0.000 C 
BRANCH  10  11
ATOM     11  C   UNL     1      27.034   5.979   8.865  1.00  0.00    -0.000 C 
BRANCH  11  12
ATOM     12  C   UNL     1      25.802   6.228   7.986  1.00  0.00    -0.000 C 
BRANCH  12  13
ATOM     13  C   UNL     1      25.648   5.126   6.927  1.00  0.00    -0.000 C 
BRANCH  13  14
ATOM     14  C   UNL     1      24.337   4.329   7.099  1.00  0.00    -0.000 C 
BRANCH  14  15
ATOM     15  C   UNL     1      24.558   2.864   7.512  1.00  0.00    -0.003 C 
ATOM     16  C   UNL     1      24.174   2.588   8.964  1.00  0.00     0.004 C 
ENDBRANCH  14  15
ENDBRANCH  13  14
ENDBRANCH  12  13
ENDBRANCH  11  12
ENDBRANCH  10  11
ENDBRANCH   1  10
TORSDOF 12
ENDMDL
MODEL 7
REMARK VINA RESULT:    -3.636      1.394      2.553
REMARK INTER + INTRA:          -8.127
REMARK INTER:                  -6.292
REMARK INTRA:                  -1.835
REMARK UNBOUND:                -1.941
REMARK SMILES CCCCCCCCCCCCCC(=O)[O-]
REMARK SMILES IDX 8 1 9 2 10 3 11 4 12 5 13 6 14 7 15 8 16 9 7 10 6 11 5 12
REMARK SMILES IDX 4 13 3 14 2 15 1 16
REMARK H PARENT
REMARK Flexibility Score: inf
ROOT
ATOM      1  C   UNL     1      27.433   4.604   9.234  1.00  0.00     0.000 C 
ENDROOT
BRANCH   1   2
ATOM      2  C   UNL     1      26.552   3.898  10.279  1.00  0.00     0.000 C 
BRANCH   2   3
ATOM      3  C   UNL     1      25.110   4.432  10.297  1.00  0.00     0.000 C 
BRANCH   3   4
ATOM      4  C   UNL     1      24.980   5.933  10.621  1.00  0.00     0.000 C 
BRANCH   4   5
ATOM      5  C   UNL     1      24.142   6.721   9.592  1.00  0.00     0.006 C 
BRANCH   5   6
ATOM      6  C   UNL     1      24.907   6.973   8.285  1.00  0.00     0.053 C 
BRANCH   6   7
ATOM      7  C   UNL     1      25.852   8.121   8.444  1.00  0.00     0.041 C 
ATOM      8  O   UNL     1      25.543   9.101   9.171  1.00  0.00    -0.550 OA
ATOM      9  O   UNL     1      27.096   8.086   7.827  1.00  0.00    -0.550 OA
ENDBRANCH   6   7
ENDBRANCH   5   6
ENDBRANCH   4   5
ENDBRANCH   3   4
ENDBRANCH   2   3
ENDBRANCH   1   2
BRANCH   1  10
ATOM     10  C   UNL     1      28.696   3.799   8.892  1.00  0.00     0.000 C 
BRANCH  10  11
ATOM     11  C   UNL     1      28.397   2.312   8.645  1.00  0.00    -0.000 C 
BRANCH  11  12
ATOM     12  C   UNL     1      28.509   1.969   7.154  1.00  0.00    -0.000 C 
BRANCH  12  13
ATOM     13  C   UNL     1      27.122   1.923   6.494  1.00  0.00    -0.000 C 
BRANCH  13  14
ATOM     14  C   UNL     1      26.041   1.364   7.443  1.00  0.00    -0.000 C 
BRANCH  14  15
ATOM     15  C   UNL     1      24.719   2.149   7.398  1.00  0.00    -0.003 C 
ATOM     16  C   UNL     1      24.866   3.533   6.769  1.00  0.00     0.004 C 
ENDBRANCH  14  15
ENDBRANCH  13  14
ENDBRANCH  12  13
ENDBRANCH  11  12
ENDBRANCH  10  11
ENDBRANCH   1  10
TORSDOF 12
ENDMDL
MODEL 8
REMARK VINA RESULT:    -3.629      1.250      3.581
REMARK INTER + INTRA:          -8.115
REMARK INTER:                  -6.537
REMARK INTRA:                  -1.578
REMARK UNBOUND:                -1.941
REMARK SMILES CCCCCCCCCCCCCC(=O)[O-]
REMARK SMILES IDX 8 1 9 2 10 3 11 4 12 5 13 6 14 7 15 8 16 9 7 10 6 11 5 12
REMARK SMILES IDX 4 13 3 14 2 15 1 16
REMARK H PARENT
REMARK Flexibility Score: inf
ROOT
ATOM      1  C   UNL     1      26.964   4.853  10.138  1.00  0.00     0.000 C 
ENDROOT
BRANCH   1   2
ATOM      2  C   UNL     1      25.515   4.380   9.929  1.00  0.00     0.000 C 
BRANCH   2   3
ATOM      3  C   UNL     1      25.082   4.435   8.454  1.00  0.00     0.000 C 
BRANCH   3   4
ATOM      4  C   UNL     1      26.118   5.055   7.498  1.00  0.00     0.000 C 
BRANCH   4   5
ATOM      5  C   UNL     1      25.701   6.431   6.936  1.00  0.00     0.006 C 
BRANCH   5   6
ATOM      6  C   UNL     1      26.448   7.589   7.613  1.00  0.00     0.053 C 
BRANCH   6   7
ATOM      7  C   UNL     1      25.580   8.243   8.640  1.00  0.00     0.041 C 
ATOM      8  O   UNL     1      26.013   9.218   9.308  1.00  0.00    -0.550 OA
ATOM      9  O   UNL     1      24.274   7.806   8.826  1.00  0.00    -0.550 OA
ENDBRANCH   6   7
ENDBRANCH   5   6
ENDBRANCH   4   5
ENDBRANCH   3   4
ENDBRANCH   2   3
ENDBRANCH   1   2
BRANCH   1  10
ATOM     10  C   UNL     1      27.875   3.732  10.665  1.00  0.00     0.000 C 
BRANCH  10  11
ATOM     11  C   UNL     1      28.752   3.120   9.562  1.00  0.00    -0.000 C 
BRANCH  11  12
ATOM     12  C   UNL     1      27.970   2.078   8.753  1.00  0.00    -0.000 C 
BRANCH  12  13
ATOM     13  C   UNL     1      28.726   1.696   7.471  1.00  0.00    -0.000 C 
BRANCH  13  14
ATOM     14  C   UNL     1      28.059   2.275   6.205  1.00  0.00    -0.000 C 
BRANCH  14  15
ATOM     15  C   UNL     1      27.020   1.334   5.573  1.00  0.00    -0.003 C 
ATOM     16  C   UNL     1      25.581   1.786   5.812  1.00  0.00     0.004 C 
ENDBRANCH  14  15
ENDBRANCH  13  14
ENDBRANCH  12  13
ENDBRANCH  11  12
ENDBRANCH  10  11
ENDBRANCH   1  10
TORSDOF 12
ENDMDL
MODEL 9
REMARK VINA RESULT:    -3.553      1.983      3.277
REMARK INTER + INTRA:          -7.987
REMARK INTER:                  -6.213
REMARK INTRA:                  -1.773
REMARK UNBOUND:                -1.941
REMARK SMILES CCCCCCCCCCCCCC(=O)[O-]
REMARK SMILES IDX 8 1 9 2 10 3 11 4 12 5 13 6 14 7 15 8 16 9 7 10 6 11 5 12
REMARK SMILES IDX 4 13 3 14 2 15 1 16
REMARK H PARENT
REMARK Flexibility Score: inf
ROOT
ATOM      1  C   UNL     1      28.802   0.379   9.165  1.00  0.00     0.000 C 
ENDROOT
BRANCH   1   2
ATOM      2  C   UNL     1      28.802   1.047   7.779  1.00  0.00     0.000 C 
BRANCH   2   3
ATOM      3  C   UNL     1      28.431   2.538   7.840  1.00  0.00     0.000 C 
BRANCH   3   4
ATOM      4  C   UNL     1      27.375   2.899   8.903  1.00  0.00     0.000 C 
BRANCH   4   5
ATOM      5  C   UNL     1      26.004   3.287   8.311  1.00  0.00     0.006 C 
BRANCH   5   6
ATOM      6  C   UNL     1      26.105   4.452   7.317  1.00  0.00     0.053 C 
BRANCH   6   7
ATOM      7  C   UNL     1      26.028   5.761   8.036  1.00  0.00     0.041 C 
ATOM      8  O   UNL     1      27.080   6.336   8.422  1.00  0.00    -0.550 OA
ATOM      9  O   UNL     1      24.796   6.372   8.237  1.00  0.00    -0.550 OA
ENDBRANCH   6   7
ENDBRANCH   5   6
ENDBRANCH   4   5
ENDBRANCH   3   4
ENDBRANCH   2   3
ENDBRANCH   1   2
BRANCH   1  10
ATOM     10  C   UNL     1      28.368  -1.095   9.106  1.00  0.00     0.000 C 
BRANCH  10  11
ATOM     11  C   UNL     1      28.414  -1.664   7.680  1.00  0.00    -0.000 C 
BRANCH  11  12
ATOM     12  C   UNL     1      27.051  -2.234   7.271  1.00  0.00    -0.000 C 
BRANCH  12  13
ATOM     13  C   UNL     1      26.469  -1.467   6.074  1.00  0.00    -0.000 C 
BRANCH  13  14
ATOM     14  C   UNL     1      25.707  -0.198   6.508  1.00  0.00    -0.000 C 
BRANCH  14  15
ATOM     15  C   UNL     1      25.779   0.944   5.480  1.00  0.00    -0.003 C 
ATOM     16  C   UNL     1      27.018   0.871   4.591  1.00  0.00     0.004 C 
ENDBRANCH  14  15
ENDBRANCH  13  14
ENDBRANCH  12  13
ENDBRANCH  11  12
ENDBRANCH  10  11
ENDBRANCH   1  10
TORSDOF 12
ENDMDL
