MODEL 1
REMARK VINA RESULT:    -4.519      0.000      0.000
REMARK INTER + INTRA:          -7.747
REMARK INTER:                  -6.896
REMARK INTRA:                  -0.850
REMARK UNBOUND:                -0.850
REMARK SMILES O=C([O-])CCCCCCCCC(=O)[O-]
REMARK SMILES IDX 7 1 6 2 5 3 4 4 2 5 1 6 3 7 8 8 9 9 10 10 11 11 12 12 13 13
REMARK SMILES IDX 14 14
REMARK H PARENT
REMARK Flexibility Score: inf
ROOT
ATOM      1  C   UNL     1      -2.418 -49.010  17.737  1.00  0.00     0.000 C 
ENDROOT
BRANCH   1   2
ATOM      2  C   UNL     1      -3.685 -48.976  16.875  1.00  0.00     0.000 C 
BRANCH   2   3
ATOM      3  C   UNL     1      -4.936 -48.794  17.743  1.00  0.00     0.006 C 
BRANCH   3   4
ATOM      4  C   UNL     1      -4.559 -48.581  19.213  1.00  0.00     0.053 C 
BRANCH   4   5
ATOM      5  C   UNL     1      -4.878 -47.183  19.638  1.00  0.00     0.041 C 
ATOM      6  O   UNL     1      -4.735 -46.838  20.841  1.00  0.00    -0.550 OA
ATOM      7  O   UNL     1      -5.379 -46.273  18.715  1.00  0.00    -0.550 OA
ENDBRANCH   4   5
ENDBRANCH   3   4
ENDBRANCH   2   3
ENDBRANCH   1   2
BRANCH   1   8
ATOM      8  C   UNL     1      -1.481 -47.846  17.380  1.00  0.00     0.000 C 
BRANCH   8   9
ATOM      9  C   UNL     1      -1.587 -46.668  18.363  1.00  0.00     0.000 C 
BRANCH   9  10
ATOM     10  C   UNL     1      -2.119 -45.354  17.759  1.00  0.00     0.006 C 
BRANCH  10  11
ATOM     11  C   UNL     1      -1.742 -45.145  16.280  1.00  0.00     0.053 C 
BRANCH  11  12
ATOM     12  C   UNL     1      -2.946 -45.019  15.395  1.00  0.00     0.041 C 
ATOM     13  O   UNL     1      -3.423 -46.036  14.825  1.00  0.00    -0.550 OA
ATOM     14  O   UNL     1      -3.516 -43.773  15.164  1.00  0.00    -0.550 OA
ENDBRANCH  11  12
ENDBRANCH  10  11
ENDBRANCH   9  10
ENDBRANCH   8   9
ENDBRANCH   1   8
TORSDOF 9
ENDMDL
MODEL 2
REMARK VINA RESULT:    -4.476      0.687      4.590
REMARK INTER + INTRA:          -7.682
REMARK INTER:                  -6.661
REMARK INTRA:                  -1.021
REMARK UNBOUND:                -0.850
REMARK SMILES O=C([O-])CCCCCCCCC(=O)[O-]
REMARK SMILES IDX 7 1 6 2 5 3 4 4 2 5 1 6 3 7 8 8 9 9 10 10 11 11 12 12 13 13
REMARK SMILES IDX 14 14
REMARK H PARENT
REMARK Flexibility Score: inf
ROOT
ATOM      1  C   UNL     1      -1.546 -47.780  17.408  1.00  0.00     0.000 C 
ENDROOT
BRANCH   1   2
ATOM      2  C   UNL     1      -1.742 -46.688  18.465  1.00  0.00     0.000 C 
BRANCH   2   3
ATOM      3  C   UNL     1      -2.181 -45.369  17.819  1.00  0.00     0.006 C 
BRANCH   3   4
ATOM      4  C   UNL     1      -1.640 -45.250  16.391  1.00  0.00     0.053 C 
BRANCH   4   5
ATOM      5  C   UNL     1      -2.730 -44.841  15.450  1.00  0.00     0.041 C 
ATOM      6  O   UNL     1      -2.736 -43.684  14.953  1.00  0.00    -0.550 OA
ATOM      7  O   UNL     1      -3.764 -45.722  15.161  1.00  0.00    -0.550 OA
ENDBRANCH   4   5
ENDBRANCH   3   4
ENDBRANCH   2   3
ENDBRANCH   1   2
BRANCH   1   8
ATOM      8  C   UNL     1      -2.438 -48.996  17.704  1.00  0.00     0.000 C 
BRANCH   8   9
ATOM      9  C   UNL     1      -3.749 -48.989  16.899  1.00  0.00     0.000 C 
BRANCH   9  10
ATOM     10  C   UNL     1      -5.025 -48.742  17.725  1.00  0.00     0.006 C 
BRANCH  10  11
ATOM     11  C   UNL     1      -5.500 -47.277  17.726  1.00  0.00     0.053 C 
BRANCH  11  12
ATOM     12  C   UNL     1      -5.407 -46.646  19.083  1.00  0.00     0.041 C 
ATOM     13  O   UNL     1      -5.905 -45.508  19.288  1.00  0.00    -0.550 OA
ATOM     14  O   UNL     1      -4.734 -47.295  20.111  1.00  0.00    -0.550 OA
ENDBRANCH  11  12
ENDBRANCH  10  11
ENDBRANCH   9  10
ENDBRANCH   8   9
ENDBRANCH   1   8
TORSDOF 9
ENDMDL
MODEL 3
REMARK VINA RESULT:    -4.362      1.634      2.568
REMARK INTER + INTRA:          -7.507
REMARK INTER:                  -6.434
REMARK INTRA:                  -1.072
REMARK UNBOUND:                -0.850
REMARK SMILES O=C([O-])CCCCCCCCC(=O)[O-]
REMARK SMILES IDX 7 1 6 2 5 3 4 4 2 5 1 6 3 7 8 8 9 9 10 10 11 11 12 12 13 13
REMARK SMILES IDX 14 14
REMARK H PARENT
REMARK Flexibility Score: inf
ROOT
ATOM      1  C   UNL     1      -4.899 -48.672  17.808  1.00  0.00     0.000 C 
ENDROOT
BRANCH   1   2
ATOM      2  C   UNL     1      -4.437 -48.764  19.267  1.00  0.00     0.000 C 
BRANCH   2   3
ATOM      3  C   UNL     1      -4.664 -47.437  20.000  1.00  0.00     0.006 C 
BRANCH   3   4
ATOM      4  C   UNL     1      -5.424 -46.443  19.116  1.00  0.00     0.053 C 
BRANCH   4   5
ATOM      5  C   UNL     1      -5.713 -45.184  19.872  1.00  0.00     0.041 C 
ATOM      6  O   UNL     1      -4.925 -44.205  19.796  1.00  0.00    -0.550 OA
ATOM      7  O   UNL     1      -6.827 -45.111  20.697  1.00  0.00    -0.550 OA
ENDBRANCH   4   5
ENDBRANCH   3   4
ENDBRANCH   2   3
ENDBRANCH   1   2
BRANCH   1   8
ATOM      8  C   UNL     1      -3.729 -48.926  16.845  1.00  0.00     0.000 C 
BRANCH   8   9
ATOM      9  C   UNL     1      -2.373 -49.030  17.562  1.00  0.00     0.000 C 
BRANCH   9  10
ATOM     10  C   UNL     1      -1.378 -47.895  17.252  1.00  0.00     0.006 C 
BRANCH  10  11
ATOM     11  C   UNL     1      -1.987 -46.725  16.457  1.00  0.00     0.053 C 
BRANCH  11  12
ATOM     12  C   UNL     1      -2.399 -45.586  17.340  1.00  0.00     0.041 C 
ATOM     13  O   UNL     1      -2.021 -45.545  18.541  1.00  0.00    -0.550 OA
ATOM     14  O   UNL     1      -3.237 -44.591  16.852  1.00  0.00    -0.550 OA
ENDBRANCH  11  12
ENDBRANCH  10  11
ENDBRANCH   9  10
ENDBRANCH   8   9
ENDBRANCH   1   8
TORSDOF 9
ENDMDL
MODEL 4
REMARK VINA RESULT:    -4.283      1.703      4.142
REMARK INTER + INTRA:          -7.387
REMARK INTER:                  -6.479
REMARK INTRA:                  -0.908
REMARK UNBOUND:                -0.850
REMARK SMILES O=C([O-])CCCCCCCCC(=O)[O-]
REMARK SMILES IDX 7 1 6 2 5 3 4 4 2 5 1 6 3 7 8 8 9 9 10 10 11 11 12 12 13 13
REMARK SMILES IDX 14 14
REMARK H PARENT
REMARK Flexibility Score: inf
ROOT
ATOM      1  C   UNL     1      -3.616 -48.987  16.895  1.00  0.00     0.000 C 
ENDROOT
BRANCH   1   2
ATOM      2  C   UNL     1      -2.337 -49.013  17.740  1.00  0.00     0.000 C 
BRANCH   2   3
ATOM      3  C   UNL     1      -1.335 -47.959  17.253  1.00  0.00     0.006 C 
BRANCH   3   4
ATOM      4  C   UNL     1      -1.972 -47.034  16.211  1.00  0.00     0.053 C 
BRANCH   4   5
ATOM      5  C   UNL     1      -1.946 -45.615  16.684  1.00  0.00     0.041 C 
ATOM      6  O   UNL     1      -1.887 -44.671  15.851  1.00  0.00    -0.550 OA
ATOM      7  O   UNL     1      -1.937 -45.336  18.044  1.00  0.00    -0.550 OA
ENDBRANCH   4   5
ENDBRANCH   3   4
ENDBRANCH   2   3
ENDBRANCH   1   2
BRANCH   1   8
ATOM      8  C   UNL     1      -4.856 -48.799  17.782  1.00  0.00     0.000 C 
BRANCH   8   9
ATOM      9  C   UNL     1      -4.507 -48.607  19.268  1.00  0.00     0.000 C 
BRANCH   9  10
ATOM     10  C   UNL     1      -4.608 -47.159  19.785  1.00  0.00     0.006 C 
BRANCH  10  11
ATOM     11  C   UNL     1      -5.399 -46.215  18.860  1.00  0.00     0.053 C 
BRANCH  11  12
ATOM     12  C   UNL     1      -5.313 -44.783  19.295  1.00  0.00     0.041 C 
ATOM     13  O   UNL     1      -5.708 -44.444  20.441  1.00  0.00    -0.550 OA
ATOM     14  O   UNL     1      -4.836 -43.814  18.420  1.00  0.00    -0.550 OA
ENDBRANCH  11  12
ENDBRANCH  10  11
ENDBRANCH   9  10
ENDBRANCH   8   9
ENDBRANCH   1   8
TORSDOF 9
ENDMDL
MODEL 5
REMARK VINA RESULT:    -4.240      1.096      4.190
REMARK INTER + INTRA:          -7.321
REMARK INTER:                  -6.176
REMARK INTRA:                  -1.145
REMARK UNBOUND:                -0.850
REMARK SMILES O=C([O-])CCCCCCCCC(=O)[O-]
REMARK SMILES IDX 7 1 6 2 5 3 4 4 2 5 1 6 3 7 8 8 9 9 10 10 11 11 12 12 13 13
REMARK SMILES IDX 14 14
REMARK H PARENT
REMARK Flexibility Score: inf
ROOT
ATOM      1  C   UNL     1      -1.415 -47.811  17.006  1.00  0.00     0.000 C 
ENDROOT
BRANCH   1   2
ATOM      2  C   UNL     1      -1.611 -46.407  17.589  1.00  0.00     0.000 C 
BRANCH   2   3
ATOM      3  C   UNL     1      -1.825 -45.374  16.476  1.00  0.00     0.006 C 
BRANCH   3   4
ATOM      4  C   UNL     1      -3.025 -45.748  15.601  1.00  0.00     0.053 C 
BRANCH   4   5
ATOM      5  C   UNL     1      -4.285 -45.173  16.165  1.00  0.00     0.041 C 
ATOM      6  O   UNL     1      -4.234 -44.213  16.980  1.00  0.00    -0.550 OA
ATOM      7  O   UNL     1      -5.513 -45.726  15.828  1.00  0.00    -0.550 OA
ENDBRANCH   4   5
ENDBRANCH   3   4
ENDBRANCH   2   3
ENDBRANCH   1   2
BRANCH   1   8
ATOM      8  C   UNL     1      -2.289 -48.838  17.742  1.00  0.00     0.000 C 
BRANCH   8   9
ATOM      9  C   UNL     1      -3.652 -49.061  17.066  1.00  0.00     0.000 C 
BRANCH   9  10
ATOM     10  C   UNL     1      -4.870 -48.541  17.854  1.00  0.00     0.006 C 
BRANCH  10  11
ATOM     11  C   UNL     1      -4.557 -48.156  19.312  1.00  0.00     0.053 C 
BRANCH  11  12
ATOM     12  C   UNL     1      -4.780 -46.698  19.579  1.00  0.00     0.041 C 
ATOM     13  O   UNL     1      -3.862 -45.999  20.086  1.00  0.00    -0.550 OA
ATOM     14  O   UNL     1      -6.013 -46.118  19.310  1.00  0.00    -0.550 OA
ENDBRANCH  11  12
ENDBRANCH  10  11
ENDBRANCH   9  10
ENDBRANCH   8   9
ENDBRANCH   1   8
TORSDOF 9
ENDMDL
MODEL 6
REMARK VINA RESULT:    -4.172      1.856      3.220
REMARK INTER + INTRA:          -7.217
REMARK INTER:                  -6.161
REMARK INTRA:                  -1.056
REMARK UNBOUND:                -0.850
REMARK SMILES O=C([O-])CCCCCCCCC(=O)[O-]
REMARK SMILES IDX 7 1 6 2 5 3 4 4 2 5 1 6 3 7 8 8 9 9 10 10 11 11 12 12 13 13
REMARK SMILES IDX 14 14
REMARK H PARENT
REMARK Flexibility Score: inf
ROOT
ATOM      1  C   UNL     1      -4.328 -48.257  19.198  1.00  0.00     0.000 C 
ENDROOT
BRANCH   1   2
ATOM      2  C   UNL     1      -5.044 -48.426  17.854  1.00  0.00     0.000 C 
BRANCH   2   3
ATOM      3  C   UNL     1      -4.116 -49.061  16.812  1.00  0.00     0.006 C 
BRANCH   3   4
ATOM      4  C   UNL     1      -2.654 -48.992  17.263  1.00  0.00     0.053 C 
BRANCH   4   5
ATOM      5  C   UNL     1      -1.764 -48.658  16.108  1.00  0.00     0.041 C 
ATOM      6  O   UNL     1      -0.514 -48.616  16.262  1.00  0.00    -0.550 OA
ATOM      7  O   UNL     1      -2.317 -48.347  14.872  1.00  0.00    -0.550 OA
ENDBRANCH   4   5
ENDBRANCH   3   4
ENDBRANCH   2   3
ENDBRANCH   1   2
BRANCH   1   8
ATOM      8  C   UNL     1      -4.401 -46.800  19.679  1.00  0.00     0.000 C 
BRANCH   8   9
ATOM      9  C   UNL     1      -3.027 -46.109  19.713  1.00  0.00     0.000 C 
BRANCH   9  10
ATOM     10  C   UNL     1      -2.840 -44.968  18.695  1.00  0.00     0.006 C 
BRANCH  10  11
ATOM     11  C   UNL     1      -2.007 -45.357  17.460  1.00  0.00     0.053 C 
BRANCH  11  12
ATOM     12  C   UNL     1      -2.716 -45.056  16.174  1.00  0.00     0.041 C 
ATOM     13  O   UNL     1      -2.193 -44.281  15.329  1.00  0.00    -0.550 OA
ATOM     14  O   UNL     1      -3.972 -45.594  15.924  1.00  0.00    -0.550 OA
ENDBRANCH  11  12
ENDBRANCH  10  11
ENDBRANCH   9  10
ENDBRANCH   8   9
ENDBRANCH   1   8
TORSDOF 9
ENDMDL
MODEL 7
REMARK VINA RESULT:    -4.153      1.511      2.610
REMARK INTER + INTRA:          -7.189
REMARK INTER:                  -6.250
REMARK INTRA:                  -0.939
REMARK UNBOUND:                -0.850
REMARK SMILES O=C([O-])CCCCCCCCC(=O)[O-]
REMARK SMILES IDX 7 1 6 2 5 3 4 4 2 5 1 6 3 7 8 8 9 9 10 10 11 11 12 12 13 13
REMARK SMILES IDX 14 14
REMARK H PARENT
REMARK Flexibility Score: inf
ROOT
ATOM      1  C   UNL     1      -1.718 -46.704  18.467  1.00  0.00     0.000 C 
ENDROOT
BRANCH   1   2
ATOM      2  C   UNL     1      -1.484 -47.768  17.389  1.00  0.00     0.000 C 
BRANCH   2   3
ATOM      3  C   UNL     1      -2.341 -49.013  17.649  1.00  0.00     0.006 C 
BRANCH   3   4
ATOM      4  C   UNL     1      -3.709 -48.890  16.970  1.00  0.00     0.053 C 
BRANCH   4   5
ATOM      5  C   UNL     1      -4.755 -48.502  17.967  1.00  0.00     0.041 C 
ATOM      6  O   UNL     1      -5.652 -47.675  17.654  1.00  0.00    -0.550 OA
ATOM      7  O   UNL     1      -4.712 -49.018  19.255  1.00  0.00    -0.550 OA
ENDBRANCH   4   5
ENDBRANCH   3   4
ENDBRANCH   2   3
ENDBRANCH   1   2
BRANCH   1   8
ATOM      8  C   UNL     1      -2.155 -45.372  17.838  1.00  0.00     0.000 C 
BRANCH   8   9
ATOM      9  C   UNL     1      -1.717 -45.230  16.371  1.00  0.00     0.000 C 
BRANCH   9  10
ATOM     10  C   UNL     1      -2.780 -44.644  15.422  1.00  0.00     0.006 C 
BRANCH  10  11
ATOM     11  C   UNL     1      -3.891 -45.638  15.034  1.00  0.00     0.053 C 
BRANCH  11  12
ATOM     12  C   UNL     1      -5.264 -45.089  15.287  1.00  0.00     0.041 C 
ATOM     13  O   UNL     1      -6.183 -45.268  14.445  1.00  0.00    -0.550 OA
ATOM     14  O   UNL     1      -5.518 -44.343  16.431  1.00  0.00    -0.550 OA
ENDBRANCH  11  12
ENDBRANCH  10  11
ENDBRANCH   9  10
ENDBRANCH   8   9
ENDBRANCH   1   8
TORSDOF 9
ENDMDL
MODEL 8
REMARK VINA RESULT:    -4.148      1.300      2.049
REMARK INTER + INTRA:          -7.181
REMARK INTER:                  -6.020
REMARK INTRA:                  -1.161
REMARK UNBOUND:                -0.850
REMARK SMILES O=C([O-])CCCCCCCCC(=O)[O-]
REMARK SMILES IDX 7 1 6 2 5 3 4 4 2 5 1 6 3 7 8 8 9 9 10 10 11 11 12 12 13 13
REMARK SMILES IDX 14 14
REMARK H PARENT
REMARK Flexibility Score: inf
ROOT
ATOM      1  C   UNL     1      -3.681 -48.918  17.293  1.00  0.00     0.000 C 
ENDROOT
BRANCH   1   2
ATOM      2  C   UNL     1      -4.889 -48.624  18.190  1.00  0.00     0.000 C 
BRANCH   2   3
ATOM      3  C   UNL     1      -5.161 -47.117  18.269  1.00  0.00     0.006 C 
BRANCH   3   4
ATOM      4  C   UNL     1      -4.847 -46.574  19.666  1.00  0.00     0.053 C 
BRANCH   4   5
ATOM      5  C   UNL     1      -3.857 -45.455  19.584  1.00  0.00     0.041 C 
ATOM      6  O   UNL     1      -4.236 -44.296  19.268  1.00  0.00    -0.550 OA
ATOM      7  O   UNL     1      -2.510 -45.703  19.809  1.00  0.00    -0.550 OA
ENDBRANCH   4   5
ENDBRANCH   3   4
ENDBRANCH   2   3
ENDBRANCH   1   2
BRANCH   1   8
ATOM      8  C   UNL     1      -2.371 -48.826  18.090  1.00  0.00     0.000 C 
BRANCH   8   9
ATOM      9  C   UNL     1      -1.288 -48.003  17.372  1.00  0.00     0.000 C 
BRANCH   9  10
ATOM     10  C   UNL     1      -1.759 -47.260  16.107  1.00  0.00     0.006 C 
BRANCH  10  11
ATOM     11  C   UNL     1      -1.977 -45.749  16.310  1.00  0.00     0.053 C 
BRANCH  11  12
ATOM     12  C   UNL     1      -3.266 -45.271  15.712  1.00  0.00     0.041 C 
ATOM     13  O   UNL     1      -3.669 -44.098  15.929  1.00  0.00    -0.550 OA
ATOM     14  O   UNL     1      -4.046 -46.134  14.951  1.00  0.00    -0.550 OA
ENDBRANCH  11  12
ENDBRANCH  10  11
ENDBRANCH   9  10
ENDBRANCH   8   9
ENDBRANCH   1   8
TORSDOF 9
ENDMDL
MODEL 9
REMARK VINA RESULT:    -4.140      1.492      4.434
REMARK INTER + INTRA:          -7.168
REMARK INTER:                  -6.232
REMARK INTRA:                  -0.936
REMARK UNBOUND:                -0.850
REMARK SMILES O=C([O-])CCCCCCCCC(=O)[O-]
REMARK SMILES IDX 7 1 6 2 5 3 4 4 2 5 1 6 3 7 8 8 9 9 10 10 11 11 12 12 13 13
REMARK SMILES IDX 14 14
REMARK H PARENT
REMARK Flexibility Score: inf
ROOT
ATOM      1  C   UNL     1      -2.100 -45.274  17.772  1.00  0.00     0.000 C 
ENDROOT
BRANCH   1   2
ATOM      2  C   UNL     1      -1.644 -45.228  16.309  1.00  0.00     0.000 C 
BRANCH   2   3
ATOM      3  C   UNL     1      -2.730 -44.619  15.413  1.00  0.00     0.006 C 
BRANCH   3   4
ATOM      4  C   UNL     1      -3.830 -45.640  15.109  1.00  0.00     0.053 C 
BRANCH   4   5
ATOM      5  C   UNL     1      -5.179 -45.054  15.381  1.00  0.00     0.041 C 
ATOM      6  O   UNL     1      -5.375 -44.371  16.421  1.00  0.00    -0.550 OA
ATOM      7  O   UNL     1      -6.232 -45.303  14.511  1.00  0.00    -0.550 OA
ENDBRANCH   4   5
ENDBRANCH   3   4
ENDBRANCH   2   3
ENDBRANCH   1   2
BRANCH   1   8
ATOM      8  C   UNL     1      -1.762 -46.631  18.409  1.00  0.00     0.000 C 
BRANCH   8   9
ATOM      9  C   UNL     1      -1.469 -47.726  17.370  1.00  0.00     0.000 C 
BRANCH   9  10
ATOM     10  C   UNL     1      -2.271 -49.030  17.545  1.00  0.00     0.006 C 
BRANCH  10  11
ATOM     11  C   UNL     1      -3.695 -48.975  16.960  1.00  0.00     0.053 C 
BRANCH  11  12
ATOM     12  C   UNL     1      -4.712 -48.536  17.971  1.00  0.00     0.041 C 
ATOM     13  O   UNL     1      -5.575 -47.670  17.666  1.00  0.00    -0.550 OA
ATOM     14  O   UNL     1      -4.682 -49.049  19.262  1.00  0.00    -0.550 OA
ENDBRANCH  11  12
ENDBRANCH  10  11
ENDBRANCH   9  10
ENDBRANCH   8   9
ENDBRANCH   1   8
TORSDOF 9
ENDMDL
