MODEL 1
REMARK VINA RESULT:   -10.164      0.000      0.000
REMARK INTER + INTRA:         -12.233
REMARK INTER:                 -11.946
REMARK INTRA:                  -0.286
REMARK UNBOUND:                -0.286
REMARK SMILES O=c1cc(-c2ccc(O)c(O)c2)oc2cc(O)cc(O)c12
REMARK SMILES IDX 4 1 3 2 2 3 1 4 21 5 19 6 18 7 16 8 15 9 14 10 13 11 5 12
REMARK SMILES IDX 6 13 7 14 8 15 12 16 10 17 9 18 11 20 20 22 17 24
REMARK H PARENT 9 19 11 21 20 23 17 25
REMARK Flexibility Score: inf
ROOT
ATOM      1  C   UNL     1     118.990 120.079 114.906  1.00  0.00     0.138 A 
ATOM      2  C   UNL     1     119.337 121.212 115.654  1.00  0.00     0.100 A 
ATOM      3  C   UNL     1     119.680 121.072 116.999  1.00  0.00     0.197 A 
ATOM      4  O   UNL     1     120.046 122.098 117.629  1.00  0.00    -0.289 OA
ATOM      5  C   UNL     1     119.643 119.794 117.606  1.00  0.00     0.107 A 
ATOM      6  C   UNL     1     119.932 119.537 118.979  1.00  0.00     0.134 A 
ATOM      7  C   UNL     1     119.977 118.214 119.439  1.00  0.00     0.093 A 
ATOM      8  C   UNL     1     119.685 117.146 118.593  1.00  0.00     0.123 A 
ATOM      9  C   UNL     1     119.347 117.389 117.260  1.00  0.00     0.094 A 
ATOM     10  C   UNL     1     119.328 118.694 116.762  1.00  0.00     0.146 A 
ATOM     11  O   UNL     1     119.017 118.883 115.484  1.00  0.00    -0.456 OA
ENDROOT
BRANCH   1  12
ATOM     12  C   UNL     1     118.616 120.171 113.471  1.00  0.00     0.021 A 
ATOM     13  C   UNL     1     117.687 119.260 112.939  1.00  0.00     0.016 A 
ATOM     14  C   UNL     1     117.314 119.331 111.595  1.00  0.00     0.051 A 
ATOM     15  C   UNL     1     117.854 120.318 110.761  1.00  0.00     0.157 A 
ATOM     16  C   UNL     1     119.147 121.170 112.631  1.00  0.00     0.062 A 
ATOM     17  C   UNL     1     118.772 121.243 111.284  1.00  0.00     0.158 A 
BRANCH  15  18
ATOM     18  O   UNL     1     117.480 120.384 109.420  1.00  0.00    -0.504 OA
ATOM     19  H   UNL     1     118.154 120.260 108.674  1.00  0.00     0.293 HD
ENDBRANCH  15  18
BRANCH  17  20
ATOM     20  O   UNL     1     119.320 122.246 110.483  1.00  0.00    -0.504 OA
ATOM     21  H   UNL     1     119.942 122.037 109.711  1.00  0.00     0.293 HD
ENDBRANCH  17  20
ENDBRANCH   1  12
BRANCH   6  22
ATOM     22  O   UNL     1     120.155 120.537 119.930  1.00  0.00    -0.507 OA
ATOM     23  H   UNL     1     120.765 120.448 120.729  1.00  0.00     0.293 HD
ENDBRANCH   6  22
BRANCH   8  24
ATOM     24  O   UNL     1     119.724 115.845 119.088  1.00  0.00    -0.508 OA
ATOM     25  H   UNL     1     118.992 115.484 119.688  1.00  0.00     0.293 HD
ENDBRANCH   8  24
TORSDOF 5
ENDMDL
MODEL 2
REMARK VINA RESULT:   -10.162      2.390      3.743
REMARK INTER + INTRA:         -12.231
REMARK INTER:                 -11.944
REMARK INTRA:                  -0.287
REMARK UNBOUND:                -0.286
REMARK SMILES O=c1cc(-c2ccc(O)c(O)c2)oc2cc(O)cc(O)c12
REMARK SMILES IDX 4 1 3 2 2 3 1 4 21 5 19 6 18 7 16 8 15 9 14 10 13 11 5 12
REMARK SMILES IDX 6 13 7 14 8 15 12 16 10 17 9 18 11 20 20 22 17 24
REMARK H PARENT 9 19 11 21 20 23 17 25
REMARK Flexibility Score: inf
ROOT
ATOM      1  C   UNL     1     120.050 118.967 114.875  1.00  0.00     0.138 A 
ATOM      2  C   UNL     1     119.684 117.839 115.621  1.00  0.00     0.100 A 
ATOM      3  C   UNL     1     119.339 117.983 116.966  1.00  0.00     0.197 A 
ATOM      4  O   UNL     1     118.956 116.962 117.594  1.00  0.00    -0.289 OA
ATOM      5  C   UNL     1     119.392 119.260 117.573  1.00  0.00     0.107 A 
ATOM      6  C   UNL     1     119.102 119.521 118.945  1.00  0.00     0.134 A 
ATOM      7  C   UNL     1     119.075 120.844 119.406  1.00  0.00     0.093 A 
ATOM      8  C   UNL     1     119.385 121.908 118.561  1.00  0.00     0.123 A 
ATOM      9  C   UNL     1     119.723 121.660 117.230  1.00  0.00     0.094 A 
ATOM     10  C   UNL     1     119.725 120.356 116.731  1.00  0.00     0.146 A 
ATOM     11  O   UNL     1     120.038 120.164 115.454  1.00  0.00    -0.456 OA
ENDROOT
BRANCH   1  12
ATOM     12  C   UNL     1     120.427 118.870 113.442  1.00  0.00     0.021 A 
ATOM     13  C   UNL     1     121.359 119.778 112.909  1.00  0.00     0.016 A 
ATOM     14  C   UNL     1     121.735 119.703 111.566  1.00  0.00     0.051 A 
ATOM     15  C   UNL     1     121.196 118.715 110.734  1.00  0.00     0.157 A 
ATOM     16  C   UNL     1     119.897 117.870 112.603  1.00  0.00     0.062 A 
ATOM     17  C   UNL     1     120.275 117.792 111.258  1.00  0.00     0.158 A 
BRANCH  15  18
ATOM     18  O   UNL     1     121.573 118.644 109.394  1.00  0.00    -0.504 OA
ATOM     19  H   UNL     1     120.994 118.181 108.703  1.00  0.00     0.293 HD
ENDBRANCH  15  18
BRANCH  17  20
ATOM     20  O   UNL     1     119.728 116.788 110.458  1.00  0.00    -0.504 OA
ATOM     21  H   UNL     1     119.812 116.799 109.449  1.00  0.00     0.293 HD
ENDBRANCH  17  20
ENDBRANCH   1  12
BRANCH   6  22
ATOM     22  O   UNL     1     118.862 118.524 119.896  1.00  0.00    -0.507 OA
ATOM     23  H   UNL     1     119.240 118.514 120.830  1.00  0.00     0.293 HD
ENDBRANCH   6  22
BRANCH   8  24
ATOM     24  O   UNL     1     119.362 123.209 119.058  1.00  0.00    -0.508 OA
ATOM     25  H   UNL     1     119.018 123.983 118.502  1.00  0.00     0.293 HD
ENDBRANCH   8  24
TORSDOF 5
ENDMDL
MODEL 3
REMARK VINA RESULT:   -10.158      2.171      2.631
REMARK INTER + INTRA:         -12.226
REMARK INTER:                 -11.940
REMARK INTRA:                  -0.286
REMARK UNBOUND:                -0.286
REMARK SMILES O=c1cc(-c2ccc(O)c(O)c2)oc2cc(O)cc(O)c12
REMARK SMILES IDX 4 1 3 2 2 3 1 4 21 5 19 6 18 7 16 8 15 9 14 10 13 11 5 12
REMARK SMILES IDX 6 13 7 14 8 15 12 16 10 17 9 18 11 20 20 22 17 24
REMARK H PARENT 9 19 11 21 20 23 17 25
REMARK Flexibility Score: inf
ROOT
ATOM      1  C   UNL     1     118.942 118.980 114.896  1.00  0.00     0.138 A 
ATOM      2  C   UNL     1     117.813 119.318 115.653  1.00  0.00     0.100 A 
ATOM      3  C   UNL     1     117.959 119.649 117.001  1.00  0.00     0.197 A 
ATOM      4  O   UNL     1     116.936 120.007 117.640  1.00  0.00    -0.289 OA
ATOM      5  C   UNL     1     119.241 119.609 117.600  1.00  0.00     0.107 A 
ATOM      6  C   UNL     1     119.504 119.887 118.975  1.00  0.00     0.134 A 
ATOM      7  C   UNL     1     120.829 119.930 119.428  1.00  0.00     0.093 A 
ATOM      8  C   UNL     1     121.893 119.649 118.573  1.00  0.00     0.123 A 
ATOM      9  C   UNL     1     121.644 119.323 117.239  1.00  0.00     0.094 A 
ATOM     10  C   UNL     1     120.336 119.305 116.748  1.00  0.00     0.146 A 
ATOM     11  O   UNL     1     120.142 119.005 115.468  1.00  0.00    -0.456 OA
ENDROOT
BRANCH   1  12
ATOM     12  C   UNL     1     118.843 118.620 113.459  1.00  0.00     0.021 A 
ATOM     13  C   UNL     1     119.749 117.692 112.915  1.00  0.00     0.016 A 
ATOM     14  C   UNL     1     119.671 117.331 111.568  1.00  0.00     0.051 A 
ATOM     15  C   UNL     1     118.684 117.882 110.742  1.00  0.00     0.157 A 
ATOM     16  C   UNL     1     117.844 119.162 112.627  1.00  0.00     0.062 A 
ATOM     17  C   UNL     1     117.764 118.799 111.277  1.00  0.00     0.158 A 
BRANCH  15  18
ATOM     18  O   UNL     1     118.611 117.520 109.399  1.00  0.00    -0.504 OA
ATOM     19  H   UNL     1     119.252 116.848 108.994  1.00  0.00     0.293 HD
ENDBRANCH  15  18
BRANCH  17  20
ATOM     20  O   UNL     1     116.761 119.358 110.485  1.00  0.00    -0.504 OA
ATOM     21  H   UNL     1     116.510 120.337 110.546  1.00  0.00     0.293 HD
ENDBRANCH  17  20
ENDBRANCH   1  12
BRANCH   6  22
ATOM     22  O   UNL     1     118.509 120.098 119.934  1.00  0.00    -0.507 OA
ATOM     23  H   UNL     1     118.548 119.773 120.887  1.00  0.00     0.293 HD
ENDBRANCH   6  22
BRANCH   8  24
ATOM     24  O   UNL     1     123.197 119.687 119.063  1.00  0.00    -0.508 OA
ATOM     25  H   UNL     1     123.484 120.368 119.756  1.00  0.00     0.293 HD
ENDBRANCH   8  24
TORSDOF 5
ENDMDL
MODEL 4
REMARK VINA RESULT:   -10.135      2.207      2.677
REMARK INTER + INTRA:         -12.198
REMARK INTER:                 -11.912
REMARK INTRA:                  -0.286
REMARK UNBOUND:                -0.286
REMARK SMILES O=c1cc(-c2ccc(O)c(O)c2)oc2cc(O)cc(O)c12
REMARK SMILES IDX 4 1 3 2 2 3 1 4 21 5 19 6 18 7 16 8 15 9 14 10 13 11 5 12
REMARK SMILES IDX 6 13 7 14 8 15 12 16 10 17 9 18 11 20 20 22 17 24
REMARK H PARENT 9 19 11 21 20 23 17 25
REMARK Flexibility Score: inf
ROOT
ATOM      1  C   UNL     1     120.077 120.022 114.867  1.00  0.00     0.138 A 
ATOM      2  C   UNL     1     121.198 119.654 115.624  1.00  0.00     0.100 A 
ATOM      3  C   UNL     1     121.040 119.310 116.967  1.00  0.00     0.197 A 
ATOM      4  O   UNL     1     122.054 118.925 117.605  1.00  0.00    -0.289 OA
ATOM      5  C   UNL     1     119.757 119.364 117.562  1.00  0.00     0.107 A 
ATOM      6  C   UNL     1     119.483 119.075 118.932  1.00  0.00     0.134 A 
ATOM      7  C   UNL     1     118.156 119.050 119.380  1.00  0.00     0.093 A 
ATOM      8  C   UNL     1     117.100 119.361 118.525  1.00  0.00     0.123 A 
ATOM      9  C   UNL     1     117.361 119.699 117.196  1.00  0.00     0.094 A 
ATOM     10  C   UNL     1     118.671 119.699 116.710  1.00  0.00     0.146 A 
ATOM     11  O   UNL     1     118.875 120.012 115.435  1.00  0.00    -0.456 OA
ENDROOT
BRANCH   1  12
ATOM     12  C   UNL     1     120.188 120.398 113.435  1.00  0.00     0.021 A 
ATOM     13  C   UNL     1     119.308 121.356 112.902  1.00  0.00     0.016 A 
ATOM     14  C   UNL     1     119.397 121.732 111.559  1.00  0.00     0.051 A 
ATOM     15  C   UNL     1     120.372 121.167 110.729  1.00  0.00     0.157 A 
ATOM     16  C   UNL     1     121.176 119.843 112.598  1.00  0.00     0.062 A 
ATOM     17  C   UNL     1     121.268 120.221 111.254  1.00  0.00     0.158 A 
BRANCH  15  18
ATOM     18  O   UNL     1     120.458 121.545 109.390  1.00  0.00    -0.504 OA
ATOM     19  H   UNL     1     121.007 122.344 109.098  1.00  0.00     0.293 HD
ENDBRANCH  15  18
BRANCH  17  20
ATOM     20  O   UNL     1     122.259 119.648 110.456  1.00  0.00    -0.504 OA
ATOM     21  H   UNL     1     123.093 120.156 110.187  1.00  0.00     0.293 HD
ENDBRANCH  17  20
ENDBRANCH   1  12
BRANCH   6  22
ATOM     22  O   UNL     1     120.471 118.833 119.892  1.00  0.00    -0.507 OA
ATOM     23  H   UNL     1     120.717 117.923 120.250  1.00  0.00     0.293 HD
ENDBRANCH   6  22
BRANCH   8  24
ATOM     24  O   UNL     1     115.794 119.340 119.009  1.00  0.00    -0.508 OA
ATOM     25  H   UNL     1     115.340 118.474 119.271  1.00  0.00     0.293 HD
ENDBRANCH   8  24
TORSDOF 5
ENDMDL
MODEL 5
REMARK VINA RESULT:   -10.017      1.749      3.302
REMARK INTER + INTRA:         -12.060
REMARK INTER:                 -11.781
REMARK INTRA:                  -0.279
REMARK UNBOUND:                -0.286
REMARK SMILES O=c1cc(-c2ccc(O)c(O)c2)oc2cc(O)cc(O)c12
REMARK SMILES IDX 4 1 3 2 2 3 1 4 21 5 19 6 18 7 16 8 15 9 14 10 13 11 5 12
REMARK SMILES IDX 6 13 7 14 8 15 12 16 10 17 9 18 11 20 20 22 17 24
REMARK H PARENT 9 19 11 21 20 23 17 25
REMARK Flexibility Score: inf
ROOT
ATOM      1  C   UNL     1     119.000 118.862 115.120  1.00  0.00     0.138 A 
ATOM      2  C   UNL     1     119.264 117.776 115.965  1.00  0.00     0.100 A 
ATOM      3  C   UNL     1     119.527 118.002 117.317  1.00  0.00     0.197 A 
ATOM      4  O   UNL     1     119.700 117.003 118.064  1.00  0.00    -0.289 OA
ATOM      5  C   UNL     1     119.554 119.325 117.817  1.00  0.00     0.107 A 
ATOM      6  C   UNL     1     119.851 119.678 119.168  1.00  0.00     0.134 A 
ATOM      7  C   UNL     1     119.734 121.014 119.574  1.00  0.00     0.093 A 
ATOM      8  C   UNL     1     119.391 122.015 118.667  1.00  0.00     0.123 A 
ATOM      9  C   UNL     1     119.153 121.689 117.331  1.00  0.00     0.094 A 
ATOM     10  C   UNL     1     119.227 120.362 116.902  1.00  0.00     0.146 A 
ATOM     11  O   UNL     1     118.977 120.091 115.626  1.00  0.00    -0.456 OA
ENDROOT
BRANCH   1  12
ATOM     12  C   UNL     1     118.716 118.679 113.674  1.00  0.00     0.021 A 
ATOM     13  C   UNL     1     117.664 119.398 113.080  1.00  0.00     0.016 A 
ATOM     14  C   UNL     1     117.382 119.249 111.720  1.00  0.00     0.051 A 
ATOM     15  C   UNL     1     118.149 118.387 110.928  1.00  0.00     0.157 A 
ATOM     16  C   UNL     1     119.493 117.823 112.870  1.00  0.00     0.062 A 
ATOM     17  C   UNL     1     119.212 117.674 111.506  1.00  0.00     0.158 A 
BRANCH  15  18
ATOM     18  O   UNL     1     117.864 118.240 109.572  1.00  0.00    -0.504 OA
ATOM     19  H   UNL     1     118.534 117.837 108.928  1.00  0.00     0.293 HD
ENDBRANCH  15  18
BRANCH  17  20
ATOM     20  O   UNL     1     120.004 116.816 110.742  1.00  0.00    -0.504 OA
ATOM     21  H   UNL     1     120.744 116.260 111.153  1.00  0.00     0.293 HD
ENDBRANCH  17  20
ENDBRANCH   1  12
BRANCH   6  22
ATOM     22  O   UNL     1     120.285 118.767 120.136  1.00  0.00    -0.507 OA
ATOM     23  H   UNL     1     121.123 118.210 120.069  1.00  0.00     0.293 HD
ENDBRANCH   6  22
BRANCH   8  24
ATOM     24  O   UNL     1     119.299 123.335 119.103  1.00  0.00    -0.508 OA
ATOM     25  H   UNL     1     118.833 123.576 119.970  1.00  0.00     0.293 HD
ENDBRANCH   8  24
TORSDOF 5
ENDMDL
MODEL 6
REMARK VINA RESULT:    -9.777      1.745      1.964
REMARK INTER + INTRA:         -11.778
REMARK INTER:                 -11.502
REMARK INTRA:                  -0.277
REMARK UNBOUND:                -0.286
REMARK SMILES O=c1cc(-c2ccc(O)c(O)c2)oc2cc(O)cc(O)c12
REMARK SMILES IDX 4 1 3 2 2 3 1 4 21 5 19 6 18 7 16 8 15 9 14 10 13 11 5 12
REMARK SMILES IDX 6 13 7 14 8 15 12 16 10 17 9 18 11 20 20 22 17 24
REMARK H PARENT 9 19 11 21 20 23 17 25
REMARK Flexibility Score: inf
ROOT
ATOM      1  C   UNL     1     118.725 120.077 114.343  1.00  0.00     0.138 A 
ATOM      2  C   UNL     1     120.028 120.164 114.852  1.00  0.00     0.100 A 
ATOM      3  C   UNL     1     120.238 120.073 116.228  1.00  0.00     0.197 A 
ATOM      4  O   UNL     1     121.424 120.094 116.651  1.00  0.00    -0.289 OA
ATOM      5  C   UNL     1     119.134 119.926 117.101  1.00  0.00     0.107 A 
ATOM      6  C   UNL     1     119.226 119.865 118.524  1.00  0.00     0.134 A 
ATOM      7  C   UNL     1     118.075 119.601 119.278  1.00  0.00     0.093 A 
ATOM      8  C   UNL     1     116.830 119.456 118.668  1.00  0.00     0.123 A 
ATOM      9  C   UNL     1     116.721 119.569 117.281  1.00  0.00     0.094 A 
ATOM     10  C   UNL     1     117.854 119.797 116.498  1.00  0.00     0.146 A 
ATOM     11  O   UNL     1     117.710 119.883 115.180  1.00  0.00    -0.456 OA
ENDROOT
BRANCH   1  12
ATOM     12  C   UNL     1     118.444 120.168 112.888  1.00  0.00     0.021 A 
ATOM     13  C   UNL     1     117.587 119.228 112.290  1.00  0.00     0.016 A 
ATOM     14  C   UNL     1     117.301 119.296 110.924  1.00  0.00     0.051 A 
ATOM     15  C   UNL     1     117.857 120.309 110.134  1.00  0.00     0.157 A 
ATOM     16  C   UNL     1     118.991 121.193 112.091  1.00  0.00     0.062 A 
ATOM     17  C   UNL     1     118.703 121.264 110.723  1.00  0.00     0.158 A 
BRANCH  15  18
ATOM     18  O   UNL     1     117.570 120.374 108.772  1.00  0.00    -0.504 OA
ATOM     19  H   UNL     1     118.083 119.822 108.094  1.00  0.00     0.293 HD
ENDBRANCH  15  18
BRANCH  17  20
ATOM     20  O   UNL     1     119.265 122.293 109.966  1.00  0.00    -0.504 OA
ATOM     21  H   UNL     1     119.762 122.114 109.102  1.00  0.00     0.293 HD
ENDBRANCH  17  20
ENDBRANCH   1  12
BRANCH   6  22
ATOM     22  O   UNL     1     120.407 120.079 119.241  1.00  0.00    -0.507 OA
ATOM     23  H   UNL     1     121.163 119.417 119.318  1.00  0.00     0.293 HD
ENDBRANCH   6  22
BRANCH   8  24
ATOM     24  O   UNL     1     115.705 119.209 119.451  1.00  0.00    -0.508 OA
ATOM     25  H   UNL     1     115.033 118.493 119.203  1.00  0.00     0.293 HD
ENDBRANCH   8  24
TORSDOF 5
ENDMDL
MODEL 7
REMARK VINA RESULT:    -9.772      1.490      1.854
REMARK INTER + INTRA:         -11.772
REMARK INTER:                 -11.494
REMARK INTRA:                  -0.278
REMARK UNBOUND:                -0.286
REMARK SMILES O=c1cc(-c2ccc(O)c(O)c2)oc2cc(O)cc(O)c12
REMARK SMILES IDX 4 1 3 2 2 3 1 4 21 5 19 6 18 7 16 8 15 9 14 10 13 11 5 12
REMARK SMILES IDX 6 13 7 14 8 15 12 16 10 17 9 18 11 20 20 22 17 24
REMARK H PARENT 9 19 11 21 20 23 17 25
REMARK Flexibility Score: inf
ROOT
ATOM      1  C   UNL     1     119.078 119.034 114.687  1.00  0.00     0.138 A 
ATOM      2  C   UNL     1     119.439 120.309 115.144  1.00  0.00     0.100 A 
ATOM      3  C   UNL     1     119.747 120.497 116.492  1.00  0.00     0.197 A 
ATOM      4  O   UNL     1     120.127 121.639 116.861  1.00  0.00    -0.289 OA
ATOM      5  C   UNL     1     119.662 119.408 117.392  1.00  0.00     0.107 A 
ATOM      6  C   UNL     1     119.913 119.492 118.794  1.00  0.00     0.134 A 
ATOM      7  C   UNL     1     119.910 118.322 119.566  1.00  0.00     0.093 A 
ATOM      8  C   UNL     1     119.609 117.085 119.000  1.00  0.00     0.123 A 
ATOM      9  C   UNL     1     119.308 117.000 117.639  1.00  0.00     0.094 A 
ATOM     10  C   UNL     1     119.336 118.142 116.836  1.00  0.00     0.146 A 
ATOM     11  O   UNL     1     119.059 118.017 115.542  1.00  0.00    -0.456 OA
ENDROOT
BRANCH   1  12
ATOM     12  C   UNL     1     118.740 118.778 113.264  1.00  0.00     0.021 A 
ATOM     13  C   UNL     1     117.675 119.478 112.670  1.00  0.00     0.016 A 
ATOM     14  C   UNL     1     117.342 119.261 111.331  1.00  0.00     0.051 A 
ATOM     15  C   UNL     1     118.072 118.348 110.559  1.00  0.00     0.157 A 
ATOM     16  C   UNL     1     119.479 117.872 112.479  1.00  0.00     0.062 A 
ATOM     17  C   UNL     1     119.148 117.654 111.137  1.00  0.00     0.158 A 
BRANCH  15  18
ATOM     18  O   UNL     1     117.737 118.134 109.224  1.00  0.00    -0.504 OA
ATOM     19  H   UNL     1     117.035 117.454 108.955  1.00  0.00     0.293 HD
ENDBRANCH  15  18
BRANCH  17  20
ATOM     20  O   UNL     1     119.903 116.748 110.392  1.00  0.00    -0.504 OA
ATOM     21  H   UNL     1     120.120 115.820 110.735  1.00  0.00     0.293 HD
ENDBRANCH  17  20
ENDBRANCH   1  12
BRANCH   6  22
ATOM     22  O   UNL     1     120.141 120.690 119.477  1.00  0.00    -0.507 OA
ATOM     23  H   UNL     1     119.899 120.860 120.441  1.00  0.00     0.293 HD
ENDBRANCH   6  22
BRANCH   8  24
ATOM     24  O   UNL     1     119.601 115.946 119.801  1.00  0.00    -0.508 OA
ATOM     25  H   UNL     1     120.291 115.212 119.686  1.00  0.00     0.293 HD
ENDBRANCH   8  24
TORSDOF 5
ENDMDL
MODEL 8
REMARK VINA RESULT:    -9.764      1.868      3.349
REMARK INTER + INTRA:         -11.763
REMARK INTER:                 -11.482
REMARK INTRA:                  -0.282
REMARK UNBOUND:                -0.286
REMARK SMILES O=c1cc(-c2ccc(O)c(O)c2)oc2cc(O)cc(O)c12
REMARK SMILES IDX 4 1 3 2 2 3 1 4 21 5 19 6 18 7 16 8 15 9 14 10 13 11 5 12
REMARK SMILES IDX 6 13 7 14 8 15 12 16 10 17 9 18 11 20 20 22 17 24
REMARK H PARENT 9 19 11 21 20 23 17 25
REMARK Flexibility Score: inf
ROOT
ATOM      1  C   UNL     1     120.094 120.087 114.451  1.00  0.00     0.138 A 
ATOM      2  C   UNL     1     119.847 118.806 114.962  1.00  0.00     0.100 A 
ATOM      3  C   UNL     1     119.550 118.649 116.316  1.00  0.00     0.197 A 
ATOM      4  O   UNL     1     119.273 117.494 116.734  1.00  0.00    -0.289 OA
ATOM      5  C   UNL     1     119.531 119.778 117.169  1.00  0.00     0.107 A 
ATOM      6  C   UNL     1     119.280 119.733 118.572  1.00  0.00     0.134 A 
ATOM      7  C   UNL     1     119.172 120.929 119.293  1.00  0.00     0.093 A 
ATOM      8  C   UNL     1     119.363 122.163 118.674  1.00  0.00     0.123 A 
ATOM      9  C   UNL     1     119.663 122.217 117.312  1.00  0.00     0.094 A 
ATOM     10  C   UNL     1     119.743 121.043 116.558  1.00  0.00     0.146 A 
ATOM     11  O   UNL     1     120.015 121.138 115.261  1.00  0.00    -0.456 OA
ENDROOT
BRANCH   1  12
ATOM     12  C   UNL     1     120.415 120.311 113.019  1.00  0.00     0.021 A 
ATOM     13  C   UNL     1     121.499 119.630 112.439  1.00  0.00     0.016 A 
ATOM     14  C   UNL     1     121.817 119.818 111.091  1.00  0.00     0.051 A 
ATOM     15  C   UNL     1     121.053 120.682 110.297  1.00  0.00     0.157 A 
ATOM     16  C   UNL     1     119.642 121.170 112.212  1.00  0.00     0.062 A 
ATOM     17  C   UNL     1     119.959 121.358 110.862  1.00  0.00     0.158 A 
BRANCH  15  18
ATOM     18  O   UNL     1     121.374 120.868 108.954  1.00  0.00    -0.504 OA
ATOM     19  H   UNL     1     121.293 121.774 108.509  1.00  0.00     0.293 HD
ENDBRANCH  15  18
BRANCH  17  20
ATOM     20  O   UNL     1     119.170 122.217 110.095  1.00  0.00    -0.504 OA
ATOM     21  H   UNL     1     119.484 123.144 109.834  1.00  0.00     0.293 HD
ENDBRANCH  17  20
ENDBRANCH   1  12
BRANCH   6  22
ATOM     22  O   UNL     1     119.158 118.549 119.306  1.00  0.00    -0.507 OA
ATOM     23  H   UNL     1     119.435 118.435 120.269  1.00  0.00     0.293 HD
ENDBRANCH   6  22
BRANCH   8  24
ATOM     24  O   UNL     1     119.263 123.332 119.425  1.00  0.00    -0.508 OA
ATOM     25  H   UNL     1     120.064 123.724 119.906  1.00  0.00     0.293 HD
ENDBRANCH   8  24
TORSDOF 5
ENDMDL
MODEL 9
REMARK VINA RESULT:    -9.741      2.610      2.836
REMARK INTER + INTRA:         -11.735
REMARK INTER:                 -11.457
REMARK INTRA:                  -0.279
REMARK UNBOUND:                -0.286
REMARK SMILES O=c1cc(-c2ccc(O)c(O)c2)oc2cc(O)cc(O)c12
REMARK SMILES IDX 4 1 3 2 2 3 1 4 21 5 19 6 18 7 16 8 15 9 14 10 13 11 5 12
REMARK SMILES IDX 6 13 7 14 8 15 12 16 10 17 9 18 11 20 20 22 17 24
REMARK H PARENT 9 19 11 21 20 23 17 25
REMARK Flexibility Score: inf
ROOT
ATOM      1  C   UNL     1     119.982 119.045 114.648  1.00  0.00     0.138 A 
ATOM      2  C   UNL     1     118.694 119.370 115.093  1.00  0.00     0.100 A 
ATOM      3  C   UNL     1     118.481 119.653 116.443  1.00  0.00     0.197 A 
ATOM      4  O   UNL     1     117.326 120.001 116.802  1.00  0.00    -0.289 OA
ATOM      5  C   UNL     1     119.559 119.579 117.356  1.00  0.00     0.107 A 
ATOM      6  C   UNL     1     119.452 119.807 118.760  1.00  0.00     0.134 A 
ATOM      7  C   UNL     1     120.611 119.821 119.548  1.00  0.00     0.093 A 
ATOM      8  C   UNL     1     121.862 119.556 118.993  1.00  0.00     0.123 A 
ATOM      9  C   UNL     1     121.972 119.278 117.630  1.00  0.00     0.094 A 
ATOM     10  C   UNL     1     120.840 119.292 116.811  1.00  0.00     0.146 A 
ATOM     11  O   UNL     1     120.989 119.037 115.516  1.00  0.00    -0.456 OA
ENDROOT
BRANCH   1  12
ATOM     12  C   UNL     1     120.264 118.734 113.224  1.00  0.00     0.021 A 
ATOM     13  C   UNL     1     119.592 117.667 112.602  1.00  0.00     0.016 A 
ATOM     14  C   UNL     1     119.835 117.360 111.261  1.00  0.00     0.051 A 
ATOM     15  C   UNL     1     120.745 118.118 110.515  1.00  0.00     0.157 A 
ATOM     16  C   UNL     1     121.169 119.502 112.464  1.00  0.00     0.062 A 
ATOM     17  C   UNL     1     121.412 119.196 111.120  1.00  0.00     0.158 A 
BRANCH  15  18
ATOM     18  O   UNL     1     120.985 117.807 109.178  1.00  0.00    -0.504 OA
ATOM     19  H   UNL     1     121.862 118.041 108.727  1.00  0.00     0.293 HD
ENDBRANCH  15  18
BRANCH  17  20
ATOM     20  O   UNL     1     122.316 119.978 110.400  1.00  0.00    -0.504 OA
ATOM     21  H   UNL     1     122.420 119.893 109.396  1.00  0.00     0.293 HD
ENDBRANCH  17  20
ENDBRANCH   1  12
BRANCH   6  22
ATOM     22  O   UNL     1     118.239 119.998 119.430  1.00  0.00    -0.507 OA
ATOM     23  H   UNL     1     118.145 120.131 120.425  1.00  0.00     0.293 HD
ENDBRANCH   6  22
BRANCH   8  24
ATOM     24  O   UNL     1     122.991 119.563 119.809  1.00  0.00    -0.508 OA
ATOM     25  H   UNL     1     123.916 119.389 119.436  1.00  0.00     0.293 HD
ENDBRANCH   8  24
TORSDOF 5
ENDMDL
