MODEL 1
REMARK VINA RESULT:    -4.401      0.000      0.000
REMARK INTER + INTRA:          -5.096
REMARK INTER:                  -5.044
REMARK INTRA:                  -0.052
REMARK UNBOUND:                -0.052
REMARK SMILES O=C([O-])c1cc(O)c(O)c(O)c1
REMARK SMILES IDX 4 1 5 2 12 3 6 4 10 5 8 6 2 7 1 8 3 9 7 10 11 12 9 14
REMARK H PARENT 7 11 11 13 9 15
REMARK Flexibility Score: inf
ROOT
ATOM      1  C   UNL     1     103.257 137.723  59.947  1.00  0.00     0.005 A 
ATOM      2  C   UNL     1     104.612 137.622  60.304  1.00  0.00     0.060 A 
ATOM      3  C   UNL     1     102.690 136.730  59.128  1.00  0.00     0.060 A 
ATOM      4  C   UNL     1     105.390 136.548  59.851  1.00  0.00     0.162 A 
ATOM      5  C   UNL     1     103.466 135.653  58.673  1.00  0.00     0.162 A 
ATOM      6  C   UNL     1     104.820 135.563  59.036  1.00  0.00     0.200 A 
ENDROOT
BRANCH   1   7
ATOM      7  C   UNL     1     102.432 138.857  60.423  1.00  0.00     0.072 C 
ATOM      8  O   UNL     1     102.974 139.870  60.938  1.00  0.00    -0.545 OA
ATOM      9  O   UNL     1     101.048 138.818  60.307  1.00  0.00    -0.545 OA
ENDBRANCH   1   7
BRANCH   4  10
ATOM     10  O   UNL     1     106.734 136.453  60.207  1.00  0.00    -0.504 OA
ATOM     11  H   UNL     1     107.310 137.279  60.332  1.00  0.00     0.293 HD
ENDBRANCH   4  10
BRANCH   5  12
ATOM     12  O   UNL     1     102.894 134.675  57.862  1.00  0.00    -0.504 OA
ATOM     13  H   UNL     1     102.516 133.817  58.248  1.00  0.00     0.293 HD
ENDBRANCH   5  12
BRANCH   6  14
ATOM     14  O   UNL     1     105.611 134.501  58.595  1.00  0.00    -0.502 OA
ATOM     15  H   UNL     1     106.532 134.322  58.977  1.00  0.00     0.293 HD
ENDBRANCH   6  14
TORSDOF 4
ENDMDL
MODEL 2
REMARK VINA RESULT:    -4.375      0.096      2.594
REMARK INTER + INTRA:          -5.067
REMARK INTER:                  -5.015
REMARK INTRA:                  -0.052
REMARK UNBOUND:                -0.052
REMARK SMILES O=C([O-])c1cc(O)c(O)c(O)c1
REMARK SMILES IDX 4 1 5 2 12 3 6 4 10 5 8 6 2 7 1 8 3 9 7 10 11 12 9 14
REMARK H PARENT 7 11 11 13 9 15
REMARK Flexibility Score: inf
ROOT
ATOM      1  C   UNL     1     103.198 137.741  59.927  1.00  0.00     0.005 A 
ATOM      2  C   UNL     1     102.667 136.722  59.119  1.00  0.00     0.060 A 
ATOM      3  C   UNL     1     104.553 137.686  60.294  1.00  0.00     0.060 A 
ATOM      4  C   UNL     1     103.476 135.664  58.682  1.00  0.00     0.162 A 
ATOM      5  C   UNL     1     105.367 136.629  59.860  1.00  0.00     0.162 A 
ATOM      6  C   UNL     1     104.826 135.615  59.052  1.00  0.00     0.200 A 
ENDROOT
BRANCH   1   7
ATOM      7  C   UNL     1     102.345 138.860  60.389  1.00  0.00     0.072 C 
ATOM      8  O   UNL     1     101.090 138.754  60.381  1.00  0.00    -0.545 OA
ATOM      9  O   UNL     1     102.918 140.043  60.840  1.00  0.00    -0.545 OA
ENDBRANCH   1   7
BRANCH   4  10
ATOM     10  O   UNL     1     102.945 134.655  57.881  1.00  0.00    -0.504 OA
ATOM     11  H   UNL     1     103.184 133.680  58.027  1.00  0.00     0.293 HD
ENDBRANCH   4  10
BRANCH   5  12
ATOM     12  O   UNL     1     106.710 136.584  60.230  1.00  0.00    -0.504 OA
ATOM     13  H   UNL     1     107.145 137.340  60.747  1.00  0.00     0.293 HD
ENDBRANCH   5  12
BRANCH   6  14
ATOM     14  O   UNL     1     105.616 134.553  58.608  1.00  0.00    -0.502 OA
ATOM     15  H   UNL     1     105.388 134.026  57.774  1.00  0.00     0.293 HD
ENDBRANCH   6  14
TORSDOF 4
ENDMDL
MODEL 3
REMARK VINA RESULT:    -4.106      3.595      5.012
REMARK INTER + INTRA:          -4.758
REMARK INTER:                  -4.706
REMARK INTRA:                  -0.052
REMARK UNBOUND:                -0.052
REMARK SMILES O=C([O-])c1cc(O)c(O)c(O)c1
REMARK SMILES IDX 4 1 5 2 12 3 6 4 10 5 8 6 2 7 1 8 3 9 7 10 11 12 9 14
REMARK H PARENT 7 11 11 13 9 15
REMARK Flexibility Score: inf
ROOT
ATOM      1  C   UNL     1     107.779 138.466  57.514  1.00  0.00     0.005 A 
ATOM      2  C   UNL     1     106.973 138.797  58.615  1.00  0.00     0.060 A 
ATOM      3  C   UNL     1     107.969 137.112  57.188  1.00  0.00     0.060 A 
ATOM      4  C   UNL     1     106.364 137.792  59.380  1.00  0.00     0.162 A 
ATOM      5  C   UNL     1     107.362 136.103  57.950  1.00  0.00     0.162 A 
ATOM      6  C   UNL     1     106.557 136.445  59.049  1.00  0.00     0.200 A 
ENDROOT
BRANCH   1   7
ATOM      7  C   UNL     1     108.424 139.526  56.705  1.00  0.00     0.072 C 
ATOM      8  O   UNL     1     108.536 140.696  57.155  1.00  0.00    -0.545 OA
ATOM      9  O   UNL     1     108.914 139.242  55.435  1.00  0.00    -0.545 OA
ENDBRANCH   1   7
BRANCH   4  10
ATOM     10  O   UNL     1     105.564 138.125  60.472  1.00  0.00    -0.504 OA
ATOM     11  H   UNL     1     105.050 138.998  60.506  1.00  0.00     0.293 HD
ENDBRANCH   4  10
BRANCH   5  12
ATOM     12  O   UNL     1     107.558 134.764  57.618  1.00  0.00    -0.504 OA
ATOM     13  H   UNL     1     106.815 134.080  57.707  1.00  0.00     0.293 HD
ENDBRANCH   5  12
BRANCH   6  14
ATOM     14  O   UNL     1     105.943 135.459  59.823  1.00  0.00    -0.502 OA
ATOM     15  H   UNL     1     105.470 135.674  60.692  1.00  0.00     0.293 HD
ENDBRANCH   6  14
TORSDOF 4
ENDMDL
MODEL 4
REMARK VINA RESULT:    -4.085      3.581      5.025
REMARK INTER + INTRA:          -4.734
REMARK INTER:                  -4.690
REMARK INTRA:                  -0.045
REMARK UNBOUND:                -0.052
REMARK SMILES O=C([O-])c1cc(O)c(O)c(O)c1
REMARK SMILES IDX 4 1 5 2 12 3 6 4 10 5 8 6 2 7 1 8 3 9 7 10 11 12 9 14
REMARK H PARENT 7 11 11 13 9 15
REMARK Flexibility Score: inf
ROOT
ATOM      1  C   UNL     1     107.693 138.620  57.612  1.00  0.00     0.005 A 
ATOM      2  C   UNL     1     107.907 137.284  57.233  1.00  0.00     0.060 A 
ATOM      3  C   UNL     1     106.912 138.890  58.749  1.00  0.00     0.060 A 
ATOM      4  C   UNL     1     107.351 136.234  57.978  1.00  0.00     0.162 A 
ATOM      5  C   UNL     1     106.355 137.843  59.498  1.00  0.00     0.162 A 
ATOM      6  C   UNL     1     106.575 136.511  59.110  1.00  0.00     0.200 A 
ENDROOT
BRANCH   1   7
ATOM      7  C   UNL     1     108.278 139.730  56.827  1.00  0.00     0.072 C 
ATOM      8  O   UNL     1     109.464 140.101  57.029  1.00  0.00    -0.545 OA
ATOM      9  O   UNL     1     107.525 140.378  55.854  1.00  0.00    -0.545 OA
ENDBRANCH   1   7
BRANCH   4  10
ATOM     10  O   UNL     1     107.566 134.910  57.598  1.00  0.00    -0.504 OA
ATOM     11  H   UNL     1     108.427 134.621  57.147  1.00  0.00     0.293 HD
ENDBRANCH   4  10
BRANCH   5  12
ATOM     12  O   UNL     1     105.583 138.124  60.623  1.00  0.00    -0.504 OA
ATOM     13  H   UNL     1     105.300 137.396  61.270  1.00  0.00     0.293 HD
ENDBRANCH   5  12
BRANCH   6  14
ATOM     14  O   UNL     1     106.031 135.453  59.838  1.00  0.00    -0.502 OA
ATOM     15  H   UNL     1     105.165 135.003  59.567  1.00  0.00     0.293 HD
ENDBRANCH   6  14
TORSDOF 4
ENDMDL
MODEL 5
REMARK VINA RESULT:    -3.983      2.893      3.841
REMARK INTER + INTRA:          -4.617
REMARK INTER:                  -4.565
REMARK INTRA:                  -0.052
REMARK UNBOUND:                -0.052
REMARK SMILES O=C([O-])c1cc(O)c(O)c(O)c1
REMARK SMILES IDX 4 1 5 2 12 3 6 4 10 5 8 6 2 7 1 8 3 9 7 10 11 12 9 14
REMARK H PARENT 7 11 11 13 9 15
REMARK Flexibility Score: inf
ROOT
ATOM      1  C   UNL     1     106.506 139.053  59.279  1.00  0.00     0.005 A 
ATOM      2  C   UNL     1     106.108 137.854  59.893  1.00  0.00     0.060 A 
ATOM      3  C   UNL     1     107.265 138.996  58.097  1.00  0.00     0.060 A 
ATOM      4  C   UNL     1     106.460 136.617  59.337  1.00  0.00     0.162 A 
ATOM      5  C   UNL     1     107.620 137.760  57.536  1.00  0.00     0.162 A 
ATOM      6  C   UNL     1     107.216 136.567  58.159  1.00  0.00     0.200 A 
ENDROOT
BRANCH   1   7
ATOM      7  C   UNL     1     106.136 140.361  59.865  1.00  0.00     0.072 C 
ATOM      8  O   UNL     1     106.752 141.408  59.534  1.00  0.00    -0.545 OA
ATOM      9  O   UNL     1     105.101 140.451  60.788  1.00  0.00    -0.545 OA
ENDBRANCH   1   7
BRANCH   4  10
ATOM     10  O   UNL     1     106.063 135.430  59.950  1.00  0.00    -0.504 OA
ATOM     11  H   UNL     1     105.283 134.886  59.599  1.00  0.00     0.293 HD
ENDBRANCH   4  10
BRANCH   5  12
ATOM     12  O   UNL     1     108.372 137.715  56.364  1.00  0.00    -0.504 OA
ATOM     13  H   UNL     1     109.384 137.658  56.383  1.00  0.00     0.293 HD
ENDBRANCH   5  12
BRANCH   6  14
ATOM     14  O   UNL     1     107.557 135.326  57.620  1.00  0.00    -0.502 OA
ATOM     15  H   UNL     1     107.568 134.481  58.180  1.00  0.00     0.293 HD
ENDBRANCH   6  14
TORSDOF 4
ENDMDL
MODEL 6
REMARK VINA RESULT:    -3.957      2.884      3.666
REMARK INTER + INTRA:          -4.588
REMARK INTER:                  -4.540
REMARK INTRA:                  -0.048
REMARK UNBOUND:                -0.052
REMARK SMILES O=C([O-])c1cc(O)c(O)c(O)c1
REMARK SMILES IDX 4 1 5 2 12 3 6 4 10 5 8 6 2 7 1 8 3 9 7 10 11 12 9 14
REMARK H PARENT 7 11 11 13 9 15
REMARK Flexibility Score: inf
ROOT
ATOM      1  C   UNL     1     106.528 138.998  59.278  1.00  0.00     0.005 A 
ATOM      2  C   UNL     1     107.292 138.936  58.101  1.00  0.00     0.060 A 
ATOM      3  C   UNL     1     106.113 137.800  59.887  1.00  0.00     0.060 A 
ATOM      4  C   UNL     1     107.638 137.699  57.540  1.00  0.00     0.162 A 
ATOM      5  C   UNL     1     106.457 136.560  59.328  1.00  0.00     0.162 A 
ATOM      6  C   UNL     1     107.221 136.510  58.151  1.00  0.00     0.200 A 
ENDROOT
BRANCH   1   7
ATOM      7  C   UNL     1     106.161 140.303  59.874  1.00  0.00     0.072 C 
ATOM      8  O   UNL     1     107.025 141.207  60.015  1.00  0.00    -0.545 OA
ATOM      9  O   UNL     1     104.856 140.548  60.284  1.00  0.00    -0.545 OA
ENDBRANCH   1   7
BRANCH   4  10
ATOM     10  O   UNL     1     108.396 137.643  56.371  1.00  0.00    -0.504 OA
ATOM     11  H   UNL     1     108.357 138.383  55.678  1.00  0.00     0.293 HD
ENDBRANCH   4  10
BRANCH   5  12
ATOM     12  O   UNL     1     106.040 135.380  59.940  1.00  0.00    -0.504 OA
ATOM     13  H   UNL     1     105.094 135.264  60.286  1.00  0.00     0.293 HD
ENDBRANCH   5  12
BRANCH   6  14
ATOM     14  O   UNL     1     107.575 135.289  57.577  1.00  0.00    -0.502 OA
ATOM     15  H   UNL     1     107.465 134.411  58.069  1.00  0.00     0.293 HD
ENDBRANCH   6  14
TORSDOF 4
ENDMDL
MODEL 7
REMARK VINA RESULT:    -3.940      1.438      2.482
REMARK INTER + INTRA:          -4.568
REMARK INTER:                  -4.516
REMARK INTRA:                  -0.052
REMARK UNBOUND:                -0.052
REMARK SMILES O=C([O-])c1cc(O)c(O)c(O)c1
REMARK SMILES IDX 4 1 5 2 12 3 6 4 10 5 8 6 2 7 1 8 3 9 7 10 11 12 9 14
REMARK H PARENT 7 11 11 13 9 15
REMARK Flexibility Score: inf
ROOT
ATOM      1  C   UNL     1     103.336 136.775  59.548  1.00  0.00     0.005 A 
ATOM      2  C   UNL     1     104.016 137.893  60.060  1.00  0.00     0.060 A 
ATOM      3  C   UNL     1     104.080 135.686  59.063  1.00  0.00     0.060 A 
ATOM      4  C   UNL     1     105.417 137.923  60.090  1.00  0.00     0.162 A 
ATOM      5  C   UNL     1     105.482 135.711  59.091  1.00  0.00     0.162 A 
ATOM      6  C   UNL     1     106.152 136.833  59.606  1.00  0.00     0.200 A 
ENDROOT
BRANCH   1   7
ATOM      7  C   UNL     1     101.856 136.741  59.515  1.00  0.00     0.072 C 
ATOM      8  O   UNL     1     101.243 135.648  59.393  1.00  0.00    -0.545 OA
ATOM      9  O   UNL     1     101.122 137.917  59.619  1.00  0.00    -0.545 OA
ENDBRANCH   1   7
BRANCH   4  10
ATOM     10  O   UNL     1     106.087 139.034  60.599  1.00  0.00    -0.504 OA
ATOM     11  H   UNL     1     105.710 139.970  60.504  1.00  0.00     0.293 HD
ENDBRANCH   4  10
BRANCH   5  12
ATOM     12  O   UNL     1     106.210 134.625  58.608  1.00  0.00    -0.504 OA
ATOM     13  H   UNL     1     105.920 134.115  57.782  1.00  0.00     0.293 HD
ENDBRANCH   5  12
BRANCH   6  14
ATOM     14  O   UNL     1     107.546 136.882  59.644  1.00  0.00    -0.502 OA
ATOM     15  H   UNL     1     108.078 137.522  59.067  1.00  0.00     0.293 HD
ENDBRANCH   6  14
TORSDOF 4
ENDMDL
MODEL 8
REMARK VINA RESULT:    -3.884      1.707      2.855
REMARK INTER + INTRA:          -4.504
REMARK INTER:                  -4.455
REMARK INTRA:                  -0.049
REMARK UNBOUND:                -0.052
REMARK SMILES O=C([O-])c1cc(O)c(O)c(O)c1
REMARK SMILES IDX 4 1 5 2 12 3 6 4 10 5 8 6 2 7 1 8 3 9 7 10 11 12 9 14
REMARK H PARENT 7 11 11 13 9 15
REMARK Flexibility Score: inf
ROOT
ATOM      1  C   UNL     1     105.507 137.878  60.278  1.00  0.00     0.005 A 
ATOM      2  C   UNL     1     106.249 136.805  59.757  1.00  0.00     0.060 A 
ATOM      3  C   UNL     1     104.107 137.868  60.143  1.00  0.00     0.060 A 
ATOM      4  C   UNL     1     105.606 135.738  59.114  1.00  0.00     0.162 A 
ATOM      5  C   UNL     1     103.460 136.803  59.500  1.00  0.00     0.162 A 
ATOM      6  C   UNL     1     104.212 135.735  58.984  1.00  0.00     0.200 A 
ENDROOT
BRANCH   1   7
ATOM      7  C   UNL     1     106.183 139.005  60.958  1.00  0.00     0.072 C 
ATOM      8  O   UNL     1     105.730 139.466  62.038  1.00  0.00    -0.545 OA
ATOM      9  O   UNL     1     107.330 139.570  60.413  1.00  0.00    -0.545 OA
ENDBRANCH   1   7
BRANCH   4  10
ATOM     10  O   UNL     1     106.348 134.676  58.598  1.00  0.00    -0.504 OA
ATOM     11  H   UNL     1     106.982 134.140  59.181  1.00  0.00     0.293 HD
ENDBRANCH   4  10
BRANCH   5  12
ATOM     12  O   UNL     1     102.072 136.805  59.373  1.00  0.00    -0.504 OA
ATOM     13  H   UNL     1     101.465 136.621  60.163  1.00  0.00     0.293 HD
ENDBRANCH   5  12
BRANCH   6  14
ATOM     14  O   UNL     1     103.590 134.665  58.339  1.00  0.00    -0.502 OA
ATOM     15  H   UNL     1     103.370 133.802  58.820  1.00  0.00     0.293 HD
ENDBRANCH   6  14
TORSDOF 4
ENDMDL
MODEL 9
REMARK VINA RESULT:    -3.863      1.559      2.127
REMARK INTER + INTRA:          -4.480
REMARK INTER:                  -4.427
REMARK INTRA:                  -0.053
REMARK UNBOUND:                -0.052
REMARK SMILES O=C([O-])c1cc(O)c(O)c(O)c1
REMARK SMILES IDX 4 1 5 2 12 3 6 4 10 5 8 6 2 7 1 8 3 9 7 10 11 12 9 14
REMARK H PARENT 7 11 11 13 9 15
REMARK Flexibility Score: inf
ROOT
ATOM      1  C   UNL     1     105.114 138.039  60.180  1.00  0.00     0.005 A 
ATOM      2  C   UNL     1     106.488 138.062  59.889  1.00  0.00     0.060 A 
ATOM      3  C   UNL     1     104.349 136.932  59.774  1.00  0.00     0.060 A 
ATOM      4  C   UNL     1     107.091 136.998  59.204  1.00  0.00     0.162 A 
ATOM      5  C   UNL     1     104.947 135.864  59.088  1.00  0.00     0.162 A 
ATOM      6  C   UNL     1     106.322 135.898  58.802  1.00  0.00     0.200 A 
ENDROOT
BRANCH   1   7
ATOM      7  C   UNL     1     104.476 139.162  60.904  1.00  0.00     0.072 C 
ATOM      8  O   UNL     1     103.227 139.198  61.056  1.00  0.00    -0.545 OA
ATOM      9  O   UNL     1     105.249 140.192  61.427  1.00  0.00    -0.545 OA
ENDBRANCH   1   7
BRANCH   4  10
ATOM     10  O   UNL     1     108.454 137.026  58.917  1.00  0.00    -0.504 OA
ATOM     11  H   UNL     1     108.807 137.427  58.054  1.00  0.00     0.293 HD
ENDBRANCH   4  10
BRANCH   5  12
ATOM     12  O   UNL     1     104.178 134.773  58.690  1.00  0.00    -0.504 OA
ATOM     13  H   UNL     1     104.462 134.173  57.923  1.00  0.00     0.293 HD
ENDBRANCH   5  12
BRANCH   6  14
ATOM     14  O   UNL     1     106.939 134.849  58.120  1.00  0.00    -0.502 OA
ATOM     15  H   UNL     1     107.173 134.910  57.137  1.00  0.00     0.293 HD
ENDBRANCH   6  14
TORSDOF 4
ENDMDL
