MODEL 1
REMARK VINA RESULT:    -3.329      0.000      0.000
REMARK INTER + INTRA:         -11.634
REMARK INTER:                  -7.609
REMARK INTRA:                  -4.024
REMARK UNBOUND:                -4.024
REMARK SMILES CCCCCCCCCCCCCCCCCCCCCCCC(=O)[O-]
REMARK SMILES IDX 13 1 14 2 15 3 16 4 17 5 18 6 19 7 20 8 21 9 22 10 23 11
REMARK SMILES IDX 24 12 25 13 26 14 12 15 11 16 10 17 9 18 8 19 7 20 6 21 5 22
REMARK SMILES IDX 4 23 3 24 2 25 1 26
REMARK H PARENT
REMARK Flexibility Score: inf
ROOT
ATOM      1  C   UNL     1       3.334 108.873 180.488  1.00  0.00     0.000 C 
ENDROOT
BRANCH   1   2
ATOM      2  C   UNL     1       2.605 108.918 181.842  1.00  0.00     0.000 C 
BRANCH   2   3
ATOM      3  C   UNL     1       3.229 107.975 182.887  1.00  0.00     0.000 C 
BRANCH   3   4
ATOM      4  C   UNL     1       4.132 106.866 182.312  1.00  0.00     0.000 C 
BRANCH   4   5
ATOM      5  C   UNL     1       5.562 106.826 182.887  1.00  0.00     0.000 C 
BRANCH   5   6
ATOM      6  C   UNL     1       6.643 107.468 181.993  1.00  0.00     0.000 C 
BRANCH   6   7
ATOM      7  C   UNL     1       6.746 109.000 182.100  1.00  0.00     0.000 C 
BRANCH   7   8
ATOM      8  C   UNL     1       7.108 109.474 183.518  1.00  0.00     0.000 C 
BRANCH   8   9
ATOM      9  C   UNL     1       5.939 110.185 184.218  1.00  0.00     0.000 C 
BRANCH   9  10
ATOM     10  C   UNL     1       5.527 111.486 183.504  1.00  0.00     0.006 C 
BRANCH  10  11
ATOM     11  C   UNL     1       4.032 111.786 183.666  1.00  0.00     0.053 C 
BRANCH  11  12
ATOM     12  C   UNL     1       3.799 113.093 184.360  1.00  0.00     0.041 C 
ATOM     13  O   UNL     1       4.738 113.925 184.478  1.00  0.00    -0.550 OA
ATOM     14  O   UNL     1       2.537 113.408 184.848  1.00  0.00    -0.550 OA
ENDBRANCH  11  12
ENDBRANCH  10  11
ENDBRANCH   9  10
ENDBRANCH   8   9
ENDBRANCH   7   8
ENDBRANCH   6   7
ENDBRANCH   5   6
ENDBRANCH   4   5
ENDBRANCH   3   4
ENDBRANCH   2   3
ENDBRANCH   1   2
BRANCH   1  15
ATOM     15  C   UNL     1       2.406 108.457 179.334  1.00  0.00     0.000 C 
BRANCH  15  16
ATOM     16  C   UNL     1       1.044 107.941 179.832  1.00  0.00     0.000 C 
BRANCH  16  17
ATOM     17  C   UNL     1       0.673 106.575 179.232  1.00  0.00     0.000 C 
BRANCH  17  18
ATOM     18  C   UNL     1       0.470 106.636 177.709  1.00  0.00    -0.000 C 
BRANCH  18  19
ATOM     19  C   UNL     1       1.052 105.413 176.978  1.00  0.00    -0.000 C 
BRANCH  19  20
ATOM     20  C   UNL     1       2.461 105.609 176.379  1.00  0.00    -0.000 C 
BRANCH  20  21
ATOM     21  C   UNL     1       3.496 104.541 176.779  1.00  0.00    -0.000 C 
BRANCH  21  22
ATOM     22  C   UNL     1       3.613 104.288 178.294  1.00  0.00    -0.000 C 
BRANCH  22  23
ATOM     23  C   UNL     1       4.226 105.471 179.075  1.00  0.00    -0.000 C 
BRANCH  23  24
ATOM     24  C   UNL     1       5.763 105.483 179.010  1.00  0.00    -0.000 C 
BRANCH  24  25
ATOM     25  C   UNL     1       6.303 106.448 177.942  1.00  0.00    -0.003 C 
ATOM     26  C   UNL     1       6.099 107.916 178.313  1.00  0.00     0.004 C 
ENDBRANCH  24  25
ENDBRANCH  23  24
ENDBRANCH  22  23
ENDBRANCH  21  22
ENDBRANCH  20  21
ENDBRANCH  19  20
ENDBRANCH  18  19
ENDBRANCH  17  18
ENDBRANCH  16  17
ENDBRANCH  15  16
ENDBRANCH   1  15
TORSDOF 22
ENDMDL
MODEL 2
REMARK VINA RESULT:    -3.289      2.107      3.421
REMARK INTER + INTRA:         -11.542
REMARK INTER:                  -8.070
REMARK INTRA:                  -3.472
REMARK UNBOUND:                -4.024
REMARK SMILES CCCCCCCCCCCCCCCCCCCCCCCC(=O)[O-]
REMARK SMILES IDX 13 1 14 2 15 3 16 4 17 5 18 6 19 7 20 8 21 9 22 10 23 11
REMARK SMILES IDX 24 12 25 13 26 14 12 15 11 16 10 17 9 18 8 19 7 20 6 21 5 22
REMARK SMILES IDX 4 23 3 24 2 25 1 26
REMARK H PARENT
REMARK Flexibility Score: inf
ROOT
ATOM      1  C   UNL     1       1.797 108.341 177.260  1.00  0.00     0.000 C 
ENDROOT
BRANCH   1   2
ATOM      2  C   UNL     1       3.042 109.115 177.727  1.00  0.00     0.000 C 
BRANCH   2   3
ATOM      3  C   UNL     1       3.909 108.311 178.713  1.00  0.00     0.000 C 
BRANCH   3   4
ATOM      4  C   UNL     1       3.973 108.882 180.144  1.00  0.00     0.000 C 
BRANCH   4   5
ATOM      5  C   UNL     1       3.078 108.162 181.173  1.00  0.00     0.000 C 
BRANCH   5   6
ATOM      6  C   UNL     1       3.741 106.969 181.892  1.00  0.00     0.000 C 
BRANCH   6   7
ATOM      7  C   UNL     1       5.278 106.941 181.817  1.00  0.00     0.000 C 
BRANCH   7   8
ATOM      8  C   UNL     1       5.942 106.974 183.205  1.00  0.00     0.000 C 
BRANCH   8   9
ATOM      9  C   UNL     1       5.622 108.261 183.980  1.00  0.00     0.000 C 
BRANCH   9  10
ATOM     10  C   UNL     1       5.960 109.532 183.180  1.00  0.00     0.006 C 
BRANCH  10  11
ATOM     11  C   UNL     1       5.352 110.791 183.810  1.00  0.00     0.053 C 
BRANCH  11  12
ATOM     12  C   UNL     1       4.166 111.282 183.037  1.00  0.00     0.041 C 
ATOM     13  O   UNL     1       3.008 111.183 183.521  1.00  0.00    -0.550 OA
ATOM     14  O   UNL     1       4.344 111.881 181.796  1.00  0.00    -0.550 OA
ENDBRANCH  11  12
ENDBRANCH  10  11
ENDBRANCH   9  10
ENDBRANCH   8   9
ENDBRANCH   7   8
ENDBRANCH   6   7
ENDBRANCH   5   6
ENDBRANCH   4   5
ENDBRANCH   3   4
ENDBRANCH   2   3
ENDBRANCH   1   2
BRANCH   1  15
ATOM     15  C   UNL     1       0.676 108.339 178.313  1.00  0.00     0.000 C 
BRANCH  15  16
ATOM     16  C   UNL     1       0.376 106.928 178.848  1.00  0.00     0.000 C 
BRANCH  16  17
ATOM     17  C   UNL     1       1.264 105.850 178.205  1.00  0.00     0.000 C 
BRANCH  17  18
ATOM     18  C   UNL     1       2.135 105.111 179.235  1.00  0.00    -0.000 C 
BRANCH  18  19
ATOM     19  C   UNL     1       3.489 104.660 178.659  1.00  0.00    -0.000 C 
BRANCH  19  20
ATOM     20  C   UNL     1       3.569 104.608 177.119  1.00  0.00    -0.000 C 
BRANCH  20  21
ATOM     21  C   UNL     1       4.969 104.857 176.528  1.00  0.00    -0.000 C 
BRANCH  21  22
ATOM     22  C   UNL     1       6.037 103.825 176.938  1.00  0.00    -0.000 C 
BRANCH  22  23
ATOM     23  C   UNL     1       5.548 102.362 176.861  1.00  0.00    -0.000 C 
BRANCH  23  24
ATOM     24  C   UNL     1       6.048 101.642 175.597  1.00  0.00    -0.000 C 
BRANCH  24  25
ATOM     25  C   UNL     1       4.967 101.539 174.509  1.00  0.00    -0.003 C 
ATOM     26  C   UNL     1       5.091 102.630 173.446  1.00  0.00     0.004 C 
ENDBRANCH  24  25
ENDBRANCH  23  24
ENDBRANCH  22  23
ENDBRANCH  21  22
ENDBRANCH  20  21
ENDBRANCH  19  20
ENDBRANCH  18  19
ENDBRANCH  17  18
ENDBRANCH  16  17
ENDBRANCH  15  16
ENDBRANCH   1  15
TORSDOF 22
ENDMDL
MODEL 3
REMARK VINA RESULT:    -3.258      4.475      8.691
REMARK INTER + INTRA:         -11.472
REMARK INTER:                  -8.215
REMARK INTRA:                  -3.257
REMARK UNBOUND:                -4.024
REMARK SMILES CCCCCCCCCCCCCCCCCCCCCCCC(=O)[O-]
REMARK SMILES IDX 13 1 14 2 15 3 16 4 17 5 18 6 19 7 20 8 21 9 22 10 23 11
REMARK SMILES IDX 24 12 25 13 26 14 12 15 11 16 10 17 9 18 8 19 7 20 6 21 5 22
REMARK SMILES IDX 4 23 3 24 2 25 1 26
REMARK H PARENT
REMARK Flexibility Score: inf
ROOT
ATOM      1  C   UNL     1       3.640 107.652 179.101  1.00  0.00     0.000 C 
ENDROOT
BRANCH   1   2
ATOM      2  C   UNL     1       2.339 108.451 178.909  1.00  0.00     0.000 C 
BRANCH   2   3
ATOM      3  C   UNL     1       1.189 107.943 179.796  1.00  0.00     0.000 C 
BRANCH   3   4
ATOM      4  C   UNL     1       0.269 106.895 179.138  1.00  0.00     0.000 C 
BRANCH   4   5
ATOM      5  C   UNL     1       0.220 106.946 177.598  1.00  0.00     0.000 C 
BRANCH   5   6
ATOM      6  C   UNL     1       0.603 105.630 176.889  1.00  0.00     0.000 C 
BRANCH   6   7
ATOM      7  C   UNL     1       1.641 104.772 177.634  1.00  0.00     0.000 C 
BRANCH   7   8
ATOM      8  C   UNL     1       3.019 104.777 176.950  1.00  0.00     0.000 C 
BRANCH   8   9
ATOM      9  C   UNL     1       4.106 104.116 177.811  1.00  0.00     0.000 C 
BRANCH   9  10
ATOM     10  C   UNL     1       5.493 104.155 177.143  1.00  0.00     0.006 C 
BRANCH  10  11
ATOM     11  C   UNL     1       5.418 103.876 175.637  1.00  0.00     0.053 C 
BRANCH  11  12
ATOM     12  C   UNL     1       5.987 102.534 175.292  1.00  0.00     0.041 C 
ATOM     13  O   UNL     1       6.457 102.320 174.143  1.00  0.00    -0.550 OA
ATOM     14  O   UNL     1       6.030 101.528 176.250  1.00  0.00    -0.550 OA
ENDBRANCH  11  12
ENDBRANCH  10  11
ENDBRANCH   9  10
ENDBRANCH   8   9
ENDBRANCH   7   8
ENDBRANCH   6   7
ENDBRANCH   5   6
ENDBRANCH   4   5
ENDBRANCH   3   4
ENDBRANCH   2   3
ENDBRANCH   1   2
BRANCH   1  15
ATOM     15  C   UNL     1       3.596 106.745 180.342  1.00  0.00     0.000 C 
BRANCH  15  16
ATOM     16  C   UNL     1       4.989 106.523 180.957  1.00  0.00     0.000 C 
BRANCH  16  17
ATOM     17  C   UNL     1       4.986 106.649 182.489  1.00  0.00     0.000 C 
BRANCH  17  18
ATOM     18  C   UNL     1       5.022 108.112 182.962  1.00  0.00    -0.000 C 
BRANCH  18  19
ATOM     19  C   UNL     1       3.620 108.701 183.195  1.00  0.00    -0.000 C 
BRANCH  19  20
ATOM     20  C   UNL     1       3.319 110.012 182.440  1.00  0.00    -0.000 C 
BRANCH  20  21
ATOM     21  C   UNL     1       4.406 110.457 181.443  1.00  0.00    -0.000 C 
BRANCH  21  22
ATOM     22  C   UNL     1       5.345 111.564 181.960  1.00  0.00    -0.000 C 
BRANCH  22  23
ATOM     23  C   UNL     1       4.607 112.850 182.394  1.00  0.00    -0.000 C 
BRANCH  23  24
ATOM     24  C   UNL     1       5.214 113.475 183.661  1.00  0.00    -0.000 C 
BRANCH  24  25
ATOM     25  C   UNL     1       4.418 113.130 184.931  1.00  0.00    -0.003 C 
ATOM     26  C   UNL     1       2.910 113.092 184.693  1.00  0.00     0.004 C 
ENDBRANCH  24  25
ENDBRANCH  23  24
ENDBRANCH  22  23
ENDBRANCH  21  22
ENDBRANCH  20  21
ENDBRANCH  19  20
ENDBRANCH  18  19
ENDBRANCH  17  18
ENDBRANCH  16  17
ENDBRANCH  15  16
ENDBRANCH   1  15
TORSDOF 22
ENDMDL
MODEL 4
REMARK VINA RESULT:    -3.250      4.334      8.141
REMARK INTER + INTRA:         -11.454
REMARK INTER:                  -7.418
REMARK INTRA:                  -4.036
REMARK UNBOUND:                -4.024
REMARK SMILES CCCCCCCCCCCCCCCCCCCCCCCC(=O)[O-]
REMARK SMILES IDX 13 1 14 2 15 3 16 4 17 5 18 6 19 7 20 8 21 9 22 10 23 11
REMARK SMILES IDX 24 12 25 13 26 14 12 15 11 16 10 17 9 18 8 19 7 20 6 21 5 22
REMARK SMILES IDX 4 23 3 24 2 25 1 26
REMARK H PARENT
REMARK Flexibility Score: inf
ROOT
ATOM      1  C   UNL     1       6.012 107.905 179.276  1.00  0.00     0.000 C 
ENDROOT
BRANCH   1   2
ATOM      2  C   UNL     1       5.474 109.328 179.045  1.00  0.00     0.000 C 
BRANCH   2   3
ATOM      3  C   UNL     1       3.939 109.405 179.118  1.00  0.00     0.000 C 
BRANCH   3   4
ATOM      4  C   UNL     1       3.195 108.153 178.611  1.00  0.00     0.000 C 
BRANCH   4   5
ATOM      5  C   UNL     1       1.892 107.819 179.363  1.00  0.00     0.000 C 
BRANCH   5   6
ATOM      6  C   UNL     1       1.308 106.422 179.067  1.00  0.00     0.000 C 
BRANCH   6   7
ATOM      7  C   UNL     1       2.225 105.244 179.443  1.00  0.00     0.000 C 
BRANCH   7   8
ATOM      8  C   UNL     1       2.835 104.550 178.213  1.00  0.00     0.000 C 
BRANCH   8   9
ATOM      9  C   UNL     1       4.365 104.683 178.160  1.00  0.00     0.000 C 
BRANCH   9  10
ATOM     10  C   UNL     1       4.932 104.423 176.753  1.00  0.00     0.006 C 
BRANCH  10  11
ATOM     11  C   UNL     1       6.310 103.751 176.799  1.00  0.00     0.053 C 
BRANCH  11  12
ATOM     12  C   UNL     1       6.210 102.266 176.632  1.00  0.00     0.041 C 
ATOM     13  O   UNL     1       5.419 101.774 175.783  1.00  0.00    -0.550 OA
ATOM     14  O   UNL     1       7.014 101.423 177.390  1.00  0.00    -0.550 OA
ENDBRANCH  11  12
ENDBRANCH  10  11
ENDBRANCH   9  10
ENDBRANCH   8   9
ENDBRANCH   7   8
ENDBRANCH   6   7
ENDBRANCH   5   6
ENDBRANCH   4   5
ENDBRANCH   3   4
ENDBRANCH   2   3
ENDBRANCH   1   2
BRANCH   1  15
ATOM     15  C   UNL     1       6.313 107.623 180.757  1.00  0.00     0.000 C 
BRANCH  15  16
ATOM     16  C   UNL     1       5.664 106.317 181.250  1.00  0.00     0.000 C 
BRANCH  16  17
ATOM     17  C   UNL     1       4.294 106.548 181.906  1.00  0.00     0.000 C 
BRANCH  17  18
ATOM     18  C   UNL     1       4.250 107.838 182.743  1.00  0.00    -0.000 C 
BRANCH  18  19
ATOM     19  C   UNL     1       2.824 108.388 182.922  1.00  0.00    -0.000 C 
BRANCH  19  20
ATOM     20  C   UNL     1       2.715 109.925 183.020  1.00  0.00    -0.000 C 
BRANCH  20  21
ATOM     21  C   UNL     1       3.940 110.701 182.501  1.00  0.00    -0.000 C 
BRANCH  21  22
ATOM     22  C   UNL     1       4.318 111.943 183.330  1.00  0.00    -0.000 C 
BRANCH  22  23
ATOM     23  C   UNL     1       5.605 111.764 184.165  1.00  0.00    -0.000 C 
BRANCH  23  24
ATOM     24  C   UNL     1       6.487 110.616 183.643  1.00  0.00    -0.000 C 
BRANCH  24  25
ATOM     25  C   UNL     1       6.764 109.550 184.715  1.00  0.00    -0.003 C 
ATOM     26  C   UNL     1       7.615 108.393 184.193  1.00  0.00     0.004 C 
ENDBRANCH  24  25
ENDBRANCH  23  24
ENDBRANCH  22  23
ENDBRANCH  21  22
ENDBRANCH  20  21
ENDBRANCH  19  20
ENDBRANCH  18  19
ENDBRANCH  17  18
ENDBRANCH  16  17
ENDBRANCH  15  16
ENDBRANCH   1  15
TORSDOF 22
ENDMDL
MODEL 5
REMARK VINA RESULT:    -3.219      2.323      5.421
REMARK INTER + INTRA:         -11.384
REMARK INTER:                  -7.584
REMARK INTRA:                  -3.800
REMARK UNBOUND:                -4.024
REMARK SMILES CCCCCCCCCCCCCCCCCCCCCCCC(=O)[O-]
REMARK SMILES IDX 13 1 14 2 15 3 16 4 17 5 18 6 19 7 20 8 21 9 22 10 23 11
REMARK SMILES IDX 24 12 25 13 26 14 12 15 11 16 10 17 9 18 8 19 7 20 6 21 5 22
REMARK SMILES IDX 4 23 3 24 2 25 1 26
REMARK H PARENT
REMARK Flexibility Score: inf
ROOT
ATOM      1  C   UNL     1       7.056 109.978 181.111  1.00  0.00     0.000 C 
ENDROOT
BRANCH   1   2
ATOM      2  C   UNL     1       5.695 109.857 180.406  1.00  0.00     0.000 C 
BRANCH   2   3
ATOM      3  C   UNL     1       4.741 111.016 180.746  1.00  0.00     0.000 C 
BRANCH   3   4
ATOM      4  C   UNL     1       5.073 111.777 182.046  1.00  0.00     0.000 C 
BRANCH   4   5
ATOM      5  C   UNL     1       4.158 111.451 183.244  1.00  0.00     0.000 C 
BRANCH   5   6
ATOM      6  C   UNL     1       4.308 112.396 184.453  1.00  0.00     0.000 C 
BRANCH   6   7
ATOM      7  C   UNL     1       3.104 113.320 184.707  1.00  0.00     0.000 C 
BRANCH   7   8
ATOM      8  C   UNL     1       3.213 114.660 183.958  1.00  0.00     0.000 C 
BRANCH   8   9
ATOM      9  C   UNL     1       4.666 115.144 183.827  1.00  0.00     0.000 C 
BRANCH   9  10
ATOM     10  C   UNL     1       5.034 115.524 182.382  1.00  0.00     0.006 C 
BRANCH  10  11
ATOM     11  C   UNL     1       3.886 115.249 181.401  1.00  0.00     0.053 C 
BRANCH  11  12
ATOM     12  C   UNL     1       3.309 116.517 180.852  1.00  0.00     0.041 C 
ATOM     13  O   UNL     1       4.054 117.362 180.288  1.00  0.00    -0.550 OA
ATOM     14  O   UNL     1       1.942 116.753 180.934  1.00  0.00    -0.550 OA
ENDBRANCH  11  12
ENDBRANCH  10  11
ENDBRANCH   9  10
ENDBRANCH   8   9
ENDBRANCH   7   8
ENDBRANCH   6   7
ENDBRANCH   5   6
ENDBRANCH   4   5
ENDBRANCH   3   4
ENDBRANCH   2   3
ENDBRANCH   1   2
BRANCH   1  15
ATOM     15  C   UNL     1       7.384 108.747 181.973  1.00  0.00     0.000 C 
BRANCH  15  16
ATOM     16  C   UNL     1       6.949 108.924 183.439  1.00  0.00     0.000 C 
BRANCH  16  17
ATOM     17  C   UNL     1       5.811 107.970 183.838  1.00  0.00     0.000 C 
BRANCH  17  18
ATOM     18  C   UNL     1       5.565 106.873 182.789  1.00  0.00    -0.000 C 
BRANCH  18  19
ATOM     19  C   UNL     1       4.137 106.902 182.216  1.00  0.00    -0.000 C 
BRANCH  19  20
ATOM     20  C   UNL     1       3.229 108.025 182.760  1.00  0.00    -0.000 C 
BRANCH  20  21
ATOM     21  C   UNL     1       2.193 108.571 181.759  1.00  0.00    -0.000 C 
BRANCH  21  22
ATOM     22  C   UNL     1       2.403 108.121 180.301  1.00  0.00    -0.000 C 
BRANCH  22  23
ATOM     23  C   UNL     1       1.086 107.868 179.534  1.00  0.00    -0.000 C 
BRANCH  23  24
ATOM     24  C   UNL     1       1.008 106.444 178.958  1.00  0.00    -0.000 C 
BRANCH  24  25
ATOM     25  C   UNL     1       2.090 105.514 179.529  1.00  0.00    -0.003 C 
ATOM     26  C   UNL     1       2.842 104.743 178.445  1.00  0.00     0.004 C 
ENDBRANCH  24  25
ENDBRANCH  23  24
ENDBRANCH  22  23
ENDBRANCH  21  22
ENDBRANCH  20  21
ENDBRANCH  19  20
ENDBRANCH  18  19
ENDBRANCH  17  18
ENDBRANCH  16  17
ENDBRANCH  15  16
ENDBRANCH   1  15
TORSDOF 22
ENDMDL
MODEL 6
REMARK VINA RESULT:    -3.206      1.320      3.346
REMARK INTER + INTRA:         -11.353
REMARK INTER:                  -7.057
REMARK INTRA:                  -4.296
REMARK UNBOUND:                -4.024
REMARK SMILES CCCCCCCCCCCCCCCCCCCCCCCC(=O)[O-]
REMARK SMILES IDX 13 1 14 2 15 3 16 4 17 5 18 6 19 7 20 8 21 9 22 10 23 11
REMARK SMILES IDX 24 12 25 13 26 14 12 15 11 16 10 17 9 18 8 19 7 20 6 21 5 22
REMARK SMILES IDX 4 23 3 24 2 25 1 26
REMARK H PARENT
REMARK Flexibility Score: inf
ROOT
ATOM      1  C   UNL     1       4.630 105.497 179.585  1.00  0.00     0.000 C 
ENDROOT
BRANCH   1   2
ATOM      2  C   UNL     1       5.992 105.564 178.873  1.00  0.00     0.000 C 
BRANCH   2   3
ATOM      3  C   UNL     1       7.094 106.186 179.749  1.00  0.00     0.000 C 
BRANCH   3   4
ATOM      4  C   UNL     1       7.245 105.564 181.152  1.00  0.00     0.000 C 
BRANCH   4   5
ATOM      5  C   UNL     1       7.912 106.476 182.201  1.00  0.00     0.000 C 
BRANCH   5   6
ATOM      6  C   UNL     1       6.935 107.300 183.064  1.00  0.00     0.000 C 
BRANCH   6   7
ATOM      7  C   UNL     1       5.523 106.702 183.195  1.00  0.00     0.000 C 
BRANCH   7   8
ATOM      8  C   UNL     1       4.451 107.544 182.482  1.00  0.00     0.000 C 
BRANCH   8   9
ATOM      9  C   UNL     1       4.878 109.009 182.301  1.00  0.00     0.000 C 
BRANCH   9  10
ATOM     10  C   UNL     1       3.676 109.970 182.238  1.00  0.00     0.006 C 
BRANCH  10  11
ATOM     11  C   UNL     1       4.106 111.440 182.322  1.00  0.00     0.053 C 
BRANCH  11  12
ATOM     12  C   UNL     1       4.106 111.938 183.735  1.00  0.00     0.041 C 
ATOM     13  O   UNL     1       5.189 112.048 184.369  1.00  0.00    -0.550 OA
ATOM     14  O   UNL     1       2.914 112.313 184.342  1.00  0.00    -0.550 OA
ENDBRANCH  11  12
ENDBRANCH  10  11
ENDBRANCH   9  10
ENDBRANCH   8   9
ENDBRANCH   7   8
ENDBRANCH   6   7
ENDBRANCH   5   6
ENDBRANCH   4   5
ENDBRANCH   3   4
ENDBRANCH   2   3
ENDBRANCH   1   2
BRANCH   1  15
ATOM     15  C   UNL     1       3.593 104.679 178.797  1.00  0.00     0.000 C 
BRANCH  15  16
ATOM     16  C   UNL     1       3.839 104.726 177.279  1.00  0.00     0.000 C 
BRANCH  16  17
ATOM     17  C   UNL     1       2.589 105.146 176.489  1.00  0.00     0.000 C 
BRANCH  17  18
ATOM     18  C   UNL     1       1.288 104.907 177.274  1.00  0.00    -0.000 C 
BRANCH  18  19
ATOM     19  C   UNL     1       0.188 105.931 176.936  1.00  0.00    -0.000 C 
BRANCH  19  20
ATOM     20  C   UNL     1       0.091 107.136 177.895  1.00  0.00    -0.000 C 
BRANCH  20  21
ATOM     21  C   UNL     1       0.766 106.938 179.265  1.00  0.00    -0.000 C 
BRANCH  21  22
ATOM     22  C   UNL     1       1.850 107.977 179.609  1.00  0.00    -0.000 C 
BRANCH  22  23
ATOM     23  C   UNL     1       2.299 108.828 178.400  1.00  0.00    -0.000 C 
BRANCH  23  24
ATOM     24  C   UNL     1       3.666 108.388 177.848  1.00  0.00    -0.000 C 
BRANCH  24  25
ATOM     25  C   UNL     1       4.841 109.074 178.563  1.00  0.00    -0.003 C 
ATOM     26  C   UNL     1       4.664 110.588 178.675  1.00  0.00     0.004 C 
ENDBRANCH  24  25
ENDBRANCH  23  24
ENDBRANCH  22  23
ENDBRANCH  21  22
ENDBRANCH  20  21
ENDBRANCH  19  20
ENDBRANCH  18  19
ENDBRANCH  17  18
ENDBRANCH  16  17
ENDBRANCH  15  16
ENDBRANCH   1  15
TORSDOF 22
ENDMDL
MODEL 7
REMARK VINA RESULT:    -3.199      4.678      8.032
REMARK INTER + INTRA:         -11.337
REMARK INTER:                  -6.489
REMARK INTRA:                  -4.848
REMARK UNBOUND:                -4.024
REMARK SMILES CCCCCCCCCCCCCCCCCCCCCCCC(=O)[O-]
REMARK SMILES IDX 13 1 14 2 15 3 16 4 17 5 18 6 19 7 20 8 21 9 22 10 23 11
REMARK SMILES IDX 24 12 25 13 26 14 12 15 11 16 10 17 9 18 8 19 7 20 6 21 5 22
REMARK SMILES IDX 4 23 3 24 2 25 1 26
REMARK H PARENT
REMARK Flexibility Score: inf
ROOT
ATOM      1  C   UNL     1       1.792 105.523 178.970  1.00  0.00     0.000 C 
ENDROOT
BRANCH   1   2
ATOM      2  C   UNL     1       1.854 104.763 177.634  1.00  0.00     0.000 C 
BRANCH   2   3
ATOM      3  C   UNL     1       1.625 105.677 176.417  1.00  0.00     0.000 C 
BRANCH   3   4
ATOM      4  C   UNL     1       2.051 107.146 176.611  1.00  0.00     0.000 C 
BRANCH   4   5
ATOM      5  C   UNL     1       3.407 107.521 175.980  1.00  0.00     0.000 C 
BRANCH   5   6
ATOM      6  C   UNL     1       4.450 108.086 176.965  1.00  0.00     0.000 C 
BRANCH   6   7
ATOM      7  C   UNL     1       5.363 107.032 177.618  1.00  0.00     0.000 C 
BRANCH   7   8
ATOM      8  C   UNL     1       5.523 105.768 176.756  1.00  0.00     0.000 C 
BRANCH   8   9
ATOM      9  C   UNL     1       5.769 104.507 177.599  1.00  0.00     0.000 C 
BRANCH   9  10
ATOM     10  C   UNL     1       5.199 103.237 176.942  1.00  0.00     0.006 C 
BRANCH  10  11
ATOM     11  C   UNL     1       4.737 103.489 175.501  1.00  0.00     0.053 C 
BRANCH  11  12
ATOM     12  C   UNL     1       5.452 102.605 174.525  1.00  0.00     0.041 C 
ATOM     13  O   UNL     1       4.831 102.099 173.554  1.00  0.00    -0.550 OA
ATOM     14  O   UNL     1       6.814 102.368 174.669  1.00  0.00    -0.550 OA
ENDBRANCH  11  12
ENDBRANCH  10  11
ENDBRANCH   9  10
ENDBRANCH   8   9
ENDBRANCH   7   8
ENDBRANCH   6   7
ENDBRANCH   5   6
ENDBRANCH   4   5
ENDBRANCH   3   4
ENDBRANCH   2   3
ENDBRANCH   1   2
BRANCH   1  15
ATOM     15  C   UNL     1       2.932 105.129 179.925  1.00  0.00     0.000 C 
BRANCH  15  16
ATOM     16  C   UNL     1       3.451 106.324 180.744  1.00  0.00     0.000 C 
BRANCH  16  17
ATOM     17  C   UNL     1       2.836 107.660 180.297  1.00  0.00     0.000 C 
BRANCH  17  18
ATOM     18  C   UNL     1       2.475 108.570 181.483  1.00  0.00    -0.000 C 
BRANCH  18  19
ATOM     19  C   UNL     1       3.073 108.084 182.815  1.00  0.00    -0.000 C 
BRANCH  19  20
ATOM     20  C   UNL     1       4.392 108.767 183.236  1.00  0.00    -0.000 C 
BRANCH  20  21
ATOM     21  C   UNL     1       5.560 107.808 183.529  1.00  0.00    -0.000 C 
BRANCH  21  22
ATOM     22  C   UNL     1       6.833 108.065 182.699  1.00  0.00    -0.000 C 
BRANCH  22  23
ATOM     23  C   UNL     1       6.578 108.133 181.178  1.00  0.00    -0.000 C 
BRANCH  23  24
ATOM     24  C   UNL     1       6.811 109.543 180.607  1.00  0.00    -0.000 C 
BRANCH  24  25
ATOM     25  C   UNL     1       5.591 110.081 179.842  1.00  0.00    -0.003 C 
ATOM     26  C   UNL     1       4.908 111.244 180.559  1.00  0.00     0.004 C 
ENDBRANCH  24  25
ENDBRANCH  23  24
ENDBRANCH  22  23
ENDBRANCH  21  22
ENDBRANCH  20  21
ENDBRANCH  19  20
ENDBRANCH  18  19
ENDBRANCH  17  18
ENDBRANCH  16  17
ENDBRANCH  15  16
ENDBRANCH   1  15
TORSDOF 22
ENDMDL
MODEL 8
REMARK VINA RESULT:    -3.194      4.765      8.661
REMARK INTER + INTRA:         -11.326
REMARK INTER:                  -7.732
REMARK INTRA:                  -3.593
REMARK UNBOUND:                -4.024
REMARK SMILES CCCCCCCCCCCCCCCCCCCCCCCC(=O)[O-]
REMARK SMILES IDX 13 1 14 2 15 3 16 4 17 5 18 6 19 7 20 8 21 9 22 10 23 11
REMARK SMILES IDX 24 12 25 13 26 14 12 15 11 16 10 17 9 18 8 19 7 20 6 21 5 22
REMARK SMILES IDX 4 23 3 24 2 25 1 26
REMARK H PARENT
REMARK Flexibility Score: inf
ROOT
ATOM      1  C   UNL     1       2.964 104.744 179.194  1.00  0.00     0.000 C 
ENDROOT
BRANCH   1   2
ATOM      2  C   UNL     1       1.711 105.292 178.490  1.00  0.00     0.000 C 
BRANCH   2   3
ATOM      3  C   UNL     1       1.408 106.755 178.862  1.00  0.00     0.000 C 
BRANCH   3   4
ATOM      4  C   UNL     1       1.373 107.738 177.675  1.00  0.00     0.000 C 
BRANCH   4   5
ATOM      5  C   UNL     1       2.570 108.706 177.594  1.00  0.00     0.000 C 
BRANCH   5   6
ATOM      6  C   UNL     1       3.956 108.029 177.587  1.00  0.00     0.000 C 
BRANCH   6   7
ATOM      7  C   UNL     1       4.472 107.622 176.195  1.00  0.00     0.000 C 
BRANCH   7   8
ATOM      8  C   UNL     1       4.083 106.183 175.814  1.00  0.00     0.000 C 
BRANCH   8   9
ATOM      9  C   UNL     1       5.228 105.184 176.041  1.00  0.00     0.000 C 
BRANCH   9  10
ATOM     10  C   UNL     1       4.722 103.748 176.269  1.00  0.00     0.006 C 
BRANCH  10  11
ATOM     11  C   UNL     1       5.867 102.728 176.294  1.00  0.00     0.053 C 
BRANCH  11  12
ATOM     12  C   UNL     1       5.868 101.863 175.071  1.00  0.00     0.041 C 
ATOM     13  O   UNL     1       4.821 101.737 174.383  1.00  0.00    -0.550 OA
ATOM     14  O   UNL     1       7.035 101.223 174.672  1.00  0.00    -0.550 OA
ENDBRANCH  11  12
ENDBRANCH  10  11
ENDBRANCH   9  10
ENDBRANCH   8   9
ENDBRANCH   7   8
ENDBRANCH   6   7
ENDBRANCH   5   6
ENDBRANCH   4   5
ENDBRANCH   3   4
ENDBRANCH   2   3
ENDBRANCH   1   2
BRANCH   1  15
ATOM     15  C   UNL     1       3.472 105.679 180.304  1.00  0.00     0.000 C 
BRANCH  15  16
ATOM     16  C   UNL     1       5.003 105.835 180.285  1.00  0.00     0.000 C 
BRANCH  16  17
ATOM     17  C   UNL     1       5.488 107.017 181.139  1.00  0.00     0.000 C 
BRANCH  17  18
ATOM     18  C   UNL     1       5.982 106.579 182.528  1.00  0.00    -0.000 C 
BRANCH  18  19
ATOM     19  C   UNL     1       5.462 107.480 183.662  1.00  0.00    -0.000 C 
BRANCH  19  20
ATOM     20  C   UNL     1       6.428 108.595 184.117  1.00  0.00    -0.000 C 
BRANCH  20  21
ATOM     21  C   UNL     1       5.871 110.027 184.011  1.00  0.00    -0.000 C 
BRANCH  21  22
ATOM     22  C   UNL     1       5.730 110.561 182.573  1.00  0.00    -0.000 C 
BRANCH  22  23
ATOM     23  C   UNL     1       4.279 110.542 182.043  1.00  0.00    -0.000 C 
BRANCH  23  24
ATOM     24  C   UNL     1       3.243 110.720 183.166  1.00  0.00    -0.000 C 
BRANCH  24  25
ATOM     25  C   UNL     1       2.191 109.599 183.184  1.00  0.00    -0.003 C 
ATOM     26  C   UNL     1       2.287 108.678 181.969  1.00  0.00     0.004 C 
ENDBRANCH  24  25
ENDBRANCH  23  24
ENDBRANCH  22  23
ENDBRANCH  21  22
ENDBRANCH  20  21
ENDBRANCH  19  20
ENDBRANCH  18  19
ENDBRANCH  17  18
ENDBRANCH  16  17
ENDBRANCH  15  16
ENDBRANCH   1  15
TORSDOF 22
ENDMDL
MODEL 9
REMARK VINA RESULT:    -3.167      4.499      6.542
REMARK INTER + INTRA:         -11.265
REMARK INTER:                  -6.513
REMARK INTRA:                  -4.752
REMARK UNBOUND:                -4.024
REMARK SMILES CCCCCCCCCCCCCCCCCCCCCCCC(=O)[O-]
REMARK SMILES IDX 13 1 14 2 15 3 16 4 17 5 18 6 19 7 20 8 21 9 22 10 23 11
REMARK SMILES IDX 24 12 25 13 26 14 12 15 11 16 10 17 9 18 8 19 7 20 6 21 5 22
REMARK SMILES IDX 4 23 3 24 2 25 1 26
REMARK H PARENT
REMARK Flexibility Score: inf
ROOT
ATOM      1  C   UNL     1       4.601 110.692 180.665  1.00  0.00     0.000 C 
ENDROOT
BRANCH   1   2
ATOM      2  C   UNL     1       4.611 110.067 182.071  1.00  0.00     0.000 C 
BRANCH   2   3
ATOM      3  C   UNL     1       3.254 109.457 182.463  1.00  0.00     0.000 C 
BRANCH   3   4
ATOM      4  C   UNL     1       3.222 107.916 182.525  1.00  0.00     0.000 C 
BRANCH   4   5
ATOM      5  C   UNL     1       4.594 107.229 182.366  1.00  0.00     0.000 C 
BRANCH   5   6
ATOM      6  C   UNL     1       4.693 106.237 181.189  1.00  0.00     0.000 C 
BRANCH   6   7
ATOM      7  C   UNL     1       6.109 106.050 180.617  1.00  0.00     0.000 C 
BRANCH   7   8
ATOM      8  C   UNL     1       6.152 106.173 179.084  1.00  0.00     0.000 C 
BRANCH   8   9
ATOM      9  C   UNL     1       5.273 105.124 178.385  1.00  0.00     0.000 C 
BRANCH   9  10
ATOM     10  C   UNL     1       6.075 104.228 177.424  1.00  0.00     0.006 C 
BRANCH  10  11
ATOM     11  C   UNL     1       5.295 102.971 177.018  1.00  0.00     0.053 C 
BRANCH  11  12
ATOM     12  C   UNL     1       5.700 102.479 175.662  1.00  0.00     0.041 C 
ATOM     13  O   UNL     1       6.199 103.273 174.822  1.00  0.00    -0.550 OA
ATOM     14  O   UNL     1       5.558 101.135 175.338  1.00  0.00    -0.550 OA
ENDBRANCH  11  12
ENDBRANCH  10  11
ENDBRANCH   9  10
ENDBRANCH   8   9
ENDBRANCH   7   8
ENDBRANCH   6   7
ENDBRANCH   5   6
ENDBRANCH   4   5
ENDBRANCH   3   4
ENDBRANCH   2   3
ENDBRANCH   1   2
BRANCH   1  15
ATOM     15  C   UNL     1       4.895 109.662 179.561  1.00  0.00     0.000 C 
BRANCH  15  16
ATOM     16  C   UNL     1       3.700 109.461 178.613  1.00  0.00     0.000 C 
BRANCH  16  17
ATOM     17  C   UNL     1       3.056 108.073 178.758  1.00  0.00     0.000 C 
BRANCH  17  18
ATOM     18  C   UNL     1       1.572 108.149 179.152  1.00  0.00    -0.000 C 
BRANCH  18  19
ATOM     19  C   UNL     1       0.886 106.771 179.171  1.00  0.00    -0.000 C 
BRANCH  19  20
ATOM     20  C   UNL     1       1.818 105.565 178.931  1.00  0.00    -0.000 C 
BRANCH  20  21
ATOM     21  C   UNL     1       1.527 104.758 177.652  1.00  0.00    -0.000 C 
BRANCH  21  22
ATOM     22  C   UNL     1       0.935 105.578 176.490  1.00  0.00    -0.000 C 
BRANCH  22  23
ATOM     23  C   UNL     1       1.995 106.347 175.670  1.00  0.00    -0.000 C 
BRANCH  23  24
ATOM     24  C   UNL     1       3.215 105.475 175.326  1.00  0.00    -0.000 C 
BRANCH  24  25
ATOM     25  C   UNL     1       4.373 106.290 174.726  1.00  0.00    -0.003 C 
ATOM     26  C   UNL     1       4.749 107.501 175.577  1.00  0.00     0.004 C 
ENDBRANCH  24  25
ENDBRANCH  23  24
ENDBRANCH  22  23
ENDBRANCH  21  22
ENDBRANCH  20  21
ENDBRANCH  19  20
ENDBRANCH  18  19
ENDBRANCH  17  18
ENDBRANCH  16  17
ENDBRANCH  15  16
ENDBRANCH   1  15
TORSDOF 22
ENDMDL
