MODEL 1
REMARK VINA RESULT:    -1.775      0.000      0.000
REMARK INTER + INTRA:          -1.775
REMARK INTER:                  -1.775
REMARK INTRA:                   0.000
REMARK UNBOUND:                 0.000
REMARK SMILES CC(=O)[O-]
REMARK SMILES IDX 1 1 2 2 3 3 4 4
REMARK H PARENT
REMARK Flexibility Score: inf
ROOT
ATOM      1  C   UNL     1      64.001  36.579  63.035  1.00  0.00     0.063 C 
ATOM      2  C   UNL     1      64.836  35.851  62.038  1.00  0.00     0.038 C 
ATOM      3  O   UNL     1      64.446  34.747  61.574  1.00  0.00    -0.550 OA
ATOM      4  O   UNL     1      66.019  36.413  61.576  1.00  0.00    -0.550 OA
ENDROOT
TORSDOF 0
ENDMDL
MODEL 2
REMARK VINA RESULT:    -1.771     15.508     15.939
REMARK INTER + INTRA:          -1.771
REMARK INTER:                  -1.771
REMARK INTRA:                   0.000
REMARK UNBOUND:                 0.000
REMARK SMILES CC(=O)[O-]
REMARK SMILES IDX 1 1 2 2 3 3 4 4
REMARK H PARENT
REMARK Flexibility Score: inf
ROOT
ATOM      1  C   UNL     1      58.886  29.284  49.231  1.00  0.00     0.063 C 
ATOM      2  C   UNL     1      59.751  28.071  49.248  1.00  0.00     0.038 C 
ATOM      3  O   UNL     1      61.004  28.189  49.291  1.00  0.00    -0.550 OA
ATOM      4  O   UNL     1      59.177  26.806  49.270  1.00  0.00    -0.550 OA
ENDROOT
TORSDOF 0
ENDMDL
MODEL 3
REMARK VINA RESULT:    -1.767      1.803      1.934
REMARK INTER + INTRA:          -1.767
REMARK INTER:                  -1.767
REMARK INTRA:                   0.000
REMARK UNBOUND:                 0.000
REMARK SMILES CC(=O)[O-]
REMARK SMILES IDX 1 1 2 2 3 3 4 4
REMARK H PARENT
REMARK Flexibility Score: inf
ROOT
ATOM      1  C   UNL     1      63.008  36.381  61.607  1.00  0.00     0.063 C 
ATOM      2  C   UNL     1      64.212  36.285  62.481  1.00  0.00     0.038 C 
ATOM      3  O   UNL     1      65.324  35.960  61.990  1.00  0.00    -0.550 OA
ATOM      4  O   UNL     1      64.121  36.606  63.829  1.00  0.00    -0.550 OA
ENDROOT
TORSDOF 0
ENDMDL
MODEL 4
REMARK VINA RESULT:    -1.710     20.321     20.962
REMARK INTER + INTRA:          -1.710
REMARK INTER:                  -1.710
REMARK INTRA:                   0.000
REMARK UNBOUND:                 0.000
REMARK SMILES CC(=O)[O-]
REMARK SMILES IDX 1 1 2 2 3 3 4 4
REMARK H PARENT
REMARK Flexibility Score: inf
ROOT
ATOM      1  C   UNL     1      60.922  21.442  48.456  1.00  0.00     0.063 C 
ATOM      2  C   UNL     1      60.041  20.326  48.903  1.00  0.00     0.038 C 
ATOM      3  O   UNL     1      59.685  19.437  48.086  1.00  0.00    -0.550 OA
ATOM      4  O   UNL     1      59.654  20.234  50.233  1.00  0.00    -0.550 OA
ENDROOT
TORSDOF 0
ENDMDL
MODEL 5
REMARK VINA RESULT:    -1.683     18.032     18.639
REMARK INTER + INTRA:          -1.683
REMARK INTER:                  -1.683
REMARK INTRA:                   0.000
REMARK UNBOUND:                 0.000
REMARK SMILES CC(=O)[O-]
REMARK SMILES IDX 1 1 2 2 3 3 4 4
REMARK H PARENT
REMARK Flexibility Score: inf
ROOT
ATOM      1  C   UNL     1      54.206  27.815  49.969  1.00  0.00     0.063 C 
ATOM      2  C   UNL     1      54.763  26.475  49.626  1.00  0.00     0.038 C 
ATOM      3  O   UNL     1      55.929  26.165  49.987  1.00  0.00    -0.550 OA
ATOM      4  O   UNL     1      53.979  25.546  48.955  1.00  0.00    -0.550 OA
ENDROOT
TORSDOF 0
ENDMDL
MODEL 6
REMARK VINA RESULT:    -1.675     15.688     16.015
REMARK INTER + INTRA:          -1.675
REMARK INTER:                  -1.675
REMARK INTRA:                   0.000
REMARK UNBOUND:                 0.000
REMARK SMILES CC(=O)[O-]
REMARK SMILES IDX 1 1 2 2 3 3 4 4
REMARK H PARENT
REMARK Flexibility Score: inf
ROOT
ATOM      1  C   UNL     1      59.047  26.749  49.542  1.00  0.00     0.063 C 
ATOM      2  C   UNL     1      59.699  28.054  49.238  1.00  0.00     0.038 C 
ATOM      3  O   UNL     1      60.953  28.158  49.278  1.00  0.00    -0.550 OA
ATOM      4  O   UNL     1      58.929  29.146  48.859  1.00  0.00    -0.550 OA
ENDROOT
TORSDOF 0
ENDMDL
MODEL 7
REMARK VINA RESULT:    -1.675     21.904     22.545
REMARK INTER + INTRA:          -1.675
REMARK INTER:                  -1.675
REMARK INTRA:                   0.000
REMARK UNBOUND:                 0.000
REMARK SMILES CC(=O)[O-]
REMARK SMILES IDX 1 1 2 2 3 3 4 4
REMARK H PARENT
REMARK Flexibility Score: inf
ROOT
ATOM      1  C   UNL     1      59.909  19.805  48.411  1.00  0.00     0.063 C 
ATOM      2  C   UNL     1      59.273  18.547  48.897  1.00  0.00     0.038 C 
ATOM      3  O   UNL     1      58.620  18.545  49.974  1.00  0.00    -0.550 OA
ATOM      4  O   UNL     1      59.354  17.387  48.138  1.00  0.00    -0.550 OA
ENDROOT
TORSDOF 0
ENDMDL
MODEL 8
REMARK VINA RESULT:    -1.673     22.131     22.508
REMARK INTER + INTRA:          -1.673
REMARK INTER:                  -1.673
REMARK INTRA:                   0.000
REMARK UNBOUND:                 0.000
REMARK SMILES CC(=O)[O-]
REMARK SMILES IDX 1 1 2 2 3 3 4 4
REMARK H PARENT
REMARK Flexibility Score: inf
ROOT
ATOM      1  C   UNL     1      55.881  18.706  50.659  1.00  0.00     0.063 C 
ATOM      2  C   UNL     1      57.281  18.262  50.408  1.00  0.00     0.038 C 
ATOM      3  O   UNL     1      58.128  19.073  49.949  1.00  0.00    -0.550 OA
ATOM      4  O   UNL     1      57.670  16.968  50.729  1.00  0.00    -0.550 OA
ENDROOT
TORSDOF 0
ENDMDL
MODEL 9
REMARK VINA RESULT:     0.286     19.741     20.214
REMARK INTER + INTRA:           0.286
REMARK INTER:                   0.286
REMARK INTRA:                   0.000
REMARK UNBOUND:                 0.000
REMARK SMILES CC(=O)[O-]
REMARK SMILES IDX 1 1 2 2 3 3 4 4
REMARK H PARENT
REMARK Flexibility Score: inf
ROOT
ATOM      1  C   UNL     1      58.832  20.557  49.284  1.00  0.00     0.063 C 
ATOM      2  C   UNL     1      60.173  20.548  49.935  1.00  0.00     0.038 C 
ATOM      3  O   UNL     1      60.959  21.518  49.773  1.00  0.00    -0.550 OA
ATOM      4  O   UNL     1      60.537  19.496  50.765  1.00  0.00    -0.550 OA
ENDROOT
TORSDOF 0
ENDMDL
