MODEL 1
REMARK VINA RESULT:    -6.705      0.000      0.000
REMARK INTER + INTRA:          -8.366
REMARK INTER:                  -7.881
REMARK INTRA:                  -0.485
REMARK UNBOUND:                -0.485
REMARK SMILES C=C(C)[C@H]1CC[C@]2(CO)CC[C@@]3(C)[C@H](CC[C@@H]4[C@@]5(C)CC[C@H](O)C(C)(C)[C@H]5CC[C@@]43C)[C@@H]12
REMARK SMILES IDX 4 1 5 2 6 3 7 4 32 5 14 6 15 7 16 8 17 9 18 10 20 11 21 12
REMARK SMILES IDX 22 13 24 14 27 15 28 16 29 17 30 18 12 19 11 20 10 21 13 22
REMARK SMILES IDX 31 23 25 24 26 25 19 26 2 27 3 28 1 29 8 30 9 31 23 33
REMARK H PARENT 9 32 23 34
REMARK Flexibility Score: inf
ROOT
ATOM      1  C   UNL     1      52.783   6.608   6.447  1.00  0.00     0.018 C 
ATOM      2  C   UNL     1      54.125   6.363   5.733  1.00  0.00     0.009 C 
ATOM      3  C   UNL     1      53.870   6.577   4.231  1.00  0.00     0.010 C 
ATOM      4  C   UNL     1      52.384   6.237   4.020  1.00  0.00    -0.003 C 
ATOM      5  C   UNL     1      51.750   6.792   5.304  1.00  0.00     0.008 C 
ATOM      6  C   UNL     1      50.238   6.480   5.475  1.00  0.00    -0.000 C 
ATOM      7  C   UNL     1      49.725   7.156   6.771  1.00  0.00     0.005 C 
ATOM      8  C   UNL     1      48.220   7.318   6.779  1.00  0.00     0.005 C 
ATOM      9  C   UNL     1      47.720   8.316   5.693  1.00  0.00     0.002 C 
ATOM     10  C   UNL     1      46.097   8.513   5.683  1.00  0.00    -0.026 C 
ATOM     11  C   UNL     1      45.796   9.781   6.553  1.00  0.00     0.010 C 
ATOM     12  C   UNL     1      44.342  10.242   6.554  1.00  0.00     0.033 C 
ATOM     13  C   UNL     1      43.879  10.573   5.132  1.00  0.00     0.120 C 
ATOM     14  C   UNL     1      43.995   9.356   4.172  1.00  0.00    -0.006 C 
ATOM     15  C   UNL     1      45.467   8.707   4.236  1.00  0.00     0.003 C 
ATOM     16  C   UNL     1      46.493   9.431   3.343  1.00  0.00     0.005 C 
ATOM     17  C   UNL     1      47.665   8.505   3.068  1.00  0.00     0.008 C 
ATOM     18  C   UNL     1      48.565   8.232   4.317  1.00  0.00    -0.024 C 
ATOM     19  C   UNL     1      49.358   6.823   4.165  1.00  0.00    -0.024 C 
ATOM     20  C   UNL     1      50.216   6.757   2.811  1.00  0.00     0.008 C 
ATOM     21  C   UNL     1      51.738   7.023   2.867  1.00  0.00     0.010 C 
ATOM     22  C   UNL     1      48.303   5.668   4.004  1.00  0.00     0.012 C 
ATOM     23  C   UNL     1      49.589   9.420   4.307  1.00  0.00     0.012 C 
ATOM     24  C   UNL     1      43.656   9.867   2.738  1.00  0.00     0.014 C 
ATOM     25  C   UNL     1      42.888   8.295   4.493  1.00  0.00     0.014 C 
ATOM     26  C   UNL     1      45.401   7.292   6.364  1.00  0.00     0.012 C 
ENDROOT
BRANCH   1  27
ATOM     27  C   UNL     1      52.497   5.597   7.561  1.00  0.00    -0.077 C 
ATOM     28  C   UNL     1      52.051   6.099   8.912  1.00  0.00     0.039 C 
ATOM     29  C   UNL     1      52.638   4.271   7.410  1.00  0.00     0.008 C 
ENDBRANCH   1  27
BRANCH   4  30
ATOM     30  C   UNL     1      52.212   4.697   3.744  1.00  0.00     0.163 C 
BRANCH  30  31
ATOM     31  O   UNL     1      52.818   4.285   2.548  1.00  0.00    -0.396 OA
ATOM     32  H   UNL     1      52.095   4.233   1.870  1.00  0.00     0.210 HD
ENDBRANCH  30  31
ENDBRANCH   4  30
BRANCH  13  33
ATOM     33  O   UNL     1      42.552  11.041   5.170  1.00  0.00    -0.393 OA
ATOM     34  H   UNL     1      42.470  11.616   5.975  1.00  0.00     0.210 HD
ENDBRANCH  13  33
TORSDOF 4
ENDMDL
MODEL 2
REMARK VINA RESULT:    -6.689     16.381     19.083
REMARK INTER + INTRA:          -8.348
REMARK INTER:                  -7.860
REMARK INTRA:                  -0.488
REMARK UNBOUND:                -0.485
REMARK SMILES C=C(C)[C@H]1CC[C@]2(CO)CC[C@@]3(C)[C@H](CC[C@@H]4[C@@]5(C)CC[C@H](O)C(C)(C)[C@H]5CC[C@@]43C)[C@@H]12
REMARK SMILES IDX 4 1 5 2 6 3 7 4 32 5 14 6 15 7 16 8 17 9 18 10 20 11 21 12
REMARK SMILES IDX 22 13 24 14 27 15 28 16 29 17 30 18 12 19 11 20 10 21 13 22
REMARK SMILES IDX 31 23 25 24 26 25 19 26 2 27 3 28 1 29 8 30 9 31 23 33
REMARK H PARENT 9 32 23 34
REMARK Flexibility Score: inf
ROOT
ATOM      1  C   UNL     1      37.208  13.810  16.636  1.00  0.00     0.018 C 
ATOM      2  C   UNL     1      35.700  13.515  16.740  1.00  0.00     0.009 C 
ATOM      3  C   UNL     1      34.987  14.877  16.800  1.00  0.00     0.010 C 
ATOM      4  C   UNL     1      36.009  15.840  17.428  1.00  0.00    -0.003 C 
ATOM      5  C   UNL     1      37.326  15.348  16.811  1.00  0.00     0.008 C 
ATOM      6  C   UNL     1      38.605  16.037  17.359  1.00  0.00    -0.000 C 
ATOM      7  C   UNL     1      39.840  15.491  16.600  1.00  0.00     0.005 C 
ATOM      8  C   UNL     1      41.037  16.410  16.711  1.00  0.00     0.005 C 
ATOM      9  C   UNL     1      40.813  17.773  15.991  1.00  0.00     0.002 C 
ATOM     10  C   UNL     1      42.094  18.784  16.091  1.00  0.00    -0.026 C 
ATOM     11  C   UNL     1      42.930  18.577  14.783  1.00  0.00     0.010 C 
ATOM     12  C   UNL     1      44.097  19.539  14.594  1.00  0.00     0.033 C 
ATOM     13  C   UNL     1      43.603  20.989  14.565  1.00  0.00     0.120 C 
ATOM     14  C   UNL     1      42.860  21.388  15.872  1.00  0.00    -0.006 C 
ATOM     15  C   UNL     1      41.709  20.321  16.230  1.00  0.00     0.003 C 
ATOM     16  C   UNL     1      40.388  20.570  15.475  1.00  0.00     0.005 C 
ATOM     17  C   UNL     1      39.250  19.881  16.207  1.00  0.00     0.008 C 
ATOM     18  C   UNL     1      39.297  18.320  16.126  1.00  0.00    -0.024 C 
ATOM     19  C   UNL     1      38.509  17.649  17.377  1.00  0.00    -0.024 C 
ATOM     20  C   UNL     1      36.997  18.176  17.490  1.00  0.00     0.008 C 
ATOM     21  C   UNL     1      35.848  17.294  16.950  1.00  0.00     0.010 C 
ATOM     22  C   UNL     1      39.182  18.135  18.713  1.00  0.00     0.012 C 
ATOM     23  C   UNL     1      38.546  17.992  14.790  1.00  0.00     0.012 C 
ATOM     24  C   UNL     1      42.270  22.814  15.648  1.00  0.00     0.014 C 
ATOM     25  C   UNL     1      43.875  21.552  17.053  1.00  0.00     0.014 C 
ATOM     26  C   UNL     1      42.998  18.392  17.302  1.00  0.00     0.012 C 
ENDROOT
BRANCH   1  27
ATOM     27  C   UNL     1      38.067  12.887  17.505  1.00  0.00    -0.077 C 
ATOM     28  C   UNL     1      38.043  13.057  19.004  1.00  0.00     0.039 C 
ATOM     29  C   UNL     1      38.866  11.932  17.004  1.00  0.00     0.008 C 
ENDBRANCH   1  27
BRANCH   4  30
ATOM     30  C   UNL     1      35.896  15.807  18.997  1.00  0.00     0.163 C 
BRANCH  30  31
ATOM     31  O   UNL     1      34.624  15.425  19.447  1.00  0.00    -0.396 OA
ATOM     32  H   UNL     1      34.049  15.362  18.640  1.00  0.00     0.210 HD
ENDBRANCH  30  31
ENDBRANCH   4  30
BRANCH  13  33
ATOM     33  O   UNL     1      44.694  21.850  14.342  1.00  0.00    -0.393 OA
ATOM     34  H   UNL     1      45.204  21.899  15.192  1.00  0.00     0.210 HD
ENDBRANCH  13  33
TORSDOF 4
ENDMDL
MODEL 3
REMARK VINA RESULT:    -6.240     16.128     18.687
REMARK INTER + INTRA:          -7.819
REMARK INTER:                  -7.399
REMARK INTRA:                  -0.421
REMARK UNBOUND:                -0.485
REMARK SMILES C=C(C)[C@H]1CC[C@]2(CO)CC[C@@]3(C)[C@H](CC[C@@H]4[C@@]5(C)CC[C@H](O)C(C)(C)[C@H]5CC[C@@]43C)[C@@H]12
REMARK SMILES IDX 4 1 5 2 6 3 7 4 32 5 14 6 15 7 16 8 17 9 18 10 20 11 21 12
REMARK SMILES IDX 22 13 24 14 27 15 28 16 29 17 30 18 12 19 11 20 10 21 13 22
REMARK SMILES IDX 31 23 25 24 26 25 19 26 2 27 3 28 1 29 8 30 9 31 23 33
REMARK H PARENT 9 32 23 34
REMARK Flexibility Score: inf
ROOT
ATOM      1  C   UNL     1      43.358  21.060  14.736  1.00  0.00     0.018 C 
ATOM      2  C   UNL     1      44.267  22.212  15.203  1.00  0.00     0.009 C 
ATOM      3  C   UNL     1      44.313  22.143  16.739  1.00  0.00     0.010 C 
ATOM      4  C   UNL     1      42.979  21.499  17.155  1.00  0.00    -0.003 C 
ATOM      5  C   UNL     1      42.770  20.461  16.042  1.00  0.00     0.008 C 
ATOM      6  C   UNL     1      41.410  19.714  16.089  1.00  0.00    -0.000 C 
ATOM      7  C   UNL     1      41.371  18.660  14.955  1.00  0.00     0.005 C 
ATOM      8  C   UNL     1      40.333  17.587  15.202  1.00  0.00     0.005 C 
ATOM      9  C   UNL     1      40.673  16.698  16.435  1.00  0.00     0.002 C 
ATOM     10  C   UNL     1      39.569  15.527  16.722  1.00  0.00    -0.026 C 
ATOM     11  C   UNL     1      40.103  14.230  16.023  1.00  0.00     0.010 C 
ATOM     12  C   UNL     1      39.298  12.964  16.295  1.00  0.00     0.033 C 
ATOM     13  C   UNL     1      39.257  12.660  17.796  1.00  0.00     0.120 C 
ATOM     14  C   UNL     1      38.621  13.818  18.617  1.00  0.00    -0.006 C 
ATOM     15  C   UNL     1      39.314  15.227  18.262  1.00  0.00     0.003 C 
ATOM     16  C   UNL     1      40.622  15.477  19.038  1.00  0.00     0.005 C 
ATOM     17  C   UNL     1      40.930  16.964  19.042  1.00  0.00     0.008 C 
ATOM     18  C   UNL     1      41.352  17.528  17.646  1.00  0.00    -0.024 C 
ATOM     19  C   UNL     1      41.053  19.121  17.547  1.00  0.00    -0.024 C 
ATOM     20  C   UNL     1      41.751  19.941  18.736  1.00  0.00     0.008 C 
ATOM     21  C   UNL     1      43.075  20.690  18.459  1.00  0.00     0.010 C 
ATOM     22  C   UNL     1      39.514  19.356  17.776  1.00  0.00     0.012 C 
ATOM     23  C   UNL     1      42.899  17.276  17.593  1.00  0.00     0.012 C 
ATOM     24  C   UNL     1      38.791  13.459  20.125  1.00  0.00     0.014 C 
ATOM     25  C   UNL     1      37.073  13.868  18.387  1.00  0.00     0.014 C 
ATOM     26  C   UNL     1      38.204  15.897  16.059  1.00  0.00     0.012 C 
ENDROOT
BRANCH   1  27
ATOM     27  C   UNL     1      42.412  21.457  13.600  1.00  0.00    -0.077 C 
ATOM     28  C   UNL     1      42.483  20.712  12.289  1.00  0.00     0.039 C 
ATOM     29  C   UNL     1      41.519  22.455  13.695  1.00  0.00     0.008 C 
ENDBRANCH   1  27
BRANCH   4  30
ATOM     30  C   UNL     1      41.870  22.603  17.322  1.00  0.00     0.163 C 
BRANCH  30  31
ATOM     31  O   UNL     1      41.806  23.120  18.624  1.00  0.00    -0.396 OA
ATOM     32  H   UNL     1      41.607  22.353  19.222  1.00  0.00     0.210 HD
ENDBRANCH  30  31
ENDBRANCH   4  30
BRANCH  13  33
ATOM     33  O   UNL     1      38.550  11.463  18.011  1.00  0.00    -0.393 OA
ATOM     34  H   UNL     1      38.401  11.050  17.121  1.00  0.00     0.210 HD
ENDBRANCH  13  33
TORSDOF 4
ENDMDL
MODEL 4
REMARK VINA RESULT:    -5.813     16.511     18.206
REMARK INTER + INTRA:          -7.318
REMARK INTER:                  -6.739
REMARK INTRA:                  -0.579
REMARK UNBOUND:                -0.485
REMARK SMILES C=C(C)[C@H]1CC[C@]2(CO)CC[C@@]3(C)[C@H](CC[C@@H]4[C@@]5(C)CC[C@H](O)C(C)(C)[C@H]5CC[C@@]43C)[C@@H]12
REMARK SMILES IDX 4 1 5 2 6 3 7 4 32 5 14 6 15 7 16 8 17 9 18 10 20 11 21 12
REMARK SMILES IDX 22 13 24 14 27 15 28 16 29 17 30 18 12 19 11 20 10 21 13 22
REMARK SMILES IDX 31 23 25 24 26 25 19 26 2 27 3 28 1 29 8 30 9 31 23 33
REMARK H PARENT 9 32 23 34
REMARK Flexibility Score: inf
ROOT
ATOM      1  C   UNL     1      43.528  19.236  16.087  1.00  0.00     0.018 C 
ATOM      2  C   UNL     1      44.047  18.328  17.218  1.00  0.00     0.009 C 
ATOM      3  C   UNL     1      42.875  17.419  17.627  1.00  0.00     0.010 C 
ATOM      4  C   UNL     1      41.606  18.225  17.299  1.00  0.00    -0.003 C 
ATOM      5  C   UNL     1      42.009  18.932  15.996  1.00  0.00     0.008 C 
ATOM      6  C   UNL     1      40.974  19.958  15.460  1.00  0.00    -0.000 C 
ATOM      7  C   UNL     1      41.484  20.535  14.116  1.00  0.00     0.005 C 
ATOM      8  C   UNL     1      40.371  21.155  13.297  1.00  0.00     0.005 C 
ATOM      9  C   UNL     1      39.333  20.103  12.806  1.00  0.00     0.002 C 
ATOM     10  C   UNL     1      38.122  20.746  11.915  1.00  0.00    -0.026 C 
ATOM     11  C   UNL     1      38.540  20.587  10.413  1.00  0.00     0.010 C 
ATOM     12  C   UNL     1      37.478  20.984   9.394  1.00  0.00     0.033 C 
ATOM     13  C   UNL     1      36.209  20.146   9.581  1.00  0.00     0.120 C 
ATOM     14  C   UNL     1      35.595  20.308  11.000  1.00  0.00    -0.006 C 
ATOM     15  C   UNL     1      36.705  20.063  12.141  1.00  0.00     0.003 C 
ATOM     16  C   UNL     1      36.921  18.573  12.471  1.00  0.00     0.005 C 
ATOM     17  C   UNL     1      37.566  18.448  13.841  1.00  0.00     0.008 C 
ATOM     18  C   UNL     1      39.051  18.936  13.889  1.00  0.00    -0.024 C 
ATOM     19  C   UNL     1      39.469  19.379  15.395  1.00  0.00    -0.024 C 
ATOM     20  C   UNL     1      39.211  18.207  16.461  1.00  0.00     0.008 C 
ATOM     21  C   UNL     1      40.402  17.341  16.932  1.00  0.00     0.010 C 
ATOM     22  C   UNL     1      38.510  20.535  15.862  1.00  0.00     0.012 C 
ATOM     23  C   UNL     1      39.875  17.673  13.461  1.00  0.00     0.012 C 
ATOM     24  C   UNL     1      34.422  19.288  11.113  1.00  0.00     0.014 C 
ATOM     25  C   UNL     1      34.923  21.715  11.151  1.00  0.00     0.014 C 
ATOM     26  C   UNL     1      37.986  22.273  12.211  1.00  0.00     0.012 C 
ENDROOT
BRANCH   1  27
ATOM     27  C   UNL     1      43.996  20.689  16.214  1.00  0.00    -0.077 C 
ATOM     28  C   UNL     1      44.764  21.315  15.076  1.00  0.00     0.039 C 
ATOM     29  C   UNL     1      43.776  21.444  17.301  1.00  0.00     0.008 C 
ENDBRANCH   1  27
BRANCH   4  30
ATOM     30  C   UNL     1      41.211  19.139  18.517  1.00  0.00     0.163 C 
BRANCH  30  31
ATOM     31  O   UNL     1      41.325  18.484  19.752  1.00  0.00    -0.396 OA
ATOM     32  H   UNL     1      42.192  18.769  20.143  1.00  0.00     0.210 HD
ENDBRANCH  30  31
ENDBRANCH   4  30
BRANCH  13  33
ATOM     33  O   UNL     1      35.267  20.501   8.598  1.00  0.00    -0.393 OA
ATOM     34  H   UNL     1      35.682  20.312   7.716  1.00  0.00     0.210 HD
ENDBRANCH  13  33
TORSDOF 4
ENDMDL
MODEL 5
REMARK VINA RESULT:    -5.737     15.692     18.412
REMARK INTER + INTRA:          -7.228
REMARK INTER:                  -8.149
REMARK INTRA:                   0.920
REMARK UNBOUND:                -0.485
REMARK SMILES C=C(C)[C@H]1CC[C@]2(CO)CC[C@@]3(C)[C@H](CC[C@@H]4[C@@]5(C)CC[C@H](O)C(C)(C)[C@H]5CC[C@@]43C)[C@@H]12
REMARK SMILES IDX 4 1 5 2 6 3 7 4 32 5 14 6 15 7 16 8 17 9 18 10 20 11 21 12
REMARK SMILES IDX 22 13 24 14 27 15 28 16 29 17 30 18 12 19 11 20 10 21 13 22
REMARK SMILES IDX 31 23 25 24 26 25 19 26 2 27 3 28 1 29 8 30 9 31 23 33
REMARK H PARENT 9 32 23 34
REMARK Flexibility Score: inf
ROOT
ATOM      1  C   UNL     1      37.702  13.971  17.132  1.00  0.00     0.018 C 
ATOM      2  C   UNL     1      36.677  13.603  18.221  1.00  0.00     0.009 C 
ATOM      3  C   UNL     1      36.626  14.791  19.197  1.00  0.00     0.010 C 
ATOM      4  C   UNL     1      38.015  15.447  19.109  1.00  0.00    -0.003 C 
ATOM      5  C   UNL     1      38.338  15.302  17.615  1.00  0.00     0.008 C 
ATOM      6  C   UNL     1      39.767  15.751  17.206  1.00  0.00    -0.000 C 
ATOM      7  C   UNL     1      39.922  15.613  15.671  1.00  0.00     0.005 C 
ATOM      8  C   UNL     1      41.062  16.448  15.130  1.00  0.00     0.005 C 
ATOM      9  C   UNL     1      40.805  17.977  15.276  1.00  0.00     0.002 C 
ATOM     10  C   UNL     1      42.020  18.903  14.694  1.00  0.00    -0.026 C 
ATOM     11  C   UNL     1      41.627  19.286  13.227  1.00  0.00     0.010 C 
ATOM     12  C   UNL     1      42.554  20.283  12.541  1.00  0.00     0.033 C 
ATOM     13  C   UNL     1      42.614  21.596  13.328  1.00  0.00     0.120 C 
ATOM     14  C   UNL     1      43.122  21.392  14.784  1.00  0.00    -0.006 C 
ATOM     15  C   UNL     1      42.292  20.230  15.527  1.00  0.00     0.003 C 
ATOM     16  C   UNL     1      40.959  20.720  16.127  1.00  0.00     0.005 C 
ATOM     17  C   UNL     1      40.501  19.748  17.201  1.00  0.00     0.008 C 
ATOM     18  C   UNL     1      40.035  18.363  16.645  1.00  0.00    -0.024 C 
ATOM     19  C   UNL     1      40.171  17.206  17.776  1.00  0.00    -0.024 C 
ATOM     20  C   UNL     1      39.383  17.583  19.122  1.00  0.00     0.008 C 
ATOM     21  C   UNL     1      37.992  16.961  19.381  1.00  0.00     0.010 C 
ATOM     22  C   UNL     1      41.676  17.122  18.228  1.00  0.00     0.012 C 
ATOM     23  C   UNL     1      38.522  18.588  16.299  1.00  0.00     0.012 C 
ATOM     24  C   UNL     1      42.977  22.759  15.517  1.00  0.00     0.014 C 
ATOM     25  C   UNL     1      44.659  21.090  14.792  1.00  0.00     0.014 C 
ATOM     26  C   UNL     1      43.345  18.080  14.633  1.00  0.00     0.012 C 
ENDROOT
BRANCH   1  27
ATOM     27  C   UNL     1      38.613  12.804  16.738  1.00  0.00    -0.077 C 
ATOM     28  C   UNL     1      38.528  11.513  17.514  1.00  0.00     0.039 C 
ATOM     29  C   UNL     1      39.507  12.868  15.740  1.00  0.00     0.008 C 
ENDBRANCH   1  27
BRANCH   4  30
ATOM     30  C   UNL     1      39.004  14.764  20.125  1.00  0.00     0.163 C 
BRANCH  30  31
ATOM     31  O   UNL     1      40.042  14.065  19.492  1.00  0.00    -0.396 OA
ATOM     32  H   UNL     1      40.849  14.638  19.559  1.00  0.00     0.210 HD
ENDBRANCH  30  31
ENDBRANCH   4  30
BRANCH  13  33
ATOM     33  O   UNL     1      43.437  22.511  12.647  1.00  0.00    -0.393 OA
ATOM     34  H   UNL     1      44.319  22.073  12.524  1.00  0.00     0.210 HD
ENDBRANCH  13  33
TORSDOF 4
ENDMDL
MODEL 6
REMARK VINA RESULT:    -5.646     15.920     19.393
REMARK INTER + INTRA:          -7.122
REMARK INTER:                  -6.578
REMARK INTRA:                  -0.544
REMARK UNBOUND:                -0.485
REMARK SMILES C=C(C)[C@H]1CC[C@]2(CO)CC[C@@]3(C)[C@H](CC[C@@H]4[C@@]5(C)CC[C@H](O)C(C)(C)[C@H]5CC[C@@]43C)[C@@H]12
REMARK SMILES IDX 4 1 5 2 6 3 7 4 32 5 14 6 15 7 16 8 17 9 18 10 20 11 21 12
REMARK SMILES IDX 22 13 24 14 27 15 28 16 29 17 30 18 12 19 11 20 10 21 13 22
REMARK SMILES IDX 31 23 25 24 26 25 19 26 2 27 3 28 1 29 8 30 9 31 23 33
REMARK H PARENT 9 32 23 34
REMARK Flexibility Score: inf
ROOT
ATOM      1  C   UNL     1      36.650  22.089   9.598  1.00  0.00     0.018 C 
ATOM      2  C   UNL     1      35.135  22.320   9.444  1.00  0.00     0.009 C 
ATOM      3  C   UNL     1      34.484  21.859  10.760  1.00  0.00     0.010 C 
ATOM      4  C   UNL     1      35.425  20.778  11.319  1.00  0.00    -0.003 C 
ATOM      5  C   UNL     1      36.805  21.339  10.947  1.00  0.00     0.008 C 
ATOM      6  C   UNL     1      38.001  20.396  11.255  1.00  0.00    -0.000 C 
ATOM      7  C   UNL     1      39.322  21.118  10.892  1.00  0.00     0.005 C 
ATOM      8  C   UNL     1      40.522  20.503  11.579  1.00  0.00     0.005 C 
ATOM      9  C   UNL     1      40.486  20.687  13.125  1.00  0.00     0.002 C 
ATOM     10  C   UNL     1      41.774  20.035  13.892  1.00  0.00    -0.026 C 
ATOM     11  C   UNL     1      42.813  21.192  14.083  1.00  0.00     0.010 C 
ATOM     12  C   UNL     1      44.037  20.839  14.921  1.00  0.00     0.033 C 
ATOM     13  C   UNL     1      43.620  20.395  16.327  1.00  0.00     0.120 C 
ATOM     14  C   UNL     1      42.682  19.155  16.304  1.00  0.00    -0.006 C 
ATOM     15  C   UNL     1      41.440  19.390  15.306  1.00  0.00     0.003 C 
ATOM     16  C   UNL     1      40.281  20.178  15.948  1.00  0.00     0.005 C 
ATOM     17  C   UNL     1      39.004  19.927  15.165  1.00  0.00     0.008 C 
ATOM     18  C   UNL     1      38.995  20.576  13.743  1.00  0.00    -0.024 C 
ATOM     19  C   UNL     1      37.974  19.793  12.752  1.00  0.00    -0.024 C 
ATOM     20  C   UNL     1      36.491  19.709  13.358  1.00  0.00     0.008 C 
ATOM     21  C   UNL     1      35.414  20.698  12.856  1.00  0.00     0.010 C 
ATOM     22  C   UNL     1      38.428  18.290  12.651  1.00  0.00     0.012 C 
ATOM     23  C   UNL     1      38.471  22.031  13.999  1.00  0.00     0.012 C 
ATOM     24  C   UNL     1      42.203  18.913  17.768  1.00  0.00     0.014 C 
ATOM     25  C   UNL     1      43.484  17.865  15.924  1.00  0.00     0.014 C 
ATOM     26  C   UNL     1      42.438  18.941  12.997  1.00  0.00     0.012 C 
ENDROOT
BRANCH   1  27
ATOM     27  C   UNL     1      37.306  21.514   8.339  1.00  0.00    -0.077 C 
ATOM     28  C   UNL     1      38.443  22.265   7.693  1.00  0.00     0.039 C 
ATOM     29  C   UNL     1      36.911  20.371   7.757  1.00  0.00     0.008 C 
ENDBRANCH   1  27
BRANCH   4  30
ATOM     30  C   UNL     1      35.043  19.368  10.735  1.00  0.00     0.163 C 
BRANCH  30  31
ATOM     31  O   UNL     1      33.876  18.838  11.304  1.00  0.00    -0.396 OA
ATOM     32  H   UNL     1      33.115  19.305  10.870  1.00  0.00     0.210 HD
ENDBRANCH  30  31
ENDBRANCH   4  30
BRANCH  13  33
ATOM     33  O   UNL     1      44.770  20.123  17.091  1.00  0.00    -0.393 OA
ATOM     34  H   UNL     1      45.409  20.865  16.929  1.00  0.00     0.210 HD
ENDBRANCH  13  33
TORSDOF 4
ENDMDL
MODEL 7
REMARK VINA RESULT:    -5.576     16.075     18.860
REMARK INTER + INTRA:          -7.040
REMARK INTER:                  -6.495
REMARK INTRA:                  -0.545
REMARK UNBOUND:                -0.485
REMARK SMILES C=C(C)[C@H]1CC[C@]2(CO)CC[C@@]3(C)[C@H](CC[C@@H]4[C@@]5(C)CC[C@H](O)C(C)(C)[C@H]5CC[C@@]43C)[C@@H]12
REMARK SMILES IDX 4 1 5 2 6 3 7 4 32 5 14 6 15 7 16 8 17 9 18 10 20 11 21 12
REMARK SMILES IDX 22 13 24 14 27 15 28 16 29 17 30 18 12 19 11 20 10 21 13 22
REMARK SMILES IDX 31 23 25 24 26 25 19 26 2 27 3 28 1 29 8 30 9 31 23 33
REMARK H PARENT 9 32 23 34
REMARK Flexibility Score: inf
ROOT
ATOM      1  C   UNL     1      39.104  22.166  10.692  1.00  0.00     0.018 C 
ATOM      2  C   UNL     1      38.057  23.024   9.957  1.00  0.00     0.009 C 
ATOM      3  C   UNL     1      36.689  22.663  10.561  1.00  0.00     0.010 C 
ATOM      4  C   UNL     1      36.836  21.213  11.056  1.00  0.00    -0.003 C 
ATOM      5  C   UNL     1      38.277  21.207  11.588  1.00  0.00     0.008 C 
ATOM      6  C   UNL     1      38.801  19.818  12.045  1.00  0.00    -0.000 C 
ATOM      7  C   UNL     1      40.231  19.980  12.616  1.00  0.00     0.005 C 
ATOM      8  C   UNL     1      40.632  18.819  13.501  1.00  0.00     0.005 C 
ATOM      9  C   UNL     1      39.787  18.743  14.807  1.00  0.00     0.002 C 
ATOM     10  C   UNL     1      40.203  17.500  15.784  1.00  0.00    -0.026 C 
ATOM     11  C   UNL     1      41.215  18.076  16.833  1.00  0.00     0.010 C 
ATOM     12  C   UNL     1      41.618  17.116  17.947  1.00  0.00     0.033 C 
ATOM     13  C   UNL     1      40.389  16.658  18.738  1.00  0.00     0.120 C 
ATOM     14  C   UNL     1      39.341  15.939  17.842  1.00  0.00    -0.006 C 
ATOM     15  C   UNL     1      38.982  16.827  16.548  1.00  0.00     0.003 C 
ATOM     16  C   UNL     1      37.916  17.906  16.824  1.00  0.00     0.005 C 
ATOM     17  C   UNL     1      37.283  18.337  15.511  1.00  0.00     0.008 C 
ATOM     18  C   UNL     1      38.240  19.158  14.586  1.00  0.00    -0.024 C 
ATOM     19  C   UNL     1      37.786  19.041  13.031  1.00  0.00    -0.024 C 
ATOM     20  C   UNL     1      36.258  19.479  12.815  1.00  0.00     0.008 C 
ATOM     21  C   UNL     1      35.947  20.892  12.270  1.00  0.00     0.010 C 
ATOM     22  C   UNL     1      37.810  17.524  12.614  1.00  0.00     0.012 C 
ATOM     23  C   UNL     1      38.062  20.635  15.080  1.00  0.00     0.012 C 
ATOM     24  C   UNL     1      38.083  15.678  18.725  1.00  0.00     0.014 C 
ATOM     25  C   UNL     1      39.850  14.516  17.435  1.00  0.00     0.014 C 
ATOM     26  C   UNL     1      40.943  16.395  14.967  1.00  0.00     0.012 C 
ENDROOT
BRANCH   1  27
ATOM     27  C   UNL     1      40.174  21.588   9.761  1.00  0.00    -0.077 C 
ATOM     28  C   UNL     1      41.631  21.814  10.086  1.00  0.00     0.039 C 
ATOM     29  C   UNL     1      39.890  20.896   8.647  1.00  0.00     0.008 C 
ENDBRANCH   1  27
BRANCH   4  30
ATOM     30  C   UNL     1      36.496  20.205   9.897  1.00  0.00     0.163 C 
BRANCH  30  31
ATOM     31  O   UNL     1      35.185  20.342   9.420  1.00  0.00    -0.396 OA
ATOM     32  H   UNL     1      34.900  21.267   9.644  1.00  0.00     0.210 HD
ENDBRANCH  30  31
ENDBRANCH   4  30
BRANCH  13  33
ATOM     33  O   UNL     1      40.797  15.813  19.787  1.00  0.00    -0.393 OA
ATOM     34  H   UNL     1      40.051  15.781  20.441  1.00  0.00     0.210 HD
ENDBRANCH  13  33
TORSDOF 4
ENDMDL
