MODEL 1
REMARK VINA RESULT:   120.604      0.000      0.000
REMARK INTER + INTRA:         134.399
REMARK INTER:                 134.705
REMARK INTRA:                  -0.306
REMARK UNBOUND:                -0.306
REMARK SMILES CC1(C)CC[C@@]2(CO)CC=C3[C@](C)(CC[C@H]4[C@]5(C)CC[C@H](O)C(C)(C)[C@@H]5CC[C@@]34C)[C@H]2C1
REMARK SMILES IDX 1 1 2 2 4 3 5 4 6 5 9 6 10 7 11 8 29 9 28 10 27 11 26 12
REMARK SMILES IDX 23 13 21 14 20 15 19 16 17 17 16 18 15 19 14 20 12 21 31 22
REMARK SMILES IDX 32 23 13 24 18 25 24 26 25 27 30 28 3 29 7 30 8 31 22 33
REMARK H PARENT 8 32 22 34
REMARK Flexibility Score: inf
ROOT
ATOM      1  C   UNL     1     -28.456  25.866   6.144  1.00  0.00     0.011 C 
ATOM      2  C   UNL     1     -29.937  26.085   6.526  1.00  0.00    -0.035 C 
ATOM      3  C   UNL     1     -30.294  27.596   6.369  1.00  0.00     0.007 C 
ATOM      4  C   UNL     1     -31.057  27.889   5.072  1.00  0.00     0.010 C 
ATOM      5  C   UNL     1     -32.428  27.145   5.012  1.00  0.00     0.001 C 
ATOM      6  C   UNL     1     -32.913  27.156   3.549  1.00  0.00     0.037 C 
ATOM      7  C   UNL     1     -34.217  26.430   3.437  1.00  0.00    -0.026 C 
ATOM      8  C   UNL     1     -34.431  25.240   4.056  1.00  0.00    -0.062 C 
ATOM      9  C   UNL     1     -35.832  24.561   3.925  1.00  0.00    -0.008 C 
ATOM     10  C   UNL     1     -36.863  25.475   4.660  1.00  0.00     0.012 C 
ATOM     11  C   UNL     1     -37.089  25.101   6.126  1.00  0.00     0.006 C 
ATOM     12  C   UNL     1     -37.573  23.628   6.404  1.00  0.00     0.003 C 
ATOM     13  C   UNL     1     -39.033  23.539   7.041  1.00  0.00    -0.006 C 
ATOM     14  C   UNL     1     -40.119  23.666   5.932  1.00  0.00     0.120 C 
ATOM     15  C   UNL     1     -39.916  22.650   4.794  1.00  0.00     0.033 C 
ATOM     16  C   UNL     1     -38.522  22.754   4.150  1.00  0.00     0.010 C 
ATOM     17  C   UNL     1     -37.326  22.668   5.163  1.00  0.00    -0.025 C 
ATOM     18  C   UNL     1     -35.935  23.053   4.464  1.00  0.00     0.005 C 
ATOM     19  C   UNL     1     -34.694  22.547   5.279  1.00  0.00     0.006 C 
ATOM     20  C   UNL     1     -33.769  23.615   5.825  1.00  0.00     0.012 C 
ATOM     21  C   UNL     1     -33.239  24.583   4.756  1.00  0.00    -0.008 C 
ATOM     22  C   UNL     1     -32.302  25.648   5.512  1.00  0.00     0.008 C 
ATOM     23  C   UNL     1     -30.819  25.185   5.606  1.00  0.00     0.011 C 
ATOM     24  C   UNL     1     -32.468  23.785   3.663  1.00  0.00     0.016 C 
ATOM     25  C   UNL     1     -37.248  21.156   5.590  1.00  0.00     0.012 C 
ATOM     26  C   UNL     1     -39.270  24.640   8.124  1.00  0.00     0.014 C 
ATOM     27  C   UNL     1     -39.225  22.203   7.820  1.00  0.00     0.014 C 
ATOM     28  C   UNL     1     -36.165  24.541   2.395  1.00  0.00     0.016 C 
ATOM     29  C   UNL     1     -30.116  25.665   8.003  1.00  0.00     0.011 C 
ENDROOT
BRANCH   5  30
ATOM     30  C   UNL     1     -33.464  27.906   5.910  1.00  0.00     0.163 C 
BRANCH  30  31
ATOM     31  O   UNL     1     -33.883  27.118   6.995  1.00  0.00    -0.396 OA
ATOM     32  H   UNL     1     -34.604  27.618   7.462  1.00  0.00     0.210 HD
ENDBRANCH  30  31
ENDBRANCH   5  30
BRANCH  14  33
ATOM     33  O   UNL     1     -40.120  24.966   5.396  1.00  0.00    -0.393 OA
ATOM     34  H   UNL     1     -39.617  24.931   4.541  1.00  0.00     0.210 HD
ENDBRANCH  14  33
TORSDOF 3
ENDMDL
MODEL 2
REMARK VINA RESULT:   121.963      2.040      3.277
REMARK INTER + INTRA:         135.917
REMARK INTER:                 135.484
REMARK INTRA:                   0.433
REMARK UNBOUND:                -0.306
REMARK SMILES CC1(C)CC[C@@]2(CO)CC=C3[C@](C)(CC[C@H]4[C@]5(C)CC[C@H](O)C(C)(C)[C@@H]5CC[C@@]34C)[C@H]2C1
REMARK SMILES IDX 1 1 2 2 4 3 5 4 6 5 9 6 10 7 11 8 29 9 28 10 27 11 26 12
REMARK SMILES IDX 23 13 21 14 20 15 19 16 17 17 16 18 15 19 14 20 12 21 31 22
REMARK SMILES IDX 32 23 13 24 18 25 24 26 25 27 30 28 3 29 7 30 8 31 22 33
REMARK H PARENT 8 32 22 34
REMARK Flexibility Score: inf
ROOT
ATOM      1  C   UNL     1     -28.328  24.325   3.041  1.00  0.00     0.011 C 
ATOM      2  C   UNL     1     -29.476  23.668   3.841  1.00  0.00    -0.035 C 
ATOM      3  C   UNL     1     -29.037  23.492   5.327  1.00  0.00     0.007 C 
ATOM      4  C   UNL     1     -29.623  24.571   6.246  1.00  0.00     0.010 C 
ATOM      5  C   UNL     1     -31.184  24.532   6.281  1.00  0.00     0.001 C 
ATOM      6  C   UNL     1     -31.681  25.869   6.868  1.00  0.00     0.037 C 
ATOM      7  C   UNL     1     -33.177  25.888   6.899  1.00  0.00    -0.026 C 
ATOM      8  C   UNL     1     -33.923  25.463   5.845  1.00  0.00    -0.062 C 
ATOM      9  C   UNL     1     -35.480  25.477   5.966  1.00  0.00    -0.008 C 
ATOM     10  C   UNL     1     -35.871  24.430   7.056  1.00  0.00     0.012 C 
ATOM     11  C   UNL     1     -36.170  23.036   6.499  1.00  0.00     0.006 C 
ATOM     12  C   UNL     1     -37.309  22.948   5.416  1.00  0.00     0.003 C 
ATOM     13  C   UNL     1     -38.579  22.102   5.882  1.00  0.00    -0.006 C 
ATOM     14  C   UNL     1     -39.516  22.973   6.769  1.00  0.00     0.120 C 
ATOM     15  C   UNL     1     -39.915  24.291   6.081  1.00  0.00     0.033 C 
ATOM     16  C   UNL     1     -38.695  25.130   5.660  1.00  0.00     0.010 C 
ATOM     17  C   UNL     1     -37.647  24.362   4.779  1.00  0.00    -0.025 C 
ATOM     18  C   UNL     1     -36.293  25.205   4.610  1.00  0.00     0.005 C 
ATOM     19  C   UNL     1     -35.427  24.711   3.398  1.00  0.00     0.006 C 
ATOM     20  C   UNL     1     -34.063  24.146   3.734  1.00  0.00     0.012 C 
ATOM     21  C   UNL     1     -33.181  25.100   4.556  1.00  0.00    -0.008 C 
ATOM     22  C   UNL     1     -31.796  24.334   4.833  1.00  0.00     0.008 C 
ATOM     23  C   UNL     1     -30.741  24.573   3.715  1.00  0.00     0.011 C 
ATOM     24  C   UNL     1     -32.977  26.431   3.772  1.00  0.00     0.016 C 
ATOM     25  C   UNL     1     -38.312  24.230   3.359  1.00  0.00     0.012 C 
ATOM     26  C   UNL     1     -38.171  20.816   6.672  1.00  0.00     0.014 C 
ATOM     27  C   UNL     1     -39.368  21.551   4.657  1.00  0.00     0.014 C 
ATOM     28  C   UNL     1     -35.864  26.909   6.470  1.00  0.00     0.016 C 
ATOM     29  C   UNL     1     -29.756  22.281   3.219  1.00  0.00     0.011 C 
ENDROOT
BRANCH   5  30
ATOM     30  C   UNL     1     -31.647  23.354   7.205  1.00  0.00     0.163 C 
BRANCH  30  31
ATOM     31  O   UNL     1     -30.693  22.322   7.244  1.00  0.00    -0.396 OA
ATOM     32  H   UNL     1     -30.277  22.271   6.344  1.00  0.00     0.210 HD
ENDBRANCH  30  31
ENDBRANCH   5  30
BRANCH  14  33
ATOM     33  O   UNL     1     -38.898  23.262   7.999  1.00  0.00    -0.393 OA
ATOM     34  H   UNL     1     -38.647  24.222   7.982  1.00  0.00     0.210 HD
ENDBRANCH  14  33
TORSDOF 3
ENDMDL
