MODEL 1
REMARK VINA RESULT:    -3.147      0.000      0.000
REMARK INTER + INTRA:          -3.823
REMARK INTER:                  -3.699
REMARK INTRA:                  -0.124
REMARK UNBOUND:                -0.124
REMARK SMILES O=C([O-])CCC(=O)[O-]
REMARK SMILES IDX 4 1 2 2 1 3 3 4 5 5 6 6 7 7 8 8
REMARK H PARENT
REMARK Flexibility Score: inf
ROOT
ATOM      1  C   UNL     1     209.422 207.501 155.152  1.00  0.00     0.059 C 
ENDROOT
BRANCH   1   2
ATOM      2  C   UNL     1     210.871 207.143 155.284  1.00  0.00     0.042 C 
ATOM      3  O   UNL     1     211.685 207.969 155.775  1.00  0.00    -0.550 OA
ATOM      4  O   UNL     1     211.314 205.883 154.903  1.00  0.00    -0.550 OA
ENDBRANCH   1   2
BRANCH   1   5
ATOM      5  C   UNL     1     208.599 206.968 156.330  1.00  0.00     0.059 C 
BRANCH   5   6
ATOM      6  C   UNL     1     208.513 207.968 157.442  1.00  0.00     0.042 C 
ATOM      7  O   UNL     1     209.338 207.931 158.393  1.00  0.00    -0.550 OA
ATOM      8  O   UNL     1     207.548 208.966 157.407  1.00  0.00    -0.550 OA
ENDBRANCH   5   6
ENDBRANCH   1   5
TORSDOF 3
ENDMDL
MODEL 2
REMARK VINA RESULT:    -3.129      5.194      6.770
REMARK INTER + INTRA:          -3.802
REMARK INTER:                  -3.690
REMARK INTRA:                  -0.112
REMARK UNBOUND:                -0.124
REMARK SMILES O=C([O-])CCC(=O)[O-]
REMARK SMILES IDX 4 1 2 2 1 3 3 4 5 5 6 6 7 7 8 8
REMARK H PARENT
REMARK Flexibility Score: inf
ROOT
ATOM      1  C   UNL     1     205.702 203.699 157.458  1.00  0.00     0.059 C 
ENDROOT
BRANCH   1   2
ATOM      2  C   UNL     1     206.011 203.431 158.900  1.00  0.00     0.042 C 
ATOM      3  O   UNL     1     205.994 202.252 159.342  1.00  0.00    -0.550 OA
ATOM      4  O   UNL     1     206.358 204.478 159.744  1.00  0.00    -0.550 OA
ENDBRANCH   1   2
BRANCH   1   5
ATOM      5  C   UNL     1     206.975 203.734 156.605  1.00  0.00     0.059 C 
BRANCH   5   6
ATOM      6  C   UNL     1     207.273 202.395 156.002  1.00  0.00     0.042 C 
ATOM      7  O   UNL     1     206.414 201.475 156.047  1.00  0.00    -0.550 OA
ATOM      8  O   UNL     1     208.482 202.177 155.355  1.00  0.00    -0.550 OA
ENDBRANCH   5   6
ENDBRANCH   1   5
TORSDOF 3
ENDMDL
MODEL 3
REMARK VINA RESULT:    -3.126      4.640      5.337
REMARK INTER + INTRA:          -3.799
REMARK INTER:                  -3.629
REMARK INTRA:                  -0.169
REMARK UNBOUND:                -0.124
REMARK SMILES O=C([O-])CCC(=O)[O-]
REMARK SMILES IDX 4 1 2 2 1 3 3 4 5 5 6 6 7 7 8 8
REMARK H PARENT
REMARK Flexibility Score: inf
ROOT
ATOM      1  C   UNL     1     205.871 203.867 156.484  1.00  0.00     0.059 C 
ENDROOT
BRANCH   1   2
ATOM      2  C   UNL     1     207.242 204.466 156.412  1.00  0.00     0.042 C 
ATOM      3  O   UNL     1     208.235 203.744 156.129  1.00  0.00    -0.550 OA
ATOM      4  O   UNL     1     207.418 205.829 156.615  1.00  0.00    -0.550 OA
ENDBRANCH   1   2
BRANCH   1   5
ATOM      5  C   UNL     1     205.221 204.107 157.851  1.00  0.00     0.059 C 
BRANCH   5   6
ATOM      6  C   UNL     1     205.946 203.381 158.943  1.00  0.00     0.042 C 
ATOM      7  O   UNL     1     206.542 204.027 159.845  1.00  0.00    -0.550 OA
ATOM      8  O   UNL     1     205.927 201.993 158.988  1.00  0.00    -0.550 OA
ENDBRANCH   5   6
ENDBRANCH   1   5
TORSDOF 3
ENDMDL
MODEL 4
REMARK VINA RESULT:    -3.118      4.596      5.973
REMARK INTER + INTRA:          -3.789
REMARK INTER:                  -3.602
REMARK INTRA:                  -0.187
REMARK UNBOUND:                -0.124
REMARK SMILES O=C([O-])CCC(=O)[O-]
REMARK SMILES IDX 4 1 2 2 1 3 3 4 5 5 6 6 7 7 8 8
REMARK H PARENT
REMARK Flexibility Score: inf
ROOT
ATOM      1  C   UNL     1     205.172 204.353 157.821  1.00  0.00     0.059 C 
ENDROOT
BRANCH   1   2
ATOM      2  C   UNL     1     205.865 203.475 158.818  1.00  0.00     0.042 C 
ATOM      3  O   UNL     1     205.827 202.222 158.692  1.00  0.00    -0.550 OA
ATOM      4  O   UNL     1     206.586 204.040 159.861  1.00  0.00    -0.550 OA
ENDBRANCH   1   2
BRANCH   1   5
ATOM      5  C   UNL     1     206.144 205.342 157.168  1.00  0.00     0.059 C 
BRANCH   5   6
ATOM      6  C   UNL     1     207.208 204.636 156.384  1.00  0.00     0.042 C 
ATOM      7  O   UNL     1     206.896 203.914 155.401  1.00  0.00    -0.550 OA
ATOM      8  O   UNL     1     208.546 204.809 156.715  1.00  0.00    -0.550 OA
ENDBRANCH   5   6
ENDBRANCH   1   5
TORSDOF 3
ENDMDL
MODEL 5
REMARK VINA RESULT:    -3.109      5.176      5.758
REMARK INTER + INTRA:          -3.779
REMARK INTER:                  -3.657
REMARK INTRA:                  -0.121
REMARK UNBOUND:                -0.124
REMARK SMILES O=C([O-])CCC(=O)[O-]
REMARK SMILES IDX 4 1 2 2 1 3 3 4 5 5 6 6 7 7 8 8
REMARK H PARENT
REMARK Flexibility Score: inf
ROOT
ATOM      1  C   UNL     1     206.855 203.844 156.574  1.00  0.00     0.059 C 
ENDROOT
BRANCH   1   2
ATOM      2  C   UNL     1     207.298 202.516 156.040  1.00  0.00     0.042 C 
ATOM      3  O   UNL     1     208.481 202.357 155.639  1.00  0.00    -0.550 OA
ATOM      4  O   UNL     1     206.416 201.443 156.024  1.00  0.00    -0.550 OA
ENDBRANCH   1   2
BRANCH   1   5
ATOM      5  C   UNL     1     205.620 203.710 157.471  1.00  0.00     0.059 C 
BRANCH   5   6
ATOM      6  C   UNL     1     205.998 203.415 158.891  1.00  0.00     0.042 C 
ATOM      7  O   UNL     1     205.973 202.231 159.320  1.00  0.00    -0.550 OA
ATOM      8  O   UNL     1     206.417 204.441 159.727  1.00  0.00    -0.550 OA
ENDBRANCH   5   6
ENDBRANCH   1   5
TORSDOF 3
ENDMDL
MODEL 6
REMARK VINA RESULT:    -3.098      4.630      5.912
REMARK INTER + INTRA:          -3.766
REMARK INTER:                  -3.599
REMARK INTRA:                  -0.167
REMARK UNBOUND:                -0.124
REMARK SMILES O=C([O-])CCC(=O)[O-]
REMARK SMILES IDX 4 1 2 2 1 3 3 4 5 5 6 6 7 7 8 8
REMARK H PARENT
REMARK Flexibility Score: inf
ROOT
ATOM      1  C   UNL     1     205.139 204.173 157.937  1.00  0.00     0.059 C 
ENDROOT
BRANCH   1   2
ATOM      2  C   UNL     1     205.986 203.464 158.950  1.00  0.00     0.042 C 
ATOM      3  O   UNL     1     206.699 204.124 159.752  1.00  0.00    -0.550 OA
ATOM      4  O   UNL     1     205.956 202.078 159.035  1.00  0.00    -0.550 OA
ENDBRANCH   1   2
BRANCH   1   5
ATOM      5  C   UNL     1     205.654 203.946 156.511  1.00  0.00     0.059 C 
BRANCH   5   6
ATOM      6  C   UNL     1     207.011 204.548 156.310  1.00  0.00     0.042 C 
ATOM      7  O   UNL     1     207.167 205.796 156.382  1.00  0.00    -0.550 OA
ATOM      8  O   UNL     1     208.109 203.729 156.086  1.00  0.00    -0.550 OA
ENDBRANCH   5   6
ENDBRANCH   1   5
TORSDOF 3
ENDMDL
MODEL 7
REMARK VINA RESULT:    -3.037      2.786      5.403
REMARK INTER + INTRA:          -3.693
REMARK INTER:                  -3.572
REMARK INTRA:                  -0.122
REMARK UNBOUND:                -0.124
REMARK SMILES O=C([O-])CCC(=O)[O-]
REMARK SMILES IDX 4 1 2 2 1 3 3 4 5 5 6 6 7 7 8 8
REMARK H PARENT
REMARK Flexibility Score: inf
ROOT
ATOM      1  C   UNL     1     205.628 209.355 157.335  1.00  0.00     0.059 C 
ENDROOT
BRANCH   1   2
ATOM      2  C   UNL     1     204.932 209.424 158.660  1.00  0.00     0.042 C 
ATOM      3  O   UNL     1     204.395 210.499 159.038  1.00  0.00    -0.550 OA
ATOM      4  O   UNL     1     204.840 208.291 159.458  1.00  0.00    -0.550 OA
ENDBRANCH   1   2
BRANCH   1   5
ATOM      5  C   UNL     1     207.138 209.574 157.478  1.00  0.00     0.059 C 
BRANCH   5   6
ATOM      6  C   UNL     1     207.883 208.275 157.531  1.00  0.00     0.042 C 
ATOM      7  O   UNL     1     207.327 207.210 157.151  1.00  0.00    -0.550 OA
ATOM      8  O   UNL     1     209.204 208.247 157.959  1.00  0.00    -0.550 OA
ENDBRANCH   5   6
ENDBRANCH   1   5
TORSDOF 3
ENDMDL
MODEL 8
REMARK VINA RESULT:    -3.028      5.276      6.010
REMARK INTER + INTRA:          -3.683
REMARK INTER:                  -3.505
REMARK INTRA:                  -0.178
REMARK UNBOUND:                -0.124
REMARK SMILES O=C([O-])CCC(=O)[O-]
REMARK SMILES IDX 4 1 2 2 1 3 3 4 5 5 6 6 7 7 8 8
REMARK H PARENT
REMARK Flexibility Score: inf
ROOT
ATOM      1  C   UNL     1     206.524 204.633 157.431  1.00  0.00     0.059 C 
ENDROOT
BRANCH   1   2
ATOM      2  C   UNL     1     206.171 203.858 158.664  1.00  0.00     0.042 C 
ATOM      3  O   UNL     1     205.681 202.702 158.567  1.00  0.00    -0.550 OA
ATOM      4  O   UNL     1     206.423 204.396 159.920  1.00  0.00    -0.550 OA
ENDBRANCH   1   2
BRANCH   1   5
ATOM      5  C   UNL     1     205.302 204.851 156.532  1.00  0.00     0.059 C 
BRANCH   5   6
ATOM      6  C   UNL     1     204.243 205.654 157.223  1.00  0.00     0.042 C 
ATOM      7  O   UNL     1     204.497 206.818 157.632  1.00  0.00    -0.550 OA
ATOM      8  O   UNL     1     202.965 205.133 157.379  1.00  0.00    -0.550 OA
ENDBRANCH   5   6
ENDBRANCH   1   5
TORSDOF 3
ENDMDL
MODEL 9
REMARK VINA RESULT:    -3.023      5.398      6.152
REMARK INTER + INTRA:          -3.677
REMARK INTER:                  -3.568
REMARK INTRA:                  -0.109
REMARK UNBOUND:                -0.124
REMARK SMILES O=C([O-])CCC(=O)[O-]
REMARK SMILES IDX 4 1 2 2 1 3 3 4 5 5 6 6 7 7 8 8
REMARK H PARENT
REMARK Flexibility Score: inf
ROOT
ATOM      1  C   UNL     1     204.307 204.899 157.481  1.00  0.00     0.059 C 
ENDROOT
BRANCH   1   2
ATOM      2  C   UNL     1     204.650 206.329 157.190  1.00  0.00     0.042 C 
ATOM      3  O   UNL     1     204.990 207.101 158.125  1.00  0.00    -0.550 OA
ATOM      4  O   UNL     1     204.635 206.796 155.882  1.00  0.00    -0.550 OA
ENDBRANCH   1   2
BRANCH   1   5
ATOM      5  C   UNL     1     205.530 203.986 157.345  1.00  0.00     0.059 C 
BRANCH   5   6
ATOM      6  C   UNL     1     205.917 203.381 158.660  1.00  0.00     0.042 C 
ATOM      7  O   UNL     1     205.857 202.134 158.826  1.00  0.00    -0.550 OA
ATOM      8  O   UNL     1     206.383 204.190 159.688  1.00  0.00    -0.550 OA
ENDBRANCH   5   6
ENDBRANCH   1   5
TORSDOF 3
ENDMDL
