MODEL 1
REMARK VINA RESULT:    -4.542      0.000      0.000
REMARK INTER + INTRA:         -15.915
REMARK INTER:                 -11.977
REMARK INTRA:                  -3.939
REMARK UNBOUND:                -3.939
REMARK SMILES CCCCCCCCCCCCCCCCCCCCCCCCCCCCCC(=O)[O-]
REMARK SMILES IDX 16 1 17 2 18 3 19 4 20 5 21 6 22 7 23 8 24 9 25 10 26 11
REMARK SMILES IDX 27 12 28 13 29 14 30 15 31 16 32 17 15 18 14 19 13 20 12 21
REMARK SMILES IDX 11 22 10 23 9 24 8 25 7 26 6 27 5 28 4 29 3 30 2 31 1 32
REMARK H PARENT
REMARK Flexibility Score: inf
ROOT
ATOM      1  C   UNL     1     -49.067   9.797 -30.593  1.00  0.00     0.000 C 
ENDROOT
BRANCH   1   2
ATOM      2  C   UNL     1     -47.770   9.224 -31.192  1.00  0.00     0.000 C 
BRANCH   2   3
ATOM      3  C   UNL     1     -46.832   8.636 -30.126  1.00  0.00     0.000 C 
BRANCH   3   4
ATOM      4  C   UNL     1     -47.010   7.130 -29.845  1.00  0.00     0.000 C 
BRANCH   4   5
ATOM      5  C   UNL     1     -47.936   6.407 -30.844  1.00  0.00     0.000 C 
BRANCH   5   6
ATOM      6  C   UNL     1     -49.275   5.969 -30.215  1.00  0.00     0.000 C 
BRANCH   6   7
ATOM      7  C   UNL     1     -50.467   6.173 -31.165  1.00  0.00     0.000 C 
BRANCH   7   8
ATOM      8  C   UNL     1     -50.060   6.823 -32.500  1.00  0.00     0.000 C 
BRANCH   8   9
ATOM      9  C   UNL     1     -50.800   6.220 -33.704  1.00  0.00     0.000 C 
BRANCH   9  10
ATOM     10  C   UNL     1     -51.629   7.268 -34.474  1.00  0.00     0.000 C 
BRANCH  10  11
ATOM     11  C   UNL     1     -53.149   7.011 -34.390  1.00  0.00     0.000 C 
BRANCH  11  12
ATOM     12  C   UNL     1     -53.562   6.011 -33.293  1.00  0.00     0.000 C 
BRANCH  12  13
ATOM     13  C   UNL     1     -54.125   6.640 -32.003  1.00  0.00     0.006 C 
BRANCH  13  14
ATOM     14  C   UNL     1     -53.843   8.144 -31.852  1.00  0.00     0.053 C 
BRANCH  14  15
ATOM     15  C   UNL     1     -53.302   8.479 -30.496  1.00  0.00     0.041 C 
ATOM     16  O   UNL     1     -53.489   7.696 -29.528  1.00  0.00    -0.550 OA
ATOM     17  O   UNL     1     -52.567   9.642 -30.306  1.00  0.00    -0.550 OA
ENDBRANCH  14  15
ENDBRANCH  13  14
ENDBRANCH  12  13
ENDBRANCH  11  12
ENDBRANCH  10  11
ENDBRANCH   9  10
ENDBRANCH   8   9
ENDBRANCH   7   8
ENDBRANCH   6   7
ENDBRANCH   5   6
ENDBRANCH   4   5
ENDBRANCH   3   4
ENDBRANCH   2   3
ENDBRANCH   1   2
BRANCH   1  18
ATOM     18  C   UNL     1     -48.849  10.473 -29.230  1.00  0.00     0.000 C 
BRANCH  18  19
ATOM     19  C   UNL     1     -49.734  11.713 -29.030  1.00  0.00     0.000 C 
BRANCH  19  20
ATOM     20  C   UNL     1     -49.062  12.969 -29.607  1.00  0.00     0.000 C 
BRANCH  20  21
ATOM     21  C   UNL     1     -49.648  13.402 -30.963  1.00  0.00     0.000 C 
BRANCH  21  22
ATOM     22  C   UNL     1     -51.035  14.068 -30.894  1.00  0.00     0.000 C 
BRANCH  22  23
ATOM     23  C   UNL     1     -52.161  13.178 -31.443  1.00  0.00     0.000 C 
BRANCH  23  24
ATOM     24  C   UNL     1     -53.336  13.117 -30.460  1.00  0.00    -0.000 C 
BRANCH  24  25
ATOM     25  C   UNL     1     -52.881  13.451 -29.031  1.00  0.00    -0.000 C 
BRANCH  25  26
ATOM     26  C   UNL     1     -53.790  14.490 -28.351  1.00  0.00    -0.000 C 
BRANCH  26  27
ATOM     27  C   UNL     1     -53.056  15.807 -28.050  1.00  0.00    -0.000 C 
BRANCH  27  28
ATOM     28  C   UNL     1     -54.030  16.969 -27.754  1.00  0.00    -0.000 C 
BRANCH  28  29
ATOM     29  C   UNL     1     -54.046  18.059 -28.843  1.00  0.00    -0.000 C 
BRANCH  29  30
ATOM     30  C   UNL     1     -53.607  17.590 -30.243  1.00  0.00    -0.000 C 
BRANCH  30  31
ATOM     31  C   UNL     1     -52.422  18.369 -30.843  1.00  0.00    -0.003 C 
ATOM     32  C   UNL     1     -51.063  17.800 -30.435  1.00  0.00     0.004 C 
ENDBRANCH  30  31
ENDBRANCH  29  30
ENDBRANCH  28  29
ENDBRANCH  27  28
ENDBRANCH  26  27
ENDBRANCH  25  26
ENDBRANCH  24  25
ENDBRANCH  23  24
ENDBRANCH  22  23
ENDBRANCH  21  22
ENDBRANCH  20  21
ENDBRANCH  19  20
ENDBRANCH  18  19
ENDBRANCH   1  18
TORSDOF 28
ENDMDL
MODEL 2
REMARK VINA RESULT:    -4.271      1.463      5.066
REMARK INTER + INTRA:         -15.201
REMARK INTER:                 -11.195
REMARK INTRA:                  -4.006
REMARK UNBOUND:                -3.939
REMARK SMILES CCCCCCCCCCCCCCCCCCCCCCCCCCCCCC(=O)[O-]
REMARK SMILES IDX 16 1 17 2 18 3 19 4 20 5 21 6 22 7 23 8 24 9 25 10 26 11
REMARK SMILES IDX 27 12 28 13 29 14 30 15 31 16 32 17 15 18 14 19 13 20 12 21
REMARK SMILES IDX 11 22 10 23 9 24 8 25 7 26 6 27 5 28 4 29 3 30 2 31 1 32
REMARK H PARENT
REMARK Flexibility Score: inf
ROOT
ATOM      1  C   UNL     1     -50.053  15.384 -31.417  1.00  0.00     0.000 C 
ENDROOT
BRANCH   1   2
ATOM      2  C   UNL     1     -50.647  14.040 -30.958  1.00  0.00     0.000 C 
BRANCH   2   3
ATOM      3  C   UNL     1     -49.891  13.432 -29.765  1.00  0.00     0.000 C 
BRANCH   3   4
ATOM      4  C   UNL     1     -48.880  12.322 -30.117  1.00  0.00     0.000 C 
BRANCH   4   5
ATOM      5  C   UNL     1     -48.593  11.340 -28.963  1.00  0.00     0.000 C 
BRANCH   5   6
ATOM      6  C   UNL     1     -48.765   9.864 -29.372  1.00  0.00     0.000 C 
BRANCH   6   7
ATOM      7  C   UNL     1     -47.432   9.096 -29.387  1.00  0.00     0.000 C 
BRANCH   7   8
ATOM      8  C   UNL     1     -47.105   8.501 -30.769  1.00  0.00     0.000 C 
BRANCH   8   9
ATOM      9  C   UNL     1     -48.148   8.870 -31.836  1.00  0.00     0.000 C 
BRANCH   9  10
ATOM     10  C   UNL     1     -48.238   7.821 -32.962  1.00  0.00     0.000 C 
BRANCH  10  11
ATOM     11  C   UNL     1     -49.629   7.778 -33.632  1.00  0.00     0.000 C 
BRANCH  11  12
ATOM     12  C   UNL     1     -50.191   6.357 -33.831  1.00  0.00     0.000 C 
BRANCH  12  13
ATOM     13  C   UNL     1     -51.704   6.203 -33.576  1.00  0.00     0.006 C 
BRANCH  13  14
ATOM     14  C   UNL     1     -52.094   6.096 -32.093  1.00  0.00     0.053 C 
BRANCH  14  15
ATOM     15  C   UNL     1     -53.434   6.708 -31.820  1.00  0.00     0.041 C 
ATOM     16  O   UNL     1     -53.928   6.657 -30.663  1.00  0.00    -0.550 OA
ATOM     17  O   UNL     1     -54.124   7.359 -32.834  1.00  0.00    -0.550 OA
ENDBRANCH  14  15
ENDBRANCH  13  14
ENDBRANCH  12  13
ENDBRANCH  11  12
ENDBRANCH  10  11
ENDBRANCH   9  10
ENDBRANCH   8   9
ENDBRANCH   7   8
ENDBRANCH   6   7
ENDBRANCH   5   6
ENDBRANCH   4   5
ENDBRANCH   3   4
ENDBRANCH   2   3
ENDBRANCH   1   2
BRANCH   1  18
ATOM     18  C   UNL     1     -51.125  16.449 -31.690  1.00  0.00     0.000 C 
BRANCH  18  19
ATOM     19  C   UNL     1     -51.439  17.311 -30.458  1.00  0.00     0.000 C 
BRANCH  19  20
ATOM     20  C   UNL     1     -52.146  18.614 -30.861  1.00  0.00     0.000 C 
BRANCH  20  21
ATOM     21  C   UNL     1     -53.628  18.656 -30.446  1.00  0.00     0.000 C 
BRANCH  21  22
ATOM     22  C   UNL     1     -53.906  19.307 -29.078  1.00  0.00     0.000 C 
BRANCH  22  23
ATOM     23  C   UNL     1     -53.860  18.307 -27.912  1.00  0.00     0.000 C 
BRANCH  23  24
ATOM     24  C   UNL     1     -54.125  16.880 -28.407  1.00  0.00    -0.000 C 
BRANCH  24  25
ATOM     25  C   UNL     1     -53.305  15.855 -27.608  1.00  0.00    -0.000 C 
BRANCH  25  26
ATOM     26  C   UNL     1     -53.625  14.404 -28.007  1.00  0.00    -0.000 C 
BRANCH  26  27
ATOM     27  C   UNL     1     -53.877  14.249 -29.516  1.00  0.00    -0.000 C 
BRANCH  27  28
ATOM     28  C   UNL     1     -53.655  12.800 -30.003  1.00  0.00    -0.000 C 
BRANCH  28  29
ATOM     29  C   UNL     1     -53.196  11.834 -28.894  1.00  0.00    -0.000 C 
BRANCH  29  30
ATOM     30  C   UNL     1     -52.260  10.704 -29.358  1.00  0.00    -0.000 C 
BRANCH  30  31
ATOM     31  C   UNL     1     -52.617  10.090 -30.724  1.00  0.00    -0.003 C 
ATOM     32  C   UNL     1     -51.625  10.463 -31.826  1.00  0.00     0.004 C 
ENDBRANCH  30  31
ENDBRANCH  29  30
ENDBRANCH  28  29
ENDBRANCH  27  28
ENDBRANCH  26  27
ENDBRANCH  25  26
ENDBRANCH  24  25
ENDBRANCH  23  24
ENDBRANCH  22  23
ENDBRANCH  21  22
ENDBRANCH  20  21
ENDBRANCH  19  20
ENDBRANCH  18  19
ENDBRANCH   1  18
TORSDOF 28
ENDMDL
MODEL 3
REMARK VINA RESULT:    -4.246      2.055      3.963
REMARK INTER + INTRA:         -15.136
REMARK INTER:                 -11.788
REMARK INTRA:                  -3.347
REMARK UNBOUND:                -3.939
REMARK SMILES CCCCCCCCCCCCCCCCCCCCCCCCCCCCCC(=O)[O-]
REMARK SMILES IDX 16 1 17 2 18 3 19 4 20 5 21 6 22 7 23 8 24 9 25 10 26 11
REMARK SMILES IDX 27 12 28 13 29 14 30 15 31 16 32 17 15 18 14 19 13 20 12 21
REMARK SMILES IDX 11 22 10 23 9 24 8 25 7 26 6 27 5 28 4 29 3 30 2 31 1 32
REMARK H PARENT
REMARK Flexibility Score: inf
ROOT
ATOM      1  C   UNL     1     -49.735  13.352 -29.594  1.00  0.00     0.000 C 
ENDROOT
BRANCH   1   2
ATOM      2  C   UNL     1     -48.900  12.133 -29.161  1.00  0.00     0.000 C 
BRANCH   2   3
ATOM      3  C   UNL     1     -49.704  10.823 -29.184  1.00  0.00     0.000 C 
BRANCH   3   4
ATOM      4  C   UNL     1     -50.893  10.792 -30.165  1.00  0.00     0.000 C 
BRANCH   4   5
ATOM      5  C   UNL     1     -51.252   9.382 -30.678  1.00  0.00     0.000 C 
BRANCH   5   6
ATOM      6  C   UNL     1     -51.301   9.296 -32.216  1.00  0.00     0.000 C 
BRANCH   6   7
ATOM      7  C   UNL     1     -52.491   8.465 -32.724  1.00  0.00     0.000 C 
BRANCH   7   8
ATOM      8  C   UNL     1     -52.059   7.306 -33.641  1.00  0.00     0.000 C 
BRANCH   8   9
ATOM      9  C   UNL     1     -50.680   6.739 -33.269  1.00  0.00     0.000 C 
BRANCH   9  10
ATOM     10  C   UNL     1     -50.642   6.163 -31.840  1.00  0.00     0.000 C 
BRANCH  10  11
ATOM     11  C   UNL     1     -49.239   6.237 -31.199  1.00  0.00     0.000 C 
BRANCH  11  12
ATOM     12  C   UNL     1     -48.080   6.247 -32.215  1.00  0.00     0.000 C 
BRANCH  12  13
ATOM     13  C   UNL     1     -47.344   7.593 -32.363  1.00  0.00     0.006 C 
BRANCH  13  14
ATOM     14  C   UNL     1     -47.712   8.642 -31.302  1.00  0.00     0.053 C 
BRANCH  14  15
ATOM     15  C   UNL     1     -46.761   8.628 -30.145  1.00  0.00     0.041 C 
ATOM     16  O   UNL     1     -46.498   9.694 -29.529  1.00  0.00    -0.550 OA
ATOM     17  O   UNL     1     -46.185   7.435 -29.729  1.00  0.00    -0.550 OA
ENDBRANCH  14  15
ENDBRANCH  13  14
ENDBRANCH  12  13
ENDBRANCH  11  12
ENDBRANCH  10  11
ENDBRANCH   9  10
ENDBRANCH   8   9
ENDBRANCH   7   8
ENDBRANCH   6   7
ENDBRANCH   5   6
ENDBRANCH   4   5
ENDBRANCH   3   4
ENDBRANCH   2   3
ENDBRANCH   1   2
BRANCH   1  18
ATOM     18  C   UNL     1     -49.118  14.109 -30.780  1.00  0.00     0.000 C 
BRANCH  18  19
ATOM     19  C   UNL     1     -50.114  15.054 -31.469  1.00  0.00     0.000 C 
BRANCH  19  20
ATOM     20  C   UNL     1     -51.563  14.663 -31.140  1.00  0.00     0.000 C 
BRANCH  20  21
ATOM     21  C   UNL     1     -52.065  13.455 -31.952  1.00  0.00     0.000 C 
BRANCH  21  22
ATOM     22  C   UNL     1     -53.428  12.890 -31.509  1.00  0.00     0.000 C 
BRANCH  22  23
ATOM     23  C   UNL     1     -54.013  13.614 -30.286  1.00  0.00     0.000 C 
BRANCH  23  24
ATOM     24  C   UNL     1     -53.585  12.922 -28.986  1.00  0.00    -0.000 C 
BRANCH  24  25
ATOM     25  C   UNL     1     -53.901  13.797 -27.763  1.00  0.00    -0.000 C 
BRANCH  25  26
ATOM     26  C   UNL     1     -54.125  15.272 -28.136  1.00  0.00    -0.000 C 
BRANCH  26  27
ATOM     27  C   UNL     1     -53.169  16.220 -27.392  1.00  0.00    -0.000 C 
BRANCH  27  28
ATOM     28  C   UNL     1     -53.676  17.679 -27.384  1.00  0.00    -0.000 C 
BRANCH  28  29
ATOM     29  C   UNL     1     -53.350  18.457 -28.674  1.00  0.00    -0.000 C 
BRANCH  29  30
ATOM     30  C   UNL     1     -52.229  17.849 -29.538  1.00  0.00    -0.000 C 
BRANCH  30  31
ATOM     31  C   UNL     1     -51.932  18.613 -30.841  1.00  0.00    -0.003 C 
ATOM     32  C   UNL     1     -53.155  19.338 -31.402  1.00  0.00     0.004 C 
ENDBRANCH  30  31
ENDBRANCH  29  30
ENDBRANCH  28  29
ENDBRANCH  27  28
ENDBRANCH  26  27
ENDBRANCH  25  26
ENDBRANCH  24  25
ENDBRANCH  23  24
ENDBRANCH  22  23
ENDBRANCH  21  22
ENDBRANCH  20  21
ENDBRANCH  19  20
ENDBRANCH  18  19
ENDBRANCH   1  18
TORSDOF 28
ENDMDL
MODEL 4
REMARK VINA RESULT:    -4.202      1.603      4.168
REMARK INTER + INTRA:         -15.019
REMARK INTER:                 -11.123
REMARK INTRA:                  -3.896
REMARK UNBOUND:                -3.939
REMARK SMILES CCCCCCCCCCCCCCCCCCCCCCCCCCCCCC(=O)[O-]
REMARK SMILES IDX 16 1 17 2 18 3 19 4 20 5 21 6 22 7 23 8 24 9 25 10 26 11
REMARK SMILES IDX 27 12 28 13 29 14 30 15 31 16 32 17 15 18 14 19 13 20 12 21
REMARK SMILES IDX 11 22 10 23 9 24 8 25 7 26 6 27 5 28 4 29 3 30 2 31 1 32
REMARK H PARENT
REMARK Flexibility Score: inf
ROOT
ATOM      1  C   UNL     1     -48.661   6.318 -30.227  1.00  0.00     0.000 C 
ENDROOT
BRANCH   1   2
ATOM      2  C   UNL     1     -49.705   6.152 -31.346  1.00  0.00     0.000 C 
BRANCH   2   3
ATOM      3  C   UNL     1     -49.359   6.960 -32.607  1.00  0.00     0.000 C 
BRANCH   3   4
ATOM      4  C   UNL     1     -50.563   7.564 -33.358  1.00  0.00     0.000 C 
BRANCH   4   5
ATOM      5  C   UNL     1     -51.487   6.517 -34.013  1.00  0.00     0.000 C 
BRANCH   5   6
ATOM      6  C   UNL     1     -52.853   7.098 -34.431  1.00  0.00     0.000 C 
BRANCH   6   7
ATOM      7  C   UNL     1     -54.007   6.582 -33.555  1.00  0.00     0.000 C 
BRANCH   7   8
ATOM      8  C   UNL     1     -53.596   6.387 -32.084  1.00  0.00     0.000 C 
BRANCH   8   9
ATOM      9  C   UNL     1     -53.700   7.683 -31.263  1.00  0.00     0.000 C 
BRANCH   9  10
ATOM     10  C   UNL     1     -52.722   7.708 -30.071  1.00  0.00     0.000 C 
BRANCH  10  11
ATOM     11  C   UNL     1     -51.881   9.002 -30.011  1.00  0.00     0.000 C 
BRANCH  11  12
ATOM     12  C   UNL     1     -51.917   9.839 -31.304  1.00  0.00     0.000 C 
BRANCH  12  13
ATOM     13  C   UNL     1     -52.918  11.012 -31.304  1.00  0.00     0.006 C 
BRANCH  13  14
ATOM     14  C   UNL     1     -53.668  11.210 -29.977  1.00  0.00     0.053 C 
BRANCH  14  15
ATOM     15  C   UNL     1     -53.799  12.659 -29.617  1.00  0.00     0.041 C 
ATOM     16  O   UNL     1     -53.590  13.038 -28.435  1.00  0.00    -0.550 OA
ATOM     17  O   UNL     1     -54.125  13.593 -30.591  1.00  0.00    -0.550 OA
ENDBRANCH  14  15
ENDBRANCH  13  14
ENDBRANCH  12  13
ENDBRANCH  11  12
ENDBRANCH  10  11
ENDBRANCH   9  10
ENDBRANCH   8   9
ENDBRANCH   7   8
ENDBRANCH   6   7
ENDBRANCH   5   6
ENDBRANCH   4   5
ENDBRANCH   3   4
ENDBRANCH   2   3
ENDBRANCH   1   2
BRANCH   1  18
ATOM     18  C   UNL     1     -47.381   7.023 -30.702  1.00  0.00     0.000 C 
BRANCH  18  19
ATOM     19  C   UNL     1     -46.629   7.727 -29.563  1.00  0.00     0.000 C 
BRANCH  19  20
ATOM     20  C   UNL     1     -46.685   9.254 -29.725  1.00  0.00     0.000 C 
BRANCH  20  21
ATOM     21  C   UNL     1     -48.121   9.800 -29.830  1.00  0.00     0.000 C 
BRANCH  21  22
ATOM     22  C   UNL     1     -48.266  11.312 -29.573  1.00  0.00     0.000 C 
BRANCH  22  23
ATOM     23  C   UNL     1     -49.584  11.682 -28.874  1.00  0.00     0.000 C 
BRANCH  23  24
ATOM     24  C   UNL     1     -50.244  12.886 -29.556  1.00  0.00    -0.000 C 
BRANCH  24  25
ATOM     25  C   UNL     1     -49.240  13.640 -30.442  1.00  0.00    -0.000 C 
BRANCH  25  26
ATOM     26  C   UNL     1     -49.921  14.673 -31.357  1.00  0.00    -0.000 C 
BRANCH  26  27
ATOM     27  C   UNL     1     -51.213  15.240 -30.747  1.00  0.00    -0.000 C 
BRANCH  27  28
ATOM     28  C   UNL     1     -51.352  16.762 -30.974  1.00  0.00    -0.000 C 
BRANCH  28  29
ATOM     29  C   UNL     1     -52.554  17.392 -30.246  1.00  0.00    -0.000 C 
BRANCH  29  30
ATOM     30  C   UNL     1     -53.553  16.387 -29.643  1.00  0.00    -0.000 C 
BRANCH  30  31
ATOM     31  C   UNL     1     -53.751  16.508 -28.121  1.00  0.00    -0.003 C 
ATOM     32  C   UNL     1     -53.020  17.706 -27.515  1.00  0.00     0.004 C 
ENDBRANCH  30  31
ENDBRANCH  29  30
ENDBRANCH  28  29
ENDBRANCH  27  28
ENDBRANCH  26  27
ENDBRANCH  25  26
ENDBRANCH  24  25
ENDBRANCH  23  24
ENDBRANCH  22  23
ENDBRANCH  21  22
ENDBRANCH  20  21
ENDBRANCH  19  20
ENDBRANCH  18  19
ENDBRANCH   1  18
TORSDOF 28
ENDMDL
MODEL 5
REMARK VINA RESULT:    -4.168      3.032      9.265
REMARK INTER + INTRA:         -14.928
REMARK INTER:                 -11.799
REMARK INTRA:                  -3.130
REMARK UNBOUND:                -3.939
REMARK SMILES CCCCCCCCCCCCCCCCCCCCCCCCCCCCCC(=O)[O-]
REMARK SMILES IDX 16 1 17 2 18 3 19 4 20 5 21 6 22 7 23 8 24 9 25 10 26 11
REMARK SMILES IDX 27 12 28 13 29 14 30 15 31 16 32 17 15 18 14 19 13 20 12 21
REMARK SMILES IDX 11 22 10 23 9 24 8 25 7 26 6 27 5 28 4 29 3 30 2 31 1 32
REMARK H PARENT
REMARK Flexibility Score: inf
ROOT
ATOM      1  C   UNL     1     -49.362  13.595 -30.493  1.00  0.00     0.000 C 
ENDROOT
BRANCH   1   2
ATOM      2  C   UNL     1     -50.579  14.532 -30.399  1.00  0.00     0.000 C 
BRANCH   2   3
ATOM      3  C   UNL     1     -51.541  14.379 -31.589  1.00  0.00     0.000 C 
BRANCH   3   4
ATOM      4  C   UNL     1     -52.053  12.947 -31.846  1.00  0.00     0.000 C 
BRANCH   4   5
ATOM      5  C   UNL     1     -53.399  12.626 -31.164  1.00  0.00     0.000 C 
BRANCH   5   6
ATOM      6  C   UNL     1     -53.275  11.551 -30.066  1.00  0.00     0.000 C 
BRANCH   6   7
ATOM      7  C   UNL     1     -52.903  12.144 -28.697  1.00  0.00     0.000 C 
BRANCH   7   8
ATOM      8  C   UNL     1     -54.060  12.936 -28.059  1.00  0.00     0.000 C 
BRANCH   8   9
ATOM      9  C   UNL     1     -54.102  14.401 -28.521  1.00  0.00     0.000 C 
BRANCH   9  10
ATOM     10  C   UNL     1     -52.987  15.255 -27.884  1.00  0.00     0.000 C 
BRANCH  10  11
ATOM     11  C   UNL     1     -53.534  16.468 -27.101  1.00  0.00     0.000 C 
BRANCH  11  12
ATOM     12  C   UNL     1     -53.873  17.687 -27.980  1.00  0.00     0.000 C 
BRANCH  12  13
ATOM     13  C   UNL     1     -52.717  18.211 -28.856  1.00  0.00     0.006 C 
BRANCH  13  14
ATOM     14  C   UNL     1     -52.919  18.008 -30.367  1.00  0.00     0.053 C 
BRANCH  14  15
ATOM     15  C   UNL     1     -53.125  19.307 -31.085  1.00  0.00     0.041 C 
ATOM     16  O   UNL     1     -54.125  20.024 -30.820  1.00  0.00    -0.550 OA
ATOM     17  O   UNL     1     -52.201  19.738 -32.026  1.00  0.00    -0.550 OA
ENDBRANCH  14  15
ENDBRANCH  13  14
ENDBRANCH  12  13
ENDBRANCH  11  12
ENDBRANCH  10  11
ENDBRANCH   9  10
ENDBRANCH   8   9
ENDBRANCH   7   8
ENDBRANCH   6   7
ENDBRANCH   5   6
ENDBRANCH   4   5
ENDBRANCH   3   4
ENDBRANCH   2   3
ENDBRANCH   1   2
BRANCH   1  18
ATOM     18  C   UNL     1     -49.559  12.278 -29.727  1.00  0.00     0.000 C 
BRANCH  18  19
ATOM     19  C   UNL     1     -48.263  11.760 -29.085  1.00  0.00     0.000 C 
BRANCH  19  20
ATOM     20  C   UNL     1     -48.393  10.278 -28.698  1.00  0.00     0.000 C 
BRANCH  20  21
ATOM     21  C   UNL     1     -49.147   9.441 -29.747  1.00  0.00     0.000 C 
BRANCH  21  22
ATOM     22  C   UNL     1     -48.831   7.934 -29.731  1.00  0.00     0.000 C 
BRANCH  22  23
ATOM     23  C   UNL     1     -47.325   7.632 -29.744  1.00  0.00     0.000 C 
BRANCH  23  24
ATOM     24  C   UNL     1     -47.052   6.239 -30.324  1.00  0.00    -0.000 C 
BRANCH  24  25
ATOM     25  C   UNL     1     -48.047   5.901 -31.445  1.00  0.00    -0.000 C 
BRANCH  25  26
ATOM     26  C   UNL     1     -47.633   6.497 -32.801  1.00  0.00    -0.000 C 
BRANCH  26  27
ATOM     27  C   UNL     1     -48.722   7.398 -33.407  1.00  0.00    -0.000 C 
BRANCH  27  28
ATOM     28  C   UNL     1     -50.136   7.028 -32.907  1.00  0.00    -0.000 C 
BRANCH  28  29
ATOM     29  C   UNL     1     -51.069   6.503 -34.015  1.00  0.00    -0.000 C 
BRANCH  29  30
ATOM     30  C   UNL     1     -52.477   7.128 -34.034  1.00  0.00    -0.000 C 
BRANCH  30  31
ATOM     31  C   UNL     1     -52.692   8.264 -33.017  1.00  0.00    -0.003 C 
ATOM     32  C   UNL     1     -53.301   7.782 -31.701  1.00  0.00     0.004 C 
ENDBRANCH  30  31
ENDBRANCH  29  30
ENDBRANCH  28  29
ENDBRANCH  27  28
ENDBRANCH  26  27
ENDBRANCH  25  26
ENDBRANCH  24  25
ENDBRANCH  23  24
ENDBRANCH  22  23
ENDBRANCH  21  22
ENDBRANCH  20  21
ENDBRANCH  19  20
ENDBRANCH  18  19
ENDBRANCH   1  18
TORSDOF 28
ENDMDL
MODEL 6
REMARK VINA RESULT:    -4.123      2.589      6.704
REMARK INTER + INTRA:         -14.810
REMARK INTER:                 -10.516
REMARK INTRA:                  -4.295
REMARK UNBOUND:                -3.939
REMARK SMILES CCCCCCCCCCCCCCCCCCCCCCCCCCCCCC(=O)[O-]
REMARK SMILES IDX 16 1 17 2 18 3 19 4 20 5 21 6 22 7 23 8 24 9 25 10 26 11
REMARK SMILES IDX 27 12 28 13 29 14 30 15 31 16 32 17 15 18 14 19 13 20 12 21
REMARK SMILES IDX 11 22 10 23 9 24 8 25 7 26 6 27 5 28 4 29 3 30 2 31 1 32
REMARK H PARENT
REMARK Flexibility Score: inf
ROOT
ATOM      1  C   UNL     1     -51.056   9.503 -32.789  1.00  0.00     0.000 C 
ENDROOT
BRANCH   1   2
ATOM      2  C   UNL     1     -52.441   9.215 -33.396  1.00  0.00     0.000 C 
BRANCH   2   3
ATOM      3  C   UNL     1     -52.613   7.746 -33.815  1.00  0.00     0.000 C 
BRANCH   3   4
ATOM      4  C   UNL     1     -53.992   7.127 -33.513  1.00  0.00     0.000 C 
BRANCH   4   5
ATOM      5  C   UNL     1     -53.939   5.875 -32.613  1.00  0.00     0.000 C 
BRANCH   5   6
ATOM      6  C   UNL     1     -53.161   6.108 -31.303  1.00  0.00     0.000 C 
BRANCH   6   7
ATOM      7  C   UNL     1     -53.893   7.061 -30.343  1.00  0.00     0.000 C 
BRANCH   7   8
ATOM      8  C   UNL     1     -53.041   8.283 -29.954  1.00  0.00     0.000 C 
BRANCH   8   9
ATOM      9  C   UNL     1     -53.720   9.616 -30.306  1.00  0.00     0.000 C 
BRANCH   9  10
ATOM     10  C   UNL     1     -52.898  10.838 -29.850  1.00  0.00     0.000 C 
BRANCH  10  11
ATOM     11  C   UNL     1     -53.699  12.157 -29.910  1.00  0.00     0.000 C 
BRANCH  11  12
ATOM     12  C   UNL     1     -53.495  13.075 -28.690  1.00  0.00     0.000 C 
BRANCH  12  13
ATOM     13  C   UNL     1     -53.772  14.572 -28.936  1.00  0.00     0.006 C 
BRANCH  13  14
ATOM     14  C   UNL     1     -52.742  15.523 -28.306  1.00  0.00     0.053 C 
BRANCH  14  15
ATOM     15  C   UNL     1     -52.872  16.919 -28.835  1.00  0.00     0.041 C 
ATOM     16  O   UNL     1     -53.845  17.229 -29.571  1.00  0.00    -0.550 OA
ATOM     17  O   UNL     1     -51.935  17.885 -28.493  1.00  0.00    -0.550 OA
ENDBRANCH  14  15
ENDBRANCH  13  14
ENDBRANCH  12  13
ENDBRANCH  11  12
ENDBRANCH  10  11
ENDBRANCH   9  10
ENDBRANCH   8   9
ENDBRANCH   7   8
ENDBRANCH   6   7
ENDBRANCH   5   6
ENDBRANCH   4   5
ENDBRANCH   3   4
ENDBRANCH   2   3
ENDBRANCH   1   2
BRANCH   1  18
ATOM     18  C   UNL     1     -50.320   8.230 -32.345  1.00  0.00     0.000 C 
BRANCH  18  19
ATOM     19  C   UNL     1     -48.995   8.015 -33.093  1.00  0.00     0.000 C 
BRANCH  19  20
ATOM     20  C   UNL     1     -48.738   6.520 -33.340  1.00  0.00     0.000 C 
BRANCH  20  21
ATOM     21  C   UNL     1     -47.343   6.059 -32.879  1.00  0.00     0.000 C 
BRANCH  21  22
ATOM     22  C   UNL     1     -47.151   5.985 -31.352  1.00  0.00     0.000 C 
BRANCH  22  23
ATOM     23  C   UNL     1     -46.769   7.335 -30.725  1.00  0.00     0.000 C 
BRANCH  23  24
ATOM     24  C   UNL     1     -47.772   7.733 -29.635  1.00  0.00    -0.000 C 
BRANCH  24  25
ATOM     25  C   UNL     1     -47.771   9.253 -29.410  1.00  0.00    -0.000 C 
BRANCH  25  26
ATOM     26  C   UNL     1     -49.154   9.885 -29.648  1.00  0.00    -0.000 C 
BRANCH  26  27
ATOM     27  C   UNL     1     -49.394  11.125 -28.772  1.00  0.00    -0.000 C 
BRANCH  27  28
ATOM     28  C   UNL     1     -48.762  12.400 -29.374  1.00  0.00    -0.000 C 
BRANCH  28  29
ATOM     29  C   UNL     1     -49.400  12.842 -30.705  1.00  0.00    -0.000 C 
BRANCH  29  30
ATOM     30  C   UNL     1     -50.444  13.968 -30.587  1.00  0.00    -0.000 C 
BRANCH  30  31
ATOM     31  C   UNL     1     -50.100  15.250 -31.367  1.00  0.00    -0.003 C 
ATOM     32  C   UNL     1     -51.327  15.925 -31.981  1.00  0.00     0.004 C 
ENDBRANCH  30  31
ENDBRANCH  29  30
ENDBRANCH  28  29
ENDBRANCH  27  28
ENDBRANCH  26  27
ENDBRANCH  25  26
ENDBRANCH  24  25
ENDBRANCH  23  24
ENDBRANCH  22  23
ENDBRANCH  21  22
ENDBRANCH  20  21
ENDBRANCH  19  20
ENDBRANCH  18  19
ENDBRANCH   1  18
TORSDOF 28
ENDMDL
MODEL 7
REMARK VINA RESULT:    -3.991      2.108      5.617
REMARK INTER + INTRA:         -14.462
REMARK INTER:                 -11.257
REMARK INTRA:                  -3.205
REMARK UNBOUND:                -3.939
REMARK SMILES CCCCCCCCCCCCCCCCCCCCCCCCCCCCCC(=O)[O-]
REMARK SMILES IDX 16 1 17 2 18 3 19 4 20 5 21 6 22 7 23 8 24 9 25 10 26 11
REMARK SMILES IDX 27 12 28 13 29 14 30 15 31 16 32 17 15 18 14 19 13 20 12 21
REMARK SMILES IDX 11 22 10 23 9 24 8 25 7 26 6 27 5 28 4 29 3 30 2 31 1 32
REMARK H PARENT
REMARK Flexibility Score: inf
ROOT
ATOM      1  C   UNL     1     -53.932  12.132 -30.131  1.00  0.00     0.000 C 
ENDROOT
BRANCH   1   2
ATOM      2  C   UNL     1     -53.957  10.614 -30.384  1.00  0.00     0.000 C 
BRANCH   2   3
ATOM      3  C   UNL     1     -52.807   9.874 -29.680  1.00  0.00     0.000 C 
BRANCH   3   4
ATOM      4  C   UNL     1     -52.591   8.413 -30.121  1.00  0.00     0.000 C 
BRANCH   4   5
ATOM      5  C   UNL     1     -53.876   7.698 -30.587  1.00  0.00     0.000 C 
BRANCH   5   6
ATOM      6  C   UNL     1     -53.672   6.872 -31.873  1.00  0.00     0.000 C 
BRANCH   6   7
ATOM      7  C   UNL     1     -53.337   7.749 -33.091  1.00  0.00     0.000 C 
BRANCH   7   8
ATOM      8  C   UNL     1     -52.200   7.164 -33.949  1.00  0.00     0.000 C 
BRANCH   8   9
ATOM      9  C   UNL     1     -51.184   6.361 -33.121  1.00  0.00     0.000 C 
BRANCH   9  10
ATOM     10  C   UNL     1     -50.304   7.262 -32.231  1.00  0.00     0.000 C 
BRANCH  10  11
ATOM     11  C   UNL     1     -49.036   7.766 -32.955  1.00  0.00     0.000 C 
BRANCH  11  12
ATOM     12  C   UNL     1     -47.914   6.716 -33.069  1.00  0.00     0.000 C 
BRANCH  12  13
ATOM     13  C   UNL     1     -47.278   6.282 -31.733  1.00  0.00     0.006 C 
BRANCH  13  14
ATOM     14  C   UNL     1     -47.746   7.089 -30.512  1.00  0.00     0.053 C 
BRANCH  14  15
ATOM     15  C   UNL     1     -46.597   7.704 -29.772  1.00  0.00     0.041 C 
ATOM     16  O   UNL     1     -46.227   8.877 -30.043  1.00  0.00    -0.550 OA
ATOM     17  O   UNL     1     -45.953   6.995 -28.768  1.00  0.00    -0.550 OA
ENDBRANCH  14  15
ENDBRANCH  13  14
ENDBRANCH  12  13
ENDBRANCH  11  12
ENDBRANCH  10  11
ENDBRANCH   9  10
ENDBRANCH   8   9
ENDBRANCH   7   8
ENDBRANCH   6   7
ENDBRANCH   5   6
ENDBRANCH   4   5
ENDBRANCH   3   4
ENDBRANCH   2   3
ENDBRANCH   1   2
BRANCH   1  18
ATOM     18  C   UNL     1     -53.188  12.511 -28.841  1.00  0.00     0.000 C 
BRANCH  18  19
ATOM     19  C   UNL     1     -54.115  13.109 -27.771  1.00  0.00     0.000 C 
BRANCH  19  20
ATOM     20  C   UNL     1     -54.098  14.645 -27.822  1.00  0.00     0.000 C 
BRANCH  20  21
ATOM     21  C   UNL     1     -52.983  15.210 -28.720  1.00  0.00     0.000 C 
BRANCH  21  22
ATOM     22  C   UNL     1     -53.338  16.512 -29.463  1.00  0.00     0.000 C 
BRANCH  22  23
ATOM     23  C   UNL     1     -52.238  17.580 -29.368  1.00  0.00     0.000 C 
BRANCH  23  24
ATOM     24  C   UNL     1     -51.135  17.321 -30.401  1.00  0.00    -0.000 C 
BRANCH  24  25
ATOM     25  C   UNL     1     -51.673  16.522 -31.598  1.00  0.00    -0.000 C 
BRANCH  25  26
ATOM     26  C   UNL     1     -50.793  15.308 -31.941  1.00  0.00    -0.000 C 
BRANCH  26  27
ATOM     27  C   UNL     1     -49.654  15.101 -30.929  1.00  0.00    -0.000 C 
BRANCH  27  28
ATOM     28  C   UNL     1     -49.269  13.613 -30.772  1.00  0.00    -0.000 C 
BRANCH  28  29
ATOM     29  C   UNL     1     -50.441  12.640 -31.004  1.00  0.00    -0.000 C 
BRANCH  29  30
ATOM     30  C   UNL     1     -50.036  11.175 -31.248  1.00  0.00    -0.000 C 
BRANCH  30  31
ATOM     31  C   UNL     1     -48.954  10.638 -30.293  1.00  0.00    -0.003 C 
ATOM     32  C   UNL     1     -49.313  10.818 -28.818  1.00  0.00     0.004 C 
ENDBRANCH  30  31
ENDBRANCH  29  30
ENDBRANCH  28  29
ENDBRANCH  27  28
ENDBRANCH  26  27
ENDBRANCH  25  26
ENDBRANCH  24  25
ENDBRANCH  23  24
ENDBRANCH  22  23
ENDBRANCH  21  22
ENDBRANCH  20  21
ENDBRANCH  19  20
ENDBRANCH  18  19
ENDBRANCH   1  18
TORSDOF 28
ENDMDL
MODEL 8
REMARK VINA RESULT:    -3.932      2.201      8.705
REMARK INTER + INTRA:         -14.306
REMARK INTER:                 -10.198
REMARK INTRA:                  -4.108
REMARK UNBOUND:                -3.939
REMARK SMILES CCCCCCCCCCCCCCCCCCCCCCCCCCCCCC(=O)[O-]
REMARK SMILES IDX 16 1 17 2 18 3 19 4 20 5 21 6 22 7 23 8 24 9 25 10 26 11
REMARK SMILES IDX 27 12 28 13 29 14 30 15 31 16 32 17 15 18 14 19 13 20 12 21
REMARK SMILES IDX 11 22 10 23 9 24 8 25 7 26 6 27 5 28 4 29 3 30 2 31 1 32
REMARK H PARENT
REMARK Flexibility Score: inf
ROOT
ATOM      1  C   UNL     1     -52.597   9.425 -29.775  1.00  0.00     0.000 C 
ENDROOT
BRANCH   1   2
ATOM      2  C   UNL     1     -53.584  10.220 -30.650  1.00  0.00     0.000 C 
BRANCH   2   3
ATOM      3  C   UNL     1     -53.707  11.691 -30.220  1.00  0.00     0.000 C 
BRANCH   3   4
ATOM      4  C   UNL     1     -52.960  12.068 -28.926  1.00  0.00     0.000 C 
BRANCH   4   5
ATOM      5  C   UNL     1     -53.765  12.978 -27.975  1.00  0.00     0.000 C 
BRANCH   5   6
ATOM      6  C   UNL     1     -54.055  14.368 -28.574  1.00  0.00     0.000 C 
BRANCH   6   7
ATOM      7  C   UNL     1     -53.238  15.484 -27.901  1.00  0.00     0.000 C 
BRANCH   7   8
ATOM      8  C   UNL     1     -54.125  16.532 -27.205  1.00  0.00     0.000 C 
BRANCH   8   9
ATOM      9  C   UNL     1     -54.108  17.892 -27.920  1.00  0.00     0.000 C 
BRANCH   9  10
ATOM     10  C   UNL     1     -52.784  18.153 -28.665  1.00  0.00     0.000 C 
BRANCH  10  11
ATOM     11  C   UNL     1     -52.996  18.658 -30.109  1.00  0.00     0.000 C 
BRANCH  11  12
ATOM     12  C   UNL     1     -51.879  18.254 -31.090  1.00  0.00     0.000 C 
BRANCH  12  13
ATOM     13  C   UNL     1     -51.053  17.019 -30.678  1.00  0.00     0.006 C 
BRANCH  13  14
ATOM     14  C   UNL     1     -50.844  15.988 -31.798  1.00  0.00     0.053 C 
BRANCH  14  15
ATOM     15  C   UNL     1     -51.829  14.862 -31.714  1.00  0.00     0.041 C 
ATOM     16  O   UNL     1     -51.476  13.690 -32.009  1.00  0.00    -0.550 OA
ATOM     17  O   UNL     1     -53.128  15.100 -31.286  1.00  0.00    -0.550 OA
ENDBRANCH  14  15
ENDBRANCH  13  14
ENDBRANCH  12  13
ENDBRANCH  11  12
ENDBRANCH  10  11
ENDBRANCH   9  10
ENDBRANCH   8   9
ENDBRANCH   7   8
ENDBRANCH   6   7
ENDBRANCH   5   6
ENDBRANCH   4   5
ENDBRANCH   3   4
ENDBRANCH   2   3
ENDBRANCH   1   2
BRANCH   1  18
ATOM     18  C   UNL     1     -51.573   8.631 -30.600  1.00  0.00     0.000 C 
BRANCH  18  19
ATOM     19  C   UNL     1     -51.521   9.069 -32.071  1.00  0.00     0.000 C 
BRANCH  19  20
ATOM     20  C   UNL     1     -50.165   9.708 -32.409  1.00  0.00     0.000 C 
BRANCH  20  21
ATOM     21  C   UNL     1     -49.181   8.727 -33.073  1.00  0.00     0.000 C 
BRANCH  21  22
ATOM     22  C   UNL     1     -49.735   7.312 -33.320  1.00  0.00     0.000 C 
BRANCH  22  23
ATOM     23  C   UNL     1     -49.053   6.237 -32.459  1.00  0.00     0.000 C 
BRANCH  23  24
ATOM     24  C   UNL     1     -47.573   6.574 -32.237  1.00  0.00    -0.000 C 
BRANCH  24  25
ATOM     25  C   UNL     1     -47.172   6.364 -30.769  1.00  0.00    -0.000 C 
BRANCH  25  26
ATOM     26  C   UNL     1     -47.342   7.638 -29.923  1.00  0.00    -0.000 C 
BRANCH  26  27
ATOM     27  C   UNL     1     -46.682   8.867 -30.569  1.00  0.00    -0.000 C 
BRANCH  27  28
ATOM     28  C   UNL     1     -47.169  10.193 -29.942  1.00  0.00    -0.000 C 
BRANCH  28  29
ATOM     29  C   UNL     1     -48.191  10.004 -28.805  1.00  0.00    -0.000 C 
BRANCH  29  30
ATOM     30  C   UNL     1     -49.419  10.931 -28.870  1.00  0.00    -0.000 C 
BRANCH  30  31
ATOM     31  C   UNL     1     -49.412  11.930 -30.042  1.00  0.00    -0.003 C 
ATOM     32  C   UNL     1     -49.229  13.379 -29.593  1.00  0.00     0.004 C 
ENDBRANCH  30  31
ENDBRANCH  29  30
ENDBRANCH  28  29
ENDBRANCH  27  28
ENDBRANCH  26  27
ENDBRANCH  25  26
ENDBRANCH  24  25
ENDBRANCH  23  24
ENDBRANCH  22  23
ENDBRANCH  21  22
ENDBRANCH  20  21
ENDBRANCH  19  20
ENDBRANCH  18  19
ENDBRANCH   1  18
TORSDOF 28
ENDMDL
