MODEL 1
REMARK VINA RESULT:    -2.672      0.000      0.000
REMARK INTER + INTRA:          -3.175
REMARK INTER:                  -3.141
REMARK INTRA:                  -0.034
REMARK UNBOUND:                -0.034
REMARK SMILES CCCCC(=O)[O-]
REMARK SMILES IDX 4 1 5 2 6 3 7 4 3 5 2 6 1 7
REMARK H PARENT
REMARK Flexibility Score: inf
ROOT
ATOM      1  C   UNL     1      56.864  28.202  50.151  1.00  0.00     0.053 C 
ENDROOT
BRANCH   1   2
ATOM      2  C   UNL     1      57.930  29.251  50.108  1.00  0.00     0.041 C 
ATOM      3  O   UNL     1      58.217  29.905  51.145  1.00  0.00    -0.550 OA
ATOM      4  O   UNL     1      58.572  29.541  48.911  1.00  0.00    -0.550 OA
ENDBRANCH   1   2
BRANCH   1   5
ATOM      5  C   UNL     1      55.519  28.820  50.540  1.00  0.00     0.006 C 
BRANCH   5   6
ATOM      6  C   UNL     1      54.353  27.974  50.014  1.00  0.00    -0.003 C 
ATOM      7  C   UNL     1      54.809  26.558  49.673  1.00  0.00     0.004 C 
ENDBRANCH   5   6
ENDBRANCH   1   5
TORSDOF 3
ENDMDL
MODEL 2
REMARK VINA RESULT:    -2.671      1.305      1.749
REMARK INTER + INTRA:          -3.174
REMARK INTER:                  -3.140
REMARK INTRA:                  -0.033
REMARK UNBOUND:                -0.034
REMARK SMILES CCCCC(=O)[O-]
REMARK SMILES IDX 4 1 5 2 6 3 7 4 3 5 2 6 1 7
REMARK H PARENT
REMARK Flexibility Score: inf
ROOT
ATOM      1  C   UNL     1      57.895  27.852  50.225  1.00  0.00     0.053 C 
ENDROOT
BRANCH   1   2
ATOM      2  C   UNL     1      58.884  28.538  49.337  1.00  0.00     0.041 C 
ATOM      3  O   UNL     1      58.603  29.650  48.816  1.00  0.00    -0.550 OA
ATOM      4  O   UNL     1      60.096  27.927  49.044  1.00  0.00    -0.550 OA
ENDBRANCH   1   2
BRANCH   1   5
ATOM      5  C   UNL     1      56.628  28.698  50.373  1.00  0.00     0.006 C 
BRANCH   5   6
ATOM      6  C   UNL     1      55.370  27.830  50.256  1.00  0.00    -0.003 C 
ATOM      7  C   UNL     1      54.116  28.691  50.121  1.00  0.00     0.004 C 
ENDBRANCH   5   6
ENDBRANCH   1   5
TORSDOF 3
ENDMDL
MODEL 3
REMARK VINA RESULT:    -2.653      2.867      4.046
REMARK INTER + INTRA:          -3.152
REMARK INTER:                  -3.131
REMARK INTRA:                  -0.021
REMARK UNBOUND:                -0.034
REMARK SMILES CCCCC(=O)[O-]
REMARK SMILES IDX 4 1 5 2 6 3 7 4 3 5 2 6 1 7
REMARK H PARENT
REMARK Flexibility Score: inf
ROOT
ATOM      1  C   UNL     1      55.448  28.484  50.528  1.00  0.00     0.053 C 
ENDROOT
BRANCH   1   2
ATOM      2  C   UNL     1      54.509  27.545  49.840  1.00  0.00     0.041 C 
ATOM      3  O   UNL     1      54.888  26.385  49.527  1.00  0.00    -0.550 OA
ATOM      4  O   UNL     1      53.231  27.967  49.497  1.00  0.00    -0.550 OA
ENDBRANCH   1   2
BRANCH   1   5
ATOM      5  C   UNL     1      56.900  28.123  50.206  1.00  0.00     0.006 C 
BRANCH   5   6
ATOM      6  C   UNL     1      57.784  29.376  50.175  1.00  0.00    -0.003 C 
ATOM      7  C   UNL     1      58.820  29.292  49.057  1.00  0.00     0.004 C 
ENDBRANCH   5   6
ENDBRANCH   1   5
TORSDOF 3
ENDMDL
MODEL 4
REMARK VINA RESULT:    -2.611     13.047     13.803
REMARK INTER + INTRA:          -3.103
REMARK INTER:                  -3.083
REMARK INTRA:                  -0.021
REMARK UNBOUND:                -0.034
REMARK SMILES CCCCC(=O)[O-]
REMARK SMILES IDX 4 1 5 2 6 3 7 4 3 5 2 6 1 7
REMARK H PARENT
REMARK Flexibility Score: inf
ROOT
ATOM      1  C   UNL     1      61.996  34.977  60.606  1.00  0.00     0.053 C 
ENDROOT
BRANCH   1   2
ATOM      2  C   UNL     1      63.054  35.724  61.354  1.00  0.00     0.041 C 
ATOM      3  O   UNL     1      62.901  36.946  61.617  1.00  0.00    -0.550 OA
ATOM      4  O   UNL     1      64.233  35.085  61.715  1.00  0.00    -0.550 OA
ENDBRANCH   1   2
BRANCH   1   5
ATOM      5  C   UNL     1      62.266  33.471  60.655  1.00  0.00     0.006 C 
BRANCH   5   6
ATOM      6  C   UNL     1      60.959  32.675  60.553  1.00  0.00    -0.003 C 
ATOM      7  C   UNL     1      60.938  31.519  61.550  1.00  0.00     0.004 C 
ENDBRANCH   5   6
ENDBRANCH   1   5
TORSDOF 3
ENDMDL
MODEL 5
REMARK VINA RESULT:    -2.572     12.525     13.722
REMARK INTER + INTRA:          -3.057
REMARK INTER:                  -2.997
REMARK INTRA:                  -0.060
REMARK UNBOUND:                -0.034
REMARK SMILES CCCCC(=O)[O-]
REMARK SMILES IDX 4 1 5 2 6 3 7 4 3 5 2 6 1 7
REMARK H PARENT
REMARK Flexibility Score: inf
ROOT
ATOM      1  C   UNL     1      61.899  32.261  60.241  1.00  0.00     0.053 C 
ENDROOT
BRANCH   1   2
ATOM      2  C   UNL     1      61.623  31.374  61.413  1.00  0.00     0.041 C 
ATOM      3  O   UNL     1      60.529  31.461  62.030  1.00  0.00    -0.550 OA
ATOM      4  O   UNL     1      62.595  30.486  61.857  1.00  0.00    -0.550 OA
ENDBRANCH   1   2
BRANCH   1   5
ATOM      5  C   UNL     1      62.294  33.664  60.710  1.00  0.00     0.006 C 
BRANCH   5   6
ATOM      6  C   UNL     1      63.804  33.754  60.963  1.00  0.00    -0.003 C 
ATOM      7  C   UNL     1      64.183  35.109  61.554  1.00  0.00     0.004 C 
ENDBRANCH   5   6
ENDBRANCH   1   5
TORSDOF 3
ENDMDL
MODEL 6
REMARK VINA RESULT:    -2.546      3.275      4.238
REMARK INTER + INTRA:          -3.026
REMARK INTER:                  -2.974
REMARK INTRA:                  -0.052
REMARK UNBOUND:                -0.034
REMARK SMILES CCCCC(=O)[O-]
REMARK SMILES IDX 4 1 5 2 6 3 7 4 3 5 2 6 1 7
REMARK H PARENT
REMARK Flexibility Score: inf
ROOT
ATOM      1  C   UNL     1      58.957  26.849  49.448  1.00  0.00     0.053 C 
ENDROOT
BRANCH   1   2
ATOM      2  C   UNL     1      60.010  25.874  49.871  1.00  0.00     0.041 C 
ATOM      3  O   UNL     1      61.221  26.217  49.887  1.00  0.00    -0.550 OA
ATOM      4  O   UNL     1      59.659  24.571  50.198  1.00  0.00    -0.550 OA
ENDBRANCH   1   2
BRANCH   1   5
ATOM      5  C   UNL     1      59.586  28.197  49.089  1.00  0.00     0.006 C 
BRANCH   5   6
ATOM      6  C   UNL     1      58.599  29.346  49.328  1.00  0.00    -0.003 C 
ATOM      7  C   UNL     1      57.372  28.866  50.100  1.00  0.00     0.004 C 
ENDBRANCH   5   6
ENDBRANCH   1   5
TORSDOF 3
ENDMDL
MODEL 7
REMARK VINA RESULT:    -2.533     12.057     13.422
REMARK INTER + INTRA:          -3.011
REMARK INTER:                  -2.976
REMARK INTRA:                  -0.035
REMARK UNBOUND:                -0.034
REMARK SMILES CCCCC(=O)[O-]
REMARK SMILES IDX 4 1 5 2 6 3 7 4 3 5 2 6 1 7
REMARK H PARENT
REMARK Flexibility Score: inf
ROOT
ATOM      1  C   UNL     1      62.059  33.558  60.692  1.00  0.00     0.053 C 
ENDROOT
BRANCH   1   2
ATOM      2  C   UNL     1      60.988  32.514  60.677  1.00  0.00     0.041 C 
ATOM      3  O   UNL     1      60.801  31.784  61.686  1.00  0.00    -0.550 OA
ATOM      4  O   UNL     1      60.230  32.312  59.531  1.00  0.00    -0.550 OA
ENDBRANCH   1   2
BRANCH   1   5
ATOM      5  C   UNL     1      61.466  34.939  60.399  1.00  0.00     0.006 C 
BRANCH   5   6
ATOM      6  C   UNL     1      62.307  36.047  61.046  1.00  0.00    -0.003 C 
ATOM      7  C   UNL     1      63.690  35.531  61.438  1.00  0.00     0.004 C 
ENDBRANCH   5   6
ENDBRANCH   1   5
TORSDOF 3
ENDMDL
MODEL 8
REMARK VINA RESULT:    -2.517     12.283     13.082
REMARK INTER + INTRA:          -2.993
REMARK INTER:                  -2.894
REMARK INTRA:                  -0.099
REMARK UNBOUND:                -0.034
REMARK SMILES CCCCC(=O)[O-]
REMARK SMILES IDX 4 1 5 2 6 3 7 4 3 5 2 6 1 7
REMARK H PARENT
REMARK Flexibility Score: inf
ROOT
ATOM      1  C   UNL     1      61.086  31.149  61.772  1.00  0.00     0.053 C 
ENDROOT
BRANCH   1   2
ATOM      2  C   UNL     1      62.237  30.193  61.777  1.00  0.00     0.041 C 
ATOM      3  O   UNL     1      62.030  28.952  61.809  1.00  0.00    -0.550 OA
ATOM      4  O   UNL     1      63.540  30.675  61.800  1.00  0.00    -0.550 OA
ENDBRANCH   1   2
BRANCH   1   5
ATOM      5  C   UNL     1      61.012  31.892  60.435  1.00  0.00     0.006 C 
BRANCH   5   6
ATOM      6  C   UNL     1      61.153  33.406  60.640  1.00  0.00    -0.003 C 
ATOM      7  C   UNL     1      62.618  33.833  60.602  1.00  0.00     0.004 C 
ENDBRANCH   5   6
ENDBRANCH   1   5
TORSDOF 3
ENDMDL
MODEL 9
REMARK VINA RESULT:    -2.484      1.951      2.293
REMARK INTER + INTRA:          -2.954
REMARK INTER:                  -2.898
REMARK INTRA:                  -0.056
REMARK UNBOUND:                -0.034
REMARK SMILES CCCCC(=O)[O-]
REMARK SMILES IDX 4 1 5 2 6 3 7 4 3 5 2 6 1 7
REMARK H PARENT
REMARK Flexibility Score: inf
ROOT
ATOM      1  C   UNL     1      55.464  26.734  50.549  1.00  0.00     0.053 C 
ENDROOT
BRANCH   1   2
ATOM      2  C   UNL     1      56.881  27.018  50.162  1.00  0.00     0.041 C 
ATOM      3  O   UNL     1      57.274  28.206  50.021  1.00  0.00    -0.550 OA
ATOM      4  O   UNL     1      57.755  25.969  49.906  1.00  0.00    -0.550 OA
ENDBRANCH   1   2
BRANCH   1   5
ATOM      5  C   UNL     1      54.538  27.847  50.053  1.00  0.00     0.006 C 
BRANCH   5   6
ATOM      6  C   UNL     1      53.254  27.266  49.449  1.00  0.00    -0.003 C 
ATOM      7  C   UNL     1      53.461  25.821  49.002  1.00  0.00     0.004 C 
ENDBRANCH   5   6
ENDBRANCH   1   5
TORSDOF 3
ENDMDL
