MODEL 1
REMARK VINA RESULT:    -3.627      0.000      0.000
REMARK INTER + INTRA:          -8.892
REMARK INTER:                  -6.595
REMARK INTRA:                  -2.297
REMARK UNBOUND:                -2.297
REMARK SMILES CCCCCCCCCCCCCC[C@@H](C)C(=O)[O-]
REMARK SMILES IDX 9 1 10 2 11 3 12 4 13 5 14 6 15 7 16 8 17 9 18 10 19 11 8 12
REMARK SMILES IDX 7 13 6 14 5 15 4 16 3 17 2 18 1 19
REMARK H PARENT
REMARK Flexibility Score: inf
ROOT
ATOM      1  C   UNL     1     160.788 162.030 188.623  1.00  0.00     0.000 C 
ENDROOT
BRANCH   1   2
ATOM      2  C   UNL     1     159.880 161.919 187.382  1.00  0.00     0.000 C 
BRANCH   2   3
ATOM      3  C   UNL     1     160.593 162.136 186.036  1.00  0.00     0.000 C 
BRANCH   3   4
ATOM      4  C   UNL     1     161.120 160.830 185.422  1.00  0.00     0.000 C 
BRANCH   4   5
ATOM      5  C   UNL     1     162.218 161.115 184.386  1.00  0.00     0.001 C 
BRANCH   5   6
ATOM      6  C   UNL     1     163.638 161.022 184.978  1.00  0.00     0.009 C 
BRANCH   6   7
ATOM      7  C   UNL     1     164.607 162.116 184.476  1.00  0.00     0.032 C 
ATOM      8  C   UNL     1     165.463 162.645 185.633  1.00  0.00     0.014 C 
BRANCH   7   9
ATOM      9  C   UNL     1     165.494 161.610 183.371  1.00  0.00     0.044 C 
ATOM     10  O   UNL     1     166.322 162.378 182.812  1.00  0.00    -0.550 OA
ATOM     11  O   UNL     1     165.406 160.285 182.965  1.00  0.00    -0.550 OA
ENDBRANCH   7   9
ENDBRANCH   6   7
ENDBRANCH   5   6
ENDBRANCH   4   5
ENDBRANCH   3   4
ENDBRANCH   2   3
ENDBRANCH   1   2
BRANCH   1  12
ATOM     12  C   UNL     1     162.011 162.956 188.460  1.00  0.00     0.000 C 
BRANCH  12  13
ATOM     13  C   UNL     1     163.376 162.252 188.555  1.00  0.00    -0.000 C 
BRANCH  13  14
ATOM     14  C   UNL     1     163.258 160.722 188.570  1.00  0.00    -0.000 C 
BRANCH  14  15
ATOM     15  C   UNL     1     164.629 160.062 188.375  1.00  0.00    -0.000 C 
BRANCH  15  16
ATOM     16  C   UNL     1     165.556 160.358 189.563  1.00  0.00    -0.000 C 
BRANCH  16  17
ATOM     17  C   UNL     1     166.992 160.687 189.128  1.00  0.00    -0.000 C 
BRANCH  17  18
ATOM     18  C   UNL     1     167.306 162.188 189.210  1.00  0.00    -0.003 C 
ATOM     19  C   UNL     1     166.589 162.834 190.392  1.00  0.00     0.004 C 
ENDBRANCH  17  18
ENDBRANCH  16  17
ENDBRANCH  15  16
ENDBRANCH  14  15
ENDBRANCH  13  14
ENDBRANCH  12  13
ENDBRANCH   1  12
TORSDOF 14
ENDMDL
MODEL 2
REMARK VINA RESULT:    -3.623      2.809      5.218
REMARK INTER + INTRA:          -8.884
REMARK INTER:                  -6.699
REMARK INTRA:                  -2.184
REMARK UNBOUND:                -2.297
REMARK SMILES CCCCCCCCCCCCCC[C@@H](C)C(=O)[O-]
REMARK SMILES IDX 9 1 10 2 11 3 12 4 13 5 14 6 15 7 16 8 17 9 18 10 19 11 8 12
REMARK SMILES IDX 7 13 6 14 5 15 4 16 3 17 2 18 1 19
REMARK H PARENT
REMARK Flexibility Score: inf
ROOT
ATOM      1  C   UNL     1     162.335 161.818 185.127  1.00  0.00     0.000 C 
ENDROOT
BRANCH   1   2
ATOM      2  C   UNL     1     163.386 161.094 184.263  1.00  0.00     0.000 C 
BRANCH   2   3
ATOM      3  C   UNL     1     164.623 160.592 185.030  1.00  0.00     0.000 C 
BRANCH   3   4
ATOM      4  C   UNL     1     164.630 161.032 186.502  1.00  0.00     0.000 C 
BRANCH   4   5
ATOM      5  C   UNL     1     165.684 162.124 186.742  1.00  0.00     0.001 C 
BRANCH   5   6
ATOM      6  C   UNL     1     166.643 161.786 187.899  1.00  0.00     0.009 C 
BRANCH   6   7
ATOM      7  C   UNL     1     166.009 161.901 189.303  1.00  0.00     0.032 C 
ATOM      8  C   UNL     1     166.378 160.685 190.160  1.00  0.00     0.014 C 
BRANCH   7   9
ATOM      9  C   UNL     1     166.429 163.167 190.001  1.00  0.00     0.044 C 
ATOM     10  O   UNL     1     165.593 163.846 190.655  1.00  0.00    -0.550 OA
ATOM     11  O   UNL     1     167.750 163.590 189.931  1.00  0.00    -0.550 OA
ENDBRANCH   7   9
ENDBRANCH   6   7
ENDBRANCH   5   6
ENDBRANCH   4   5
ENDBRANCH   3   4
ENDBRANCH   2   3
ENDBRANCH   1   2
BRANCH   1  12
ATOM     12  C   UNL     1     161.044 161.019 185.395  1.00  0.00     0.000 C 
BRANCH  12  13
ATOM     13  C   UNL     1     160.140 161.596 186.499  1.00  0.00    -0.000 C 
BRANCH  13  14
ATOM     14  C   UNL     1     160.646 161.274 187.912  1.00  0.00    -0.000 C 
BRANCH  14  15
ATOM     15  C   UNL     1     160.100 162.280 188.934  1.00  0.00    -0.000 C 
BRANCH  15  16
ATOM     16  C   UNL     1     160.892 163.594 188.890  1.00  0.00    -0.000 C 
BRANCH  16  17
ATOM     17  C   UNL     1     162.412 163.369 188.866  1.00  0.00    -0.000 C 
BRANCH  17  18
ATOM     18  C   UNL     1     163.138 164.334 187.917  1.00  0.00    -0.003 C 
ATOM     19  C   UNL     1     162.146 165.076 187.026  1.00  0.00     0.004 C 
ENDBRANCH  17  18
ENDBRANCH  16  17
ENDBRANCH  15  16
ENDBRANCH  14  15
ENDBRANCH  13  14
ENDBRANCH  12  13
ENDBRANCH   1  12
TORSDOF 14
ENDMDL
MODEL 3
REMARK VINA RESULT:    -3.589      2.743      4.136
REMARK INTER + INTRA:          -8.823
REMARK INTER:                  -6.715
REMARK INTRA:                  -2.108
REMARK UNBOUND:                -2.297
REMARK SMILES CCCCCCCCCCCCCC[C@@H](C)C(=O)[O-]
REMARK SMILES IDX 9 1 10 2 11 3 12 4 13 5 14 6 15 7 16 8 17 9 18 10 19 11 8 12
REMARK SMILES IDX 7 13 6 14 5 15 4 16 3 17 2 18 1 19
REMARK H PARENT
REMARK Flexibility Score: inf
ROOT
ATOM      1  C   UNL     1     160.525 161.807 186.301  1.00  0.00     0.000 C 
ENDROOT
BRANCH   1   2
ATOM      2  C   UNL     1     159.949 161.288 187.634  1.00  0.00     0.000 C 
BRANCH   2   3
ATOM      3  C   UNL     1     160.380 162.082 188.880  1.00  0.00     0.000 C 
BRANCH   3   4
ATOM      4  C   UNL     1     160.649 163.565 188.579  1.00  0.00     0.000 C 
BRANCH   4   5
ATOM      5  C   UNL     1     162.149 163.881 188.677  1.00  0.00     0.001 C 
BRANCH   5   6
ATOM      6  C   UNL     1     162.568 165.072 187.794  1.00  0.00     0.009 C 
BRANCH   6   7
ATOM      7  C   UNL     1     161.392 165.779 187.083  1.00  0.00     0.032 C 
ATOM      8  C   UNL     1     161.241 167.215 187.595  1.00  0.00     0.014 C 
BRANCH   7   9
ATOM      9  C   UNL     1     161.568 165.783 185.588  1.00  0.00     0.044 C 
ATOM     10  O   UNL     1     161.937 164.740 184.984  1.00  0.00    -0.550 OA
ATOM     11  O   UNL     1     161.318 166.941 184.865  1.00  0.00    -0.550 OA
ENDBRANCH   7   9
ENDBRANCH   6   7
ENDBRANCH   5   6
ENDBRANCH   4   5
ENDBRANCH   3   4
ENDBRANCH   2   3
ENDBRANCH   1   2
BRANCH   1  12
ATOM     12  C   UNL     1     161.744 161.030 185.767  1.00  0.00     0.000 C 
BRANCH  12  13
ATOM     13  C   UNL     1     163.111 161.637 186.128  1.00  0.00    -0.000 C 
BRANCH  13  14
ATOM     14  C   UNL     1     164.041 160.639 186.831  1.00  0.00    -0.000 C 
BRANCH  14  15
ATOM     15  C   UNL     1     163.775 160.610 188.341  1.00  0.00    -0.000 C 
BRANCH  15  16
ATOM     16  C   UNL     1     165.082 160.426 189.126  1.00  0.00    -0.000 C 
BRANCH  16  17
ATOM     17  C   UNL     1     165.801 161.756 189.401  1.00  0.00    -0.000 C 
BRANCH  17  18
ATOM     18  C   UNL     1     167.241 161.771 188.865  1.00  0.00    -0.003 C 
ATOM     19  C   UNL     1     167.628 160.410 188.294  1.00  0.00     0.004 C 
ENDBRANCH  17  18
ENDBRANCH  16  17
ENDBRANCH  15  16
ENDBRANCH  14  15
ENDBRANCH  13  14
ENDBRANCH  12  13
ENDBRANCH   1  12
TORSDOF 14
ENDMDL
MODEL 4
REMARK VINA RESULT:    -3.587      2.172      3.436
REMARK INTER + INTRA:          -8.820
REMARK INTER:                  -6.023
REMARK INTRA:                  -2.797
REMARK UNBOUND:                -2.297
REMARK SMILES CCCCCCCCCCCCCC[C@@H](C)C(=O)[O-]
REMARK SMILES IDX 9 1 10 2 11 3 12 4 13 5 14 6 15 7 16 8 17 9 18 10 19 11 8 12
REMARK SMILES IDX 7 13 6 14 5 15 4 16 3 17 2 18 1 19
REMARK H PARENT
REMARK Flexibility Score: inf
ROOT
ATOM      1  C   UNL     1     161.488 165.578 187.427  1.00  0.00     0.000 C 
ENDROOT
BRANCH   1   2
ATOM      2  C   UNL     1     160.895 164.173 187.199  1.00  0.00     0.000 C 
BRANCH   2   3
ATOM      3  C   UNL     1     160.237 163.539 188.438  1.00  0.00     0.000 C 
BRANCH   3   4
ATOM      4  C   UNL     1     160.816 162.158 188.780  1.00  0.00     0.000 C 
BRANCH   4   5
ATOM      5  C   UNL     1     162.345 162.154 188.639  1.00  0.00     0.001 C 
BRANCH   5   6
ATOM      6  C   UNL     1     162.867 160.966 187.808  1.00  0.00     0.009 C 
BRANCH   6   7
ATOM      7  C   UNL     1     163.408 161.355 186.414  1.00  0.00     0.032 C 
ATOM      8  C   UNL     1     164.770 160.698 186.165  1.00  0.00     0.014 C 
BRANCH   7   9
ATOM      9  C   UNL     1     162.448 160.976 185.319  1.00  0.00     0.044 C 
ATOM     10  O   UNL     1     161.288 160.567 185.597  1.00  0.00    -0.550 OA
ATOM     11  O   UNL     1     162.837 161.081 183.990  1.00  0.00    -0.550 OA
ENDBRANCH   7   9
ENDBRANCH   6   7
ENDBRANCH   5   6
ENDBRANCH   4   5
ENDBRANCH   3   4
ENDBRANCH   2   3
ENDBRANCH   1   2
BRANCH   1  12
ATOM     12  C   UNL     1     163.025 165.630 187.544  1.00  0.00     0.000 C 
BRANCH  12  13
ATOM     13  C   UNL     1     163.788 165.005 186.362  1.00  0.00    -0.000 C 
BRANCH  13  14
ATOM     14  C   UNL     1     165.192 164.521 186.748  1.00  0.00    -0.000 C 
BRANCH  14  15
ATOM     15  C   UNL     1     165.282 164.241 188.253  1.00  0.00    -0.000 C 
BRANCH  15  16
ATOM     16  C   UNL     1     166.280 163.111 188.544  1.00  0.00    -0.000 C 
BRANCH  16  17
ATOM     17  C   UNL     1     165.933 162.328 189.820  1.00  0.00    -0.000 C 
BRANCH  17  18
ATOM     18  C   UNL     1     166.159 160.816 189.665  1.00  0.00    -0.003 C 
ATOM     19  C   UNL     1     167.353 160.530 188.759  1.00  0.00     0.004 C 
ENDBRANCH  17  18
ENDBRANCH  16  17
ENDBRANCH  15  16
ENDBRANCH  14  15
ENDBRANCH  13  14
ENDBRANCH  12  13
ENDBRANCH   1  12
TORSDOF 14
ENDMDL
MODEL 5
REMARK VINA RESULT:    -3.574     13.431     16.694
REMARK INTER + INTRA:          -8.796
REMARK INTER:                  -7.522
REMARK INTRA:                  -1.273
REMARK UNBOUND:                -2.297
REMARK SMILES CCCCCCCCCCCCCC[C@@H](C)C(=O)[O-]
REMARK SMILES IDX 9 1 10 2 11 3 12 4 13 5 14 6 15 7 16 8 17 9 18 10 19 11 8 12
REMARK SMILES IDX 7 13 6 14 5 15 4 16 3 17 2 18 1 19
REMARK H PARENT
REMARK Flexibility Score: inf
ROOT
ATOM      1  C   UNL     1     178.072 170.399 187.623  1.00  0.00     0.000 C 
ENDROOT
BRANCH   1   2
ATOM      2  C   UNL     1     177.925 168.865 187.645  1.00  0.00     0.000 C 
BRANCH   2   3
ATOM      3  C   UNL     1     179.251 168.087 187.712  1.00  0.00     0.000 C 
BRANCH   3   4
ATOM      4  C   UNL     1     179.076 166.584 187.451  1.00  0.00     0.000 C 
BRANCH   4   5
ATOM      5  C   UNL     1     177.613 166.160 187.650  1.00  0.00     0.001 C 
BRANCH   5   6
ATOM      6  C   UNL     1     177.472 164.703 188.130  1.00  0.00     0.009 C 
BRANCH   6   7
ATOM      7  C   UNL     1     176.550 163.831 187.248  1.00  0.00     0.032 C 
ATOM      8  C   UNL     1     176.116 164.604 185.998  1.00  0.00     0.014 C 
BRANCH   7   9
ATOM      9  C   UNL     1     177.219 162.543 186.848  1.00  0.00     0.044 C 
ATOM     10  O   UNL     1     178.025 162.514 185.880  1.00  0.00    -0.550 OA
ATOM     11  O   UNL     1     176.951 161.376 187.552  1.00  0.00    -0.550 OA
ENDBRANCH   7   9
ENDBRANCH   6   7
ENDBRANCH   5   6
ENDBRANCH   4   5
ENDBRANCH   3   4
ENDBRANCH   2   3
ENDBRANCH   1   2
BRANCH   1  12
ATOM     12  C   UNL     1     179.060 170.978 188.655  1.00  0.00     0.000 C 
BRANCH  12  13
ATOM     13  C   UNL     1     179.982 172.089 188.120  1.00  0.00    -0.000 C 
BRANCH  13  14
ATOM     14  C   UNL     1     179.545 173.491 188.564  1.00  0.00    -0.000 C 
BRANCH  14  15
ATOM     15  C   UNL     1     178.528 174.087 187.581  1.00  0.00    -0.000 C 
BRANCH  15  16
ATOM     16  C   UNL     1     177.416 174.838 188.328  1.00  0.00    -0.000 C 
BRANCH  16  17
ATOM     17  C   UNL     1     177.386 174.512 189.829  1.00  0.00    -0.000 C 
BRANCH  17  18
ATOM     18  C   UNL     1     176.040 173.921 190.278  1.00  0.00    -0.003 C 
ATOM     19  C   UNL     1     176.036 172.402 190.142  1.00  0.00     0.004 C 
ENDBRANCH  17  18
ENDBRANCH  16  17
ENDBRANCH  15  16
ENDBRANCH  14  15
ENDBRANCH  13  14
ENDBRANCH  12  13
ENDBRANCH   1  12
TORSDOF 14
ENDMDL
MODEL 6
REMARK VINA RESULT:    -3.524      2.424      4.915
REMARK INTER + INTRA:          -8.705
REMARK INTER:                  -6.372
REMARK INTRA:                  -2.333
REMARK UNBOUND:                -2.297
REMARK SMILES CCCCCCCCCCCCCC[C@@H](C)C(=O)[O-]
REMARK SMILES IDX 9 1 10 2 11 3 12 4 13 5 14 6 15 7 16 8 17 9 18 10 19 11 8 12
REMARK SMILES IDX 7 13 6 14 5 15 4 16 3 17 2 18 1 19
REMARK H PARENT
REMARK Flexibility Score: inf
ROOT
ATOM      1  C   UNL     1     161.283 164.294 187.632  1.00  0.00     0.000 C 
ENDROOT
BRANCH   1   2
ATOM      2  C   UNL     1     161.643 163.192 188.647  1.00  0.00     0.000 C 
BRANCH   2   3
ATOM      3  C   UNL     1     163.033 162.561 188.454  1.00  0.00     0.000 C 
BRANCH   3   4
ATOM      4  C   UNL     1     163.003 161.026 188.493  1.00  0.00     0.000 C 
BRANCH   4   5
ATOM      5  C   UNL     1     164.383 160.442 188.152  1.00  0.00     0.001 C 
BRANCH   5   6
ATOM      6  C   UNL     1     165.318 160.366 189.374  1.00  0.00     0.009 C 
BRANCH   6   7
ATOM      7  C   UNL     1     166.763 160.838 189.096  1.00  0.00     0.032 C 
ATOM      8  C   UNL     1     167.105 160.674 187.611  1.00  0.00     0.014 C 
BRANCH   7   9
ATOM      9  C   UNL     1     166.971 162.269 189.515  1.00  0.00     0.044 C 
ATOM     10  O   UNL     1     166.259 162.782 190.419  1.00  0.00    -0.550 OA
ATOM     11  O   UNL     1     167.958 163.032 188.905  1.00  0.00    -0.550 OA
ENDBRANCH   7   9
ENDBRANCH   6   7
ENDBRANCH   5   6
ENDBRANCH   4   5
ENDBRANCH   3   4
ENDBRANCH   2   3
ENDBRANCH   1   2
BRANCH   1  12
ATOM     12  C   UNL     1     160.417 163.833 186.442  1.00  0.00     0.000 C 
BRANCH  12  13
ATOM     13  C   UNL     1     159.875 162.396 186.552  1.00  0.00    -0.000 C 
BRANCH  13  14
ATOM     14  C   UNL     1     160.076 161.584 185.265  1.00  0.00    -0.000 C 
BRANCH  14  15
ATOM     15  C   UNL     1     161.398 160.807 185.307  1.00  0.00    -0.000 C 
BRANCH  15  16
ATOM     16  C   UNL     1     162.474 161.508 184.466  1.00  0.00    -0.000 C 
BRANCH  16  17
ATOM     17  C   UNL     1     163.785 160.709 184.395  1.00  0.00    -0.000 C 
BRANCH  17  18
ATOM     18  C   UNL     1     165.027 161.612 184.362  1.00  0.00    -0.003 C 
ATOM     19  C   UNL     1     164.850 162.821 185.277  1.00  0.00     0.004 C 
ENDBRANCH  17  18
ENDBRANCH  16  17
ENDBRANCH  15  16
ENDBRANCH  14  15
ENDBRANCH  13  14
ENDBRANCH  12  13
ENDBRANCH   1  12
TORSDOF 14
ENDMDL
MODEL 7
REMARK VINA RESULT:    -3.509      2.448      4.528
REMARK INTER + INTRA:          -8.678
REMARK INTER:                  -6.534
REMARK INTRA:                  -2.144
REMARK UNBOUND:                -2.297
REMARK SMILES CCCCCCCCCCCCCC[C@@H](C)C(=O)[O-]
REMARK SMILES IDX 9 1 10 2 11 3 12 4 13 5 14 6 15 7 16 8 17 9 18 10 19 11 8 12
REMARK SMILES IDX 7 13 6 14 5 15 4 16 3 17 2 18 1 19
REMARK H PARENT
REMARK Flexibility Score: inf
ROOT
ATOM      1  C   UNL     1     165.319 164.030 188.626  1.00  0.00     0.000 C 
ENDROOT
BRANCH   1   2
ATOM      2  C   UNL     1     163.851 164.202 188.187  1.00  0.00     0.000 C 
BRANCH   2   3
ATOM      3  C   UNL     1     162.860 163.222 188.842  1.00  0.00     0.000 C 
BRANCH   3   4
ATOM      4  C   UNL     1     161.394 163.640 188.652  1.00  0.00     0.000 C 
BRANCH   4   5
ATOM      5  C   UNL     1     160.461 162.424 188.751  1.00  0.00     0.001 C 
BRANCH   5   6
ATOM      6  C   UNL     1     159.976 161.928 187.374  1.00  0.00     0.009 C 
BRANCH   6   7
ATOM      7  C   UNL     1     160.935 162.261 186.208  1.00  0.00     0.032 C 
ATOM      8  C   UNL     1     161.394 160.976 185.509  1.00  0.00     0.014 C 
BRANCH   7   9
ATOM      9  C   UNL     1     160.295 163.187 185.209  1.00  0.00     0.044 C 
ATOM     10  O   UNL     1     159.875 162.747 184.105  1.00  0.00    -0.550 OA
ATOM     11  O   UNL     1     160.159 164.537 185.505  1.00  0.00    -0.550 OA
ENDBRANCH   7   9
ENDBRANCH   6   7
ENDBRANCH   5   6
ENDBRANCH   4   5
ENDBRANCH   3   4
ENDBRANCH   2   3
ENDBRANCH   1   2
BRANCH   1  12
ATOM     12  C   UNL     1     165.562 162.944 189.692  1.00  0.00     0.000 C 
BRANCH  12  13
ATOM     13  C   UNL     1     166.813 162.077 189.463  1.00  0.00    -0.000 C 
BRANCH  13  14
ATOM     14  C   UNL     1     166.474 160.638 189.049  1.00  0.00    -0.000 C 
BRANCH  14  15
ATOM     15  C   UNL     1     164.956 160.425 188.997  1.00  0.00    -0.000 C 
BRANCH  15  16
ATOM     16  C   UNL     1     164.475 160.250 187.549  1.00  0.00    -0.000 C 
BRANCH  16  17
ATOM     17  C   UNL     1     165.636 160.097 186.553  1.00  0.00    -0.000 C 
BRANCH  17  18
ATOM     18  C   UNL     1     165.337 160.744 185.192  1.00  0.00    -0.003 C 
ATOM     19  C   UNL     1     164.862 162.184 185.363  1.00  0.00     0.004 C 
ENDBRANCH  17  18
ENDBRANCH  16  17
ENDBRANCH  15  16
ENDBRANCH  14  15
ENDBRANCH  13  14
ENDBRANCH  12  13
ENDBRANCH   1  12
TORSDOF 14
ENDMDL
MODEL 8
REMARK VINA RESULT:    -3.492      1.921      5.301
REMARK INTER + INTRA:          -8.647
REMARK INTER:                  -6.200
REMARK INTRA:                  -2.447
REMARK UNBOUND:                -2.297
REMARK SMILES CCCCCCCCCCCCCC[C@@H](C)C(=O)[O-]
REMARK SMILES IDX 9 1 10 2 11 3 12 4 13 5 14 6 15 7 16 8 17 9 18 10 19 11 8 12
REMARK SMILES IDX 7 13 6 14 5 15 4 16 3 17 2 18 1 19
REMARK H PARENT
REMARK Flexibility Score: inf
ROOT
ATOM      1  C   UNL     1     165.438 163.986 188.268  1.00  0.00     0.000 C 
ENDROOT
BRANCH   1   2
ATOM      2  C   UNL     1     165.773 163.641 189.732  1.00  0.00     0.000 C 
BRANCH   2   3
ATOM      3  C   UNL     1     166.962 162.680 189.916  1.00  0.00     0.000 C 
BRANCH   3   4
ATOM      4  C   UNL     1     166.529 161.273 190.356  1.00  0.00     0.000 C 
BRANCH   4   5
ATOM      5  C   UNL     1     166.452 160.322 189.152  1.00  0.00     0.001 C 
BRANCH   5   6
ATOM      6  C   UNL     1     167.568 160.572 188.119  1.00  0.00     0.009 C 
BRANCH   6   7
ATOM      7  C   UNL     1     167.100 160.495 186.648  1.00  0.00     0.032 C 
ATOM      8  C   UNL     1     165.610 160.139 186.578  1.00  0.00     0.014 C 
BRANCH   7   9
ATOM      9  C   UNL     1     167.354 161.784 185.916  1.00  0.00     0.044 C 
ATOM     10  O   UNL     1     166.473 162.277 185.161  1.00  0.00    -0.550 OA
ATOM     11  O   UNL     1     168.567 162.442 186.073  1.00  0.00    -0.550 OA
ENDBRANCH   7   9
ENDBRANCH   6   7
ENDBRANCH   5   6
ENDBRANCH   4   5
ENDBRANCH   3   4
ENDBRANCH   2   3
ENDBRANCH   1   2
BRANCH   1  12
ATOM     12  C   UNL     1     164.169 163.311 187.709  1.00  0.00     0.000 C 
BRANCH  12  13
ATOM     13  C   UNL     1     163.272 162.639 188.765  1.00  0.00    -0.000 C 
BRANCH  13  14
ATOM     14  C   UNL     1     162.571 161.380 188.237  1.00  0.00    -0.000 C 
BRANCH  14  15
ATOM     15  C   UNL     1     161.048 161.564 188.222  1.00  0.00    -0.000 C 
BRANCH  15  16
ATOM     16  C   UNL     1     160.531 161.746 186.788  1.00  0.00    -0.000 C 
BRANCH  16  17
ATOM     17  C   UNL     1     159.876 163.119 186.563  1.00  0.00    -0.000 C 
BRANCH  17  18
ATOM     18  C   UNL     1     159.876 163.988 187.830  1.00  0.00    -0.003 C 
ATOM     19  C   UNL     1     160.704 165.253 187.626  1.00  0.00     0.004 C 
ENDBRANCH  17  18
ENDBRANCH  16  17
ENDBRANCH  15  16
ENDBRANCH  14  15
ENDBRANCH  13  14
ENDBRANCH  12  13
ENDBRANCH   1  12
TORSDOF 14
ENDMDL
MODEL 9
REMARK VINA RESULT:    -3.441      1.775      3.288
REMARK INTER + INTRA:          -8.554
REMARK INTER:                  -6.742
REMARK INTRA:                  -1.811
REMARK UNBOUND:                -2.297
REMARK SMILES CCCCCCCCCCCCCC[C@@H](C)C(=O)[O-]
REMARK SMILES IDX 9 1 10 2 11 3 12 4 13 5 14 6 15 7 16 8 17 9 18 10 19 11 8 12
REMARK SMILES IDX 7 13 6 14 5 15 4 16 3 17 2 18 1 19
REMARK H PARENT
REMARK Flexibility Score: inf
ROOT
ATOM      1  C   UNL     1     163.556 162.646 187.903  1.00  0.00     0.000 C 
ENDROOT
BRANCH   1   2
ATOM      2  C   UNL     1     162.226 163.426 187.876  1.00  0.00     0.000 C 
BRANCH   2   3
ATOM      3  C   UNL     1     161.167 162.935 188.880  1.00  0.00     0.000 C 
BRANCH   3   4
ATOM      4  C   UNL     1     160.318 161.777 188.333  1.00  0.00     0.000 C 
BRANCH   4   5
ATOM      5  C   UNL     1     159.875 162.057 186.889  1.00  0.00     0.001 C 
BRANCH   5   6
ATOM      6  C   UNL     1     160.420 161.023 185.885  1.00  0.00     0.009 C 
BRANCH   6   7
ATOM      7  C   UNL     1     160.938 161.634 184.564  1.00  0.00     0.032 C 
ATOM      8  C   UNL     1     160.594 163.126 184.492  1.00  0.00     0.014 C 
BRANCH   7   9
ATOM      9  C   UNL     1     162.422 161.442 184.406  1.00  0.00     0.044 C 
ATOM     10  O   UNL     1     163.127 162.326 183.851  1.00  0.00    -0.550 OA
ATOM     11  O   UNL     1     163.025 160.284 184.881  1.00  0.00    -0.550 OA
ENDBRANCH   7   9
ENDBRANCH   6   7
ENDBRANCH   5   6
ENDBRANCH   4   5
ENDBRANCH   3   4
ENDBRANCH   2   3
ENDBRANCH   1   2
BRANCH   1  12
ATOM     12  C   UNL     1     164.793 163.474 188.307  1.00  0.00     0.000 C 
BRANCH  12  13
ATOM     13  C   UNL     1     165.263 163.274 189.759  1.00  0.00    -0.000 C 
BRANCH  13  14
ATOM     14  C   UNL     1     166.663 162.652 189.852  1.00  0.00    -0.000 C 
BRANCH  14  15
ATOM     15  C   UNL     1     166.582 161.170 190.240  1.00  0.00    -0.000 C 
BRANCH  15  16
ATOM     16  C   UNL     1     166.686 160.270 189.000  1.00  0.00    -0.000 C 
BRANCH  16  17
ATOM     17  C   UNL     1     167.956 160.538 188.178  1.00  0.00    -0.000 C 
BRANCH  17  18
ATOM     18  C   UNL     1     167.757 160.267 186.679  1.00  0.00    -0.003 C 
ATOM     19  C   UNL     1     166.310 160.515 186.264  1.00  0.00     0.004 C 
ENDBRANCH  17  18
ENDBRANCH  16  17
ENDBRANCH  15  16
ENDBRANCH  14  15
ENDBRANCH  13  14
ENDBRANCH  12  13
ENDBRANCH   1  12
TORSDOF 14
ENDMDL
