MODEL 1
REMARK VINA RESULT:    -5.095      0.000      0.000
REMARK INTER + INTRA:          -6.875
REMARK INTER:                  -7.180
REMARK INTRA:                   0.304
REMARK UNBOUND:                 0.304
REMARK SMILES CC1=CCC(=C(C)C)C(=O)CC(C)=CCC1
REMARK SMILES IDX 12 1 14 2 13 3 15 4 16 5 2 6 1 7 3 8 11 10 9 11 10 12 5 13
REMARK SMILES IDX 6 14 7 15 8 16 4 17
REMARK H PARENT
REMARK Flexibility Score: 60.00
ROOT
ATOM      1  C   UNL     1     -58.591  20.628 -28.343  1.00  0.00    -0.070 C 
ATOM      2  C   UNL     1     -59.008  19.344 -28.251  1.00  0.00    -0.027 C 
ATOM      3  C   UNL     1     -57.119  20.909 -28.187  1.00  0.00     0.039 C 
ENDROOT
BRANCH   2   4
ATOM      4  C   UNL     1     -60.412  18.870 -28.525  1.00  0.00     0.032 C 
BRANCH   4   5
ATOM      5  C   UNL     1     -60.684  18.892 -30.035  1.00  0.00     0.034 C 
BRANCH   5   6
ATOM      6  C   UNL     1     -62.048  19.461 -30.369  1.00  0.00    -0.077 C 
ATOM      7  C   UNL     1     -63.273  18.742 -29.863  1.00  0.00     0.039 C 
ATOM      8  C   UNL     1     -62.236  20.545 -31.162  1.00  0.00    -0.023 CG0
ATOM      9  G   UNL     1     -61.171  21.462 -31.739  1.00  0.00     0.000 G0
ENDBRANCH   5   6
ENDBRANCH   4   5
ENDBRANCH   2   4
BRANCH   1  10
ATOM     10  C   UNL     1     -59.532  21.794 -28.574  1.00  0.00     0.111 C 
BRANCH  10  11
ATOM     11  C   UNL     1     -59.460  22.303 -29.993  1.00  0.00     0.163 C 
ATOM     12  O   UNL     1     -58.313  22.518 -30.470  1.00  0.00    -0.294 OA
BRANCH  11  13
ATOM     13  C   UNL     1     -60.667  22.582 -30.841  1.00  0.00    -0.002 C 
ATOM     14  C   UNL     1     -61.375  23.742 -30.682  1.00  0.00    -0.069 C 
ATOM     15  C   UNL     1     -60.829  24.897 -29.873  1.00  0.00     0.039 C 
ATOM     16  C   UNL     1     -62.718  23.959 -31.345  1.00  0.00     0.039 C 
BRANCH  13  17
ATOM     17  C   UNL     1     -61.177  21.464 -31.744  1.00  0.00     0.066 CG0
ATOM     18  G   UNL     1     -62.227  20.541 -31.152  1.00  0.00     0.000 G0
ENDBRANCH  13  17
ENDBRANCH  11  13
ENDBRANCH  10  11
ENDBRANCH   1  10
TORSDOF 0
ENDMDL
MODEL 2
REMARK VINA RESULT:    -4.985      2.033      5.149
REMARK INTER + INTRA:          -6.721
REMARK INTER:                  -6.601
REMARK INTRA:                  -0.120
REMARK UNBOUND:                 0.304
REMARK SMILES CC1=CCC(=C(C)C)C(=O)CC(C)=CCC1
REMARK SMILES IDX 12 1 14 2 13 3 15 4 16 5 2 6 1 7 3 8 11 10 9 11 10 12 5 13
REMARK SMILES IDX 6 14 7 15 8 16 4 17
REMARK H PARENT
REMARK Flexibility Score: 60.00
ROOT
ATOM      1  C   UNL     1     -61.298  22.485 -31.264  1.00  0.00    -0.070 C 
ATOM      2  C   UNL     1     -60.511  23.188 -30.418  1.00  0.00    -0.027 C 
ATOM      3  C   UNL     1     -62.562  23.136 -31.764  1.00  0.00     0.039 C 
ENDROOT
BRANCH   2   4
ATOM      4  C   UNL     1     -59.149  22.751 -29.941  1.00  0.00     0.032 C 
BRANCH   4   5
ATOM      5  C   UNL     1     -59.269  22.081 -28.566  1.00  0.00     0.034 C 
BRANCH   5   6
ATOM      6  C   UNL     1     -58.477  20.792 -28.479  1.00  0.00    -0.077 C 
ATOM      7  C   UNL     1     -56.980  20.874 -28.322  1.00  0.00     0.039 C 
ATOM      8  C   UNL     1     -59.032  19.561 -28.607  1.00  0.00    -0.023 CG0
ATOM      9  G   UNL     1     -60.507  19.220 -28.716  1.00  0.00     0.000 G0
ENDBRANCH   5   6
ENDBRANCH   4   5
ENDBRANCH   2   4
BRANCH   1  10
ATOM     10  C   UNL     1     -60.983  21.073 -31.716  1.00  0.00     0.111 C 
BRANCH  10  11
ATOM     11  C   UNL     1     -61.701  20.040 -30.882  1.00  0.00     0.163 C 
ATOM     12  O   UNL     1     -62.954  20.148 -30.788  1.00  0.00    -0.294 OA
BRANCH  11  13
ATOM     13  C   UNL     1     -61.007  18.926 -30.154  1.00  0.00    -0.002 C 
ATOM     14  C   UNL     1     -60.980  17.662 -30.680  1.00  0.00    -0.069 C 
ATOM     15  C   UNL     1     -61.383  17.394 -32.113  1.00  0.00     0.039 C 
ATOM     16  C   UNL     1     -60.500  16.472 -29.881  1.00  0.00     0.039 C 
BRANCH  13  17
ATOM     17  C   UNL     1     -60.501  19.204 -28.743  1.00  0.00     0.066 CG0
ATOM     18  G   UNL     1     -59.029  19.554 -28.609  1.00  0.00     0.000 G0
ENDBRANCH  13  17
ENDBRANCH  11  13
ENDBRANCH  10  11
ENDBRANCH   1  10
TORSDOF 0
ENDMDL
MODEL 3
REMARK VINA RESULT:    -4.937      2.455      4.741
REMARK INTER + INTRA:          -6.653
REMARK INTER:                  -7.283
REMARK INTRA:                   0.630
REMARK UNBOUND:                 0.304
REMARK SMILES CC1=CCC(=C(C)C)C(=O)CC(C)=CCC1
REMARK SMILES IDX 12 1 14 2 13 3 15 4 16 5 2 6 1 7 3 8 11 10 9 11 10 12 5 13
REMARK SMILES IDX 6 14 7 15 8 16 4 17
REMARK H PARENT
REMARK Flexibility Score: 60.00
ROOT
ATOM      1  C   UNL     1     -58.945  20.069 -28.638  1.00  0.00    -0.070 C 
ATOM      2  C   UNL     1     -58.239  20.668 -29.625  1.00  0.00    -0.027 C 
ATOM      3  C   UNL     1     -59.360  20.906 -27.455  1.00  0.00     0.039 C 
ENDROOT
BRANCH   2   4
ATOM      4  C   UNL     1     -57.873  20.024 -30.937  1.00  0.00     0.032 C 
BRANCH   4   5
ATOM      5  C   UNL     1     -58.453  20.841 -32.098  1.00  0.00     0.034 C 
BRANCH   5   6
ATOM      6  C   UNL     1     -59.963  20.954 -32.030  1.00  0.00    -0.077 C 
ATOM      7  C   UNL     1     -60.579  22.326 -31.917  1.00  0.00     0.039 C 
ATOM      8  C   UNL     1     -60.794  19.883 -31.991  1.00  0.00    -0.023 CG0
ATOM      9  G   UNL     1     -60.422  18.420 -32.145  1.00  0.00     0.000 G0
ENDBRANCH   5   6
ENDBRANCH   4   5
ENDBRANCH   2   4
BRANCH   1  10
ATOM     10  C   UNL     1     -59.319  18.601 -28.655  1.00  0.00     0.111 C 
BRANCH  10  11
ATOM     11  C   UNL     1     -60.519  18.335 -29.531  1.00  0.00     0.163 C 
ATOM     12  O   UNL     1     -61.635  18.756 -29.122  1.00  0.00    -0.294 OA
BRANCH  11  13
ATOM     13  C   UNL     1     -60.453  17.587 -30.831  1.00  0.00    -0.002 C 
ATOM     14  C   UNL     1     -60.256  16.233 -30.846  1.00  0.00    -0.069 C 
ATOM     15  C   UNL     1     -60.379  15.403 -29.587  1.00  0.00     0.039 C 
ATOM     16  C   UNL     1     -59.953  15.480 -32.122  1.00  0.00     0.039 C 
BRANCH  13  17
ATOM     17  C   UNL     1     -60.430  18.401 -32.120  1.00  0.00     0.066 CG0
ATOM     18  G   UNL     1     -60.801  19.869 -32.001  1.00  0.00     0.000 G0
ENDBRANCH  13  17
ENDBRANCH  11  13
ENDBRANCH  10  11
ENDBRANCH   1  10
TORSDOF 0
ENDMDL
MODEL 4
REMARK VINA RESULT:    -4.911      1.313      1.730
REMARK INTER + INTRA:          -6.617
REMARK INTER:                  -7.073
REMARK INTRA:                   0.456
REMARK UNBOUND:                 0.304
REMARK SMILES CC1=CCC(=C(C)C)C(=O)CC(C)=CCC1
REMARK SMILES IDX 12 1 14 2 13 3 15 4 16 5 2 6 1 7 3 8 11 10 9 11 10 12 5 13
REMARK SMILES IDX 6 14 7 15 8 16 4 17
REMARK H PARENT
REMARK Flexibility Score: 60.00
ROOT
ATOM      1  C   UNL     1     -58.806  19.899 -28.938  1.00  0.00    -0.070 C 
ATOM      2  C   UNL     1     -59.835  19.289 -28.306  1.00  0.00    -0.027 C 
ATOM      3  C   UNL     1     -57.882  20.763 -28.119  1.00  0.00     0.039 C 
ENDROOT
BRANCH   2   4
ATOM      4  C   UNL     1     -60.760  18.280 -28.937  1.00  0.00     0.032 C 
BRANCH   4   5
ATOM      5  C   UNL     1     -62.013  18.985 -29.471  1.00  0.00     0.034 C 
BRANCH   5   6
ATOM      6  C   UNL     1     -61.953  19.220 -30.967  1.00  0.00    -0.077 C 
ATOM      7  C   UNL     1     -62.279  18.074 -31.891  1.00  0.00     0.039 C 
ATOM      8  C   UNL     1     -61.550  20.387 -31.528  1.00  0.00    -0.023 CG0
ATOM      9  G   UNL     1     -61.227  21.690 -30.817  1.00  0.00     0.000 G0
ENDBRANCH   5   6
ENDBRANCH   4   5
ENDBRANCH   2   4
BRANCH   1  10
ATOM     10  C   UNL     1     -58.549  19.771 -30.426  1.00  0.00     0.111 C 
BRANCH  10  11
ATOM     11  C   UNL     1     -58.733  21.085 -31.145  1.00  0.00     0.163 C 
ATOM     12  O   UNL     1     -57.957  21.327 -32.109  1.00  0.00    -0.294 OA
BRANCH  11  13
ATOM     13  C   UNL     1     -59.762  22.109 -30.761  1.00  0.00    -0.002 C 
ATOM     14  C   UNL     1     -59.382  23.306 -30.215  1.00  0.00    -0.069 C 
ATOM     15  C   UNL     1     -57.940  23.762 -30.237  1.00  0.00     0.039 C 
ATOM     16  C   UNL     1     -60.382  24.262 -29.604  1.00  0.00     0.039 C 
BRANCH  13  17
ATOM     17  C   UNL     1     -61.230  21.704 -30.828  1.00  0.00     0.066 CG0
ATOM     18  G   UNL     1     -61.538  20.389 -31.522  1.00  0.00     0.000 G0
ENDBRANCH  13  17
ENDBRANCH  11  13
ENDBRANCH  10  11
ENDBRANCH   1  10
TORSDOF 0
ENDMDL
MODEL 5
REMARK VINA RESULT:    -4.703      1.533      3.946
REMARK INTER + INTRA:          -6.324
REMARK INTER:                  -6.612
REMARK INTRA:                   0.288
REMARK UNBOUND:                 0.304
REMARK SMILES CC1=CCC(=C(C)C)C(=O)CC(C)=CCC1
REMARK SMILES IDX 12 1 14 2 13 3 15 4 16 5 2 6 1 7 3 8 11 10 9 11 10 12 5 13
REMARK SMILES IDX 6 14 7 15 8 16 4 17
REMARK H PARENT
REMARK Flexibility Score: 60.00
ROOT
ATOM      1  C   UNL     1     -58.594  21.346 -29.504  1.00  0.00    -0.070 C 
ATOM      2  C   UNL     1     -58.625  22.599 -30.011  1.00  0.00    -0.027 C 
ATOM      3  C   UNL     1     -58.994  21.153 -28.064  1.00  0.00     0.039 C 
ENDROOT
BRANCH   2   4
ATOM      4  C   UNL     1     -58.401  22.951 -31.460  1.00  0.00     0.032 C 
BRANCH   4   5
ATOM      5  C   UNL     1     -59.729  23.367 -32.106  1.00  0.00     0.034 C 
BRANCH   5   6
ATOM      6  C   UNL     1     -60.885  23.335 -31.127  1.00  0.00    -0.077 C 
ATOM      7  C   UNL     1     -61.217  24.592 -30.362  1.00  0.00     0.039 C 
ATOM      8  C   UNL     1     -61.597  22.217 -30.842  1.00  0.00    -0.023 CG0
ATOM      9  G   UNL     1     -61.491  20.859 -31.514  1.00  0.00     0.000 G0
ENDBRANCH   5   6
ENDBRANCH   4   5
ENDBRANCH   2   4
BRANCH   1  10
ATOM     10  C   UNL     1     -58.161  20.134 -30.304  1.00  0.00     0.111 C 
BRANCH  10  11
ATOM     11  C   UNL     1     -59.299  19.551 -31.106  1.00  0.00     0.163 C 
ATOM     12  O   UNL     1     -58.997  18.873 -32.125  1.00  0.00    -0.294 OA
BRANCH  11  13
ATOM     13  C   UNL     1     -60.748  19.755 -30.769  1.00  0.00    -0.002 C 
ATOM     14  C   UNL     1     -61.399  18.882 -29.939  1.00  0.00    -0.069 C 
ATOM     15  C   UNL     1     -60.643  17.863 -29.116  1.00  0.00     0.039 C 
ATOM     16  C   UNL     1     -62.900  18.916 -29.759  1.00  0.00     0.039 C 
BRANCH  13  17
ATOM     17  C   UNL     1     -61.506  20.848 -31.515  1.00  0.00     0.066 CG0
ATOM     18  G   UNL     1     -61.576  22.206 -30.839  1.00  0.00     0.000 G0
ENDBRANCH  13  17
ENDBRANCH  11  13
ENDBRANCH  10  11
ENDBRANCH   1  10
TORSDOF 0
ENDMDL
MODEL 6
REMARK VINA RESULT:    -4.606      1.539      4.011
REMARK INTER + INTRA:          -6.186
REMARK INTER:                  -6.246
REMARK INTRA:                   0.060
REMARK UNBOUND:                 0.304
REMARK SMILES CC1=CCC(=C(C)C)C(=O)CC(C)=CCC1
REMARK SMILES IDX 12 1 14 2 13 3 15 4 16 5 2 6 1 7 3 8 11 10 9 11 10 12 5 13
REMARK SMILES IDX 6 14 7 15 8 16 4 17
REMARK H PARENT
REMARK Flexibility Score: 60.00
ROOT
ATOM      1  C   UNL     1     -59.313  20.069 -28.182  1.00  0.00    -0.070 C 
ATOM      2  C   UNL     1     -59.293  21.403 -27.962  1.00  0.00    -0.027 C 
ATOM      3  C   UNL     1     -59.924  19.184 -27.126  1.00  0.00     0.039 C 
ENDROOT
BRANCH   2   4
ATOM      4  C   UNL     1     -58.859  22.438 -28.968  1.00  0.00     0.032 C 
BRANCH   4   5
ATOM      5  C   UNL     1     -60.090  23.116 -29.582  1.00  0.00     0.034 C 
BRANCH   5   6
ATOM      6  C   UNL     1     -60.327  22.695 -31.019  1.00  0.00    -0.077 C 
ATOM      7  C   UNL     1     -59.659  23.479 -32.120  1.00  0.00     0.039 C 
ATOM      8  C   UNL     1     -61.168  21.693 -31.378  1.00  0.00    -0.023 CG0
ATOM      9  G   UNL     1     -61.903  20.733 -30.461  1.00  0.00     0.000 G0
ENDBRANCH   5   6
ENDBRANCH   4   5
ENDBRANCH   2   4
BRANCH   1  10
ATOM     10  C   UNL     1     -58.737  19.421 -29.425  1.00  0.00     0.111 C 
BRANCH  10  11
ATOM     11  C   UNL     1     -59.783  19.223 -30.495  1.00  0.00     0.163 C 
ATOM     12  O   UNL     1     -59.373  18.962 -31.659  1.00  0.00    -0.294 OA
BRANCH  11  13
ATOM     13  C   UNL     1     -61.259  19.342 -30.250  1.00  0.00    -0.002 C 
ATOM     14  C   UNL     1     -62.017  18.227 -30.014  1.00  0.00    -0.069 C 
ATOM     15  C   UNL     1     -61.381  16.889 -29.710  1.00  0.00     0.039 C 
ATOM     16  C   UNL     1     -63.528  18.274 -29.994  1.00  0.00     0.039 C 
BRANCH  13  17
ATOM     17  C   UNL     1     -61.907  20.708 -30.452  1.00  0.00     0.066 CG0
ATOM     18  G   UNL     1     -61.172  21.677 -31.360  1.00  0.00     0.000 G0
ENDBRANCH  13  17
ENDBRANCH  11  13
ENDBRANCH  10  11
ENDBRANCH   1  10
TORSDOF 0
ENDMDL
MODEL 7
REMARK VINA RESULT:    -4.459      2.115      5.018
REMARK INTER + INTRA:          -5.979
REMARK INTER:                  -6.647
REMARK INTRA:                   0.667
REMARK UNBOUND:                 0.304
REMARK SMILES CC1=CCC(=C(C)C)C(=O)CC(C)=CCC1
REMARK SMILES IDX 12 1 14 2 13 3 15 4 16 5 2 6 1 7 3 8 11 10 9 11 10 12 5 13
REMARK SMILES IDX 6 14 7 15 8 16 4 17
REMARK H PARENT
REMARK Flexibility Score: 60.00
ROOT
ATOM      1  C   UNL     1     -61.881  20.905 -31.485  1.00  0.00    -0.070 C 
ATOM      2  C   UNL     1     -61.978  22.235 -31.257  1.00  0.00    -0.027 C 
ATOM      3  C   UNL     1     -63.030  20.026 -31.062  1.00  0.00     0.039 C 
ENDROOT
BRANCH   2   4
ATOM      4  C   UNL     1     -60.996  23.269 -31.744  1.00  0.00     0.032 C 
BRANCH   4   5
ATOM      5  C   UNL     1     -59.565  22.818 -31.428  1.00  0.00     0.034 C 
BRANCH   5   6
ATOM      6  C   UNL     1     -59.254  22.868 -29.946  1.00  0.00    -0.077 C 
ATOM      7  C   UNL     1     -59.532  24.145 -29.194  1.00  0.00     0.039 C 
ATOM      8  C   UNL     1     -58.670  21.849 -29.266  1.00  0.00    -0.023 CG0
ATOM      9  G   UNL     1     -58.350  20.459 -29.784  1.00  0.00     0.000 G0
ENDBRANCH   5   6
ENDBRANCH   4   5
ENDBRANCH   2   4
BRANCH   1  10
ATOM     10  C   UNL     1     -60.670  20.256 -32.125  1.00  0.00     0.111 C 
BRANCH  10  11
ATOM     11  C   UNL     1     -60.068  19.191 -31.241  1.00  0.00     0.163 C 
ATOM     12  O   UNL     1     -60.072  18.009 -31.680  1.00  0.00    -0.294 OA
BRANCH  11  13
ATOM     13  C   UNL     1     -59.495  19.462 -29.879  1.00  0.00    -0.002 C 
ATOM     14  C   UNL     1     -60.100  18.960 -28.758  1.00  0.00    -0.069 C 
ATOM     15  C   UNL     1     -61.175  17.901 -28.848  1.00  0.00     0.039 C 
ATOM     16  C   UNL     1     -59.697  19.396 -27.367  1.00  0.00     0.039 C 
BRANCH  13  17
ATOM     17  C   UNL     1     -58.341  20.453 -29.777  1.00  0.00     0.066 CG0
ATOM     18  G   UNL     1     -58.687  21.848 -29.289  1.00  0.00     0.000 G0
ENDBRANCH  13  17
ENDBRANCH  11  13
ENDBRANCH  10  11
ENDBRANCH   1  10
TORSDOF 0
ENDMDL
MODEL 8
REMARK VINA RESULT:    -4.183      2.068      4.777
REMARK INTER + INTRA:          -5.590
REMARK INTER:                  -6.042
REMARK INTRA:                   0.452
REMARK UNBOUND:                 0.304
REMARK SMILES CC1=CCC(=C(C)C)C(=O)CC(C)=CCC1
REMARK SMILES IDX 12 1 14 2 13 3 15 4 16 5 2 6 1 7 3 8 11 10 9 11 10 12 5 13
REMARK SMILES IDX 6 14 7 15 8 16 4 17
REMARK H PARENT
REMARK Flexibility Score: 60.00
ROOT
ATOM      1  C   UNL     1     -63.109  19.028 -30.377  1.00  0.00    -0.070 C 
ATOM      2  C   UNL     1     -63.348  20.196 -31.016  1.00  0.00    -0.027 C 
ATOM      3  C   UNL     1     -63.968  17.839 -30.727  1.00  0.00     0.039 C 
ENDROOT
BRANCH   2   4
ATOM      4  C   UNL     1     -62.497  21.435 -30.898  1.00  0.00     0.032 C 
BRANCH   4   5
ATOM      5  C   UNL     1     -61.585  21.559 -32.125  1.00  0.00     0.034 C 
BRANCH   5   6
ATOM      6  C   UNL     1     -60.244  22.181 -31.790  1.00  0.00    -0.077 C 
ATOM      7  C   UNL     1     -60.100  23.679 -31.885  1.00  0.00     0.039 C 
ATOM      8  C   UNL     1     -59.140  21.459 -31.477  1.00  0.00    -0.023 CG0
ATOM      9  G   UNL     1     -59.047  19.959 -31.265  1.00  0.00     0.000 G0
ENDBRANCH   5   6
ENDBRANCH   4   5
ENDBRANCH   2   4
BRANCH   1  10
ATOM     10  C   UNL     1     -62.038  18.861 -29.318  1.00  0.00     0.111 C 
BRANCH  10  11
ATOM     11  C   UNL     1     -60.702  18.499 -29.919  1.00  0.00     0.163 C 
ATOM     12  O   UNL     1     -60.594  17.352 -30.430  1.00  0.00    -0.294 OA
BRANCH  11  13
ATOM     13  C   UNL     1     -59.511  19.413 -29.917  1.00  0.00    -0.002 C 
ATOM     14  C   UNL     1     -58.986  19.870 -28.738  1.00  0.00    -0.069 C 
ATOM     15  C   UNL     1     -59.386  19.267 -27.410  1.00  0.00     0.039 C 
ATOM     16  C   UNL     1     -57.944  20.965 -28.695  1.00  0.00     0.039 C 
BRANCH  13  17
ATOM     17  C   UNL     1     -59.026  19.954 -31.258  1.00  0.00     0.066 CG0
ATOM     18  G   UNL     1     -59.161  21.451 -31.473  1.00  0.00     0.000 G0
ENDBRANCH  13  17
ENDBRANCH  11  13
ENDBRANCH  10  11
ENDBRANCH   1  10
TORSDOF 0
ENDMDL
MODEL 9
REMARK VINA RESULT:    -4.140      1.886      3.949
REMARK INTER + INTRA:          -5.531
REMARK INTER:                  -6.234
REMARK INTRA:                   0.704
REMARK UNBOUND:                 0.304
REMARK SMILES CC1=CCC(=C(C)C)C(=O)CC(C)=CCC1
REMARK SMILES IDX 12 1 14 2 13 3 15 4 16 5 2 6 1 7 3 8 11 10 9 11 10 12 5 13
REMARK SMILES IDX 6 14 7 15 8 16 4 17
REMARK H PARENT
REMARK Flexibility Score: 60.00
ROOT
ATOM      1  C   UNL     1     -60.084  22.162 -30.412  1.00  0.00    -0.070 C 
ATOM      2  C   UNL     1     -61.402  22.342 -30.658  1.00  0.00    -0.027 C 
ATOM      3  C   UNL     1     -59.408  23.100 -29.444  1.00  0.00     0.039 C 
ENDROOT
BRANCH   2   4
ATOM      4  C   UNL     1     -62.263  21.414 -31.476  1.00  0.00     0.032 C 
BRANCH   4   5
ATOM      5  C   UNL     1     -62.712  20.226 -30.616  1.00  0.00     0.034 C 
BRANCH   5   6
ATOM      6  C   UNL     1     -62.985  18.984 -31.441  1.00  0.00    -0.077 C 
ATOM      7  C   UNL     1     -64.396  18.720 -31.902  1.00  0.00     0.039 C 
ATOM      8  C   UNL     1     -62.042  18.053 -31.730  1.00  0.00    -0.023 CG0
ATOM      9  G   UNL     1     -60.555  18.121 -31.429  1.00  0.00     0.000 G0
ENDBRANCH   5   6
ENDBRANCH   4   5
ENDBRANCH   2   4
BRANCH   1  10
ATOM     10  C   UNL     1     -59.253  21.081 -31.073  1.00  0.00     0.111 C 
BRANCH  10  11
ATOM     11  C   UNL     1     -59.092  19.871 -30.185  1.00  0.00     0.163 C 
ATOM     12  O   UNL     1     -58.047  19.810 -29.482  1.00  0.00    -0.294 OA
BRANCH  11  13
ATOM     13  C   UNL     1     -60.085  18.748 -30.118  1.00  0.00    -0.002 C 
ATOM     14  C   UNL     1     -60.454  18.218 -28.911  1.00  0.00    -0.069 C 
ATOM     15  C   UNL     1     -60.112  18.905 -27.608  1.00  0.00     0.039 C 
ATOM     16  C   UNL     1     -61.265  16.945 -28.809  1.00  0.00     0.039 C 
BRANCH  13  17
ATOM     17  C   UNL     1     -60.524  18.105 -31.429  1.00  0.00     0.066 CG0
ATOM     18  G   UNL     1     -62.018  18.057 -31.693  1.00  0.00     0.000 G0
ENDBRANCH  13  17
ENDBRANCH  11  13
ENDBRANCH  10  11
ENDBRANCH   1  10
TORSDOF 0
ENDMDL
