MODEL 1
REMARK VINA RESULT:    17.483      0.000      0.000
REMARK INTER + INTRA:          23.501
REMARK INTER:                  23.105
REMARK INTRA:                   0.396
REMARK UNBOUND:                 0.396
REMARK SMILES CC[C@H](C=C[C@@H](C)[C@H]1CC[C@H]2[C@H]3CC=C4C[C@@H](O)CC[C@]4(C)[C@@H]3CC[C@]12C)C(C)C
REMARK SMILES IDX 6 1 7 2 5 3 4 4 3 5 2 6 1 7 28 8 29 9 30 10 8 11 9 12 26 13
REMARK SMILES IDX 10 14 11 15 25 16 27 17 12 18 24 19 23 20 13 21 21 22 14 23
REMARK SMILES IDX 15 24 20 25 22 26 16 27 19 28 17 29 18 30
REMARK H PARENT 18 31
REMARK Flexibility Score: inf
ROOT
ATOM      1  C   UNL     1      77.528  15.138   1.514  1.00  0.00     0.012 C 
ATOM      2  C   UNL     1      77.324  13.910   0.613  1.00  0.00     0.012 C 
ENDROOT
BRANCH   1   3
ATOM      3  C   UNL     1      77.616  16.388   0.660  1.00  0.00    -0.028 C 
ATOM      4  C   UNL     1      77.875  17.604   1.177  1.00  0.00    -0.027 C 
BRANCH   4   5
ATOM      5  C   UNL     1      77.930  18.875   0.350  1.00  0.00     0.014 C 
BRANCH   5   6
ATOM      6  C   UNL     1      76.581  19.643   0.330  1.00  0.00     0.004 C 
ATOM      7  C   UNL     1      75.866  19.594   1.682  1.00  0.00     0.004 C 
ENDBRANCH   5   6
BRANCH   5   8
ATOM      8  C   UNL     1      79.164  19.752   0.736  1.00  0.00    -0.011 C 
ATOM      9  C   UNL     1      78.738  21.114   1.308  1.00  0.00     0.008 C 
ATOM     10  C   UNL     1      80.152  19.068   1.695  1.00  0.00     0.008 C 
ENDBRANCH   5   8
ENDBRANCH   4   5
ENDBRANCH   1   3
BRANCH   1  11
ATOM     11  C   UNL     1      78.775  15.003   2.446  1.00  0.00     0.002 C 
ATOM     12  C   UNL     1      79.948  15.924   2.005  1.00  0.00     0.005 C 
ATOM     13  C   UNL     1      78.590  15.323   3.964  1.00  0.00    -0.026 C 
ATOM     14  C   UNL     1      80.698  16.346   3.278  1.00  0.00     0.005 C 
ATOM     15  C   UNL     1      80.065  15.498   4.367  1.00  0.00    -0.001 C 
ATOM     16  C   UNL     1      77.966  14.159   4.812  1.00  0.00     0.007 C 
ATOM     17  C   UNL     1      77.759  16.637   4.128  1.00  0.00     0.012 C 
ATOM     18  C   UNL     1      80.343  15.804   5.866  1.00  0.00     0.000 C 
ATOM     19  C   UNL     1      78.662  13.914   6.185  1.00  0.00     0.005 C 
ATOM     20  C   UNL     1      79.238  15.222   6.786  1.00  0.00     0.003 C 
ATOM     21  C   UNL     1      80.567  17.267   6.254  1.00  0.00     0.031 C 
ATOM     22  C   UNL     1      79.727  15.158   8.281  1.00  0.00    -0.008 C 
ATOM     23  C   UNL     1      80.936  17.341   7.717  1.00  0.00    -0.027 C 
ATOM     24  C   UNL     1      80.583  16.398   8.629  1.00  0.00    -0.065 C 
ATOM     25  C   UNL     1      80.588  13.885   8.547  1.00  0.00     0.014 C 
ATOM     26  C   UNL     1      78.477  15.144   9.202  1.00  0.00     0.016 C 
ATOM     27  C   UNL     1      81.236  16.427   9.994  1.00  0.00     0.063 C 
ATOM     28  C   UNL     1      81.272  13.881   9.929  1.00  0.00     0.033 C 
ATOM     29  C   UNL     1      82.096  15.163  10.166  1.00  0.00     0.118 C 
BRANCH  29  30
ATOM     30  O   UNL     1      82.694  15.139  11.437  1.00  0.00    -0.393 OA
ATOM     31  H   UNL     1      83.658  15.344  11.320  1.00  0.00     0.210 HD
ENDBRANCH  29  30
ENDBRANCH   1  11
TORSDOF 6
ENDMDL
MODEL 2
REMARK VINA RESULT:    19.592      1.832      4.388
REMARK INTER + INTRA:          26.288
REMARK INTER:                  25.480
REMARK INTRA:                   0.808
REMARK UNBOUND:                 0.396
REMARK SMILES CC[C@H](C=C[C@@H](C)[C@H]1CC[C@H]2[C@H]3CC=C4C[C@@H](O)CC[C@]4(C)[C@@H]3CC[C@]12C)C(C)C
REMARK SMILES IDX 6 1 7 2 5 3 4 4 3 5 2 6 1 7 28 8 29 9 30 10 8 11 9 12 26 13
REMARK SMILES IDX 10 14 11 15 25 16 27 17 12 18 24 19 23 20 13 21 21 22 14 23
REMARK SMILES IDX 15 24 20 25 22 26 16 27 19 28 17 29 18 30
REMARK H PARENT 18 31
REMARK Flexibility Score: inf
ROOT
ATOM      1  C   UNL     1      78.711  16.851   5.046  1.00  0.00     0.012 C 
ATOM      2  C   UNL     1      77.296  17.439   4.943  1.00  0.00     0.012 C 
ENDROOT
BRANCH   1   3
ATOM      3  C   UNL     1      79.070  16.156   3.748  1.00  0.00    -0.028 C 
ATOM      4  C   UNL     1      79.300  16.827   2.603  1.00  0.00    -0.027 C 
BRANCH   4   5
ATOM      5  C   UNL     1      79.622  16.153   1.282  1.00  0.00     0.014 C 
BRANCH   5   6
ATOM      6  C   UNL     1      80.202  14.724   1.458  1.00  0.00     0.004 C 
ATOM      7  C   UNL     1      80.230  14.286   2.923  1.00  0.00     0.004 C 
ENDBRANCH   5   6
BRANCH   5   8
ATOM      8  C   UNL     1      78.421  16.243   0.289  1.00  0.00    -0.011 C 
ATOM      9  C   UNL     1      77.278  15.296   0.691  1.00  0.00     0.008 C 
ATOM     10  C   UNL     1      77.873  17.665   0.085  1.00  0.00     0.008 C 
ENDBRANCH   5   8
ENDBRANCH   4   5
ENDBRANCH   1   3
BRANCH   1  11
ATOM     11  C   UNL     1      78.879  15.888   6.265  1.00  0.00     0.002 C 
ATOM     12  C   UNL     1      79.291  14.451   5.835  1.00  0.00     0.005 C 
ATOM     13  C   UNL     1      79.923  16.272   7.362  1.00  0.00    -0.026 C 
ATOM     14  C   UNL     1      80.174  13.877   6.955  1.00  0.00     0.005 C 
ATOM     15  C   UNL     1      80.066  14.910   8.064  1.00  0.00    -0.001 C 
ATOM     16  C   UNL     1      79.424  17.332   8.406  1.00  0.00     0.007 C 
ATOM     17  C   UNL     1      81.250  16.743   6.682  1.00  0.00     0.012 C 
ATOM     18  C   UNL     1      81.025  14.856   9.286  1.00  0.00     0.000 C 
ATOM     19  C   UNL     1      79.789  17.004   9.886  1.00  0.00     0.005 C 
ATOM     20  C   UNL     1      81.129  16.232   9.996  1.00  0.00     0.003 C 
ATOM     21  C   UNL     1      82.443  14.334   9.044  1.00  0.00     0.031 C 
ATOM     22  C   UNL     1      81.738  16.074  11.439  1.00  0.00    -0.008 C 
ATOM     23  C   UNL     1      83.172  14.248  10.364  1.00  0.00    -0.027 C 
ATOM     24  C   UNL     1      82.857  15.007  11.447  1.00  0.00    -0.065 C 
ATOM     25  C   UNL     1      80.653  15.648  12.474  1.00  0.00     0.014 C 
ATOM     26  C   UNL     1      82.353  17.438  11.859  1.00  0.00     0.016 C 
ATOM     27  C   UNL     1      83.460  14.645  12.787  1.00  0.00     0.063 C 
ATOM     28  C   UNL     1      81.232  15.269  13.853  1.00  0.00     0.033 C 
ATOM     29  C   UNL     1      82.336  14.199  13.739  1.00  0.00     0.118 C 
BRANCH  29  30
ATOM     30  O   UNL     1      82.856  13.886  15.006  1.00  0.00    -0.393 OA
ATOM     31  H   UNL     1      83.815  13.657  14.890  1.00  0.00     0.210 HD
ENDBRANCH  29  30
ENDBRANCH   1  11
TORSDOF 6
ENDMDL
