MODEL 1
REMARK VINA RESULT:    -4.790      0.000      0.000
REMARK INTER + INTRA:          -5.244
REMARK INTER:                  -5.210
REMARK INTRA:                  -0.033
REMARK UNBOUND:                -0.033
REMARK SMILES O=C([O-])c1ccc(O)cc1
REMARK SMILES IDX 4 1 5 2 10 3 6 4 9 5 7 6 2 7 1 8 3 9 8 10
REMARK H PARENT 8 11
REMARK Flexibility Score: inf
ROOT
ATOM      1  C   UNL     1     -22.824   0.804  23.348  1.00  0.00    -0.003 A 
ATOM      2  C   UNL     1     -21.869   0.420  24.307  1.00  0.00     0.014 A 
ATOM      3  C   UNL     1     -24.100   0.214  23.384  1.00  0.00     0.014 A 
ATOM      4  C   UNL     1     -22.185  -0.533  25.280  1.00  0.00     0.047 A 
ATOM      5  C   UNL     1     -24.413  -0.739  24.358  1.00  0.00     0.047 A 
ATOM      6  C   UNL     1     -23.456  -1.115  25.308  1.00  0.00     0.115 A 
ENDROOT
BRANCH   1   7
ATOM      7  C   UNL     1     -22.495   1.812  22.317  1.00  0.00     0.071 C 
ATOM      8  O   UNL     1     -21.317   1.926  21.885  1.00  0.00    -0.545 OA
ATOM      9  O   UNL     1     -23.483   2.648  21.809  1.00  0.00    -0.545 OA
ENDBRANCH   1   7
BRANCH   6  10
ATOM     10  O   UNL     1     -23.757  -2.064  26.283  1.00  0.00    -0.508 OA
ATOM     11  H   UNL     1     -23.403  -3.012  26.226  1.00  0.00     0.293 HD
ENDBRANCH   6  10
TORSDOF 2
ENDMDL
MODEL 2
REMARK VINA RESULT:    -4.750      0.211      1.544
REMARK INTER + INTRA:          -5.200
REMARK INTER:                  -5.167
REMARK INTRA:                  -0.033
REMARK UNBOUND:                -0.033
REMARK SMILES O=C([O-])c1ccc(O)cc1
REMARK SMILES IDX 4 1 5 2 10 3 6 4 9 5 7 6 2 7 1 8 3 9 8 10
REMARK H PARENT 8 11
REMARK Flexibility Score: inf
ROOT
ATOM      1  C   UNL     1     -22.930   0.842  23.341  1.00  0.00    -0.003 A 
ATOM      2  C   UNL     1     -24.249   0.351  23.372  1.00  0.00     0.014 A 
ATOM      3  C   UNL     1     -22.012   0.388  24.303  1.00  0.00     0.014 A 
ATOM      4  C   UNL     1     -24.637  -0.574  24.347  1.00  0.00     0.047 A 
ATOM      5  C   UNL     1     -22.403  -0.536  25.276  1.00  0.00     0.047 A 
ATOM      6  C   UNL     1     -23.717  -1.019  25.301  1.00  0.00     0.115 A 
ENDROOT
BRANCH   1   7
ATOM      7  C   UNL     1     -22.515   1.819  22.312  1.00  0.00     0.071 C 
ATOM      8  O   UNL     1     -21.333   1.827  21.875  1.00  0.00    -0.545 OA
ATOM      9  O   UNL     1     -23.424   2.745  21.812  1.00  0.00    -0.545 OA
ENDBRANCH   1   7
BRANCH   6  10
ATOM     10  O   UNL     1     -24.119  -1.941  26.266  1.00  0.00    -0.508 OA
ATOM     11  H   UNL     1     -24.246  -1.671  27.234  1.00  0.00     0.293 HD
ENDBRANCH   6  10
TORSDOF 2
ENDMDL
MODEL 3
REMARK VINA RESULT:    -4.730     11.489     12.513
REMARK INTER + INTRA:          -5.179
REMARK INTER:                  -5.145
REMARK INTRA:                  -0.034
REMARK UNBOUND:                -0.033
REMARK SMILES O=C([O-])c1ccc(O)cc1
REMARK SMILES IDX 4 1 5 2 10 3 6 4 9 5 7 6 2 7 1 8 3 9 8 10
REMARK H PARENT 8 11
REMARK Flexibility Score: inf
ROOT
ATOM      1  C   UNL     1     -16.738   8.601  30.879  1.00  0.00    -0.003 A 
ATOM      2  C   UNL     1     -15.950   8.997  29.782  1.00  0.00     0.014 A 
ATOM      3  C   UNL     1     -17.906   7.854  30.644  1.00  0.00     0.014 A 
ATOM      4  C   UNL     1     -16.323   8.650  28.479  1.00  0.00     0.047 A 
ATOM      5  C   UNL     1     -18.276   7.509  29.340  1.00  0.00     0.047 A 
ATOM      6  C   UNL     1     -17.486   7.907  28.255  1.00  0.00     0.115 A 
ENDROOT
BRANCH   1   7
ATOM      7  C   UNL     1     -16.348   8.965  32.258  1.00  0.00     0.071 C 
ATOM      8  O   UNL     1     -16.667   8.229  33.230  1.00  0.00    -0.545 OA
ATOM      9  O   UNL     1     -15.621  10.125  32.502  1.00  0.00    -0.545 OA
ENDBRANCH   1   7
BRANCH   6  10
ATOM     10  O   UNL     1     -17.845   7.570  26.952  1.00  0.00    -0.508 OA
ATOM     11  H   UNL     1     -17.245   6.998  26.369  1.00  0.00     0.293 HD
ENDBRANCH   6  10
TORSDOF 2
ENDMDL
MODEL 4
REMARK VINA RESULT:    -4.669     12.256     13.033
REMARK INTER + INTRA:          -5.112
REMARK INTER:                  -5.085
REMARK INTRA:                  -0.027
REMARK UNBOUND:                -0.033
REMARK SMILES O=C([O-])c1ccc(O)cc1
REMARK SMILES IDX 4 1 5 2 10 3 6 4 9 5 7 6 2 7 1 8 3 9 8 10
REMARK H PARENT 8 11
REMARK Flexibility Score: inf
ROOT
ATOM      1  C   UNL     1     -18.249   9.366  31.685  1.00  0.00    -0.003 A 
ATOM      2  C   UNL     1     -19.241   9.897  32.530  1.00  0.00     0.014 A 
ATOM      3  C   UNL     1     -18.578   9.071  30.351  1.00  0.00     0.014 A 
ATOM      4  C   UNL     1     -20.534  10.125  32.048  1.00  0.00     0.047 A 
ATOM      5  C   UNL     1     -19.871   9.300  29.872  1.00  0.00     0.047 A 
ATOM      6  C   UNL     1     -20.853   9.827  30.720  1.00  0.00     0.115 A 
ENDROOT
BRANCH   1   7
ATOM      7  C   UNL     1     -16.880   9.124  32.190  1.00  0.00     0.071 C 
ATOM      8  O   UNL     1     -16.620   8.096  32.872  1.00  0.00    -0.545 OA
ATOM      9  O   UNL     1     -15.858  10.027  31.917  1.00  0.00    -0.545 OA
ENDBRANCH   1   7
BRANCH   6  10
ATOM     10  O   UNL     1     -22.145  10.060  30.254  1.00  0.00    -0.508 OA
ATOM     11  H   UNL     1     -22.501   9.594  29.427  1.00  0.00     0.293 HD
ENDBRANCH   6  10
TORSDOF 2
ENDMDL
MODEL 5
REMARK VINA RESULT:    -4.641     11.863     12.988
REMARK INTER + INTRA:          -5.081
REMARK INTER:                  -5.047
REMARK INTRA:                  -0.034
REMARK UNBOUND:                -0.033
REMARK SMILES O=C([O-])c1ccc(O)cc1
REMARK SMILES IDX 4 1 5 2 10 3 6 4 9 5 7 6 2 7 1 8 3 9 8 10
REMARK H PARENT 8 11
REMARK Flexibility Score: inf
ROOT
ATOM      1  C   UNL     1     -17.538   9.255  30.548  1.00  0.00    -0.003 A 
ATOM      2  C   UNL     1     -17.754   8.478  29.395  1.00  0.00     0.014 A 
ATOM      3  C   UNL     1     -16.275   9.838  30.749  1.00  0.00     0.014 A 
ATOM      4  C   UNL     1     -16.727   8.290  28.464  1.00  0.00     0.047 A 
ATOM      5  C   UNL     1     -15.250   9.648  29.817  1.00  0.00     0.047 A 
ATOM      6  C   UNL     1     -15.473   8.873  28.673  1.00  0.00     0.115 A 
ENDROOT
BRANCH   1   7
ATOM      7  C   UNL     1     -18.621   9.457  31.534  1.00  0.00     0.071 C 
ATOM      8  O   UNL     1     -19.829   9.352  31.192  1.00  0.00    -0.545 OA
ATOM      9  O   UNL     1     -18.320   9.765  32.857  1.00  0.00    -0.545 OA
ENDBRANCH   1   7
BRANCH   6  10
ATOM     10  O   UNL     1     -14.460   8.677  27.737  1.00  0.00    -0.508 OA
ATOM     11  H   UNL     1     -13.507   8.970  27.920  1.00  0.00     0.293 HD
ENDBRANCH   6  10
TORSDOF 2
ENDMDL
MODEL 6
REMARK VINA RESULT:    -4.622     12.106     12.901
REMARK INTER + INTRA:          -5.061
REMARK INTER:                  -5.033
REMARK INTRA:                  -0.027
REMARK UNBOUND:                -0.033
REMARK SMILES O=C([O-])c1ccc(O)cc1
REMARK SMILES IDX 4 1 5 2 10 3 6 4 9 5 7 6 2 7 1 8 3 9 8 10
REMARK H PARENT 8 11
REMARK Flexibility Score: inf
ROOT
ATOM      1  C   UNL     1     -18.351   9.283  31.554  1.00  0.00    -0.003 A 
ATOM      2  C   UNL     1     -18.703   9.010  30.219  1.00  0.00     0.014 A 
ATOM      3  C   UNL     1     -19.315   9.843  32.412  1.00  0.00     0.014 A 
ATOM      4  C   UNL     1     -19.992   9.292  29.755  1.00  0.00     0.047 A 
ATOM      5  C   UNL     1     -20.602  10.124  31.944  1.00  0.00     0.047 A 
ATOM      6  C   UNL     1     -20.944   9.850  30.614  1.00  0.00     0.115 A 
ENDROOT
BRANCH   1   7
ATOM      7  C   UNL     1     -16.990   8.987  32.051  1.00  0.00     0.071 C 
ATOM      8  O   UNL     1     -16.023   9.740  31.760  1.00  0.00    -0.545 OA
ATOM      9  O   UNL     1     -16.759   7.871  32.848  1.00  0.00    -0.545 OA
ENDBRANCH   1   7
BRANCH   6  10
ATOM     10  O   UNL     1     -22.223  10.125  30.137  1.00  0.00    -0.508 OA
ATOM     11  H   UNL     1     -22.389  10.863  29.462  1.00  0.00     0.293 HD
ENDBRANCH   6  10
TORSDOF 2
ENDMDL
MODEL 7
REMARK VINA RESULT:    -4.496      9.645     11.559
REMARK INTER + INTRA:          -4.924
REMARK INTER:                  -4.888
REMARK INTRA:                  -0.036
REMARK UNBOUND:                -0.033
REMARK SMILES O=C([O-])c1ccc(O)cc1
REMARK SMILES IDX 4 1 5 2 10 3 6 4 9 5 7 6 2 7 1 8 3 9 8 10
REMARK H PARENT 8 11
REMARK Flexibility Score: inf
ROOT
ATOM      1  C   UNL     1     -16.030  -2.359  32.675  1.00  0.00    -0.003 A 
ATOM      2  C   UNL     1     -16.625  -2.266  31.403  1.00  0.00     0.014 A 
ATOM      3  C   UNL     1     -16.821  -2.136  33.815  1.00  0.00     0.014 A 
ATOM      4  C   UNL     1     -17.984  -1.957  31.278  1.00  0.00     0.047 A 
ATOM      5  C   UNL     1     -18.178  -1.826  33.686  1.00  0.00     0.047 A 
ATOM      6  C   UNL     1     -18.763  -1.735  32.417  1.00  0.00     0.115 A 
ENDROOT
BRANCH   1   7
ATOM      7  C   UNL     1     -14.594  -2.686  32.813  1.00  0.00     0.071 C 
ATOM      8  O   UNL     1     -14.035  -2.653  33.941  1.00  0.00    -0.545 OA
ATOM      9  O   UNL     1     -13.841  -3.036  31.697  1.00  0.00    -0.545 OA
ENDBRANCH   1   7
BRANCH   6  10
ATOM     10  O   UNL     1     -20.115  -1.428  32.277  1.00  0.00    -0.508 OA
ATOM     11  H   UNL     1     -20.538  -0.660  32.785  1.00  0.00     0.293 HD
ENDBRANCH   6  10
TORSDOF 2
ENDMDL
MODEL 8
REMARK VINA RESULT:    -4.458     12.445     13.916
REMARK INTER + INTRA:          -4.882
REMARK INTER:                  -4.854
REMARK INTRA:                  -0.028
REMARK UNBOUND:                -0.033
REMARK SMILES O=C([O-])c1ccc(O)cc1
REMARK SMILES IDX 4 1 5 2 10 3 6 4 9 5 7 6 2 7 1 8 3 9 8 10
REMARK H PARENT 8 11
REMARK Flexibility Score: inf
ROOT
ATOM      1  C   UNL     1     -17.638  -0.327  35.877  1.00  0.00    -0.003 A 
ATOM      2  C   UNL     1     -18.083  -0.699  37.160  1.00  0.00     0.014 A 
ATOM      3  C   UNL     1     -17.579   1.037  35.546  1.00  0.00     0.014 A 
ATOM      4  C   UNL     1     -18.461   0.277  38.088  1.00  0.00     0.047 A 
ATOM      5  C   UNL     1     -17.958   2.010  36.476  1.00  0.00     0.047 A 
ATOM      6  C   UNL     1     -18.400   1.632  37.750  1.00  0.00     0.115 A 
ENDROOT
BRANCH   1   7
ATOM      7  C   UNL     1     -17.237  -1.355  34.892  1.00  0.00     0.071 C 
ATOM      8  O   UNL     1     -17.966  -1.607  33.895  1.00  0.00    -0.545 OA
ATOM      9  O   UNL     1     -16.047  -2.057  35.052  1.00  0.00    -0.545 OA
ENDBRANCH   1   7
BRANCH   6  10
ATOM     10  O   UNL     1     -18.780   2.592  38.685  1.00  0.00    -0.508 OA
ATOM     11  H   UNL     1     -19.295   2.341  39.521  1.00  0.00     0.293 HD
ENDBRANCH   6  10
TORSDOF 2
ENDMDL
MODEL 9
REMARK VINA RESULT:    -4.419     11.191     11.953
REMARK INTER + INTRA:          -4.840
REMARK INTER:                  -4.808
REMARK INTRA:                  -0.032
REMARK UNBOUND:                -0.033
REMARK SMILES O=C([O-])c1ccc(O)cc1
REMARK SMILES IDX 4 1 5 2 10 3 6 4 9 5 7 6 2 7 1 8 3 9 8 10
REMARK H PARENT 8 11
REMARK Flexibility Score: inf
ROOT
ATOM      1  C   UNL     1     -17.526   8.635  29.444  1.00  0.00    -0.003 A 
ATOM      2  C   UNL     1     -18.882   9.011  29.460  1.00  0.00     0.014 A 
ATOM      3  C   UNL     1     -16.816   8.595  30.657  1.00  0.00     0.014 A 
ATOM      4  C   UNL     1     -19.512   9.340  30.665  1.00  0.00     0.047 A 
ATOM      5  C   UNL     1     -17.449   8.924  31.860  1.00  0.00     0.047 A 
ATOM      6  C   UNL     1     -18.799   9.298  31.866  1.00  0.00     0.115 A 
ENDROOT
BRANCH   1   7
ATOM      7  C   UNL     1     -16.855   8.287  28.174  1.00  0.00     0.071 C 
ATOM      8  O   UNL     1     -15.662   8.634  27.961  1.00  0.00    -0.545 OA
ATOM      9  O   UNL     1     -17.532   7.569  27.194  1.00  0.00    -0.545 OA
ENDBRANCH   1   7
BRANCH   6  10
ATOM     10  O   UNL     1     -19.440   9.628  33.058  1.00  0.00    -0.508 OA
ATOM     11  H   UNL     1     -19.335  10.544  33.479  1.00  0.00     0.293 HD
ENDBRANCH   6  10
TORSDOF 2
ENDMDL
