MODEL 1
REMARK VINA RESULT:    -2.782      0.000      0.000
REMARK INTER + INTRA:          -3.779
REMARK INTER:                  -3.514
REMARK INTRA:                  -0.265
REMARK UNBOUND:                -0.265
REMARK SMILES CCCCC[C@H](C)O
REMARK SMILES IDX 4 1 3 2 2 3 1 4 5 5 6 6 7 7 8 8
REMARK H PARENT 8 9
REMARK Flexibility Score: inf
ROOT
ATOM      1  C   UNL     1     138.203 148.692 138.527  1.00  0.00     0.003 C 
ENDROOT
BRANCH   1   2
ATOM      2  C   UNL     1     139.409 148.825 137.577  1.00  0.00    -0.000 C 
BRANCH   2   3
ATOM      3  C   UNL     1     139.790 147.508 136.875  1.00  0.00    -0.003 C 
ATOM      4  C   UNL     1     139.546 146.280 137.753  1.00  0.00     0.004 C 
ENDBRANCH   2   3
ENDBRANCH   1   2
BRANCH   1   5
ATOM      5  C   UNL     1     136.925 149.375 137.988  1.00  0.00     0.031 C 
BRANCH   5   6
ATOM      6  C   UNL     1     135.643 148.538 138.199  1.00  0.00     0.111 C 
ATOM      7  C   UNL     1     135.931 147.160 138.808  1.00  0.00     0.038 C 
BRANCH   6   8
ATOM      8  O   UNL     1     134.957 148.391 136.981  1.00  0.00    -0.393 OA
ATOM      9  H   UNL     1     135.631 148.412 136.252  1.00  0.00     0.210 HD
ENDBRANCH   6   8
ENDBRANCH   5   6
ENDBRANCH   1   5
TORSDOF 5
ENDMDL
MODEL 2
REMARK VINA RESULT:    -2.781     14.448     16.573
REMARK INTER + INTRA:          -3.778
REMARK INTER:                  -3.518
REMARK INTRA:                  -0.260
REMARK UNBOUND:                -0.265
REMARK SMILES CCCCC[C@H](C)O
REMARK SMILES IDX 4 1 3 2 2 3 1 4 5 5 6 6 7 7 8 8
REMARK H PARENT 8 9
REMARK Flexibility Score: inf
ROOT
ATOM      1  C   UNL     1     143.380 132.758 138.539  1.00  0.00     0.003 C 
ENDROOT
BRANCH   1   2
ATOM      2  C   UNL     1     142.223 132.652 137.526  1.00  0.00    -0.000 C 
BRANCH   2   3
ATOM      3  C   UNL     1     141.828 134.001 136.897  1.00  0.00    -0.003 C 
ATOM      4  C   UNL     1     141.789 135.139 137.917  1.00  0.00     0.004 C 
ENDBRANCH   2   3
ENDBRANCH   1   2
BRANCH   1   5
ATOM      5  C   UNL     1     144.687 132.096 138.043  1.00  0.00     0.031 C 
BRANCH   5   6
ATOM      6  C   UNL     1     145.935 132.988 138.220  1.00  0.00     0.111 C 
ATOM      7  C   UNL     1     145.601 134.360 138.820  1.00  0.00     0.038 C 
BRANCH   6   8
ATOM      8  O   UNL     1     146.592 133.150 136.987  1.00  0.00    -0.393 OA
ATOM      9  H   UNL     1     146.280 132.424 136.384  1.00  0.00     0.210 HD
ENDBRANCH   6   8
ENDBRANCH   5   6
ENDBRANCH   1   5
TORSDOF 5
ENDMDL
MODEL 3
REMARK VINA RESULT:    -2.777     10.338     11.711
REMARK INTER + INTRA:          -3.772
REMARK INTER:                  -3.531
REMARK INTRA:                  -0.241
REMARK UNBOUND:                -0.265
REMARK SMILES CCCCC[C@H](C)O
REMARK SMILES IDX 4 1 3 2 2 3 1 4 5 5 6 6 7 7 8 8
REMARK H PARENT 8 9
REMARK Flexibility Score: inf
ROOT
ATOM      1  C   UNL     1     132.892 138.135 138.497  1.00  0.00     0.003 C 
ENDROOT
BRANCH   1   2
ATOM      2  C   UNL     1     132.569 139.288 137.527  1.00  0.00    -0.000 C 
BRANCH   2   3
ATOM      3  C   UNL     1     133.792 140.154 137.170  1.00  0.00    -0.003 C 
ATOM      4  C   UNL     1     135.072 139.678 137.858  1.00  0.00     0.004 C 
ENDBRANCH   2   3
ENDBRANCH   1   2
BRANCH   1   5
ATOM      5  C   UNL     1     132.201 136.805 138.114  1.00  0.00     0.031 C 
BRANCH   5   6
ATOM      6  C   UNL     1     133.130 135.575 138.222  1.00  0.00     0.111 C 
ATOM      7  C   UNL     1     134.510 135.925 138.793  1.00  0.00     0.038 C 
BRANCH   6   8
ATOM      8  O   UNL     1     133.271 134.965 136.964  1.00  0.00    -0.393 OA
ATOM      9  H   UNL     1     132.391 135.016 136.505  1.00  0.00     0.210 HD
ENDBRANCH   6   8
ENDBRANCH   5   6
ENDBRANCH   1   5
TORSDOF 5
ENDMDL
MODEL 4
REMARK VINA RESULT:    -2.678     14.940     16.499
REMARK INTER + INTRA:          -3.647
REMARK INTER:                  -3.553
REMARK INTRA:                  -0.095
REMARK UNBOUND:                -0.265
REMARK SMILES CCCCC[C@H](C)O
REMARK SMILES IDX 4 1 3 2 2 3 1 4 5 5 6 6 7 7 8 8
REMARK H PARENT 8 9
REMARK Flexibility Score: inf
ROOT
ATOM      1  C   UNL     1     143.847 133.835 138.865  1.00  0.00     0.003 C 
ENDROOT
BRANCH   1   2
ATOM      2  C   UNL     1     142.844 134.860 138.298  1.00  0.00    -0.000 C 
BRANCH   2   3
ATOM      3  C   UNL     1     142.066 134.346 137.072  1.00  0.00    -0.003 C 
ATOM      4  C   UNL     1     141.685 132.870 137.192  1.00  0.00     0.004 C 
ENDBRANCH   2   3
ENDBRANCH   1   2
BRANCH   1   5
ATOM      5  C   UNL     1     145.323 134.248 138.657  1.00  0.00     0.031 C 
BRANCH   5   6
ATOM      6  C   UNL     1     146.246 133.067 138.284  1.00  0.00     0.111 C 
ATOM      7  C   UNL     1     147.485 132.977 139.185  1.00  0.00     0.038 C 
BRANCH   6   8
ATOM      8  O   UNL     1     146.637 133.167 136.937  1.00  0.00    -0.393 OA
ATOM      9  H   UNL     1     146.195 132.429 136.441  1.00  0.00     0.210 HD
ENDBRANCH   6   8
ENDBRANCH   5   6
ENDBRANCH   1   5
TORSDOF 5
ENDMDL
MODEL 5
REMARK VINA RESULT:    -2.632      8.938     10.908
REMARK INTER + INTRA:          -3.590
REMARK INTER:                  -3.323
REMARK INTRA:                  -0.267
REMARK UNBOUND:                -0.265
REMARK SMILES CCCCC[C@H](C)O
REMARK SMILES IDX 4 1 3 2 2 3 1 4 5 5 6 6 7 7 8 8
REMARK H PARENT 8 9
REMARK Flexibility Score: inf
ROOT
ATOM      1  C   UNL     1     147.732 144.214 138.005  1.00  0.00     0.003 C 
ENDROOT
BRANCH   1   2
ATOM      2  C   UNL     1     146.718 144.134 139.163  1.00  0.00    -0.000 C 
BRANCH   2   3
ATOM      3  C   UNL     1     145.626 145.219 139.103  1.00  0.00    -0.003 C 
ATOM      4  C   UNL     1     144.215 144.645 139.241  1.00  0.00     0.004 C 
ENDBRANCH   2   3
ENDBRANCH   1   2
BRANCH   1   5
ATOM      5  C   UNL     1     149.040 144.943 138.390  1.00  0.00     0.031 C 
BRANCH   5   6
ATOM      6  C   UNL     1     149.058 146.433 137.983  1.00  0.00     0.111 C 
ATOM      7  C   UNL     1     148.651 147.365 139.132  1.00  0.00     0.038 C 
BRANCH   6   8
ATOM      8  O   UNL     1     148.218 146.641 136.875  1.00  0.00    -0.393 OA
ATOM      9  H   UNL     1     148.580 147.412 136.365  1.00  0.00     0.210 HD
ENDBRANCH   6   8
ENDBRANCH   5   6
ENDBRANCH   1   5
TORSDOF 5
ENDMDL
MODEL 6
REMARK VINA RESULT:    -2.620     10.622     12.011
REMARK INTER + INTRA:          -3.575
REMARK INTER:                  -3.331
REMARK INTRA:                  -0.244
REMARK UNBOUND:                -0.265
REMARK SMILES CCCCC[C@H](C)O
REMARK SMILES IDX 4 1 3 2 2 3 1 4 5 5 6 6 7 7 8 8
REMARK H PARENT 8 9
REMARK Flexibility Score: inf
ROOT
ATOM      1  C   UNL     1     134.891 137.413 138.784  1.00  0.00     0.003 C 
ENDROOT
BRANCH   1   2
ATOM      2  C   UNL     1     133.943 138.534 139.254  1.00  0.00    -0.000 C 
BRANCH   2   3
ATOM      3  C   UNL     1     133.936 139.764 138.328  1.00  0.00    -0.003 C 
ATOM      4  C   UNL     1     132.767 139.755 137.343  1.00  0.00     0.004 C 
ENDBRANCH   2   3
ENDBRANCH   1   2
BRANCH   1   5
ATOM      5  C   UNL     1     134.247 136.008 138.835  1.00  0.00     0.031 C 
BRANCH   5   6
ATOM      6  C   UNL     1     132.999 135.870 137.936  1.00  0.00     0.111 C 
ATOM      7  C   UNL     1     131.736 135.510 138.729  1.00  0.00     0.038 C 
BRANCH   6   8
ATOM      8  O   UNL     1     133.229 134.908 136.936  1.00  0.00    -0.393 OA
ATOM      9  H   UNL     1     133.852 134.231 137.309  1.00  0.00     0.210 HD
ENDBRANCH   6   8
ENDBRANCH   5   6
ENDBRANCH   1   5
TORSDOF 5
ENDMDL
MODEL 7
REMARK VINA RESULT:    -2.590      1.669      2.417
REMARK INTER + INTRA:          -3.537
REMARK INTER:                  -3.163
REMARK INTRA:                  -0.374
REMARK UNBOUND:                -0.265
REMARK SMILES CCCCC[C@H](C)O
REMARK SMILES IDX 4 1 3 2 2 3 1 4 5 5 6 6 7 7 8 8
REMARK H PARENT 8 9
REMARK Flexibility Score: inf
ROOT
ATOM      1  C   UNL     1     137.409 148.173 138.047  1.00  0.00     0.003 C 
ENDROOT
BRANCH   1   2
ATOM      2  C   UNL     1     138.072 147.099 138.932  1.00  0.00    -0.000 C 
BRANCH   2   3
ATOM      3  C   UNL     1     137.104 146.445 139.936  1.00  0.00    -0.003 C 
ATOM      4  C   UNL     1     136.313 145.288 139.326  1.00  0.00     0.004 C 
ENDBRANCH   2   3
ENDBRANCH   1   2
BRANCH   1   5
ATOM      5  C   UNL     1     136.406 149.063 138.817  1.00  0.00     0.031 C 
BRANCH   5   6
ATOM      6  C   UNL     1     134.980 149.042 138.222  1.00  0.00     0.111 C 
ATOM      7  C   UNL     1     133.951 148.419 139.175  1.00  0.00     0.038 C 
BRANCH   6   8
ATOM      8  O   UNL     1     134.979 148.352 136.997  1.00  0.00    -0.393 OA
ATOM      9  H   UNL     1     135.835 147.853 136.933  1.00  0.00     0.210 HD
ENDBRANCH   6   8
ENDBRANCH   5   6
ENDBRANCH   1   5
TORSDOF 5
ENDMDL
MODEL 8
REMARK VINA RESULT:    -2.542     13.869     15.995
REMARK INTER + INTRA:          -3.476
REMARK INTER:                  -3.347
REMARK INTRA:                  -0.130
REMARK UNBOUND:                -0.265
REMARK SMILES CCCCC[C@H](C)O
REMARK SMILES IDX 4 1 3 2 2 3 1 4 5 5 6 6 7 7 8 8
REMARK H PARENT 8 9
REMARK Flexibility Score: inf
ROOT
ATOM      1  C   UNL     1     145.886 135.114 139.156  1.00  0.00     0.003 C 
ENDROOT
BRANCH   1   2
ATOM      2  C   UNL     1     144.984 136.093 139.934  1.00  0.00    -0.000 C 
BRANCH   2   3
ATOM      3  C   UNL     1     144.717 137.412 139.185  1.00  0.00    -0.003 C 
ATOM      4  C   UNL     1     143.366 137.422 138.469  1.00  0.00     0.004 C 
ENDBRANCH   2   3
ENDBRANCH   1   2
BRANCH   1   5
ATOM      5  C   UNL     1     145.137 133.853 138.666  1.00  0.00     0.031 C 
BRANCH   5   6
ATOM      6  C   UNL     1     146.070 132.770 138.081  1.00  0.00     0.111 C 
ATOM      7  C   UNL     1     147.154 132.326 139.072  1.00  0.00     0.038 C 
BRANCH   6   8
ATOM      8  O   UNL     1     146.665 133.235 136.895  1.00  0.00    -0.393 OA
ATOM      9  H   UNL     1     147.211 132.493 136.523  1.00  0.00     0.210 HD
ENDBRANCH   6   8
ENDBRANCH   5   6
ENDBRANCH   1   5
TORSDOF 5
ENDMDL
