MODEL 1
REMARK VINA RESULT:    -6.837      0.000      0.000
REMARK INTER + INTRA:          -8.276
REMARK INTER:                  -8.036
REMARK INTRA:                  -0.240
REMARK UNBOUND:                -0.240
REMARK SMILES O=c1c(O)c(-c2ccc(O)cc2)oc2cc(O)cc(O)c12
REMARK SMILES IDX 5 1 3 2 2 3 1 4 21 5 19 6 18 7 16 8 15 9 14 10 13 11 6 12
REMARK SMILES IDX 7 13 8 14 9 15 12 16 11 17 10 18 4 20 20 22 17 24
REMARK H PARENT 10 19 4 21 20 23 17 25
REMARK Flexibility Score: inf
ROOT
ATOM      1  C   UNL     1      -1.005   3.314  12.461  1.00  0.00     0.180 A 
ATOM      2  C   UNL     1       0.085   4.061  12.937  1.00  0.00     0.208 A 
ATOM      3  C   UNL     1       0.244   5.388  12.504  1.00  0.00     0.238 A 
ATOM      4  O   UNL     1       1.180   6.074  12.991  1.00  0.00    -0.285 OA
ATOM      5  C   UNL     1      -0.657   5.932  11.557  1.00  0.00     0.111 A 
ATOM      6  C   UNL     1      -0.566   7.250  11.014  1.00  0.00     0.134 A 
ATOM      7  C   UNL     1      -1.576   7.718  10.163  1.00  0.00     0.093 A 
ATOM      8  C   UNL     1      -2.639   6.895   9.787  1.00  0.00     0.123 A 
ATOM      9  C   UNL     1      -2.707   5.590  10.267  1.00  0.00     0.094 A 
ATOM     10  C   UNL     1      -1.736   5.106  11.147  1.00  0.00     0.146 A 
ATOM     11  O   UNL     1      -1.852   3.863  11.598  1.00  0.00    -0.452 OA
ENDROOT
BRANCH   1  12
ATOM     12  C   UNL     1      -1.248   1.916  12.883  1.00  0.00     0.021 A 
ATOM     13  C   UNL     1      -1.027   0.870  11.969  1.00  0.00     0.016 A 
ATOM     14  C   UNL     1      -1.271  -0.456  12.339  1.00  0.00     0.047 A 
ATOM     15  C   UNL     1      -1.754  -0.752  13.620  1.00  0.00     0.115 A 
ATOM     16  C   UNL     1      -1.751   1.612  14.161  1.00  0.00     0.016 A 
ATOM     17  C   UNL     1      -1.995   0.284  14.526  1.00  0.00     0.047 A 
BRANCH  15  18
ATOM     18  O   UNL     1      -2.000  -2.069  13.999  1.00  0.00    -0.508 OA
ATOM     19  H   UNL     1      -1.243  -2.721  14.171  1.00  0.00     0.293 HD
ENDBRANCH  15  18
ENDBRANCH   1  12
BRANCH   2  20
ATOM     20  O   UNL     1       1.008   3.480  13.812  1.00  0.00    -0.502 OA
ATOM     21  H   UNL     1       1.046   3.715  14.797  1.00  0.00     0.293 HD
ENDBRANCH   2  20
BRANCH   6  22
ATOM     22  O   UNL     1       0.498   8.125  11.253  1.00  0.00    -0.507 OA
ATOM     23  H   UNL     1       0.743   8.911  10.669  1.00  0.00     0.293 HD
ENDBRANCH   6  22
BRANCH   8  24
ATOM     24  O   UNL     1      -3.631   7.362   8.926  1.00  0.00    -0.508 OA
ATOM     25  H   UNL     1      -4.144   8.214   9.123  1.00  0.00     0.293 HD
ENDBRANCH   8  24
TORSDOF 5
ENDMDL
MODEL 2
REMARK VINA RESULT:    -6.660      2.037      2.052
REMARK INTER + INTRA:          -8.069
REMARK INTER:                  -7.787
REMARK INTRA:                  -0.282
REMARK UNBOUND:                -0.240
REMARK SMILES O=c1c(O)c(-c2ccc(O)cc2)oc2cc(O)cc(O)c12
REMARK SMILES IDX 5 1 3 2 2 3 1 4 21 5 19 6 18 7 16 8 15 9 14 10 13 11 6 12
REMARK SMILES IDX 7 13 8 14 9 15 12 16 11 17 10 18 4 20 20 22 17 24
REMARK H PARENT 10 19 4 21 20 23 17 25
REMARK Flexibility Score: inf
ROOT
ATOM      1  C   UNL     1      -1.364   2.998  13.636  1.00  0.00     0.180 A 
ATOM      2  C   UNL     1      -0.321   3.732  14.227  1.00  0.00     0.208 A 
ATOM      3  C   UNL     1      -0.424   5.131  14.292  1.00  0.00     0.238 A 
ATOM      4  O   UNL     1       0.478   5.775  14.887  1.00  0.00    -0.285 OA
ATOM      5  C   UNL     1      -1.542   5.782  13.716  1.00  0.00     0.111 A 
ATOM      6  C   UNL     1      -1.729   7.198  13.684  1.00  0.00     0.134 A 
ATOM      7  C   UNL     1      -2.926   7.725  13.182  1.00  0.00     0.093 A 
ATOM      8  C   UNL     1      -3.914   6.892  12.653  1.00  0.00     0.123 A 
ATOM      9  C   UNL     1      -3.717   5.514  12.629  1.00  0.00     0.094 A 
ATOM     10  C   UNL     1      -2.551   4.955  13.157  1.00  0.00     0.146 A 
ATOM     11  O   UNL     1      -2.415   3.635  13.133  1.00  0.00    -0.452 OA
ENDROOT
BRANCH   1  12
ATOM     12  C   UNL     1      -1.334   1.520  13.544  1.00  0.00     0.021 A 
ATOM     13  C   UNL     1      -0.979   0.911  12.328  1.00  0.00     0.016 A 
ATOM     14  C   UNL     1      -0.966  -0.482  12.211  1.00  0.00     0.047 A 
ATOM     15  C   UNL     1      -1.323  -1.283  13.303  1.00  0.00     0.115 A 
ATOM     16  C   UNL     1      -1.711   0.709  14.630  1.00  0.00     0.016 A 
ATOM     17  C   UNL     1      -1.697  -0.684  14.509  1.00  0.00     0.047 A 
BRANCH  15  18
ATOM     18  O   UNL     1      -1.314  -2.672  13.198  1.00  0.00    -0.508 OA
ATOM     19  H   UNL     1      -1.422  -3.266  14.013  1.00  0.00     0.293 HD
ENDBRANCH  15  18
ENDBRANCH   1  12
BRANCH   2  20
ATOM     20  O   UNL     1       0.810   3.075  14.720  1.00  0.00    -0.502 OA
ATOM     21  H   UNL     1       1.489   3.534  15.316  1.00  0.00     0.293 HD
ENDBRANCH   2  20
BRANCH   6  22
ATOM     22  O   UNL     1      -0.771   8.125  14.105  1.00  0.00    -0.507 OA
ATOM     23  H   UNL     1       0.003   8.451  13.544  1.00  0.00     0.293 HD
ENDBRANCH   6  22
BRANCH   8  24
ATOM     24  O   UNL     1      -5.094   7.426  12.139  1.00  0.00    -0.508 OA
ATOM     25  H   UNL     1      -5.567   7.003  11.348  1.00  0.00     0.293 HD
ENDBRANCH   8  24
TORSDOF 5
ENDMDL
MODEL 3
REMARK VINA RESULT:    -6.522      1.508      3.527
REMARK INTER + INTRA:          -7.906
REMARK INTER:                  -7.847
REMARK INTRA:                  -0.059
REMARK UNBOUND:                -0.240
REMARK SMILES O=c1c(O)c(-c2ccc(O)cc2)oc2cc(O)cc(O)c12
REMARK SMILES IDX 5 1 3 2 2 3 1 4 21 5 19 6 18 7 16 8 15 9 14 10 13 11 6 12
REMARK SMILES IDX 7 13 8 14 9 15 12 16 11 17 10 18 4 20 20 22 17 24
REMARK H PARENT 10 19 4 21 20 23 17 25
REMARK Flexibility Score: inf
ROOT
ATOM      1  C   UNL     1      -0.562   3.265  12.617  1.00  0.00     0.180 A 
ATOM      2  C   UNL     1      -1.075   3.971  11.516  1.00  0.00     0.208 A 
ATOM      3  C   UNL     1      -0.611   5.273  11.265  1.00  0.00     0.238 A 
ATOM      4  O   UNL     1      -1.019   5.872  10.236  1.00  0.00    -0.285 OA
ATOM      5  C   UNL     1       0.318   5.873  12.150  1.00  0.00     0.111 A 
ATOM      6  C   UNL     1       0.822   7.203  12.019  1.00  0.00     0.134 A 
ATOM      7  C   UNL     1       1.818   7.653  12.894  1.00  0.00     0.093 A 
ATOM      8  C   UNL     1       2.283   6.845  13.934  1.00  0.00     0.123 A 
ATOM      9  C   UNL     1       1.757   5.566  14.104  1.00  0.00     0.094 A 
ATOM     10  C   UNL     1       0.790   5.075  13.224  1.00  0.00     0.146 A 
ATOM     11  O   UNL     1       0.333   3.842  13.410  1.00  0.00    -0.452 OA
ENDROOT
BRANCH   1  12
ATOM     12  C   UNL     1      -0.990   1.884  12.937  1.00  0.00     0.021 A 
ATOM     13  C   UNL     1      -1.459   1.589  14.229  1.00  0.00     0.016 A 
ATOM     14  C   UNL     1      -1.848   0.287  14.560  1.00  0.00     0.047 A 
ATOM     15  C   UNL     1      -1.757  -0.738  13.609  1.00  0.00     0.115 A 
ATOM     16  C   UNL     1      -0.883   0.846  11.994  1.00  0.00     0.016 A 
ATOM     17  C   UNL     1      -1.273  -0.455  12.330  1.00  0.00     0.047 A 
BRANCH  15  18
ATOM     18  O   UNL     1      -2.142  -2.038  13.928  1.00  0.00    -0.508 OA
ATOM     19  H   UNL     1      -2.933  -2.223  14.533  1.00  0.00     0.293 HD
ENDBRANCH  15  18
ENDBRANCH   1  12
BRANCH   2  20
ATOM     20  O   UNL     1      -2.049   3.390  10.699  1.00  0.00    -0.502 OA
ATOM     21  H   UNL     1      -2.494   3.894   9.941  1.00  0.00     0.293 HD
ENDBRANCH   2  20
BRANCH   6  22
ATOM     22  O   UNL     1       0.365   8.124  11.072  1.00  0.00    -0.507 OA
ATOM     23  H   UNL     1      -0.266   7.909  10.314  1.00  0.00     0.293 HD
ENDBRANCH   6  22
BRANCH   8  24
ATOM     24  O   UNL     1       3.262   7.307  14.812  1.00  0.00    -0.508 OA
ATOM     25  H   UNL     1       3.866   6.667  15.315  1.00  0.00     0.293 HD
ENDBRANCH   8  24
TORSDOF 5
ENDMDL
MODEL 4
REMARK VINA RESULT:    -6.488      2.012      6.604
REMARK INTER + INTRA:          -7.867
REMARK INTER:                  -7.615
REMARK INTRA:                  -0.251
REMARK UNBOUND:                -0.240
REMARK SMILES O=c1c(O)c(-c2ccc(O)cc2)oc2cc(O)cc(O)c12
REMARK SMILES IDX 5 1 3 2 2 3 1 4 21 5 19 6 18 7 16 8 15 9 14 10 13 11 6 12
REMARK SMILES IDX 7 13 8 14 9 15 12 16 11 17 10 18 4 20 20 22 17 24
REMARK H PARENT 10 19 4 21 20 23 17 25
REMARK Flexibility Score: inf
ROOT
ATOM      1  C   UNL     1      -1.019   4.759  11.172  1.00  0.00     0.180 A 
ATOM      2  C   UNL     1      -1.179   5.259  12.476  1.00  0.00     0.208 A 
ATOM      3  C   UNL     1      -1.318   4.354  13.541  1.00  0.00     0.238 A 
ATOM      4  O   UNL     1      -1.386   4.807  14.713  1.00  0.00    -0.285 OA
ATOM      5  C   UNL     1      -1.350   2.962  13.282  1.00  0.00     0.111 A 
ATOM      6  C   UNL     1      -1.531   1.955  14.279  1.00  0.00     0.134 A 
ATOM      7  C   UNL     1      -1.440   0.604  13.921  1.00  0.00     0.093 A 
ATOM      8  C   UNL     1      -1.238   0.224  12.593  1.00  0.00     0.123 A 
ATOM      9  C   UNL     1      -1.116   1.197  11.605  1.00  0.00     0.094 A 
ATOM     10  C   UNL     1      -1.164   2.553  11.936  1.00  0.00     0.146 A 
ATOM     11  O   UNL     1      -1.022   3.448  10.966  1.00  0.00    -0.452 OA
ENDROOT
BRANCH   1  12
ATOM     12  C   UNL     1      -0.853   5.650  10.001  1.00  0.00     0.021 A 
ATOM     13  C   UNL     1      -1.982   6.266   9.435  1.00  0.00     0.016 A 
ATOM     14  C   UNL     1      -1.852   7.093   8.316  1.00  0.00     0.047 A 
ATOM     15  C   UNL     1      -0.593   7.301   7.738  1.00  0.00     0.115 A 
ATOM     16  C   UNL     1       0.405   5.848   9.403  1.00  0.00     0.016 A 
ATOM     17  C   UNL     1       0.532   6.676   8.282  1.00  0.00     0.047 A 
BRANCH  15  18
ATOM     18  O   UNL     1      -0.451   8.123   6.622  1.00  0.00    -0.508 OA
ATOM     19  H   UNL     1      -0.418   9.132   6.709  1.00  0.00     0.293 HD
ENDBRANCH  15  18
ENDBRANCH   1  12
BRANCH   2  20
ATOM     20  O   UNL     1      -1.222   6.638  12.700  1.00  0.00    -0.502 OA
ATOM     21  H   UNL     1      -0.862   7.063  13.547  1.00  0.00     0.293 HD
ENDBRANCH   2  20
BRANCH   6  22
ATOM     22  O   UNL     1      -1.825   2.223  15.620  1.00  0.00    -0.507 OA
ATOM     23  H   UNL     1      -2.281   1.581  16.251  1.00  0.00     0.293 HD
ENDBRANCH   6  22
BRANCH   8  24
ATOM     24  O   UNL     1      -1.167  -1.123  12.242  1.00  0.00    -0.508 OA
ATOM     25  H   UNL     1      -0.818  -1.417  11.336  1.00  0.00     0.293 HD
ENDBRANCH   8  24
TORSDOF 5
ENDMDL
MODEL 5
REMARK VINA RESULT:    -5.630      2.990      6.438
REMARK INTER + INTRA:          -6.858
REMARK INTER:                  -6.575
REMARK INTRA:                  -0.283
REMARK UNBOUND:                -0.240
REMARK SMILES O=c1c(O)c(-c2ccc(O)cc2)oc2cc(O)cc(O)c12
REMARK SMILES IDX 5 1 3 2 2 3 1 4 21 5 19 6 18 7 16 8 15 9 14 10 13 11 6 12
REMARK SMILES IDX 7 13 8 14 9 15 12 16 11 17 10 18 4 20 20 22 17 24
REMARK H PARENT 10 19 4 21 20 23 17 25
REMARK Flexibility Score: inf
ROOT
ATOM      1  C   UNL     1      -3.694   5.724  12.250  1.00  0.00     0.180 A 
ATOM      2  C   UNL     1      -2.521   6.313  11.748  1.00  0.00     0.208 A 
ATOM      3  C   UNL     1      -1.282   5.721  12.042  1.00  0.00     0.238 A 
ATOM      4  O   UNL     1      -0.242   6.210  11.529  1.00  0.00    -0.285 OA
ATOM      5  C   UNL     1      -1.227   4.580  12.879  1.00  0.00     0.111 A 
ATOM      6  C   UNL     1      -0.023   3.924  13.280  1.00  0.00     0.134 A 
ATOM      7  C   UNL     1      -0.097   2.740  14.024  1.00  0.00     0.093 A 
ATOM      8  C   UNL     1      -1.327   2.223  14.436  1.00  0.00     0.123 A 
ATOM      9  C   UNL     1      -2.504   2.885  14.097  1.00  0.00     0.094 A 
ATOM     10  C   UNL     1      -2.466   4.047  13.324  1.00  0.00     0.146 A 
ATOM     11  O   UNL     1      -3.613   4.635  13.005  1.00  0.00    -0.452 OA
ENDROOT
BRANCH   1  12
ATOM     12  C   UNL     1      -5.038   6.280  11.971  1.00  0.00     0.021 A 
ATOM     13  C   UNL     1      -5.696   5.932  10.779  1.00  0.00     0.016 A 
ATOM     14  C   UNL     1      -6.955   6.463  10.484  1.00  0.00     0.047 A 
ATOM     15  C   UNL     1      -7.564   7.362  11.369  1.00  0.00     0.115 A 
ATOM     16  C   UNL     1      -5.648   7.198  12.846  1.00  0.00     0.016 A 
ATOM     17  C   UNL     1      -6.907   7.728  12.547  1.00  0.00     0.047 A 
BRANCH  15  18
ATOM     18  O   UNL     1      -8.819   7.897  11.086  1.00  0.00    -0.508 OA
ATOM     19  H   UNL     1      -8.948   8.889  10.928  1.00  0.00     0.293 HD
ENDBRANCH  15  18
ENDBRANCH   1  12
BRANCH   2  20
ATOM     20  O   UNL     1      -2.591   7.483  10.988  1.00  0.00    -0.502 OA
ATOM     21  H   UNL     1      -3.292   7.625  10.270  1.00  0.00     0.293 HD
ENDBRANCH   2  20
BRANCH   6  22
ATOM     22  O   UNL     1       1.260   4.401  12.999  1.00  0.00    -0.507 OA
ATOM     23  H   UNL     1       1.467   5.313  12.617  1.00  0.00     0.293 HD
ENDBRANCH   6  22
BRANCH   8  24
ATOM     24  O   UNL     1      -1.391   1.053  15.191  1.00  0.00    -0.508 OA
ATOM     25  H   UNL     1      -2.155   0.395  15.085  1.00  0.00     0.293 HD
ENDBRANCH   8  24
TORSDOF 5
ENDMDL
MODEL 6
REMARK VINA RESULT:    -5.397      3.137      5.353
REMARK INTER + INTRA:          -6.584
REMARK INTER:                  -6.298
REMARK INTRA:                  -0.286
REMARK UNBOUND:                -0.240
REMARK SMILES O=c1c(O)c(-c2ccc(O)cc2)oc2cc(O)cc(O)c12
REMARK SMILES IDX 5 1 3 2 2 3 1 4 21 5 19 6 18 7 16 8 15 9 14 10 13 11 6 12
REMARK SMILES IDX 7 13 8 14 9 15 12 16 11 17 10 18 4 20 20 22 17 24
REMARK H PARENT 10 19 4 21 20 23 17 25
REMARK Flexibility Score: inf
ROOT
ATOM      1  C   UNL     1      -2.226   5.276  12.680  1.00  0.00     0.180 A 
ATOM      2  C   UNL     1      -1.956   4.346  13.699  1.00  0.00     0.208 A 
ATOM      3  C   UNL     1      -0.684   4.338  14.294  1.00  0.00     0.238 A 
ATOM      4  O   UNL     1      -0.473   3.553  15.255  1.00  0.00    -0.285 OA
ATOM      5  C   UNL     1       0.319   5.221  13.824  1.00  0.00     0.111 A 
ATOM      6  C   UNL     1       1.657   5.268  14.323  1.00  0.00     0.134 A 
ATOM      7  C   UNL     1       2.533   6.255  13.856  1.00  0.00     0.093 A 
ATOM      8  C   UNL     1       2.141   7.156  12.863  1.00  0.00     0.123 A 
ATOM      9  C   UNL     1       0.856   7.082  12.331  1.00  0.00     0.094 A 
ATOM     10  C   UNL     1      -0.053   6.133  12.804  1.00  0.00     0.146 A 
ATOM     11  O   UNL     1      -1.275   6.113  12.284  1.00  0.00    -0.452 OA
ENDROOT
BRANCH   1  12
ATOM     12  C   UNL     1      -3.547   5.356  12.016  1.00  0.00     0.021 A 
ATOM     13  C   UNL     1      -3.725   4.756  10.757  1.00  0.00     0.016 A 
ATOM     14  C   UNL     1      -4.956   4.839  10.101  1.00  0.00     0.047 A 
ATOM     15  C   UNL     1      -6.021   5.535  10.688  1.00  0.00     0.115 A 
ATOM     16  C   UNL     1      -4.615   6.070  12.590  1.00  0.00     0.016 A 
ATOM     17  C   UNL     1      -5.846   6.151  11.930  1.00  0.00     0.047 A 
BRANCH  15  18
ATOM     18  O   UNL     1      -7.253   5.623  10.043  1.00  0.00    -0.508 OA
ATOM     19  H   UNL     1      -7.763   4.795   9.759  1.00  0.00     0.293 HD
ENDBRANCH  15  18
ENDBRANCH   1  12
BRANCH   2  20
ATOM     20  O   UNL     1      -2.936   3.431  14.094  1.00  0.00    -0.502 OA
ATOM     21  H   UNL     1      -3.498   2.914  13.428  1.00  0.00     0.293 HD
ENDBRANCH   2  20
BRANCH   6  22
ATOM     22  O   UNL     1       2.180   4.361  15.250  1.00  0.00    -0.507 OA
ATOM     23  H   UNL     1       2.939   3.721  15.067  1.00  0.00     0.293 HD
ENDBRANCH   6  22
BRANCH   8  24
ATOM     24  O   UNL     1       3.025   8.124  12.391  1.00  0.00    -0.508 OA
ATOM     25  H   UNL     1       2.759   8.771  11.657  1.00  0.00     0.293 HD
ENDBRANCH   8  24
TORSDOF 5
ENDMDL
MODEL 7
REMARK VINA RESULT:    -5.390     14.534     16.203
REMARK INTER + INTRA:          -6.576
REMARK INTER:                  -6.530
REMARK INTRA:                  -0.045
REMARK UNBOUND:                -0.240
REMARK SMILES O=c1c(O)c(-c2ccc(O)cc2)oc2cc(O)cc(O)c12
REMARK SMILES IDX 5 1 3 2 2 3 1 4 21 5 19 6 18 7 16 8 15 9 14 10 13 11 6 12
REMARK SMILES IDX 7 13 8 14 9 15 12 16 11 17 10 18 4 20 20 22 17 24
REMARK H PARENT 10 19 4 21 20 23 17 25
REMARK Flexibility Score: inf
ROOT
ATOM      1  C   UNL     1      -5.205 -10.268  14.829  1.00  0.00     0.180 A 
ATOM      2  C   UNL     1      -3.863  -9.882  14.983  1.00  0.00     0.208 A 
ATOM      3  C   UNL     1      -3.285  -9.921  16.262  1.00  0.00     0.238 A 
ATOM      4  O   UNL     1      -2.063  -9.645  16.381  1.00  0.00    -0.285 OA
ATOM      5  C   UNL     1      -4.072 -10.292  17.380  1.00  0.00     0.111 A 
ATOM      6  C   UNL     1      -3.603 -10.324  18.728  1.00  0.00     0.134 A 
ATOM      7  C   UNL     1      -4.441 -10.810  19.740  1.00  0.00     0.093 A 
ATOM      8  C   UNL     1      -5.751 -11.205  19.461  1.00  0.00     0.123 A 
ATOM      9  C   UNL     1      -6.236 -11.126  18.158  1.00  0.00     0.094 A 
ATOM     10  C   UNL     1      -5.412 -10.682  17.122  1.00  0.00     0.146 A 
ATOM     11  O   UNL     1      -5.908 -10.642  15.891  1.00  0.00    -0.452 OA
ENDROOT
BRANCH   1  12
ATOM     12  C   UNL     1      -5.880 -10.267  13.510  1.00  0.00     0.021 A 
ATOM     13  C   UNL     1      -7.105  -9.595  13.362  1.00  0.00     0.016 A 
ATOM     14  C   UNL     1      -7.771  -9.600  12.132  1.00  0.00     0.047 A 
ATOM     15  C   UNL     1      -7.228 -10.290  11.041  1.00  0.00     0.115 A 
ATOM     16  C   UNL     1      -5.350 -10.975  12.415  1.00  0.00     0.016 A 
ATOM     17  C   UNL     1      -6.020 -10.978  11.187  1.00  0.00     0.047 A 
BRANCH  15  18
ATOM     18  O   UNL     1      -7.882 -10.302   9.811  1.00  0.00    -0.508 OA
ATOM     19  H   UNL     1      -7.711 -11.029   9.127  1.00  0.00     0.293 HD
ENDBRANCH  15  18
ENDBRANCH   1  12
BRANCH   2  20
ATOM     20  O   UNL     1      -3.125  -9.444  13.879  1.00  0.00    -0.502 OA
ATOM     21  H   UNL     1      -3.132  -8.480  13.568  1.00  0.00     0.293 HD
ENDBRANCH   2  20
BRANCH   6  22
ATOM     22  O   UNL     1      -2.343  -9.870  19.131  1.00  0.00    -0.507 OA
ATOM     23  H   UNL     1      -2.068  -9.705  20.088  1.00  0.00     0.293 HD
ENDBRANCH   6  22
BRANCH   8  24
ATOM     24  O   UNL     1      -6.585 -11.671  20.476  1.00  0.00    -0.508 OA
ATOM     25  H   UNL     1      -6.411 -11.445  21.450  1.00  0.00     0.293 HD
ENDBRANCH   8  24
TORSDOF 5
ENDMDL
MODEL 8
REMARK VINA RESULT:    -5.325      3.517      6.510
REMARK INTER + INTRA:          -6.499
REMARK INTER:                  -6.223
REMARK INTRA:                  -0.277
REMARK UNBOUND:                -0.240
REMARK SMILES O=c1c(O)c(-c2ccc(O)cc2)oc2cc(O)cc(O)c12
REMARK SMILES IDX 5 1 3 2 2 3 1 4 21 5 19 6 18 7 16 8 15 9 14 10 13 11 6 12
REMARK SMILES IDX 7 13 8 14 9 15 12 16 11 17 10 18 4 20 20 22 17 24
REMARK H PARENT 10 19 4 21 20 23 17 25
REMARK Flexibility Score: inf
ROOT
ATOM      1  C   UNL     1       1.372   5.845  14.378  1.00  0.00     0.180 A 
ATOM      2  C   UNL     1       1.124   6.272  13.063  1.00  0.00     0.208 A 
ATOM      3  C   UNL     1      -0.011   5.790  12.392  1.00  0.00     0.238 A 
ATOM      4  O   UNL     1      -0.267   6.233  11.243  1.00  0.00    -0.285 OA
ATOM      5  C   UNL     1      -0.854   4.843  13.025  1.00  0.00     0.111 A 
ATOM      6  C   UNL     1      -2.006   4.252  12.423  1.00  0.00     0.134 A 
ATOM      7  C   UNL     1      -2.825   3.406  13.182  1.00  0.00     0.093 A 
ATOM      8  C   UNL     1      -2.499   3.081  14.500  1.00  0.00     0.123 A 
ATOM      9  C   UNL     1      -1.347   3.609  15.078  1.00  0.00     0.094 A 
ATOM     10  C   UNL     1      -0.530   4.484  14.359  1.00  0.00     0.146 A 
ATOM     11  O   UNL     1       0.546   4.981  14.957  1.00  0.00    -0.452 OA
ENDROOT
BRANCH   1  12
ATOM     12  C   UNL     1       2.540   6.321  15.155  1.00  0.00     0.021 A 
ATOM     13  C   UNL     1       3.661   5.485  15.299  1.00  0.00     0.016 A 
ATOM     14  C   UNL     1       4.765   5.905  16.047  1.00  0.00     0.047 A 
ATOM     15  C   UNL     1       4.755   7.158  16.673  1.00  0.00     0.115 A 
ATOM     16  C   UNL     1       2.530   7.570  15.804  1.00  0.00     0.016 A 
ATOM     17  C   UNL     1       3.636   7.985  16.552  1.00  0.00     0.047 A 
BRANCH  15  18
ATOM     18  O   UNL     1       5.850   7.586  17.421  1.00  0.00    -0.508 OA
ATOM     19  H   UNL     1       5.795   7.696  18.427  1.00  0.00     0.293 HD
ENDBRANCH  15  18
ENDBRANCH   1  12
BRANCH   2  20
ATOM     20  O   UNL     1       2.010   7.148  12.429  1.00  0.00    -0.502 OA
ATOM     21  H   UNL     1       2.981   7.235  12.706  1.00  0.00     0.293 HD
ENDBRANCH   2  20
BRANCH   6  22
ATOM     22  O   UNL     1      -2.376   4.438  11.087  1.00  0.00    -0.507 OA
ATOM     23  H   UNL     1      -3.180   4.018  10.646  1.00  0.00     0.293 HD
ENDBRANCH   6  22
BRANCH   8  24
ATOM     24  O   UNL     1      -3.309   2.225  15.243  1.00  0.00    -0.508 OA
ATOM     25  H   UNL     1      -4.319   2.318  15.242  1.00  0.00     0.293 HD
ENDBRANCH   8  24
TORSDOF 5
ENDMDL
