MODEL 1
REMARK VINA RESULT:    -8.024      0.000      0.000
REMARK INTER + INTRA:          -9.878
REMARK INTER:                  -9.665
REMARK INTRA:                  -0.213
REMARK UNBOUND:                -0.213
REMARK SMILES O=c1c(O)c(-c2ccc(O)c(O)c2)oc2cc(O)cc(O)c12
REMARK SMILES IDX 5 1 3 2 2 3 1 4 22 5 20 6 19 7 17 8 16 9 15 10 14 11 6 12
REMARK SMILES IDX 7 13 8 14 9 15 13 16 11 17 10 18 12 20 4 22 21 24 18 26
REMARK H PARENT 10 19 12 21 4 23 21 25 18 27
REMARK Flexibility Score: inf
ROOT
ATOM      1  C   UNL     1     -44.425 -11.048  11.988  1.00  0.00     0.180 A 
ATOM      2  C   UNL     1     -44.673 -10.774  13.345  1.00  0.00     0.208 A 
ATOM      3  C   UNL     1     -45.863 -11.240  13.927  1.00  0.00     0.238 A 
ATOM      4  O   UNL     1     -46.053 -11.039  15.155  1.00  0.00    -0.285 OA
ATOM      5  C   UNL     1     -46.796 -11.960  13.144  1.00  0.00     0.111 A 
ATOM      6  C   UNL     1     -48.050 -12.445  13.620  1.00  0.00     0.134 A 
ATOM      7  C   UNL     1     -48.836 -13.258  12.793  1.00  0.00     0.093 A 
ATOM      8  C   UNL     1     -48.442 -13.548  11.485  1.00  0.00     0.123 A 
ATOM      9  C   UNL     1     -47.248 -13.030  10.990  1.00  0.00     0.094 A 
ATOM     10  C   UNL     1     -46.425 -12.247  11.803  1.00  0.00     0.146 A 
ATOM     11  O   UNL     1     -45.290 -11.782  11.296  1.00  0.00    -0.452 OA
ENDROOT
BRANCH   1  12
ATOM     12  C   UNL     1     -43.207 -10.569  11.297  1.00  0.00     0.025 A 
ATOM     13  C   UNL     1     -42.983  -9.199  11.074  1.00  0.00     0.016 A 
ATOM     14  C   UNL     1     -41.837  -8.771  10.398  1.00  0.00     0.051 A 
ATOM     15  C   UNL     1     -40.906  -9.704   9.923  1.00  0.00     0.157 A 
ATOM     16  C   UNL     1     -42.281 -11.501  10.801  1.00  0.00     0.062 A 
ATOM     17  C   UNL     1     -41.131 -11.076  10.125  1.00  0.00     0.158 A 
BRANCH  15  18
ATOM     18  O   UNL     1     -39.763  -9.274   9.251  1.00  0.00    -0.504 OA
ATOM     19  H   UNL     1     -38.850  -9.295   9.689  1.00  0.00     0.293 HD
ENDBRANCH  15  18
BRANCH  17  20
ATOM     20  O   UNL     1     -40.228 -12.030   9.658  1.00  0.00    -0.504 OA
ATOM     21  H   UNL     1     -40.355 -13.020   9.829  1.00  0.00     0.293 HD
ENDBRANCH  17  20
ENDBRANCH   1  12
BRANCH   2  22
ATOM     22  O   UNL     1     -43.728 -10.081  14.105  1.00  0.00    -0.502 OA
ATOM     23  H   UNL     1     -43.989  -9.415  14.822  1.00  0.00     0.293 HD
ENDBRANCH   2  22
BRANCH   6  24
ATOM     24  O   UNL     1     -48.580 -12.138  14.877  1.00  0.00    -0.507 OA
ATOM     25  H   UNL     1     -49.550 -11.934  15.058  1.00  0.00     0.293 HD
ENDBRANCH   6  24
BRANCH   8  26
ATOM     26  O   UNL     1     -49.238 -14.344  10.663  1.00  0.00    -0.508 OA
ATOM     27  H   UNL     1     -48.973 -14.549   9.706  1.00  0.00     0.293 HD
ENDBRANCH   8  26
TORSDOF 6
ENDMDL
MODEL 2
REMARK VINA RESULT:    -8.020      1.468      6.709
REMARK INTER + INTRA:          -9.874
REMARK INTER:                  -9.722
REMARK INTRA:                  -0.153
REMARK UNBOUND:                -0.213
REMARK SMILES O=c1c(O)c(-c2ccc(O)c(O)c2)oc2cc(O)cc(O)c12
REMARK SMILES IDX 5 1 3 2 2 3 1 4 22 5 20 6 19 7 17 8 16 9 15 10 14 11 6 12
REMARK SMILES IDX 7 13 8 14 9 15 13 16 11 17 10 18 12 20 4 22 21 24 18 26
REMARK H PARENT 10 19 12 21 4 23 21 25 18 27
REMARK Flexibility Score: inf
ROOT
ATOM      1  C   UNL     1     -45.265 -11.254  11.899  1.00  0.00     0.180 A 
ATOM      2  C   UNL     1     -45.296 -10.146  12.763  1.00  0.00     0.208 A 
ATOM      3  C   UNL     1     -44.226  -9.237  12.744  1.00  0.00     0.238 A 
ATOM      4  O   UNL     1     -44.286  -8.218  13.481  1.00  0.00    -0.285 OA
ATOM      5  C   UNL     1     -43.131  -9.456  11.874  1.00  0.00     0.111 A 
ATOM      6  C   UNL     1     -41.975  -8.622  11.801  1.00  0.00     0.134 A 
ATOM      7  C   UNL     1     -41.013  -8.860  10.812  1.00  0.00     0.093 A 
ATOM      8  C   UNL     1     -41.133  -9.942   9.936  1.00  0.00     0.123 A 
ATOM      9  C   UNL     1     -42.228 -10.797  10.039  1.00  0.00     0.094 A 
ATOM     10  C   UNL     1     -43.222 -10.563  10.991  1.00  0.00     0.146 A 
ATOM     11  O   UNL     1     -44.254 -11.396  11.048  1.00  0.00    -0.452 OA
ENDROOT
BRANCH   1  12
ATOM     12  C   UNL     1     -46.343 -12.268  11.878  1.00  0.00     0.025 A 
ATOM     13  C   UNL     1     -46.095 -13.607  12.228  1.00  0.00     0.016 A 
ATOM     14  C   UNL     1     -47.122 -14.553  12.178  1.00  0.00     0.051 A 
ATOM     15  C   UNL     1     -48.408 -14.180  11.764  1.00  0.00     0.157 A 
ATOM     16  C   UNL     1     -47.628 -11.903  11.444  1.00  0.00     0.062 A 
ATOM     17  C   UNL     1     -48.660 -12.848  11.393  1.00  0.00     0.158 A 
BRANCH  15  18
ATOM     18  O   UNL     1     -49.431 -15.125  11.717  1.00  0.00    -0.504 OA
ATOM     19  H   UNL     1     -50.094 -15.151  10.951  1.00  0.00     0.293 HD
ENDBRANCH  15  18
BRANCH  17  20
ATOM     20  O   UNL     1     -49.926 -12.446  10.970  1.00  0.00    -0.504 OA
ATOM     21  H   UNL     1     -50.649 -12.168  11.623  1.00  0.00     0.293 HD
ENDBRANCH  17  20
ENDBRANCH   1  12
BRANCH   2  22
ATOM     22  O   UNL     1     -46.397  -9.937  13.597  1.00  0.00    -0.502 OA
ATOM     23  H   UNL     1     -46.621 -10.555  14.367  1.00  0.00     0.293 HD
ENDBRANCH   2  22
BRANCH   6  24
ATOM     24  O   UNL     1     -41.713  -7.571  12.687  1.00  0.00    -0.507 OA
ATOM     25  H   UNL     1     -41.863  -6.596  12.481  1.00  0.00     0.293 HD
ENDBRANCH   6  24
BRANCH   8  26
ATOM     26  O   UNL     1     -40.163 -10.181   8.965  1.00  0.00    -0.508 OA
ATOM     27  H   UNL     1     -40.125 -11.059   8.459  1.00  0.00     0.293 HD
ENDBRANCH   8  26
TORSDOF 6
ENDMDL
MODEL 3
REMARK VINA RESULT:    -7.420      2.258      3.784
REMARK INTER + INTRA:          -9.151
REMARK INTER:                  -8.839
REMARK INTRA:                  -0.312
REMARK UNBOUND:                -0.213
REMARK SMILES O=c1c(O)c(-c2ccc(O)c(O)c2)oc2cc(O)cc(O)c12
REMARK SMILES IDX 5 1 3 2 2 3 1 4 22 5 20 6 19 7 17 8 16 9 15 10 14 11 6 12
REMARK SMILES IDX 7 13 8 14 9 15 13 16 11 17 10 18 12 20 4 22 21 24 18 26
REMARK H PARENT 10 19 12 21 4 23 21 25 18 27
REMARK Flexibility Score: inf
ROOT
ATOM      1  C   UNL     1     -47.056 -12.363  13.861  1.00  0.00     0.180 A 
ATOM      2  C   UNL     1     -47.168 -12.322  15.262  1.00  0.00     0.208 A 
ATOM      3  C   UNL     1     -48.411 -12.594  15.855  1.00  0.00     0.238 A 
ATOM      4  O   UNL     1     -48.491 -12.609  17.111  1.00  0.00    -0.285 OA
ATOM      5  C   UNL     1     -49.531 -12.888  15.040  1.00  0.00     0.111 A 
ATOM      6  C   UNL     1     -50.847 -13.140  15.531  1.00  0.00     0.134 A 
ATOM      7  C   UNL     1     -51.849 -13.549  14.644  1.00  0.00     0.093 A 
ATOM      8  C   UNL     1     -51.599 -13.651  13.273  1.00  0.00     0.123 A 
ATOM      9  C   UNL     1     -50.334 -13.350  12.776  1.00  0.00     0.094 A 
ATOM     10  C   UNL     1     -49.304 -12.975  13.641  1.00  0.00     0.146 A 
ATOM     11  O   UNL     1     -48.110 -12.706  13.128  1.00  0.00    -0.452 OA
ENDROOT
BRANCH   1  12
ATOM     12  C   UNL     1     -45.786 -12.064  13.162  1.00  0.00     0.025 A 
ATOM     13  C   UNL     1     -44.899 -13.088  12.786  1.00  0.00     0.016 A 
ATOM     14  C   UNL     1     -43.694 -12.781  12.149  1.00  0.00     0.051 A 
ATOM     15  C   UNL     1     -43.351 -11.448  11.889  1.00  0.00     0.157 A 
ATOM     16  C   UNL     1     -45.429 -10.728  12.918  1.00  0.00     0.062 A 
ATOM     17  C   UNL     1     -44.223 -10.417  12.279  1.00  0.00     0.158 A 
BRANCH  15  18
ATOM     18  O   UNL     1     -42.149 -11.145  11.251  1.00  0.00    -0.504 OA
ATOM     19  H   UNL     1     -41.474 -10.514  11.665  1.00  0.00     0.293 HD
ENDBRANCH  15  18
BRANCH  17  20
ATOM     20  O   UNL     1     -43.907  -9.079  12.042  1.00  0.00    -0.504 OA
ATOM     21  H   UNL     1     -43.162  -8.607  12.539  1.00  0.00     0.293 HD
ENDBRANCH  17  20
ENDBRANCH   1  12
BRANCH   2  22
ATOM     22  O   UNL     1     -46.045 -12.052  16.048  1.00  0.00    -0.502 OA
ATOM     23  H   UNL     1     -45.199 -11.645  15.667  1.00  0.00     0.293 HD
ENDBRANCH   2  22
BRANCH   6  24
ATOM     24  O   UNL     1     -51.225 -12.978  16.869  1.00  0.00    -0.507 OA
ATOM     25  H   UNL     1     -50.863 -13.519  17.638  1.00  0.00     0.293 HD
ENDBRANCH   6  24
BRANCH   8  26
ATOM     26  O   UNL     1     -52.608 -14.043  12.394  1.00  0.00    -0.508 OA
ATOM     27  H   UNL     1     -53.459 -13.503  12.289  1.00  0.00     0.293 HD
ENDBRANCH   8  26
TORSDOF 6
ENDMDL
MODEL 4
REMARK VINA RESULT:    -7.344      1.241      2.849
REMARK INTER + INTRA:          -9.060
REMARK INTER:                  -9.069
REMARK INTRA:                   0.010
REMARK UNBOUND:                -0.213
REMARK SMILES O=c1c(O)c(-c2ccc(O)c(O)c2)oc2cc(O)cc(O)c12
REMARK SMILES IDX 5 1 3 2 2 3 1 4 22 5 20 6 19 7 17 8 16 9 15 10 14 11 6 12
REMARK SMILES IDX 7 13 8 14 9 15 13 16 11 17 10 18 12 20 4 22 21 24 18 26
REMARK H PARENT 10 19 12 21 4 23 21 25 18 27
REMARK Flexibility Score: inf
ROOT
ATOM      1  C   UNL     1     -44.795 -11.337  11.839  1.00  0.00     0.180 A 
ATOM      2  C   UNL     1     -45.537 -12.126  10.943  1.00  0.00     0.208 A 
ATOM      3  C   UNL     1     -46.707 -12.756  11.397  1.00  0.00     0.238 A 
ATOM      4  O   UNL     1     -47.395 -13.416  10.576  1.00  0.00    -0.285 OA
ATOM      5  C   UNL     1     -47.112 -12.602  12.745  1.00  0.00     0.111 A 
ATOM      6  C   UNL     1     -48.257 -13.226  13.323  1.00  0.00     0.134 A 
ATOM      7  C   UNL     1     -48.636 -12.899  14.631  1.00  0.00     0.093 A 
ATOM      8  C   UNL     1     -47.872 -12.021  15.403  1.00  0.00     0.123 A 
ATOM      9  C   UNL     1     -46.719 -11.452  14.868  1.00  0.00     0.094 A 
ATOM     10  C   UNL     1     -46.336 -11.731  13.554  1.00  0.00     0.146 A 
ATOM     11  O   UNL     1     -45.236 -11.160  13.079  1.00  0.00    -0.452 OA
ENDROOT
BRANCH   1  12
ATOM     12  C   UNL     1     -43.538 -10.663  11.442  1.00  0.00     0.025 A 
ATOM     13  C   UNL     1     -43.353  -9.284  11.644  1.00  0.00     0.016 A 
ATOM     14  C   UNL     1     -42.168  -8.663  11.239  1.00  0.00     0.051 A 
ATOM     15  C   UNL     1     -41.158  -9.406  10.614  1.00  0.00     0.157 A 
ATOM     16  C   UNL     1     -42.532 -11.399  10.796  1.00  0.00     0.062 A 
ATOM     17  C   UNL     1     -41.343 -10.781  10.390  1.00  0.00     0.158 A 
BRANCH  15  18
ATOM     18  O   UNL     1     -39.977  -8.784  10.213  1.00  0.00    -0.504 OA
ATOM     19  H   UNL     1     -39.562  -8.035  10.754  1.00  0.00     0.293 HD
ENDBRANCH  15  18
BRANCH  17  20
ATOM     20  O   UNL     1     -40.361 -11.547   9.764  1.00  0.00    -0.504 OA
ATOM     21  H   UNL     1     -39.933 -12.347  10.215  1.00  0.00     0.293 HD
ENDBRANCH  17  20
ENDBRANCH   1  12
BRANCH   2  22
ATOM     22  O   UNL     1     -45.131 -12.247   9.611  1.00  0.00    -0.502 OA
ATOM     23  H   UNL     1     -45.246 -11.499   8.938  1.00  0.00     0.293 HD
ENDBRANCH   2  22
BRANCH   6  24
ATOM     24  O   UNL     1     -49.035 -14.188  12.670  1.00  0.00    -0.507 OA
ATOM     25  H   UNL     1     -49.819 -13.982  12.071  1.00  0.00     0.293 HD
ENDBRANCH   6  24
BRANCH   8  26
ATOM     26  O   UNL     1     -48.248 -11.713  16.710  1.00  0.00    -0.508 OA
ATOM     27  H   UNL     1     -48.025 -10.817  17.128  1.00  0.00     0.293 HD
ENDBRANCH   8  26
TORSDOF 6
ENDMDL
MODEL 5
REMARK VINA RESULT:    -7.286      2.468      5.035
REMARK INTER + INTRA:          -8.990
REMARK INTER:                  -8.984
REMARK INTRA:                  -0.006
REMARK UNBOUND:                -0.213
REMARK SMILES O=c1c(O)c(-c2ccc(O)c(O)c2)oc2cc(O)cc(O)c12
REMARK SMILES IDX 5 1 3 2 2 3 1 4 22 5 20 6 19 7 17 8 16 9 15 10 14 11 6 12
REMARK SMILES IDX 7 13 8 14 9 15 13 16 11 17 10 18 12 20 4 22 21 24 18 26
REMARK H PARENT 10 19 12 21 4 23 21 25 18 27
REMARK Flexibility Score: inf
ROOT
ATOM      1  C   UNL     1     -48.097 -12.822  12.588  1.00  0.00     0.180 A 
ATOM      2  C   UNL     1     -49.101 -12.653  11.619  1.00  0.00     0.208 A 
ATOM      3  C   UNL     1     -50.415 -13.045  11.922  1.00  0.00     0.238 A 
ATOM      4  O   UNL     1     -51.318 -12.840  11.071  1.00  0.00    -0.285 OA
ATOM      5  C   UNL     1     -50.706 -13.616  13.184  1.00  0.00     0.111 A 
ATOM      6  C   UNL     1     -51.992 -14.086  13.584  1.00  0.00     0.134 A 
ATOM      7  C   UNL     1     -52.193 -14.512  14.902  1.00  0.00     0.093 A 
ATOM      8  C   UNL     1     -51.138 -14.548  15.816  1.00  0.00     0.123 A 
ATOM      9  C   UNL     1     -49.864 -14.148  15.419  1.00  0.00     0.094 A 
ATOM     10  C   UNL     1     -49.641 -13.683  14.122  1.00  0.00     0.146 A 
ATOM     11  O   UNL     1     -48.414 -13.301  13.787  1.00  0.00    -0.452 OA
ENDROOT
BRANCH   1  12
ATOM     12  C   UNL     1     -46.686 -12.456  12.334  1.00  0.00     0.025 A 
ATOM     13  C   UNL     1     -46.022 -12.867  11.165  1.00  0.00     0.016 A 
ATOM     14  C   UNL     1     -44.682 -12.531  10.958  1.00  0.00     0.051 A 
ATOM     15  C   UNL     1     -43.981 -11.791  11.919  1.00  0.00     0.157 A 
ATOM     16  C   UNL     1     -45.973 -11.732  13.305  1.00  0.00     0.062 A 
ATOM     17  C   UNL     1     -44.631 -11.392  13.099  1.00  0.00     0.158 A 
BRANCH  15  18
ATOM     18  O   UNL     1     -42.645 -11.455  11.708  1.00  0.00    -0.504 OA
ATOM     19  H   UNL     1     -41.894 -12.095  11.937  1.00  0.00     0.293 HD
ENDBRANCH  15  18
BRANCH  17  20
ATOM     20  O   UNL     1     -43.960 -10.661  14.079  1.00  0.00    -0.504 OA
ATOM     21  H   UNL     1     -43.915 -10.969  15.043  1.00  0.00     0.293 HD
ENDBRANCH  17  20
ENDBRANCH   1  12
BRANCH   2  22
ATOM     22  O   UNL     1     -48.796 -12.066  10.388  1.00  0.00    -0.502 OA
ATOM     23  H   UNL     1     -49.208 -11.192  10.085  1.00  0.00     0.293 HD
ENDBRANCH   2  22
BRANCH   6  24
ATOM     24  O   UNL     1     -53.091 -14.179  12.723  1.00  0.00    -0.507 OA
ATOM     25  H   UNL     1     -53.140 -14.783  11.918  1.00  0.00     0.293 HD
ENDBRANCH   6  24
BRANCH   8  26
ATOM     26  O   UNL     1     -51.343 -14.989  17.123  1.00  0.00    -0.508 OA
ATOM     27  H   UNL     1     -50.819 -15.766  17.508  1.00  0.00     0.293 HD
ENDBRANCH   8  26
TORSDOF 6
ENDMDL
MODEL 6
REMARK VINA RESULT:    -7.203      2.546      8.389
REMARK INTER + INTRA:          -8.889
REMARK INTER:                  -9.202
REMARK INTRA:                   0.313
REMARK UNBOUND:                -0.213
REMARK SMILES O=c1c(O)c(-c2ccc(O)c(O)c2)oc2cc(O)cc(O)c12
REMARK SMILES IDX 5 1 3 2 2 3 1 4 22 5 20 6 19 7 17 8 16 9 15 10 14 11 6 12
REMARK SMILES IDX 7 13 8 14 9 15 13 16 11 17 10 18 12 20 4 22 21 24 18 26
REMARK H PARENT 10 19 12 21 4 23 21 25 18 27
REMARK Flexibility Score: inf
ROOT
ATOM      1  C   UNL     1     -48.805 -13.315  13.306  1.00  0.00     0.180 A 
ATOM      2  C   UNL     1     -48.493 -13.647  11.977  1.00  0.00     0.208 A 
ATOM      3  C   UNL     1     -47.274 -13.210  11.433  1.00  0.00     0.238 A 
ATOM      4  O   UNL     1     -46.976 -13.557  10.261  1.00  0.00    -0.285 OA
ATOM      5  C   UNL     1     -46.391 -12.433  12.220  1.00  0.00     0.111 A 
ATOM      6  C   UNL     1     -45.148 -11.902  11.760  1.00  0.00     0.134 A 
ATOM      7  C   UNL     1     -44.295 -11.258  12.663  1.00  0.00     0.093 A 
ATOM      8  C   UNL     1     -44.668 -11.068  13.996  1.00  0.00     0.123 A 
ATOM      9  C   UNL     1     -45.904 -11.529  14.441  1.00  0.00     0.094 A 
ATOM     10  C   UNL     1     -46.762 -12.208  13.572  1.00  0.00     0.146 A 
ATOM     11  O   UNL     1     -47.926 -12.640  14.040  1.00  0.00    -0.452 OA
ENDROOT
BRANCH   1  12
ATOM     12  C   UNL     1     -50.080 -13.718  13.941  1.00  0.00     0.025 A 
ATOM     13  C   UNL     1     -50.155 -14.004  15.316  1.00  0.00     0.016 A 
ATOM     14  C   UNL     1     -51.364 -14.407  15.889  1.00  0.00     0.051 A 
ATOM     15  C   UNL     1     -52.512 -14.543  15.098  1.00  0.00     0.157 A 
ATOM     16  C   UNL     1     -51.229 -13.876  13.148  1.00  0.00     0.062 A 
ATOM     17  C   UNL     1     -52.442 -14.278  13.720  1.00  0.00     0.158 A 
BRANCH  15  18
ATOM     18  O   UNL     1     -53.717 -14.942  15.673  1.00  0.00    -0.504 OA
ATOM     19  H   UNL     1     -54.603 -14.558  15.369  1.00  0.00     0.293 HD
ENDBRANCH  15  18
BRANCH  17  20
ATOM     20  O   UNL     1     -53.564 -14.411  12.903  1.00  0.00    -0.504 OA
ATOM     21  H   UNL     1     -54.326 -15.038  13.133  1.00  0.00     0.293 HD
ENDBRANCH  17  20
ENDBRANCH   1  12
BRANCH   2  22
ATOM     22  O   UNL     1     -49.369 -14.434  11.225  1.00  0.00    -0.502 OA
ATOM     23  H   UNL     1     -49.251 -14.581  10.230  1.00  0.00     0.293 HD
ENDBRANCH   2  22
BRANCH   6  24
ATOM     24  O   UNL     1     -44.722 -11.957  10.429  1.00  0.00    -0.507 OA
ATOM     25  H   UNL     1     -45.322 -12.146   9.641  1.00  0.00     0.293 HD
ENDBRANCH   6  24
BRANCH   8  26
ATOM     26  O   UNL     1     -43.818 -10.411  14.885  1.00  0.00    -0.508 OA
ATOM     27  H   UNL     1     -42.830 -10.300  14.689  1.00  0.00     0.293 HD
ENDBRANCH   8  26
TORSDOF 6
ENDMDL
MODEL 7
REMARK VINA RESULT:    -6.919      1.608      2.099
REMARK INTER + INTRA:          -8.547
REMARK INTER:                  -8.341
REMARK INTRA:                  -0.206
REMARK UNBOUND:                -0.213
REMARK SMILES O=c1c(O)c(-c2ccc(O)c(O)c2)oc2cc(O)cc(O)c12
REMARK SMILES IDX 5 1 3 2 2 3 1 4 22 5 20 6 19 7 17 8 16 9 15 10 14 11 6 12
REMARK SMILES IDX 7 13 8 14 9 15 13 16 11 17 10 18 12 20 4 22 21 24 18 26
REMARK H PARENT 10 19 12 21 4 23 21 25 18 27
REMARK Flexibility Score: inf
ROOT
ATOM      1  C   UNL     1     -45.549 -11.190  13.560  1.00  0.00     0.180 A 
ATOM      2  C   UNL     1     -45.485 -11.218  14.964  1.00  0.00     0.208 A 
ATOM      3  C   UNL     1     -46.494 -11.883  15.680  1.00  0.00     0.238 A 
ATOM      4  O   UNL     1     -46.401 -11.950  16.933  1.00  0.00    -0.285 OA
ATOM      5  C   UNL     1     -47.562 -12.498  14.985  1.00  0.00     0.111 A 
ATOM      6  C   UNL     1     -48.659 -13.164  15.609  1.00  0.00     0.134 A 
ATOM      7  C   UNL     1     -49.591 -13.849  14.821  1.00  0.00     0.093 A 
ATOM      8  C   UNL     1     -49.502 -13.836  13.427  1.00  0.00     0.123 A 
ATOM      9  C   UNL     1     -48.470 -13.139  12.805  1.00  0.00     0.094 A 
ATOM     10  C   UNL     1     -47.504 -12.477  13.566  1.00  0.00     0.146 A 
ATOM     11  O   UNL     1     -46.530 -11.833  12.934  1.00  0.00    -0.452 OA
ENDROOT
BRANCH   1  12
ATOM     12  C   UNL     1     -44.538 -10.489  12.738  1.00  0.00     0.025 A 
ATOM     13  C   UNL     1     -44.399  -9.091  12.783  1.00  0.00     0.016 A 
ATOM     14  C   UNL     1     -43.454  -8.448  11.980  1.00  0.00     0.051 A 
ATOM     15  C   UNL     1     -42.643  -9.189  11.111  1.00  0.00     0.157 A 
ATOM     16  C   UNL     1     -43.737 -11.226  11.850  1.00  0.00     0.062 A 
ATOM     17  C   UNL     1     -42.788 -10.585  11.045  1.00  0.00     0.158 A 
BRANCH  15  18
ATOM     18  O   UNL     1     -41.699  -8.544  10.312  1.00  0.00    -0.504 OA
ATOM     19  H   UNL     1     -40.732  -8.846  10.286  1.00  0.00     0.293 HD
ENDBRANCH  15  18
BRANCH  17  20
ATOM     20  O   UNL     1     -42.001 -11.350  10.184  1.00  0.00    -0.504 OA
ATOM     21  H   UNL     1     -41.936 -11.149   9.194  1.00  0.00     0.293 HD
ENDBRANCH  17  20
ENDBRANCH   1  12
BRANCH   2  22
ATOM     22  O   UNL     1     -44.410 -10.624  15.629  1.00  0.00    -0.502 OA
ATOM     23  H   UNL     1     -44.526  -9.838  16.258  1.00  0.00     0.293 HD
ENDBRANCH   2  22
BRANCH   6  24
ATOM     24  O   UNL     1     -48.891 -13.160  16.989  1.00  0.00    -0.507 OA
ATOM     25  H   UNL     1     -48.555 -13.861  17.630  1.00  0.00     0.293 HD
ENDBRANCH   6  24
BRANCH   8  26
ATOM     26  O   UNL     1     -50.444 -14.508  12.648  1.00  0.00    -0.508 OA
ATOM     27  H   UNL     1     -50.221 -15.380  12.182  1.00  0.00     0.293 HD
ENDBRANCH   8  26
TORSDOF 6
ENDMDL
MODEL 8
REMARK VINA RESULT:    -6.712      1.742      7.133
REMARK INTER + INTRA:          -8.298
REMARK INTER:                  -8.167
REMARK INTRA:                  -0.131
REMARK UNBOUND:                -0.213
REMARK SMILES O=c1c(O)c(-c2ccc(O)c(O)c2)oc2cc(O)cc(O)c12
REMARK SMILES IDX 5 1 3 2 2 3 1 4 22 5 20 6 19 7 17 8 16 9 15 10 14 11 6 12
REMARK SMILES IDX 7 13 8 14 9 15 13 16 11 17 10 18 12 20 4 22 21 24 18 26
REMARK H PARENT 10 19 12 21 4 23 21 25 18 27
REMARK Flexibility Score: inf
ROOT
ATOM      1  C   UNL     1     -45.722 -11.422  11.879  1.00  0.00     0.180 A 
ATOM      2  C   UNL     1     -44.855 -11.739  10.819  1.00  0.00     0.208 A 
ATOM      3  C   UNL     1     -43.676 -10.993  10.656  1.00  0.00     0.238 A 
ATOM      4  O   UNL     1     -42.878 -11.317   9.739  1.00  0.00    -0.285 OA
ATOM      5  C   UNL     1     -43.387  -9.932  11.546  1.00  0.00     0.111 A 
ATOM      6  C   UNL     1     -42.242  -9.085  11.452  1.00  0.00     0.134 A 
ATOM      7  C   UNL     1     -41.989  -8.150  12.463  1.00  0.00     0.093 A 
ATOM      8  C   UNL     1     -42.875  -7.987  13.531  1.00  0.00     0.123 A 
ATOM      9  C   UNL     1     -44.026  -8.766  13.600  1.00  0.00     0.094 A 
ATOM     10  C   UNL     1     -44.287  -9.733  12.626  1.00  0.00     0.146 A 
ATOM     11  O   UNL     1     -45.390 -10.463  12.736  1.00  0.00    -0.452 OA
ENDROOT
BRANCH   1  12
ATOM     12  C   UNL     1     -46.995 -12.146  12.100  1.00  0.00     0.025 A 
ATOM     13  C   UNL     1     -47.996 -12.184  11.114  1.00  0.00     0.016 A 
ATOM     14  C   UNL     1     -49.199 -12.852  11.353  1.00  0.00     0.051 A 
ATOM     15  C   UNL     1     -49.426 -13.481  12.585  1.00  0.00     0.157 A 
ATOM     16  C   UNL     1     -47.235 -12.760  13.340  1.00  0.00     0.062 A 
ATOM     17  C   UNL     1     -48.439 -13.432  13.583  1.00  0.00     0.158 A 
BRANCH  15  18
ATOM     18  O   UNL     1     -50.627 -14.149  12.820  1.00  0.00    -0.504 OA
ATOM     19  H   UNL     1     -50.705 -15.153  12.712  1.00  0.00     0.293 HD
ENDBRANCH  15  18
BRANCH  17  20
ATOM     20  O   UNL     1     -48.637 -14.040  14.822  1.00  0.00    -0.504 OA
ATOM     21  H   UNL     1     -48.332 -13.610  15.687  1.00  0.00     0.293 HD
ENDBRANCH  17  20
ENDBRANCH   1  12
BRANCH   2  22
ATOM     22  O   UNL     1     -45.150 -12.805   9.966  1.00  0.00    -0.502 OA
ATOM     23  H   UNL     1     -44.794 -13.741  10.121  1.00  0.00     0.293 HD
ENDBRANCH   2  22
BRANCH   6  24
ATOM     24  O   UNL     1     -41.343  -9.103  10.380  1.00  0.00    -0.507 OA
ATOM     25  H   UNL     1     -40.960  -8.282   9.938  1.00  0.00     0.293 HD
ENDBRANCH   6  24
BRANCH   8  26
ATOM     26  O   UNL     1     -42.624  -7.042  14.525  1.00  0.00    -0.508 OA
ATOM     27  H   UNL     1     -41.957  -6.291  14.386  1.00  0.00     0.293 HD
ENDBRANCH   8  26
TORSDOF 6
ENDMDL
MODEL 9
REMARK VINA RESULT:    -6.635      9.276     14.706
REMARK INTER + INTRA:          -8.205
REMARK INTER:                  -7.930
REMARK INTRA:                  -0.275
REMARK UNBOUND:                -0.213
REMARK SMILES O=c1c(O)c(-c2ccc(O)c(O)c2)oc2cc(O)cc(O)c12
REMARK SMILES IDX 5 1 3 2 2 3 1 4 22 5 20 6 19 7 17 8 16 9 15 10 14 11 6 12
REMARK SMILES IDX 7 13 8 14 9 15 13 16 11 17 10 18 12 20 4 22 21 24 18 26
REMARK H PARENT 10 19 12 21 4 23 21 25 18 27
REMARK Flexibility Score: inf
ROOT
ATOM      1  C   UNL     1     -37.722  -5.148   3.342  1.00  0.00     0.180 A 
ATOM      2  C   UNL     1     -37.286  -5.292   2.013  1.00  0.00     0.208 A 
ATOM      3  C   UNL     1     -36.759  -4.175   1.344  1.00  0.00     0.238 A 
ATOM      4  O   UNL     1     -36.320  -4.324   0.174  1.00  0.00    -0.285 OA
ATOM      5  C   UNL     1     -36.689  -2.926   2.006  1.00  0.00     0.111 A 
ATOM      6  C   UNL     1     -36.211  -1.720   1.412  1.00  0.00     0.134 A 
ATOM      7  C   UNL     1     -36.064  -0.572   2.200  1.00  0.00     0.093 A 
ATOM      8  C   UNL     1     -36.440  -0.570   3.546  1.00  0.00     0.123 A 
ATOM      9  C   UNL     1     -36.964  -1.726   4.120  1.00  0.00     0.094 A 
ATOM     10  C   UNL     1     -37.088  -2.896   3.368  1.00  0.00     0.146 A 
ATOM     11  O   UNL     1     -37.582  -3.979   3.957  1.00  0.00    -0.452 OA
ENDROOT
BRANCH   1  12
ATOM     12  C   UNL     1     -38.311  -6.272   4.104  1.00  0.00     0.025 A 
ATOM     13  C   UNL     1     -39.616  -6.727   3.846  1.00  0.00     0.016 A 
ATOM     14  C   UNL     1     -40.161  -7.773   4.595  1.00  0.00     0.051 A 
ATOM     15  C   UNL     1     -39.417  -8.371   5.620  1.00  0.00     0.157 A 
ATOM     16  C   UNL     1     -37.577  -6.861   5.147  1.00  0.00     0.062 A 
ATOM     17  C   UNL     1     -38.119  -7.911   5.898  1.00  0.00     0.158 A 
BRANCH  15  18
ATOM     18  O   UNL     1     -39.963  -9.416   6.364  1.00  0.00    -0.504 OA
ATOM     19  H   UNL     1     -40.262  -9.285   7.323  1.00  0.00     0.293 HD
ENDBRANCH  15  18
BRANCH  17  20
ATOM     20  O   UNL     1     -37.356  -8.479   6.917  1.00  0.00    -0.504 OA
ATOM     21  H   UNL     1     -37.384  -8.132   7.868  1.00  0.00     0.293 HD
ENDBRANCH  17  20
ENDBRANCH   1  12
BRANCH   2  22
ATOM     22  O   UNL     1     -37.344  -6.539   1.386  1.00  0.00    -0.502 OA
ATOM     23  H   UNL     1     -38.170  -7.124   1.414  1.00  0.00     0.293 HD
ENDBRANCH   2  22
BRANCH   6  24
ATOM     24  O   UNL     1     -35.895  -1.590   0.055  1.00  0.00    -0.507 OA
ATOM     25  H   UNL     1     -36.529  -1.784  -0.703  1.00  0.00     0.293 HD
ENDBRANCH   6  24
BRANCH   8  26
ATOM     26  O   UNL     1     -36.306   0.581   4.319  1.00  0.00    -0.508 OA
ATOM     27  H   UNL     1     -37.103   1.007   4.779  1.00  0.00     0.293 HD
ENDBRANCH   8  26
TORSDOF 6
ENDMDL
