MODEL 1
REMARK VINA RESULT:    -6.435      0.000      0.000
REMARK INTER + INTRA:         -11.003
REMARK INTER:                  -9.821
REMARK INTRA:                  -1.182
REMARK UNBOUND:                -1.182
REMARK SMILES CC(=O)CCC=C(C)CCC=C(C)CCC=C(C)C
REMARK SMILES IDX 10 1 11 2 12 3 13 4 14 5 15 6 16 7 18 8 17 9 19 10 9 11 7 12
REMARK SMILES IDX 6 13 8 14 5 15 4 16 2 17 3 18 1 19
REMARK H PARENT
REMARK Flexibility Score: inf
ROOT
ATOM      1  C   UNL     1     137.451 137.175 114.583  1.00  0.00     0.032 C 
ENDROOT
BRANCH   1   2
ATOM      2  C   UNL     1     136.994 135.740 114.495  1.00  0.00    -0.028 C 
ATOM      3  C   UNL     1     136.519 135.023 115.539  1.00  0.00    -0.077 C 
ATOM      4  C   UNL     1     136.350 135.630 116.913  1.00  0.00     0.039 C 
BRANCH   3   5
ATOM      5  C   UNL     1     136.126 133.576 115.320  1.00  0.00     0.034 C 
BRANCH   5   6
ATOM      6  C   UNL     1     135.118 133.423 114.173  1.00  0.00     0.032 C 
BRANCH   6   7
ATOM      7  C   UNL     1     133.860 134.224 114.421  1.00  0.00    -0.028 C 
ATOM      8  C   UNL     1     132.003 135.744 113.900  1.00  0.00     0.039 C 
ATOM      9  C   UNL     1     133.288 135.054 113.522  1.00  0.00    -0.080 C 
ATOM     10  C   UNL     1     133.905 135.318 112.169  1.00  0.00     0.039 C 
ENDBRANCH   6   7
ENDBRANCH   5   6
ENDBRANCH   3   5
ENDBRANCH   1   2
BRANCH   1  11
ATOM     11  C   UNL     1     137.984 137.661 113.232  1.00  0.00     0.034 C 
BRANCH  11  12
ATOM     12  C   UNL     1     138.770 138.944 113.394  1.00  0.00    -0.077 C 
ATOM     13  C   UNL     1     138.841 139.521 114.615  1.00  0.00    -0.028 C 
ATOM     14  C   UNL     1     139.468 139.533 112.190  1.00  0.00     0.039 C 
BRANCH  13  15
ATOM     15  C   UNL     1     139.559 140.815 114.907  1.00  0.00     0.035 C 
BRANCH  15  16
ATOM     16  C   UNL     1     140.182 140.785 116.306  1.00  0.00     0.079 C 
BRANCH  16  17
ATOM     17  C   UNL     1     141.666 140.552 116.224  1.00  0.00     0.130 C 
ATOM     18  O   UNL     1     142.189 139.710 116.938  1.00  0.00    -0.300 OA
ATOM     19  C   UNL     1     142.510 141.360 115.286  1.00  0.00     0.087 C 
ENDBRANCH  16  17
ENDBRANCH  15  16
ENDBRANCH  13  15
ENDBRANCH  11  12
ENDBRANCH   1  11
TORSDOF 9
ENDMDL
MODEL 2
REMARK VINA RESULT:    -6.421      1.637      2.516
REMARK INTER + INTRA:         -10.981
REMARK INTER:                  -9.886
REMARK INTRA:                  -1.095
REMARK UNBOUND:                -1.182
REMARK SMILES CC(=O)CCC=C(C)CCC=C(C)CCC=C(C)C
REMARK SMILES IDX 10 1 11 2 12 3 13 4 14 5 15 6 16 7 18 8 17 9 19 10 9 11 7 12
REMARK SMILES IDX 6 13 8 14 5 15 4 16 2 17 3 18 1 19
REMARK H PARENT
REMARK Flexibility Score: inf
ROOT
ATOM      1  C   UNL     1     138.385 138.997 114.045  1.00  0.00     0.032 C 
ENDROOT
BRANCH   1   2
ATOM      2  C   UNL     1     137.973 137.667 114.625  1.00  0.00    -0.028 C 
ATOM      3  C   UNL     1     137.192 136.764 113.988  1.00  0.00    -0.077 C 
ATOM      4  C   UNL     1     136.696 136.992 112.579  1.00  0.00     0.039 C 
BRANCH   3   5
ATOM      5  C   UNL     1     136.823 135.479 114.699  1.00  0.00     0.034 C 
BRANCH   5   6
ATOM      6  C   UNL     1     135.711 135.697 115.736  1.00  0.00     0.032 C 
BRANCH   6   7
ATOM      7  C   UNL     1     134.413 136.115 115.085  1.00  0.00    -0.028 C 
ATOM      8  C   UNL     1     132.187 135.834 114.085  1.00  0.00     0.039 C 
ATOM      9  C   UNL     1     133.453 135.261 114.668  1.00  0.00    -0.080 C 
ATOM     10  C   UNL     1     133.621 133.763 114.755  1.00  0.00     0.039 C 
ENDBRANCH   6   7
ENDBRANCH   5   6
ENDBRANCH   3   5
ENDBRANCH   1   2
BRANCH   1  11
ATOM     11  C   UNL     1     139.617 138.840 113.147  1.00  0.00     0.034 C 
BRANCH  11  12
ATOM     12  C   UNL     1     140.870 139.280 113.871  1.00  0.00    -0.077 C 
ATOM     13  C   UNL     1     140.787 139.627 115.176  1.00  0.00    -0.028 C 
ATOM     14  C   UNL     1     142.181 139.299 113.122  1.00  0.00     0.039 C 
BRANCH  13  15
ATOM     15  C   UNL     1     141.948 140.116 116.005  1.00  0.00     0.035 C 
BRANCH  15  16
ATOM     16  C   UNL     1     141.806 141.611 116.310  1.00  0.00     0.079 C 
BRANCH  16  17
ATOM     17  C   UNL     1     142.171 142.438 115.107  1.00  0.00     0.130 C 
ATOM     18  O   UNL     1     143.320 142.431 114.692  1.00  0.00    -0.300 OA
ATOM     19  C   UNL     1     141.140 143.287 114.429  1.00  0.00     0.087 C 
ENDBRANCH  16  17
ENDBRANCH  15  16
ENDBRANCH  13  15
ENDBRANCH  11  12
ENDBRANCH   1  11
TORSDOF 9
ENDMDL
MODEL 3
REMARK VINA RESULT:    -6.417      2.573      8.276
REMARK INTER + INTRA:         -10.976
REMARK INTER:                  -9.633
REMARK INTRA:                  -1.343
REMARK UNBOUND:                -1.182
REMARK SMILES CC(=O)CCC=C(C)CCC=C(C)CCC=C(C)C
REMARK SMILES IDX 10 1 11 2 12 3 13 4 14 5 15 6 16 7 18 8 17 9 19 10 9 11 7 12
REMARK SMILES IDX 6 13 8 14 5 15 4 16 2 17 3 18 1 19
REMARK H PARENT
REMARK Flexibility Score: inf
ROOT
ATOM      1  C   UNL     1     139.715 139.840 112.216  1.00  0.00     0.032 C 
ENDROOT
BRANCH   1   2
ATOM      2  C   UNL     1     140.761 140.884 112.516  1.00  0.00    -0.028 C 
ATOM      3  C   UNL     1     142.090 140.641 112.573  1.00  0.00    -0.077 C 
ATOM      4  C   UNL     1     142.664 139.274 112.282  1.00  0.00     0.039 C 
BRANCH   3   5
ATOM      5  C   UNL     1     143.032 141.776 112.920  1.00  0.00     0.034 C 
BRANCH   5   6
ATOM      6  C   UNL     1     143.556 141.666 114.359  1.00  0.00     0.032 C 
BRANCH   6   7
ATOM      7  C   UNL     1     142.550 142.183 115.362  1.00  0.00    -0.028 C 
ATOM      8  C   UNL     1     140.894 142.069 117.173  1.00  0.00     0.039 C 
ATOM      9  C   UNL     1     141.820 141.402 116.188  1.00  0.00    -0.080 C 
ATOM     10  C   UNL     1     141.893 139.895 116.139  1.00  0.00     0.039 C 
ENDBRANCH   6   7
ENDBRANCH   5   6
ENDBRANCH   3   5
ENDBRANCH   1   2
BRANCH   1  11
ATOM     11  C   UNL     1     139.061 139.338 113.507  1.00  0.00     0.034 C 
BRANCH  11  12
ATOM     12  C   UNL     1     138.177 138.141 113.233  1.00  0.00    -0.077 C 
ATOM     13  C   UNL     1     137.868 137.305 114.251  1.00  0.00    -0.028 C 
ATOM     14  C   UNL     1     137.648 137.925 111.834  1.00  0.00     0.039 C 
BRANCH  13  15
ATOM     15  C   UNL     1     137.029 136.060 114.108  1.00  0.00     0.035 C 
BRANCH  15  16
ATOM     16  C   UNL     1     136.857 135.364 115.462  1.00  0.00     0.079 C 
BRANCH  16  17
ATOM     17  C   UNL     1     136.493 133.916 115.275  1.00  0.00     0.130 C 
ATOM     18  O   UNL     1     136.966 133.071 116.019  1.00  0.00    -0.300 OA
ATOM     19  C   UNL     1     135.571 133.503 114.168  1.00  0.00     0.087 C 
ENDBRANCH  16  17
ENDBRANCH  15  16
ENDBRANCH  13  15
ENDBRANCH  11  12
ENDBRANCH   1  11
TORSDOF 9
ENDMDL
MODEL 4
REMARK VINA RESULT:    -6.388      2.711      8.159
REMARK INTER + INTRA:         -10.931
REMARK INTER:                  -9.616
REMARK INTRA:                  -1.315
REMARK UNBOUND:                -1.182
REMARK SMILES CC(=O)CCC=C(C)CCC=C(C)CCC=C(C)C
REMARK SMILES IDX 10 1 11 2 12 3 13 4 14 5 15 6 16 7 18 8 17 9 19 10 9 11 7 12
REMARK SMILES IDX 6 13 8 14 5 15 4 16 2 17 3 18 1 19
REMARK H PARENT
REMARK Flexibility Score: inf
ROOT
ATOM      1  C   UNL     1     139.025 139.709 114.918  1.00  0.00     0.032 C 
ENDROOT
BRANCH   1   2
ATOM      2  C   UNL     1     139.802 140.990 115.089  1.00  0.00    -0.028 C 
ATOM      3  C   UNL     1     141.021 141.073 115.672  1.00  0.00    -0.077 C 
ATOM      4  C   UNL     1     141.753 139.848 116.169  1.00  0.00     0.039 C 
BRANCH   3   5
ATOM      5  C   UNL     1     141.678 142.431 115.812  1.00  0.00     0.034 C 
BRANCH   5   6
ATOM      6  C   UNL     1     142.883 142.584 114.872  1.00  0.00     0.032 C 
BRANCH   6   7
ATOM      7  C   UNL     1     142.483 142.440 113.421  1.00  0.00    -0.028 C 
ATOM      8  C   UNL     1     142.323 141.383 111.210  1.00  0.00     0.039 C 
ATOM      9  C   UNL     1     142.846 141.412 112.623  1.00  0.00    -0.080 C 
ATOM     10  C   UNL     1     143.766 140.314 113.100  1.00  0.00     0.039 C 
ENDBRANCH   6   7
ENDBRANCH   5   6
ENDBRANCH   3   5
ENDBRANCH   1   2
BRANCH   1  11
ATOM     11  C   UNL     1     139.142 139.189 113.482  1.00  0.00     0.034 C 
BRANCH  11  12
ATOM     12  C   UNL     1     138.212 138.017 113.257  1.00  0.00    -0.077 C 
ATOM     13  C   UNL     1     137.841 137.259 114.315  1.00  0.00    -0.028 C 
ATOM     14  C   UNL     1     137.706 137.740 111.861  1.00  0.00     0.039 C 
BRANCH  13  15
ATOM     15  C   UNL     1     136.950 136.046 114.225  1.00  0.00     0.035 C 
BRANCH  15  16
ATOM     16  C   UNL     1     136.929 135.289 115.557  1.00  0.00     0.079 C 
BRANCH  16  17
ATOM     17  C   UNL     1     135.555 135.323 116.168  1.00  0.00     0.130 C 
ATOM     18  O   UNL     1     135.170 134.384 116.847  1.00  0.00    -0.300 OA
ATOM     19  C   UNL     1     134.648 136.492 115.931  1.00  0.00     0.087 C 
ENDBRANCH  16  17
ENDBRANCH  15  16
ENDBRANCH  13  15
ENDBRANCH  11  12
ENDBRANCH   1  11
TORSDOF 9
ENDMDL
MODEL 5
REMARK VINA RESULT:    -6.376      2.500      8.556
REMARK INTER + INTRA:         -10.912
REMARK INTER:                 -10.024
REMARK INTRA:                  -0.888
REMARK UNBOUND:                -1.182
REMARK SMILES CC(=O)CCC=C(C)CCC=C(C)CCC=C(C)C
REMARK SMILES IDX 10 1 11 2 12 3 13 4 14 5 15 6 16 7 18 8 17 9 19 10 9 11 7 12
REMARK SMILES IDX 6 13 8 14 5 15 4 16 2 17 3 18 1 19
REMARK H PARENT
REMARK Flexibility Score: inf
ROOT
ATOM      1  C   UNL     1     138.290 137.980 113.751  1.00  0.00     0.032 C 
ENDROOT
BRANCH   1   2
ATOM      2  C   UNL     1     138.725 139.101 114.662  1.00  0.00    -0.028 C 
ATOM      3  C   UNL     1     139.451 140.171 114.266  1.00  0.00    -0.077 C 
ATOM      4  C   UNL     1     139.856 140.371 112.824  1.00  0.00     0.039 C 
BRANCH   3   5
ATOM      5  C   UNL     1     139.851 141.210 115.294  1.00  0.00     0.034 C 
BRANCH   5   6
ATOM      6  C   UNL     1     141.021 140.732 116.166  1.00  0.00     0.032 C 
BRANCH   6   7
ATOM      7  C   UNL     1     142.230 140.372 115.333  1.00  0.00    -0.028 C 
ATOM      8  C   UNL     1     144.279 140.752 114.033  1.00  0.00     0.039 C 
ATOM      9  C   UNL     1     143.087 141.269 114.796  1.00  0.00    -0.080 C 
ATOM     10  C   UNL     1     142.874 142.758 114.926  1.00  0.00     0.039 C 
ENDBRANCH   6   7
ENDBRANCH   5   6
ENDBRANCH   3   5
ENDBRANCH   1   2
BRANCH   1  11
ATOM     11  C   UNL     1     137.684 136.827 114.557  1.00  0.00     0.034 C 
BRANCH  11  12
ATOM     12  C   UNL     1     136.533 136.194 113.806  1.00  0.00    -0.077 C 
ATOM     13  C   UNL     1     136.166 134.928 114.113  1.00  0.00    -0.028 C 
ATOM     14  C   UNL     1     135.814 136.999 112.750  1.00  0.00     0.039 C 
BRANCH  13  15
ATOM     15  C   UNL     1     135.063 134.167 113.420  1.00  0.00     0.035 C 
BRANCH  15  16
ATOM     16  C   UNL     1     133.888 133.929 114.373  1.00  0.00     0.079 C 
BRANCH  16  17
ATOM     17  C   UNL     1     133.189 135.223 114.691  1.00  0.00     0.130 C 
ATOM     18  O   UNL     1     133.511 135.860 115.682  1.00  0.00    -0.300 OA
ATOM     19  C   UNL     1     132.085 135.725 113.811  1.00  0.00     0.087 C 
ENDBRANCH  16  17
ENDBRANCH  15  16
ENDBRANCH  13  15
ENDBRANCH  11  12
ENDBRANCH   1  11
TORSDOF 9
ENDMDL
MODEL 6
REMARK VINA RESULT:    -6.370      2.872      8.331
REMARK INTER + INTRA:         -10.904
REMARK INTER:                  -9.525
REMARK INTRA:                  -1.379
REMARK UNBOUND:                -1.182
REMARK SMILES CC(=O)CCC=C(C)CCC=C(C)CCC=C(C)C
REMARK SMILES IDX 10 1 11 2 12 3 13 4 14 5 15 6 16 7 18 8 17 9 19 10 9 11 7 12
REMARK SMILES IDX 6 13 8 14 5 15 4 16 2 17 3 18 1 19
REMARK H PARENT
REMARK Flexibility Score: inf
ROOT
ATOM      1  C   UNL     1     138.571 138.046 114.133  1.00  0.00     0.032 C 
ENDROOT
BRANCH   1   2
ATOM      2  C   UNL     1     138.875 139.522 114.164  1.00  0.00    -0.028 C 
ATOM      3  C   UNL     1     140.081 140.061 113.871  1.00  0.00    -0.077 C 
ATOM      4  C   UNL     1     141.248 139.210 113.425  1.00  0.00     0.039 C 
BRANCH   3   5
ATOM      5  C   UNL     1     140.262 141.562 113.975  1.00  0.00     0.034 C 
BRANCH   5   6
ATOM      6  C   UNL     1     141.361 141.939 114.979  1.00  0.00     0.032 C 
BRANCH   6   7
ATOM      7  C   UNL     1     140.850 141.921 116.401  1.00  0.00    -0.028 C 
ATOM      8  C   UNL     1     140.645 141.152 118.725  1.00  0.00     0.039 C 
ATOM      9  C   UNL     1     141.200 141.005 117.331  1.00  0.00    -0.080 C 
ATOM     10  C   UNL     1     142.108 139.843 117.009  1.00  0.00     0.039 C 
ENDBRANCH   6   7
ENDBRANCH   5   6
ENDBRANCH   3   5
ENDBRANCH   1   2
BRANCH   1  11
ATOM     11  C   UNL     1     137.151 137.793 113.616  1.00  0.00     0.034 C 
BRANCH  11  12
ATOM     12  C   UNL     1     136.391 136.882 114.554  1.00  0.00    -0.077 C 
ATOM     13  C   UNL     1     135.038 136.899 114.534  1.00  0.00    -0.028 C 
ATOM     14  C   UNL     1     137.164 135.964 115.472  1.00  0.00     0.039 C 
BRANCH  13  15
ATOM     15  C   UNL     1     134.160 136.071 115.438  1.00  0.00     0.035 C 
BRANCH  15  16
ATOM     16  C   UNL     1     133.160 135.249 114.618  1.00  0.00     0.079 C 
BRANCH  16  17
ATOM     17  C   UNL     1     133.877 134.281 113.718  1.00  0.00     0.130 C 
ATOM     18  O   UNL     1     133.761 134.379 112.506  1.00  0.00    -0.300 OA
ATOM     19  C   UNL     1     134.716 133.183 114.299  1.00  0.00     0.087 C 
ENDBRANCH  16  17
ENDBRANCH  15  16
ENDBRANCH  13  15
ENDBRANCH  11  12
ENDBRANCH   1  11
TORSDOF 9
ENDMDL
MODEL 7
REMARK VINA RESULT:    -6.368      1.715      1.962
REMARK INTER + INTRA:         -10.900
REMARK INTER:                  -9.625
REMARK INTRA:                  -1.275
REMARK UNBOUND:                -1.182
REMARK SMILES CC(=O)CCC=C(C)CCC=C(C)CCC=C(C)C
REMARK SMILES IDX 10 1 11 2 12 3 13 4 14 5 15 6 16 7 18 8 17 9 19 10 9 11 7 12
REMARK SMILES IDX 6 13 8 14 5 15 4 16 2 17 3 18 1 19
REMARK H PARENT
REMARK Flexibility Score: inf
ROOT
ATOM      1  C   UNL     1     137.590 136.793 114.770  1.00  0.00     0.032 C 
ENDROOT
BRANCH   1   2
ATOM      2  C   UNL     1     136.810 135.505 114.856  1.00  0.00    -0.028 C 
ATOM      3  C   UNL     1     135.569 135.396 115.384  1.00  0.00    -0.077 C 
ATOM      4  C   UNL     1     134.814 136.598 115.901  1.00  0.00     0.039 C 
BRANCH   3   5
ATOM      5  C   UNL     1     134.911 134.033 115.441  1.00  0.00     0.034 C 
BRANCH   5   6
ATOM      6  C   UNL     1     134.679 133.449 114.040  1.00  0.00     0.032 C 
BRANCH   6   7
ATOM      7  C   UNL     1     134.004 134.443 113.123  1.00  0.00    -0.028 C 
ATOM      8  C   UNL     1     133.690 135.821 111.114  1.00  0.00     0.039 C 
ATOM      9  C   UNL     1     134.508 134.864 111.942  1.00  0.00    -0.080 C 
ATOM     10  C   UNL     1     135.862 134.418 111.445  1.00  0.00     0.039 C 
ENDBRANCH   6   7
ENDBRANCH   5   6
ENDBRANCH   3   5
ENDBRANCH   1   2
BRANCH   1  11
ATOM     11  C   UNL     1     137.333 137.496 113.434  1.00  0.00     0.034 C 
BRANCH  11  12
ATOM     12  C   UNL     1     138.357 138.583 113.192  1.00  0.00    -0.077 C 
ATOM     13  C   UNL     1     138.677 139.422 114.205  1.00  0.00    -0.028 C 
ATOM     14  C   UNL     1     139.009 138.688 111.833  1.00  0.00     0.039 C 
BRANCH  13  15
ATOM     15  C   UNL     1     139.653 140.566 114.089  1.00  0.00     0.035 C 
BRANCH  15  16
ATOM     16  C   UNL     1     139.679 141.388 115.382  1.00  0.00     0.079 C 
BRANCH  16  17
ATOM     17  C   UNL     1     140.121 142.800 115.107  1.00  0.00     0.130 C 
ATOM     18  O   UNL     1     139.442 143.736 115.499  1.00  0.00    -0.300 OA
ATOM     19  C   UNL     1     141.379 143.064 114.336  1.00  0.00     0.087 C 
ENDBRANCH  16  17
ENDBRANCH  15  16
ENDBRANCH  13  15
ENDBRANCH  11  12
ENDBRANCH   1  11
TORSDOF 9
ENDMDL
MODEL 8
REMARK VINA RESULT:    -6.345      1.880      3.268
REMARK INTER + INTRA:         -10.865
REMARK INTER:                  -9.499
REMARK INTRA:                  -1.365
REMARK UNBOUND:                -1.182
REMARK SMILES CC(=O)CCC=C(C)CCC=C(C)CCC=C(C)C
REMARK SMILES IDX 10 1 11 2 12 3 13 4 14 5 15 6 16 7 18 8 17 9 19 10 9 11 7 12
REMARK SMILES IDX 6 13 8 14 5 15 4 16 2 17 3 18 1 19
REMARK H PARENT
REMARK Flexibility Score: inf
ROOT
ATOM      1  C   UNL     1     137.899 138.384 114.287  1.00  0.00     0.032 C 
ENDROOT
BRANCH   1   2
ATOM      2  C   UNL     1     137.635 136.899 114.291  1.00  0.00    -0.028 C 
ATOM      3  C   UNL     1     136.445 136.333 113.986  1.00  0.00    -0.077 C 
ATOM      4  C   UNL     1     135.257 137.159 113.550  1.00  0.00     0.039 C 
BRANCH   3   5
ATOM      5  C   UNL     1     136.305 134.826 114.064  1.00  0.00     0.034 C 
BRANCH   5   6
ATOM      6  C   UNL     1     135.343 134.397 115.181  1.00  0.00     0.032 C 
BRANCH   6   7
ATOM      7  C   UNL     1     135.981 134.513 116.545  1.00  0.00    -0.028 C 
ATOM      8  C   UNL     1     136.318 135.369 118.823  1.00  0.00     0.039 C 
ATOM      9  C   UNL     1     135.621 135.412 117.488  1.00  0.00    -0.080 C 
ATOM     10  C   UNL     1     134.561 136.457 117.234  1.00  0.00     0.039 C 
ENDBRANCH   6   7
ENDBRANCH   5   6
ENDBRANCH   3   5
ENDBRANCH   1   2
BRANCH   1  11
ATOM     11  C   UNL     1     138.955 138.746 113.238  1.00  0.00     0.034 C 
BRANCH  11  12
ATOM     12  C   UNL     1     139.614 140.066 113.572  1.00  0.00    -0.077 C 
ATOM     13  C   UNL     1     140.310 140.715 112.610  1.00  0.00    -0.028 C 
ATOM     14  C   UNL     1     139.460 140.631 114.965  1.00  0.00     0.039 C 
BRANCH  13  15
ATOM     15  C   UNL     1     141.043 142.017 112.818  1.00  0.00     0.035 C 
BRANCH  15  16
ATOM     16  C   UNL     1     142.547 141.834 112.589  1.00  0.00     0.079 C 
BRANCH  16  17
ATOM     17  C   UNL     1     143.279 141.739 113.899  1.00  0.00     0.130 C 
ATOM     18  O   UNL     1     144.226 140.977 114.011  1.00  0.00    -0.300 OA
ATOM     19  C   UNL     1     142.839 142.558 115.075  1.00  0.00     0.087 C 
ENDBRANCH  16  17
ENDBRANCH  15  16
ENDBRANCH  13  15
ENDBRANCH  11  12
ENDBRANCH   1  11
TORSDOF 9
ENDMDL
MODEL 9
REMARK VINA RESULT:    -6.342      1.221      2.571
REMARK INTER + INTRA:         -10.860
REMARK INTER:                  -9.424
REMARK INTRA:                  -1.436
REMARK UNBOUND:                -1.182
REMARK SMILES CC(=O)CCC=C(C)CCC=C(C)CCC=C(C)C
REMARK SMILES IDX 10 1 11 2 12 3 13 4 14 5 15 6 16 7 18 8 17 9 19 10 9 11 7 12
REMARK SMILES IDX 6 13 8 14 5 15 4 16 2 17 3 18 1 19
REMARK H PARENT
REMARK Flexibility Score: inf
ROOT
ATOM      1  C   UNL     1     137.057 136.917 112.620  1.00  0.00     0.032 C 
ENDROOT
BRANCH   1   2
ATOM      2  C   UNL     1     136.098 135.775 112.845  1.00  0.00    -0.028 C 
ATOM      3  C   UNL     1     134.753 135.871 112.725  1.00  0.00    -0.077 C 
ATOM      4  C   UNL     1     134.081 137.154 112.292  1.00  0.00     0.039 C 
BRANCH   3   5
ATOM      5  C   UNL     1     133.900 134.654 113.014  1.00  0.00     0.034 C 
BRANCH   5   6
ATOM      6  C   UNL     1     133.167 134.773 114.358  1.00  0.00     0.032 C 
BRANCH   6   7
ATOM      7  C   UNL     1     134.009 134.257 115.502  1.00  0.00    -0.028 C 
ATOM      8  C   UNL     1     135.405 134.374 117.520  1.00  0.00     0.039 C 
ATOM      9  C   UNL     1     134.645 135.040 116.401  1.00  0.00    -0.080 C 
ATOM     10  C   UNL     1     134.629 136.547 116.305  1.00  0.00     0.039 C 
ENDBRANCH   6   7
ENDBRANCH   5   6
ENDBRANCH   3   5
ENDBRANCH   1   2
BRANCH   1  11
ATOM     11  C   UNL     1     137.601 137.440 113.953  1.00  0.00     0.034 C 
BRANCH  11  12
ATOM     12  C   UNL     1     138.460 138.668 113.739  1.00  0.00    -0.077 C 
ATOM     13  C   UNL     1     138.743 139.464 114.795  1.00  0.00    -0.028 C 
ATOM     14  C   UNL     1     138.992 138.958 112.355  1.00  0.00     0.039 C 
BRANCH  13  15
ATOM     15  C   UNL     1     139.555 140.733 114.714  1.00  0.00     0.035 C 
BRANCH  15  16
ATOM     16  C   UNL     1     140.351 140.950 116.005  1.00  0.00     0.079 C 
BRANCH  16  17
ATOM     17  C   UNL     1     141.703 140.297 115.913  1.00  0.00     0.130 C 
ATOM     18  O   UNL     1     142.152 139.692 116.874  1.00  0.00    -0.300 OA
ATOM     19  C   UNL     1     142.513 140.403 114.656  1.00  0.00     0.087 C 
ENDBRANCH  16  17
ENDBRANCH  15  16
ENDBRANCH  13  15
ENDBRANCH  11  12
ENDBRANCH   1  11
TORSDOF 9
ENDMDL
