MODEL 1
REMARK VINA RESULT:    -6.917      0.000      0.000
REMARK INTER + INTRA:          -8.396
REMARK INTER:                  -8.130
REMARK INTRA:                  -0.266
REMARK UNBOUND:                -0.266
REMARK SMILES O=c1cc(-c2ccc(O)c(O)c2)oc2cc(O)cc(O)c12
REMARK SMILES IDX 4 1 3 2 2 3 1 4 21 5 19 6 18 7 16 8 15 9 14 10 13 11 5 12
REMARK SMILES IDX 6 13 7 14 8 15 12 16 10 17 9 18 11 20 20 22 17 24
REMARK H PARENT 9 19 11 21 20 23 17 25
REMARK Flexibility Score: inf
ROOT
ATOM      1  C   UNL     1      31.024 -92.119  37.658  1.00  0.00     0.138 A 
ATOM      2  C   UNL     1      29.803 -92.730  37.344  1.00  0.00     0.100 A 
ATOM      3  C   UNL     1      29.667 -94.112  37.482  1.00  0.00     0.197 A 
ATOM      4  O   UNL     1      28.541 -94.624  37.251  1.00  0.00    -0.289 OA
ATOM      5  C   UNL     1      30.771 -94.888  37.906  1.00  0.00     0.107 A 
ATOM      6  C   UNL     1      30.760 -96.309  38.044  1.00  0.00     0.134 A 
ATOM      7  C   UNL     1      31.877 -96.958  38.585  1.00  0.00     0.093 A 
ATOM      8  C   UNL     1      33.026 -96.244  38.936  1.00  0.00     0.123 A 
ATOM      9  C   UNL     1      33.065 -94.864  38.756  1.00  0.00     0.094 A 
ATOM     10  C   UNL     1      31.954 -94.183  38.252  1.00  0.00     0.146 A 
ATOM     11  O   UNL     1      32.028 -92.864  38.108  1.00  0.00    -0.456 OA
ENDROOT
BRANCH   1  12
ATOM     12  C   UNL     1      31.224 -90.653  37.528  1.00  0.00     0.021 A 
ATOM     13  C   UNL     1      32.103 -90.160  36.552  1.00  0.00     0.016 A 
ATOM     14  C   UNL     1      32.303 -88.786  36.406  1.00  0.00     0.051 A 
ATOM     15  C   UNL     1      31.625 -87.875  37.221  1.00  0.00     0.157 A 
ATOM     16  C   UNL     1      30.530 -89.737  38.339  1.00  0.00     0.062 A 
ATOM     17  C   UNL     1      30.722 -88.356  38.197  1.00  0.00     0.158 A 
BRANCH  15  18
ATOM     18  O   UNL     1      31.874 -86.515  37.027  1.00  0.00    -0.504 OA
ATOM     19  H   UNL     1      31.156 -85.830  36.838  1.00  0.00     0.293 HD
ENDBRANCH  15  18
BRANCH  17  20
ATOM     20  O   UNL     1      29.997 -87.508  39.036  1.00  0.00    -0.504 OA
ATOM     21  H   UNL     1      30.404 -86.983  39.797  1.00  0.00     0.293 HD
ENDBRANCH  17  20
ENDBRANCH   1  12
BRANCH   6  22
ATOM     22  O   UNL     1      29.697 -97.125  37.645  1.00  0.00    -0.507 OA
ATOM     23  H   UNL     1      28.990 -97.494  38.262  1.00  0.00     0.293 HD
ENDBRANCH   6  22
BRANCH   8  24
ATOM     24  O   UNL     1      34.138 -96.901  39.460  1.00  0.00    -0.508 OA
ATOM     25  H   UNL     1      34.063 -97.509  40.267  1.00  0.00     0.293 HD
ENDBRANCH   8  24
TORSDOF 5
ENDMDL
MODEL 2
REMARK VINA RESULT:    -6.786      1.212      2.794
REMARK INTER + INTRA:          -8.242
REMARK INTER:                  -7.971
REMARK INTRA:                  -0.271
REMARK UNBOUND:                -0.266
REMARK SMILES O=c1cc(-c2ccc(O)c(O)c2)oc2cc(O)cc(O)c12
REMARK SMILES IDX 4 1 3 2 2 3 1 4 21 5 19 6 18 7 16 8 15 9 14 10 13 11 5 12
REMARK SMILES IDX 6 13 7 14 8 15 12 16 10 17 9 18 11 20 20 22 17 24
REMARK H PARENT 9 19 11 21 20 23 17 25
REMARK Flexibility Score: inf
ROOT
ATOM      1  C   UNL     1      31.190 -92.075  37.744  1.00  0.00     0.138 A 
ATOM      2  C   UNL     1      32.230 -92.867  38.251  1.00  0.00     0.100 A 
ATOM      3  C   UNL     1      32.036 -94.239  38.415  1.00  0.00     0.197 A 
ATOM      4  O   UNL     1      33.007 -94.933  38.812  1.00  0.00    -0.289 OA
ATOM      5  C   UNL     1      30.782 -94.814  38.100  1.00  0.00     0.107 A 
ATOM      6  C   UNL     1      30.457 -96.194  38.265  1.00  0.00     0.134 A 
ATOM      7  C   UNL     1      29.222 -96.671  37.809  1.00  0.00     0.093 A 
ATOM      8  C   UNL     1      28.277 -95.807  37.250  1.00  0.00     0.123 A 
ATOM      9  C   UNL     1      28.564 -94.449  37.133  1.00  0.00     0.094 A 
ATOM     10  C   UNL     1      29.802 -93.949  37.546  1.00  0.00     0.146 A 
ATOM     11  O   UNL     1      30.041 -92.649  37.404  1.00  0.00    -0.456 OA
ENDROOT
BRANCH   1  12
ATOM     12  C   UNL     1      31.343 -90.611  37.551  1.00  0.00     0.021 A 
ATOM     13  C   UNL     1      32.219 -90.132  36.564  1.00  0.00     0.016 A 
ATOM     14  C   UNL     1      32.375 -88.760  36.359  1.00  0.00     0.051 A 
ATOM     15  C   UNL     1      31.655 -87.837  37.124  1.00  0.00     0.157 A 
ATOM     16  C   UNL     1      30.607 -89.683  38.311  1.00  0.00     0.062 A 
ATOM     17  C   UNL     1      30.755 -88.304  38.109  1.00  0.00     0.158 A 
BRANCH  15  18
ATOM     18  O   UNL     1      31.862 -86.479  36.872  1.00  0.00    -0.504 OA
ATOM     19  H   UNL     1      31.377 -85.957  36.156  1.00  0.00     0.293 HD
ENDBRANCH  15  18
BRANCH  17  20
ATOM     20  O   UNL     1      29.991 -87.445  38.900  1.00  0.00    -0.504 OA
ATOM     21  H   UNL     1      30.282 -87.099  39.803  1.00  0.00     0.293 HD
ENDBRANCH  17  20
ENDBRANCH   1  12
BRANCH   6  22
ATOM     22  O   UNL     1      31.294 -97.125  38.888  1.00  0.00    -0.507 OA
ATOM     23  H   UNL     1      31.931 -96.914  39.641  1.00  0.00     0.293 HD
ENDBRANCH   6  22
BRANCH   8  24
ATOM     24  O   UNL     1      27.045 -96.289  36.813  1.00  0.00    -0.508 OA
ATOM     25  H   UNL     1      26.400 -95.702  36.297  1.00  0.00     0.293 HD
ENDBRANCH   8  24
TORSDOF 5
ENDMDL
MODEL 3
REMARK VINA RESULT:    -5.750      9.271     10.834
REMARK INTER + INTRA:          -7.025
REMARK INTER:                  -6.746
REMARK INTRA:                  -0.279
REMARK UNBOUND:                -0.266
REMARK SMILES O=c1cc(-c2ccc(O)c(O)c2)oc2cc(O)cc(O)c12
REMARK SMILES IDX 4 1 3 2 2 3 1 4 21 5 19 6 18 7 16 8 15 9 14 10 13 11 5 12
REMARK SMILES IDX 6 13 7 14 8 15 12 16 10 17 9 18 11 20 20 22 17 24
REMARK H PARENT 9 19 11 21 20 23 17 25
REMARK Flexibility Score: inf
ROOT
ATOM      1  C   UNL     1      37.426 -95.152  31.016  1.00  0.00     0.138 A 
ATOM      2  C   UNL     1      38.084 -95.744  29.928  1.00  0.00     0.100 A 
ATOM      3  C   UNL     1      37.418 -95.879  28.709  1.00  0.00     0.197 A 
ATOM      4  O   UNL     1      38.054 -96.357  27.735  1.00  0.00    -0.289 OA
ATOM      5  C   UNL     1      36.076 -95.447  28.590  1.00  0.00     0.107 A 
ATOM      6  C   UNL     1      35.285 -95.571  27.408  1.00  0.00     0.134 A 
ATOM      7  C   UNL     1      34.006 -95.001  27.371  1.00  0.00     0.093 A 
ATOM      8  C   UNL     1      33.467 -94.366  28.493  1.00  0.00     0.123 A 
ATOM      9  C   UNL     1      34.211 -94.286  29.668  1.00  0.00     0.094 A 
ATOM     10  C   UNL     1      35.503 -94.814  29.725  1.00  0.00     0.146 A 
ATOM     11  O   UNL     1      36.185 -94.705  30.861  1.00  0.00    -0.456 OA
ENDROOT
BRANCH   1  12
ATOM     12  C   UNL     1      38.087 -94.985  32.335  1.00  0.00     0.021 A 
ATOM     13  C   UNL     1      39.274 -94.241  32.423  1.00  0.00     0.016 A 
ATOM     14  C   UNL     1      39.911 -94.065  33.653  1.00  0.00     0.051 A 
ATOM     15  C   UNL     1      39.375 -94.616  34.821  1.00  0.00     0.157 A 
ATOM     16  C   UNL     1      37.539 -95.529  33.512  1.00  0.00     0.062 A 
ATOM     17  C   UNL     1      38.170 -95.353  34.750  1.00  0.00     0.158 A 
BRANCH  15  18
ATOM     18  O   UNL     1      40.064 -94.407  36.017  1.00  0.00    -0.504 OA
ATOM     19  H   UNL     1      40.865 -93.799  36.109  1.00  0.00     0.293 HD
ENDBRANCH  15  18
BRANCH  17  20
ATOM     20  O   UNL     1      37.566 -95.919  35.874  1.00  0.00    -0.504 OA
ATOM     21  H   UNL     1      37.445 -95.438  36.754  1.00  0.00     0.293 HD
ENDBRANCH  17  20
ENDBRANCH   1  12
BRANCH   6  22
ATOM     22  O   UNL     1      35.695 -96.260  26.262  1.00  0.00    -0.507 OA
ATOM     23  H   UNL     1      35.073 -96.631  25.560  1.00  0.00     0.293 HD
ENDBRANCH   6  22
BRANCH   8  24
ATOM     24  O   UNL     1      32.188 -93.815  28.451  1.00  0.00    -0.508 OA
ATOM     25  H   UNL     1      31.546 -94.022  27.695  1.00  0.00     0.293 HD
ENDBRANCH   8  24
TORSDOF 5
ENDMDL
MODEL 4
REMARK VINA RESULT:    -5.555      8.830     11.002
REMARK INTER + INTRA:          -6.795
REMARK INTER:                  -6.479
REMARK INTRA:                  -0.316
REMARK UNBOUND:                -0.266
REMARK SMILES O=c1cc(-c2ccc(O)c(O)c2)oc2cc(O)cc(O)c12
REMARK SMILES IDX 4 1 3 2 2 3 1 4 21 5 19 6 18 7 16 8 15 9 14 10 13 11 5 12
REMARK SMILES IDX 6 13 7 14 8 15 12 16 10 17 9 18 11 20 20 22 17 24
REMARK H PARENT 9 19 11 21 20 23 17 25
REMARK Flexibility Score: inf
ROOT
ATOM      1  C   UNL     1      40.594 -94.970  35.714  1.00  0.00     0.138 A 
ATOM      2  C   UNL     1      41.725 -95.170  34.911  1.00  0.00     0.100 A 
ATOM      3  C   UNL     1      41.588 -95.209  33.523  1.00  0.00     0.197 A 
ATOM      4  O   UNL     1      42.628 -95.328  32.826  1.00  0.00    -0.289 OA
ATOM      5  C   UNL     1      40.305 -95.078  32.939  1.00  0.00     0.107 A 
ATOM      6  C   UNL     1      40.040 -95.142  31.538  1.00  0.00     0.134 A 
ATOM      7  C   UNL     1      38.747 -94.881  31.068  1.00  0.00     0.093 A 
ATOM      8  C   UNL     1      37.698 -94.619  31.953  1.00  0.00     0.123 A 
ATOM      9  C   UNL     1      37.936 -94.607  33.325  1.00  0.00     0.094 A 
ATOM     10  C   UNL     1      39.222 -94.828  33.823  1.00  0.00     0.146 A 
ATOM     11  O   UNL     1      39.409 -94.794  35.138  1.00  0.00    -0.456 OA
ENDROOT
BRANCH   1  12
ATOM     12  C   UNL     1      40.683 -94.921  37.195  1.00  0.00     0.021 A 
ATOM     13  C   UNL     1      41.871 -95.319  37.829  1.00  0.00     0.016 A 
ATOM     14  C   UNL     1      41.982 -95.277  39.220  1.00  0.00     0.051 A 
ATOM     15  C   UNL     1      40.917 -94.829  40.008  1.00  0.00     0.157 A 
ATOM     16  C   UNL     1      39.616 -94.457  37.987  1.00  0.00     0.062 A 
ATOM     17  C   UNL     1      39.720 -94.408  39.383  1.00  0.00     0.158 A 
BRANCH  15  18
ATOM     18  O   UNL     1      41.091 -94.817  41.394  1.00  0.00    -0.504 OA
ATOM     19  H   UNL     1      40.661 -95.480  42.023  1.00  0.00     0.293 HD
ENDBRANCH  15  18
BRANCH  17  20
ATOM     20  O   UNL     1      38.622 -93.935  40.102  1.00  0.00    -0.504 OA
ATOM     21  H   UNL     1      37.913 -94.529  40.508  1.00  0.00     0.293 HD
ENDBRANCH  17  20
ENDBRANCH   1  12
BRANCH   6  22
ATOM     22  O   UNL     1      40.997 -95.479  30.576  1.00  0.00    -0.507 OA
ATOM     23  H   UNL     1      40.970 -95.191  29.610  1.00  0.00     0.293 HD
ENDBRANCH   6  22
BRANCH   8  24
ATOM     24  O   UNL     1      36.411 -94.375  31.476  1.00  0.00    -0.508 OA
ATOM     25  H   UNL     1      36.005 -93.448  31.499  1.00  0.00     0.293 HD
ENDBRANCH   8  24
TORSDOF 5
ENDMDL
MODEL 5
REMARK VINA RESULT:    -5.537     10.013     11.484
REMARK INTER + INTRA:          -6.774
REMARK INTER:                  -6.461
REMARK INTRA:                  -0.313
REMARK UNBOUND:                -0.266
REMARK SMILES O=c1cc(-c2ccc(O)c(O)c2)oc2cc(O)cc(O)c12
REMARK SMILES IDX 4 1 3 2 2 3 1 4 21 5 19 6 18 7 16 8 15 9 14 10 13 11 5 12
REMARK SMILES IDX 6 13 7 14 8 15 12 16 10 17 9 18 11 20 20 22 17 24
REMARK H PARENT 9 19 11 21 20 23 17 25
REMARK Flexibility Score: inf
ROOT
ATOM      1  C   UNL     1      39.170 -95.256  31.214  1.00  0.00     0.138 A 
ATOM      2  C   UNL     1      39.638 -95.623  29.945  1.00  0.00     0.100 A 
ATOM      3  C   UNL     1      38.731 -95.806  28.901  1.00  0.00     0.197 A 
ATOM      4  O   UNL     1      39.185 -96.074  27.758  1.00  0.00    -0.289 OA
ATOM      5  C   UNL     1      37.345 -95.651  29.139  1.00  0.00     0.107 A 
ATOM      6  C   UNL     1      36.325 -95.852  28.161  1.00  0.00     0.134 A 
ATOM      7  C   UNL     1      34.994 -95.556  28.481  1.00  0.00     0.093 A 
ATOM      8  C   UNL     1      34.640 -95.125  29.761  1.00  0.00     0.123 A 
ATOM      9  C   UNL     1      35.621 -94.976  30.739  1.00  0.00     0.094 A 
ATOM     10  C   UNL     1      36.962 -95.230  30.440  1.00  0.00     0.146 A 
ATOM     11  O   UNL     1      37.869 -95.063  31.397  1.00  0.00    -0.456 OA
ENDROOT
BRANCH   1  12
ATOM     12  C   UNL     1      40.092 -95.049  32.360  1.00  0.00     0.021 A 
ATOM     13  C   UNL     1      41.382 -95.601  32.316  1.00  0.00     0.016 A 
ATOM     14  C   UNL     1      42.269 -95.416  33.378  1.00  0.00     0.051 A 
ATOM     15  C   UNL     1      41.895 -94.670  34.500  1.00  0.00     0.157 A 
ATOM     16  C   UNL     1      39.720 -94.286  33.482  1.00  0.00     0.062 A 
ATOM     17  C   UNL     1      40.605 -94.093  34.550  1.00  0.00     0.158 A 
BRANCH  15  18
ATOM     18  O   UNL     1      42.827 -94.528  35.530  1.00  0.00    -0.504 OA
ATOM     19  H   UNL     1      42.582 -94.442  36.505  1.00  0.00     0.293 HD
ENDBRANCH  15  18
BRANCH  17  20
ATOM     20  O   UNL     1      40.166 -93.323  35.628  1.00  0.00    -0.504 OA
ATOM     21  H   UNL     1      40.365 -92.338  35.738  1.00  0.00     0.293 HD
ENDBRANCH  17  20
ENDBRANCH   1  12
BRANCH   6  22
ATOM     22  O   UNL     1      36.560 -96.360  26.879  1.00  0.00    -0.507 OA
ATOM     23  H   UNL     1      37.222 -97.090  26.661  1.00  0.00     0.293 HD
ENDBRANCH   6  22
BRANCH   8  24
ATOM     24  O   UNL     1      33.310 -94.846  30.074  1.00  0.00    -0.508 OA
ATOM     25  H   UNL     1      32.600 -94.776  29.356  1.00  0.00     0.293 HD
ENDBRANCH   8  24
TORSDOF 5
ENDMDL
MODEL 6
REMARK VINA RESULT:    -5.509      9.809     11.036
REMARK INTER + INTRA:          -6.742
REMARK INTER:                  -6.425
REMARK INTRA:                  -0.317
REMARK UNBOUND:                -0.266
REMARK SMILES O=c1cc(-c2ccc(O)c(O)c2)oc2cc(O)cc(O)c12
REMARK SMILES IDX 4 1 3 2 2 3 1 4 21 5 19 6 18 7 16 8 15 9 14 10 13 11 5 12
REMARK SMILES IDX 6 13 7 14 8 15 12 16 10 17 9 18 11 20 20 22 17 24
REMARK H PARENT 9 19 11 21 20 23 17 25
REMARK Flexibility Score: inf
ROOT
ATOM      1  C   UNL     1      36.019 -95.204  29.211  1.00  0.00     0.138 A 
ATOM      2  C   UNL     1      37.135 -95.605  28.464  1.00  0.00     0.100 A 
ATOM      3  C   UNL     1      38.397 -95.613  29.059  1.00  0.00     0.197 A 
ATOM      4  O   UNL     1      39.371 -96.037  28.384  1.00  0.00    -0.289 OA
ATOM      5  C   UNL     1      38.545 -95.186  30.400  1.00  0.00     0.107 A 
ATOM      6  C   UNL     1      39.788 -95.113  31.097  1.00  0.00     0.134 A 
ATOM      7  C   UNL     1      39.797 -94.786  32.460  1.00  0.00     0.093 A 
ATOM      8  C   UNL     1      38.615 -94.471  33.133  1.00  0.00     0.123 A 
ATOM      9  C   UNL     1      37.402 -94.487  32.448  1.00  0.00     0.094 A 
ATOM     10  C   UNL     1      37.356 -94.844  31.098  1.00  0.00     0.146 A 
ATOM     11  O   UNL     1      36.177 -94.861  30.485  1.00  0.00    -0.456 OA
ENDROOT
BRANCH   1  12
ATOM     12  C   UNL     1      34.654 -95.176  28.627  1.00  0.00     0.021 A 
ATOM     13  C   UNL     1      34.491 -95.360  27.245  1.00  0.00     0.016 A 
ATOM     14  C   UNL     1      33.218 -95.344  26.672  1.00  0.00     0.051 A 
ATOM     15  C   UNL     1      32.081 -95.155  27.464  1.00  0.00     0.157 A 
ATOM     16  C   UNL     1      33.510 -95.000  29.426  1.00  0.00     0.062 A 
ATOM     17  C   UNL     1      32.228 -94.986  28.861  1.00  0.00     0.158 A 
BRANCH  15  18
ATOM     18  O   UNL     1      30.837 -95.144  26.829  1.00  0.00    -0.504 OA
ATOM     19  H   UNL     1      30.001 -95.555  27.217  1.00  0.00     0.293 HD
ENDBRANCH  15  18
BRANCH  17  20
ATOM     20  O   UNL     1      31.140 -94.808  29.717  1.00  0.00    -0.504 OA
ATOM     21  H   UNL     1      31.033 -94.020  30.339  1.00  0.00     0.293 HD
ENDBRANCH  17  20
ENDBRANCH   1  12
BRANCH   6  22
ATOM     22  O   UNL     1      41.034 -95.326  30.498  1.00  0.00    -0.507 OA
ATOM     23  H   UNL     1      41.871 -95.597  30.991  1.00  0.00     0.293 HD
ENDBRANCH   6  22
BRANCH   8  24
ATOM     24  O   UNL     1      38.636 -94.133  34.485  1.00  0.00    -0.508 OA
ATOM     25  H   UNL     1      38.192 -94.716  35.184  1.00  0.00     0.293 HD
ENDBRANCH   8  24
TORSDOF 5
ENDMDL
MODEL 7
REMARK VINA RESULT:    -5.507      8.439     10.418
REMARK INTER + INTRA:          -6.739
REMARK INTER:                  -6.424
REMARK INTRA:                  -0.315
REMARK UNBOUND:                -0.266
REMARK SMILES O=c1cc(-c2ccc(O)c(O)c2)oc2cc(O)cc(O)c12
REMARK SMILES IDX 4 1 3 2 2 3 1 4 21 5 19 6 18 7 16 8 15 9 14 10 13 11 5 12
REMARK SMILES IDX 6 13 7 14 8 15 12 16 10 17 9 18 11 20 20 22 17 24
REMARK H PARENT 9 19 11 21 20 23 17 25
REMARK Flexibility Score: inf
ROOT
ATOM      1  C   UNL     1      39.529 -94.953  33.957  1.00  0.00     0.138 A 
ATOM      2  C   UNL     1      40.910 -94.739  34.066  1.00  0.00     0.100 A 
ATOM      3  C   UNL     1      41.500 -94.663  35.328  1.00  0.00     0.197 A 
ATOM      4  O   UNL     1      42.749 -94.533  35.394  1.00  0.00    -0.289 OA
ATOM      5  C   UNL     1      40.695 -94.769  36.488  1.00  0.00     0.107 A 
ATOM      6  C   UNL     1      41.180 -94.666  37.826  1.00  0.00     0.134 A 
ATOM      7  C   UNL     1      40.308 -94.904  38.896  1.00  0.00     0.093 A 
ATOM      8  C   UNL     1      38.957 -95.181  38.676  1.00  0.00     0.123 A 
ATOM      9  C   UNL     1      38.462 -95.232  37.375  1.00  0.00     0.094 A 
ATOM     10  C   UNL     1      39.314 -95.034  36.286  1.00  0.00     0.146 A 
ATOM     11  O   UNL     1      38.805 -95.104  35.060  1.00  0.00    -0.456 OA
ENDROOT
BRANCH   1  12
ATOM     12  C   UNL     1      38.852 -95.041  32.639  1.00  0.00     0.021 A 
ATOM     13  C   UNL     1      39.617 -95.257  31.482  1.00  0.00     0.016 A 
ATOM     14  C   UNL     1      39.002 -95.350  30.232  1.00  0.00     0.051 A 
ATOM     15  C   UNL     1      37.614 -95.240  30.108  1.00  0.00     0.157 A 
ATOM     16  C   UNL     1      37.453 -94.944  32.517  1.00  0.00     0.062 A 
ATOM     17  C   UNL     1      36.828 -95.040  31.267  1.00  0.00     0.158 A 
BRANCH  15  18
ATOM     18  O   UNL     1      37.063 -95.336  28.829  1.00  0.00    -0.504 OA
ATOM     19  H   UNL     1      36.848 -94.541  28.245  1.00  0.00     0.293 HD
ENDBRANCH  15  18
BRANCH  17  20
ATOM     20  O   UNL     1      35.437 -94.936  31.225  1.00  0.00    -0.504 OA
ATOM     21  H   UNL     1      34.939 -94.201  30.742  1.00  0.00     0.293 HD
ENDBRANCH  17  20
ENDBRANCH   1  12
BRANCH   6  22
ATOM     22  O   UNL     1      42.491 -94.310  38.156  1.00  0.00    -0.507 OA
ATOM     23  H   UNL     1      43.280 -94.372  37.531  1.00  0.00     0.293 HD
ENDBRANCH   6  22
BRANCH   8  24
ATOM     24  O   UNL     1      38.094 -95.402  39.749  1.00  0.00    -0.508 OA
ATOM     25  H   UNL     1      37.403 -96.143  39.729  1.00  0.00     0.293 HD
ENDBRANCH   8  24
TORSDOF 5
ENDMDL
MODEL 8
REMARK VINA RESULT:    -5.427     15.028     16.350
REMARK INTER + INTRA:          -6.644
REMARK INTER:                  -6.328
REMARK INTRA:                  -0.317
REMARK UNBOUND:                -0.266
REMARK SMILES O=c1cc(-c2ccc(O)c(O)c2)oc2cc(O)cc(O)c12
REMARK SMILES IDX 4 1 3 2 2 3 1 4 21 5 19 6 18 7 16 8 15 9 14 10 13 11 5 12
REMARK SMILES IDX 6 13 7 14 8 15 12 16 10 17 9 18 11 20 20 22 17 24
REMARK H PARENT 9 19 11 21 20 23 17 25
REMARK Flexibility Score: inf
ROOT
ATOM      1  C   UNL     1      37.010 -77.849  37.403  1.00  0.00     0.138 A 
ATOM      2  C   UNL     1      38.167 -77.427  36.733  1.00  0.00     0.100 A 
ATOM      3  C   UNL     1      39.408 -77.544  37.358  1.00  0.00     0.197 A 
ATOM      4  O   UNL     1      40.434 -77.215  36.708  1.00  0.00    -0.289 OA
ATOM      5  C   UNL     1      39.487 -78.057  38.675  1.00  0.00     0.107 A 
ATOM      6  C   UNL     1      40.694 -78.184  39.426  1.00  0.00     0.134 A 
ATOM      7  C   UNL     1      40.665 -78.814  40.677  1.00  0.00     0.093 A 
ATOM      8  C   UNL     1      39.464 -79.266  41.228  1.00  0.00     0.123 A 
ATOM      9  C   UNL     1      38.273 -79.099  40.525  1.00  0.00     0.094 A 
ATOM     10  C   UNL     1      38.274 -78.506  39.261  1.00  0.00     0.146 A 
ATOM     11  O   UNL     1      37.118 -78.378  38.617  1.00  0.00    -0.456 OA
ENDROOT
BRANCH   1  12
ATOM     12  C   UNL     1      35.664 -77.746  36.785  1.00  0.00     0.021 A 
ATOM     13  C   UNL     1      35.552 -77.402  35.429  1.00  0.00     0.016 A 
ATOM     14  C   UNL     1      34.298 -77.305  34.823  1.00  0.00     0.051 A 
ATOM     15  C   UNL     1      33.131 -77.558  35.551  1.00  0.00     0.157 A 
ATOM     16  C   UNL     1      34.491 -78.015  37.515  1.00  0.00     0.062 A 
ATOM     17  C   UNL     1      33.229 -77.923  36.914  1.00  0.00     0.158 A 
BRANCH  15  18
ATOM     18  O   UNL     1      31.908 -77.438  34.887  1.00  0.00    -0.504 OA
ATOM     19  H   UNL     1      31.813 -77.129  33.930  1.00  0.00     0.293 HD
ENDBRANCH  15  18
BRANCH  17  20
ATOM     20  O   UNL     1      32.111 -78.206  37.700  1.00  0.00    -0.504 OA
ATOM     21  H   UNL     1      32.137 -78.770  38.537  1.00  0.00     0.293 HD
ENDBRANCH  17  20
ENDBRANCH   1  12
BRANCH   6  22
ATOM     22  O   UNL     1      41.933 -77.689  39.005  1.00  0.00    -0.507 OA
ATOM     23  H   UNL     1      42.660 -78.244  38.579  1.00  0.00     0.293 HD
ENDBRANCH   6  22
BRANCH   8  24
ATOM     24  O   UNL     1      39.443 -79.879  42.480  1.00  0.00    -0.508 OA
ATOM     25  H   UNL     1      40.005 -80.698  42.678  1.00  0.00     0.293 HD
ENDBRANCH   8  24
TORSDOF 5
ENDMDL
MODEL 9
REMARK VINA RESULT:    -5.170     10.455     12.033
REMARK INTER + INTRA:          -6.343
REMARK INTER:                  -6.046
REMARK INTRA:                  -0.297
REMARK UNBOUND:                -0.266
REMARK SMILES O=c1cc(-c2ccc(O)c(O)c2)oc2cc(O)cc(O)c12
REMARK SMILES IDX 4 1 3 2 2 3 1 4 21 5 19 6 18 7 16 8 15 9 14 10 13 11 5 12
REMARK SMILES IDX 6 13 7 14 8 15 12 16 10 17 9 18 11 20 20 22 17 24
REMARK H PARENT 9 19 11 21 20 23 17 25
REMARK Flexibility Score: inf
ROOT
ATOM      1  C   UNL     1      40.202 -94.952  32.656  1.00  0.00     0.138 A 
ATOM      2  C   UNL     1      38.832 -94.856  32.376  1.00  0.00     0.100 A 
ATOM      3  C   UNL     1      38.386 -94.979  31.060  1.00  0.00     0.197 A 
ATOM      4  O   UNL     1      37.146 -94.951  30.848  1.00  0.00    -0.289 OA
ATOM      5  C   UNL     1      39.321 -95.167  30.015  1.00  0.00     0.107 A 
ATOM      6  C   UNL     1      38.985 -95.265  28.632  1.00  0.00     0.134 A 
ATOM      7  C   UNL     1      39.984 -95.568  27.698  1.00  0.00     0.093 A 
ATOM      8  C   UNL     1      41.316 -95.716  28.092  1.00  0.00     0.123 A 
ATOM      9  C   UNL     1      41.663 -95.570  29.433  1.00  0.00     0.094 A 
ATOM     10  C   UNL     1      40.684 -95.303  30.392  1.00  0.00     0.146 A 
ATOM     11  O   UNL     1      41.054 -95.184  31.663  1.00  0.00    -0.456 OA
ENDROOT
BRANCH   1  12
ATOM     12  C   UNL     1      40.731 -94.828  34.038  1.00  0.00     0.021 A 
ATOM     13  C   UNL     1      42.106 -94.990  34.268  1.00  0.00     0.016 A 
ATOM     14  C   UNL     1      42.628 -94.872  35.557  1.00  0.00     0.051 A 
ATOM     15  C   UNL     1      41.795 -94.579  36.642  1.00  0.00     0.157 A 
ATOM     16  C   UNL     1      39.894 -94.519  35.126  1.00  0.00     0.062 A 
ATOM     17  C   UNL     1      40.410 -94.394  36.422  1.00  0.00     0.158 A 
BRANCH  15  18
ATOM     18  O   UNL     1      42.380 -94.480  37.906  1.00  0.00    -0.504 OA
ATOM     19  H   UNL     1      43.376 -94.507  38.071  1.00  0.00     0.293 HD
ENDBRANCH  15  18
BRANCH  17  20
ATOM     20  O   UNL     1      39.520 -94.084  37.451  1.00  0.00    -0.504 OA
ATOM     21  H   UNL     1      39.509 -93.203  37.944  1.00  0.00     0.293 HD
ENDBRANCH  17  20
ENDBRANCH   1  12
BRANCH   6  22
ATOM     22  O   UNL     1      37.700 -95.050  28.122  1.00  0.00    -0.507 OA
ATOM     23  H   UNL     1      37.151 -95.741  27.634  1.00  0.00     0.293 HD
ENDBRANCH   6  22
BRANCH   8  24
ATOM     24  O   UNL     1      42.306 -96.003  27.154  1.00  0.00    -0.508 OA
ATOM     25  H   UNL     1      43.276 -95.757  27.314  1.00  0.00     0.293 HD
ENDBRANCH   8  24
TORSDOF 5
ENDMDL
