MODEL 1
REMARK VINA RESULT:    -4.194      0.000      0.000
REMARK INTER + INTRA:          -6.798
REMARK INTER:                  -6.401
REMARK INTRA:                  -0.396
REMARK UNBOUND:                -0.396
REMARK SMILES CC1=CCC[C@H](C)C(=O)C[C@H](C(C)C)C(=O)C1
REMARK SMILES IDX 8 1 9 2 6 3 7 4 5 5 4 6 3 7 2 8 1 9 10 11 11 12 15 13 16 14
REMARK SMILES IDX 17 15 12 17 13 18 14 19
REMARK H PARENT
REMARK Flexibility Score: 70.00
ROOT
ATOM      1  C   UNL     1      16.701 -32.133  23.876  1.00  0.00     0.136 C 
ATOM      2  O   UNL     1      17.207 -31.019  23.862  1.00  0.00    -0.299 OA
ENDROOT
BRANCH   1   3
ATOM      3  C   UNL     1      17.490 -33.315  24.396  1.00  0.00     0.053 C 
ATOM      4  C   UNL     1      16.522 -34.430  24.804  1.00  0.00     0.016 C 
BRANCH   3   5
ATOM      5  C   UNL     1      18.516 -33.845  23.367  1.00  0.00     0.015 C 
BRANCH   5   6
ATOM      6  C   UNL     1      18.033 -35.086  22.591  1.00  0.00     0.028 C 
BRANCH   6   7
ATOM      7  C   UNL     1      17.890 -34.800  21.112  1.00  0.00    -0.028 C 
ATOM      8  C   UNL     1      16.754 -34.441  20.469  1.00  0.00    -0.070 CG0
ATOM      9  C   UNL     1      16.841 -34.167  18.988  1.00  0.00     0.039 C 
ATOM     10  G   UNL     1      15.395 -34.371  21.133  1.00  0.00     0.000 G0
ENDBRANCH   6   7
ENDBRANCH   5   6
ENDBRANCH   3   5
ENDBRANCH   1   3
BRANCH   1  11
ATOM     11  C   UNL     1      15.298 -32.317  23.347  1.00  0.00     0.087 C 
BRANCH  11  12
ATOM     12  C   UNL     1      15.166 -31.855  21.879  1.00  0.00     0.066 C 
BRANCH  12  13
ATOM     13  C   UNL     1      14.760 -33.012  20.986  1.00  0.00     0.140 C 
ATOM     14  O   UNL     1      13.891 -32.854  20.140  1.00  0.00    -0.299 OA
BRANCH  13  15
ATOM     15  C   UNL     1      15.375 -34.375  21.149  1.00  0.00     0.106 CG0
ATOM     16  G   UNL     1      16.738 -34.412  20.490  1.00  0.00     0.000 G0
ENDBRANCH  13  15
ENDBRANCH  12  13
BRANCH  12  17
ATOM     17  C   UNL     1      14.233 -30.615  21.729  1.00  0.00    -0.006 C 
ATOM     18  C   UNL     1      14.975 -29.271  21.623  1.00  0.00     0.008 C 
ATOM     19  C   UNL     1      13.202 -30.557  22.867  1.00  0.00     0.008 C 
ENDBRANCH  12  17
ENDBRANCH  11  12
ENDBRANCH   1  11
TORSDOF 1
ENDMDL
MODEL 2
REMARK VINA RESULT:    -4.177      2.132      4.916
REMARK INTER + INTRA:          -6.771
REMARK INTER:                  -6.560
REMARK INTRA:                  -0.211
REMARK UNBOUND:                -0.396
REMARK SMILES CC1=CCC[C@H](C)C(=O)C[C@H](C(C)C)C(=O)C1
REMARK SMILES IDX 8 1 9 2 6 3 7 4 5 5 4 6 3 7 2 8 1 9 10 11 11 12 15 13 16 14
REMARK SMILES IDX 17 15 12 17 13 18 14 19
REMARK H PARENT
REMARK Flexibility Score: 70.00
ROOT
ATOM      1  C   UNL     1      14.469 -33.057  20.874  1.00  0.00     0.136 C 
ATOM      2  O   UNL     1      14.221 -33.423  19.733  1.00  0.00    -0.299 OA
ENDROOT
BRANCH   1   3
ATOM      3  C   UNL     1      13.717 -31.888  21.472  1.00  0.00     0.053 C 
ATOM      4  C   UNL     1      13.805 -31.959  23.000  1.00  0.00     0.016 C 
BRANCH   3   5
ATOM      5  C   UNL     1      14.237 -30.522  20.968  1.00  0.00     0.015 C 
BRANCH   5   6
ATOM      6  C   UNL     1      15.035 -29.733  22.024  1.00  0.00     0.028 C 
BRANCH   6   7
ATOM      7  C   UNL     1      16.482 -29.557  21.615  1.00  0.00    -0.028 C 
ATOM      8  C   UNL     1      17.515 -30.367  21.945  1.00  0.00    -0.070 CG0
ATOM      9  C   UNL     1      18.879 -30.027  21.399  1.00  0.00     0.039 C 
ATOM     10  G   UNL     1      17.393 -31.548  22.886  1.00  0.00     0.000 G0
ENDBRANCH   6   7
ENDBRANCH   5   6
ENDBRANCH   3   5
ENDBRANCH   1   3
BRANCH   1  11
ATOM     11  C   UNL     1      15.548 -33.762  21.661  1.00  0.00     0.087 C 
BRANCH  11  12
ATOM     12  C   UNL     1      16.961 -33.444  21.124  1.00  0.00     0.066 C 
BRANCH  12  13
ATOM     13  C   UNL     1      17.819 -32.816  22.206  1.00  0.00     0.140 C 
ATOM     14  O   UNL     1      18.852 -33.365  22.562  1.00  0.00    -0.299 OA
BRANCH  13  15
ATOM     15  C   UNL     1      17.399 -31.544  22.892  1.00  0.00     0.106 CG0
ATOM     16  G   UNL     1      17.524 -30.375  21.938  1.00  0.00     0.000 G0
ENDBRANCH  13  15
ENDBRANCH  12  13
BRANCH  12  17
ATOM     17  C   UNL     1      17.635 -34.681  20.456  1.00  0.00    -0.006 C 
ATOM     18  C   UNL     1      18.450 -34.356  19.193  1.00  0.00     0.008 C 
ATOM     19  C   UNL     1      16.600 -35.774  20.146  1.00  0.00     0.008 C 
ENDBRANCH  12  17
ENDBRANCH  11  12
ENDBRANCH   1  11
TORSDOF 1
ENDMDL
MODEL 3
REMARK VINA RESULT:    -4.140      1.864      2.665
REMARK INTER + INTRA:          -6.714
REMARK INTER:                  -6.548
REMARK INTRA:                  -0.166
REMARK UNBOUND:                -0.396
REMARK SMILES CC1=CCC[C@H](C)C(=O)C[C@H](C(C)C)C(=O)C1
REMARK SMILES IDX 8 1 9 2 6 3 7 4 5 5 4 6 3 7 2 8 1 9 10 11 11 12 15 13 16 14
REMARK SMILES IDX 17 15 12 17 13 18 14 19
REMARK H PARENT
REMARK Flexibility Score: 70.00
ROOT
ATOM      1  C   UNL     1      17.502 -31.002  22.761  1.00  0.00     0.136 C 
ATOM      2  O   UNL     1      18.379 -31.168  23.598  1.00  0.00    -0.299 OA
ENDROOT
BRANCH   1   3
ATOM      3  C   UNL     1      17.876 -30.741  21.318  1.00  0.00     0.053 C 
ATOM      4  C   UNL     1      18.254 -29.265  21.152  1.00  0.00     0.016 C 
BRANCH   3   5
ATOM      5  C   UNL     1      19.028 -31.648  20.826  1.00  0.00     0.015 C 
BRANCH   5   6
ATOM      6  C   UNL     1      18.555 -33.005  20.270  1.00  0.00     0.028 C 
BRANCH   6   7
ATOM      7  C   UNL     1      18.396 -34.034  21.368  1.00  0.00    -0.028 C 
ATOM      8  C   UNL     1      17.233 -34.573  21.803  1.00  0.00    -0.070 CG0
ATOM      9  C   UNL     1      17.303 -35.614  22.892  1.00  0.00     0.039 C 
ATOM     10  G   UNL     1      15.868 -34.139  21.313  1.00  0.00     0.000 G0
ENDBRANCH   6   7
ENDBRANCH   5   6
ENDBRANCH   3   5
ENDBRANCH   1   3
BRANCH   1  11
ATOM     11  C   UNL     1      16.054 -31.034  23.188  1.00  0.00     0.087 C 
BRANCH  11  12
ATOM     12  C   UNL     1      15.158 -31.743  22.149  1.00  0.00     0.066 C 
BRANCH  12  13
ATOM     13  C   UNL     1      15.204 -33.248  22.336  1.00  0.00     0.140 C 
ATOM     14  O   UNL     1      14.733 -33.752  23.346  1.00  0.00    -0.299 OA
BRANCH  13  15
ATOM     15  C   UNL     1      15.863 -34.139  21.319  1.00  0.00     0.106 CG0
ATOM     16  G   UNL     1      17.233 -34.561  21.809  1.00  0.00     0.000 G0
ENDBRANCH  13  15
ENDBRANCH  12  13
BRANCH  12  17
ATOM     17  C   UNL     1      13.705 -31.177  22.133  1.00  0.00    -0.006 C 
ATOM     18  C   UNL     1      13.010 -31.250  20.763  1.00  0.00     0.008 C 
ATOM     19  C   UNL     1      13.668 -29.736  22.666  1.00  0.00     0.008 C 
ENDBRANCH  12  17
ENDBRANCH  11  12
ENDBRANCH   1  11
TORSDOF 1
ENDMDL
MODEL 4
REMARK VINA RESULT:    -4.113      1.948      4.375
REMARK INTER + INTRA:          -6.673
REMARK INTER:                  -6.406
REMARK INTRA:                  -0.266
REMARK UNBOUND:                -0.396
REMARK SMILES CC1=CCC[C@H](C)C(=O)C[C@H](C(C)C)C(=O)C1
REMARK SMILES IDX 8 1 9 2 6 3 7 4 5 5 4 6 3 7 2 8 1 9 10 11 11 12 15 13 16 14
REMARK SMILES IDX 17 15 12 17 13 18 14 19
REMARK H PARENT
REMARK Flexibility Score: 70.00
ROOT
ATOM      1  C   UNL     1      17.941 -31.996  20.655  1.00  0.00     0.136 C 
ATOM      2  O   UNL     1      17.508 -30.936  20.224  1.00  0.00    -0.299 OA
ENDROOT
BRANCH   1   3
ATOM      3  C   UNL     1      18.902 -32.000  21.824  1.00  0.00     0.053 C 
ATOM      4  C   UNL     1      20.220 -31.347  21.398  1.00  0.00     0.016 C 
BRANCH   3   5
ATOM      5  C   UNL     1      18.327 -31.288  23.071  1.00  0.00     0.015 C 
BRANCH   5   6
ATOM      6  C   UNL     1      17.248 -32.102  23.809  1.00  0.00     0.028 C 
BRANCH   6   7
ATOM      7  C   UNL     1      15.864 -31.535  23.578  1.00  0.00    -0.028 C 
ATOM      8  C   UNL     1      14.789 -32.207  23.106  1.00  0.00    -0.070 CG0
ATOM      9  C   UNL     1      13.487 -31.456  22.983  1.00  0.00     0.039 C 
ATOM     10  G   UNL     1      14.835 -33.643  22.628  1.00  0.00     0.000 G0
ENDBRANCH   6   7
ENDBRANCH   5   6
ENDBRANCH   3   5
ENDBRANCH   1   3
BRANCH   1  11
ATOM     11  C   UNL     1      17.530 -33.289  19.991  1.00  0.00     0.087 C 
BRANCH  11  12
ATOM     12  C   UNL     1      16.803 -34.238  20.969  1.00  0.00     0.066 C 
BRANCH  12  13
ATOM     13  C   UNL     1      15.386 -33.764  21.227  1.00  0.00     0.140 C 
ATOM     14  O   UNL     1      14.677 -33.419  20.292  1.00  0.00    -0.299 OA
BRANCH  13  15
ATOM     15  C   UNL     1      14.841 -33.663  22.626  1.00  0.00     0.106 CG0
ATOM     16  G   UNL     1      14.794 -32.213  23.062  1.00  0.00     0.000 G0
ENDBRANCH  13  15
ENDBRANCH  12  13
BRANCH  12  17
ATOM     17  C   UNL     1      16.872 -35.727  20.512  1.00  0.00    -0.006 C 
ATOM     18  C   UNL     1      17.897 -36.580  21.279  1.00  0.00     0.008 C 
ATOM     19  C   UNL     1      17.130 -35.829  19.000  1.00  0.00     0.008 C 
ENDBRANCH  12  17
ENDBRANCH  11  12
ENDBRANCH   1  11
TORSDOF 1
ENDMDL
MODEL 5
REMARK VINA RESULT:    -4.109      1.513      3.838
REMARK INTER + INTRA:          -6.668
REMARK INTER:                  -6.313
REMARK INTRA:                  -0.354
REMARK UNBOUND:                -0.396
REMARK SMILES CC1=CCC[C@H](C)C(=O)C[C@H](C(C)C)C(=O)C1
REMARK SMILES IDX 8 1 9 2 6 3 7 4 5 5 4 6 3 7 2 8 1 9 10 11 11 12 15 13 16 14
REMARK SMILES IDX 17 15 12 17 13 18 14 19
REMARK H PARENT
REMARK Flexibility Score: 70.00
ROOT
ATOM      1  C   UNL     1      15.754 -33.627  20.175  1.00  0.00     0.136 C 
ATOM      2  O   UNL     1      14.534 -33.705  20.129  1.00  0.00    -0.299 OA
ENDROOT
BRANCH   1   3
ATOM      3  C   UNL     1      16.604 -34.729  19.581  1.00  0.00     0.053 C 
ATOM      4  C   UNL     1      17.948 -34.146  19.132  1.00  0.00     0.016 C 
BRANCH   3   5
ATOM      5  C   UNL     1      16.831 -35.903  20.563  1.00  0.00     0.015 C 
BRANCH   5   6
ATOM      6  C   UNL     1      18.212 -35.883  21.246  1.00  0.00     0.028 C 
BRANCH   6   7
ATOM      7  C   UNL     1      18.089 -35.796  22.752  1.00  0.00    -0.028 C 
ATOM      8  C   UNL     1      18.123 -34.667  23.497  1.00  0.00    -0.070 CG0
ATOM      9  C   UNL     1      17.946 -34.802  24.989  1.00  0.00     0.039 C 
ATOM     10  G   UNL     1      18.400 -33.290  22.930  1.00  0.00     0.000 G0
ENDBRANCH   6   7
ENDBRANCH   5   6
ENDBRANCH   3   5
ENDBRANCH   1   3
BRANCH   1  11
ATOM     11  C   UNL     1      16.396 -32.440  20.853  1.00  0.00     0.087 C 
BRANCH  11  12
ATOM     12  C   UNL     1      16.025 -32.354  22.350  1.00  0.00     0.066 C 
BRANCH  12  13
ATOM     13  C   UNL     1      17.272 -32.344  23.214  1.00  0.00     0.140 C 
ATOM     14  O   UNL     1      17.379 -31.534  24.123  1.00  0.00    -0.299 OA
BRANCH  13  15
ATOM     15  C   UNL     1      18.413 -33.288  22.945  1.00  0.00     0.106 CG0
ATOM     16  G   UNL     1      18.101 -34.656  23.516  1.00  0.00     0.000 G0
ENDBRANCH  13  15
ENDBRANCH  12  13
BRANCH  12  17
ATOM     17  C   UNL     1      15.065 -31.166  22.656  1.00  0.00    -0.006 C 
ATOM     18  C   UNL     1      13.753 -31.572  23.350  1.00  0.00     0.008 C 
ATOM     19  C   UNL     1      14.758 -30.360  21.383  1.00  0.00     0.008 C 
ENDBRANCH  12  17
ENDBRANCH  11  12
ENDBRANCH   1  11
TORSDOF 1
ENDMDL
MODEL 6
REMARK VINA RESULT:    -3.898      2.151      3.297
REMARK INTER + INTRA:          -6.345
REMARK INTER:                  -6.358
REMARK INTRA:                   0.013
REMARK UNBOUND:                -0.396
REMARK SMILES CC1=CCC[C@H](C)C(=O)C[C@H](C(C)C)C(=O)C1
REMARK SMILES IDX 8 1 9 2 6 3 7 4 5 5 4 6 3 7 2 8 1 9 10 11 11 12 15 13 16 14
REMARK SMILES IDX 17 15 12 17 13 18 14 19
REMARK H PARENT
REMARK Flexibility Score: 70.00
ROOT
ATOM      1  C   UNL     1      16.043 -34.221  21.896  1.00  0.00     0.136 C 
ATOM      2  O   UNL     1      16.150 -34.233  23.115  1.00  0.00    -0.299 OA
ENDROOT
BRANCH   1   3
ATOM      3  C   UNL     1      16.668 -35.326  21.072  1.00  0.00     0.053 C 
ATOM      4  C   UNL     1      16.286 -35.137  19.600  1.00  0.00     0.016 C 
BRANCH   3   5
ATOM      5  C   UNL     1      18.206 -35.384  21.224  1.00  0.00     0.015 C 
BRANCH   5   6
ATOM      6  C   UNL     1      18.953 -34.323  20.393  1.00  0.00     0.028 C 
BRANCH   6   7
ATOM      7  C   UNL     1      19.423 -33.170  21.252  1.00  0.00    -0.028 C 
ATOM      8  C   UNL     1      18.827 -31.960  21.369  1.00  0.00    -0.070 CG0
ATOM      9  C   UNL     1      19.445 -30.959  22.314  1.00  0.00     0.039 C 
ATOM     10  G   UNL     1      17.624 -31.530  20.556  1.00  0.00     0.000 G0
ENDBRANCH   6   7
ENDBRANCH   5   6
ENDBRANCH   3   5
ENDBRANCH   1   3
BRANCH   1  11
ATOM     11  C   UNL     1      15.307 -33.085  21.228  1.00  0.00     0.087 C 
BRANCH  11  12
ATOM     12  C   UNL     1      15.452 -31.760  22.009  1.00  0.00     0.066 C 
BRANCH  12  13
ATOM     13  C   UNL     1      16.573 -30.916  21.433  1.00  0.00     0.140 C 
ATOM     14  O   UNL     1      16.608 -29.713  21.654  1.00  0.00    -0.299 OA
BRANCH  13  15
ATOM     15  C   UNL     1      17.629 -31.522  20.549  1.00  0.00     0.106 CG0
ATOM     16  G   UNL     1      18.820 -31.949  21.382  1.00  0.00     0.000 G0
ENDBRANCH  13  15
ENDBRANCH  12  13
BRANCH  12  17
ATOM     17  C   UNL     1      14.104 -30.985  22.119  1.00  0.00    -0.006 C 
ATOM     18  C   UNL     1      13.398 -31.128  23.479  1.00  0.00     0.008 C 
ATOM     19  C   UNL     1      13.144 -31.382  20.985  1.00  0.00     0.008 C 
ENDBRANCH  12  17
ENDBRANCH  11  12
ENDBRANCH   1  11
TORSDOF 1
ENDMDL
MODEL 7
REMARK VINA RESULT:    -3.897      2.335      4.769
REMARK INTER + INTRA:          -6.344
REMARK INTER:                  -5.855
REMARK INTRA:                  -0.490
REMARK UNBOUND:                -0.396
REMARK SMILES CC1=CCC[C@H](C)C(=O)C[C@H](C(C)C)C(=O)C1
REMARK SMILES IDX 8 1 9 2 6 3 7 4 5 5 4 6 3 7 2 8 1 9 10 11 11 12 15 13 16 14
REMARK SMILES IDX 17 15 12 17 13 18 14 19
REMARK H PARENT
REMARK Flexibility Score: 70.00
ROOT
ATOM      1  C   UNL     1      15.713 -33.327  21.698  1.00  0.00     0.136 C 
ATOM      2  O   UNL     1      14.542 -32.974  21.694  1.00  0.00    -0.299 OA
ENDROOT
BRANCH   1   3
ATOM      3  C   UNL     1      16.801 -32.333  22.043  1.00  0.00     0.053 C 
ATOM      4  C   UNL     1      16.698 -31.124  21.106  1.00  0.00     0.016 C 
BRANCH   3   5
ATOM      5  C   UNL     1      16.743 -31.874  23.519  1.00  0.00     0.015 C 
BRANCH   5   6
ATOM      6  C   UNL     1      16.615 -33.034  24.525  1.00  0.00     0.028 C 
BRANCH   6   7
ATOM      7  C   UNL     1      17.962 -33.638  24.855  1.00  0.00    -0.028 C 
ATOM      8  C   UNL     1      18.427 -34.840  24.440  1.00  0.00    -0.070 CG0
ATOM      9  C   UNL     1      19.820 -35.238  24.858  1.00  0.00     0.039 C 
ATOM     10  G   UNL     1      17.606 -35.834  23.646  1.00  0.00     0.000 G0
ENDBRANCH   6   7
ENDBRANCH   5   6
ENDBRANCH   3   5
ENDBRANCH   1   3
BRANCH   1  11
ATOM     11  C   UNL     1      16.060 -34.749  21.328  1.00  0.00     0.087 C 
BRANCH  11  12
ATOM     12  C   UNL     1      17.581 -34.949  21.149  1.00  0.00     0.066 C 
BRANCH  12  13
ATOM     13  C   UNL     1      18.130 -35.884  22.209  1.00  0.00     0.140 C 
ATOM     14  O   UNL     1      18.974 -36.718  21.911  1.00  0.00    -0.299 OA
BRANCH  13  15
ATOM     15  C   UNL     1      17.621 -35.841  23.625  1.00  0.00     0.106 CG0
ATOM     16  G   UNL     1      18.438 -34.860  24.440  1.00  0.00     0.000 G0
ENDBRANCH  13  15
ENDBRANCH  12  13
BRANCH  12  17
ATOM     17  C   UNL     1      17.955 -35.387  19.700  1.00  0.00    -0.006 C 
ATOM     18  C   UNL     1      18.189 -34.221  18.724  1.00  0.00     0.008 C 
ATOM     19  C   UNL     1      16.905 -36.350  19.125  1.00  0.00     0.008 C 
ENDBRANCH  12  17
ENDBRANCH  11  12
ENDBRANCH   1  11
TORSDOF 1
ENDMDL
MODEL 8
REMARK VINA RESULT:    -3.873      2.346      3.917
REMARK INTER + INTRA:          -6.307
REMARK INTER:                  -6.397
REMARK INTRA:                   0.090
REMARK UNBOUND:                -0.396
REMARK SMILES CC1=CCC[C@H](C)C(=O)C[C@H](C(C)C)C(=O)C1
REMARK SMILES IDX 8 1 9 2 6 3 7 4 5 5 4 6 3 7 2 8 1 9 10 11 11 12 15 13 16 14
REMARK SMILES IDX 17 15 12 17 13 18 14 19
REMARK H PARENT
REMARK Flexibility Score: 70.00
ROOT
ATOM      1  C   UNL     1      16.556 -30.981  22.630  1.00  0.00     0.136 C 
ATOM      2  O   UNL     1      17.160 -31.036  23.693  1.00  0.00    -0.299 OA
ENDROOT
BRANCH   1   3
ATOM      3  C   UNL     1      15.051 -30.823  22.622  1.00  0.00     0.053 C 
ATOM      4  C   UNL     1      14.669 -29.658  21.704  1.00  0.00     0.016 C 
BRANCH   3   5
ATOM      5  C   UNL     1      14.318 -32.113  22.185  1.00  0.00     0.015 C 
BRANCH   5   6
ATOM      6  C   UNL     1      15.113 -33.404  22.463  1.00  0.00     0.028 C 
BRANCH   6   7
ATOM      7  C   UNL     1      15.310 -34.220  21.204  1.00  0.00    -0.028 C 
ATOM      8  C   UNL     1      16.480 -34.726  20.749  1.00  0.00    -0.070 CG0
ATOM      9  C   UNL     1      16.447 -35.546  19.483  1.00  0.00     0.039 C 
ATOM     10  G   UNL     1      17.823 -34.458  21.395  1.00  0.00     0.000 G0
ENDBRANCH   6   7
ENDBRANCH   5   6
ENDBRANCH   3   5
ENDBRANCH   1   3
BRANCH   1  11
ATOM     11  C   UNL     1      17.324 -31.101  21.335  1.00  0.00     0.087 C 
BRANCH  11  12
ATOM     12  C   UNL     1      18.612 -31.939  21.498  1.00  0.00     0.066 C 
BRANCH  12  13
ATOM     13  C   UNL     1      18.492 -33.260  20.762  1.00  0.00     0.140 C 
ATOM     14  O   UNL     1      18.903 -33.359  19.615  1.00  0.00    -0.299 OA
BRANCH  13  15
ATOM     15  C   UNL     1      17.829 -34.450  21.401  1.00  0.00     0.106 CG0
ATOM     16  G   UNL     1      16.482 -34.702  20.757  1.00  0.00     0.000 G0
ENDBRANCH  13  15
ENDBRANCH  12  13
BRANCH  12  17
ATOM     17  C   UNL     1      19.893 -31.141  21.108  1.00  0.00    -0.006 C 
ATOM     18  C   UNL     1      21.138 -31.492  21.941  1.00  0.00     0.008 C 
ATOM     19  C   UNL     1      19.637 -29.626  21.159  1.00  0.00     0.008 C 
ENDBRANCH  12  17
ENDBRANCH  11  12
ENDBRANCH   1  11
TORSDOF 1
ENDMDL
MODEL 9
REMARK VINA RESULT:    -3.766      1.554      3.768
REMARK INTER + INTRA:          -6.144
REMARK INTER:                  -5.968
REMARK INTRA:                  -0.177
REMARK UNBOUND:                -0.396
REMARK SMILES CC1=CCC[C@H](C)C(=O)C[C@H](C(C)C)C(=O)C1
REMARK SMILES IDX 8 1 9 2 6 3 7 4 5 5 4 6 3 7 2 8 1 9 10 11 11 12 15 13 16 14
REMARK SMILES IDX 17 15 12 17 13 18 14 19
REMARK H PARENT
REMARK Flexibility Score: 70.00
ROOT
ATOM      1  C   UNL     1      15.650 -31.072  22.457  1.00  0.00     0.136 C 
ATOM      2  O   UNL     1      15.470 -29.882  22.235  1.00  0.00    -0.299 OA
ENDROOT
BRANCH   1   3
ATOM      3  C   UNL     1      14.490 -32.040  22.370  1.00  0.00     0.053 C 
ATOM      4  C   UNL     1      13.246 -31.396  22.991  1.00  0.00     0.016 C 
BRANCH   3   5
ATOM      5  C   UNL     1      14.195 -32.488  20.919  1.00  0.00     0.015 C 
BRANCH   5   6
ATOM      6  C   UNL     1      14.663 -33.922  20.605  1.00  0.00     0.028 C 
BRANCH   6   7
ATOM      7  C   UNL     1      15.935 -33.927  19.786  1.00  0.00    -0.028 C 
ATOM      8  C   UNL     1      17.138 -34.412  20.172  1.00  0.00    -0.070 CG0
ATOM      9  C   UNL     1      18.274 -34.349  19.182  1.00  0.00     0.039 C 
ATOM     10  G   UNL     1      17.426 -34.945  21.561  1.00  0.00     0.000 G0
ENDBRANCH   6   7
ENDBRANCH   5   6
ENDBRANCH   3   5
ENDBRANCH   1   3
BRANCH   1  11
ATOM     11  C   UNL     1      17.027 -31.555  22.844  1.00  0.00     0.087 C 
BRANCH  11  12
ATOM     12  C   UNL     1      17.017 -33.026  23.314  1.00  0.00     0.066 C 
BRANCH  12  13
ATOM     13  C   UNL     1      17.950 -33.869  22.466  1.00  0.00     0.140 C 
ATOM     14  O   UNL     1      19.152 -33.643  22.471  1.00  0.00    -0.299 OA
BRANCH  13  15
ATOM     15  C   UNL     1      17.420 -34.959  21.574  1.00  0.00     0.106 CG0
ATOM     16  G   UNL     1      17.138 -34.406  20.192  1.00  0.00     0.000 G0
ENDBRANCH  13  15
ENDBRANCH  12  13
BRANCH  12  17
ATOM     17  C   UNL     1      17.295 -33.162  24.842  1.00  0.00    -0.006 C 
ATOM     18  C   UNL     1      18.480 -32.322  25.349  1.00  0.00     0.008 C 
ATOM     19  C   UNL     1      17.487 -34.635  25.240  1.00  0.00     0.008 C 
ENDBRANCH  12  17
ENDBRANCH  11  12
ENDBRANCH   1  11
TORSDOF 1
ENDMDL
