MODEL 1
REMARK VINA RESULT:    -4.034      0.000      0.000
REMARK INTER + INTRA:          -4.400
REMARK INTER:                  -4.270
REMARK INTRA:                  -0.130
REMARK UNBOUND:                -0.130
REMARK SMILES C=C(C)[C@@H]1CC=C(C)CC1
REMARK SMILES IDX 8 1 7 2 6 3 5 4 4 5 10 6 9 7 2 8 1 9 3 10
REMARK H PARENT
REMARK Flexibility Score: inf
ROOT
ATOM      1  C   UNL     1     136.054 140.483 125.692  1.00  0.00     0.039 C 
ATOM      2  C   UNL     1     135.840 139.448 126.763  1.00  0.00    -0.077 C 
ATOM      3  C   UNL     1     136.419 138.236 126.627  1.00  0.00    -0.027 C 
ATOM      4  C   UNL     1     136.308 137.150 127.670  1.00  0.00     0.035 C 
ATOM      5  C   UNL     1     135.080 137.339 128.577  1.00  0.00     0.018 C 
ATOM      6  C   UNL     1     135.019 138.790 129.078  1.00  0.00     0.013 C 
ATOM      7  C   UNL     1     134.875 139.753 127.893  1.00  0.00     0.031 C 
ENDROOT
BRANCH   5   8
ATOM      8  C   UNL     1     135.088 136.348 129.733  1.00  0.00    -0.077 C 
ATOM      9  C   UNL     1     134.875 136.777 130.988  1.00  0.00     0.008 C 
ATOM     10  C   UNL     1     135.318 134.875 129.506  1.00  0.00     0.039 C 
ENDBRANCH   5   8
TORSDOF 1
ENDMDL
MODEL 2
REMARK VINA RESULT:    -3.817     12.164     13.131
REMARK INTER + INTRA:          -4.170
REMARK INTER:                  -4.041
REMARK INTRA:                  -0.129
REMARK UNBOUND:                -0.130
REMARK SMILES C=C(C)[C@@H]1CC=C(C)CC1
REMARK SMILES IDX 8 1 7 2 6 3 5 4 4 5 10 6 9 7 2 8 1 9 3 10
REMARK H PARENT
REMARK Flexibility Score: inf
ROOT
ATOM      1  C   UNL     1     143.502 142.237 130.541  1.00  0.00     0.039 C 
ATOM      2  C   UNL     1     144.111 143.473 131.146  1.00  0.00    -0.077 C 
ATOM      3  C   UNL     1     144.911 144.249 130.384  1.00  0.00    -0.027 C 
ATOM      4  C   UNL     1     145.526 145.534 130.882  1.00  0.00     0.035 C 
ATOM      5  C   UNL     1     145.614 145.580 132.417  1.00  0.00     0.018 C 
ATOM      6  C   UNL     1     144.266 145.174 133.030  1.00  0.00     0.013 C 
ATOM      7  C   UNL     1     143.913 143.737 132.626  1.00  0.00     0.031 C 
ENDROOT
BRANCH   5   8
ATOM      8  C   UNL     1     146.060 146.951 132.906  1.00  0.00    -0.077 C 
ATOM      9  C   UNL     1     147.014 147.625 132.242  1.00  0.00     0.008 C 
ATOM     10  C   UNL     1     145.444 147.591 134.125  1.00  0.00     0.039 C 
ENDBRANCH   5   8
TORSDOF 1
ENDMDL
MODEL 3
REMARK VINA RESULT:    -3.752     12.971     13.690
REMARK INTER + INTRA:          -4.101
REMARK INTER:                  -3.973
REMARK INTRA:                  -0.129
REMARK UNBOUND:                -0.130
REMARK SMILES C=C(C)[C@@H]1CC=C(C)CC1
REMARK SMILES IDX 8 1 7 2 6 3 5 4 4 5 10 6 9 7 2 8 1 9 3 10
REMARK H PARENT
REMARK Flexibility Score: inf
ROOT
ATOM      1  C   UNL     1     147.248 148.615 130.205  1.00  0.00     0.039 C 
ATOM      2  C   UNL     1     146.535 147.601 131.059  1.00  0.00    -0.077 C 
ATOM      3  C   UNL     1     146.722 147.623 132.396  1.00  0.00    -0.027 C 
ATOM      4  C   UNL     1     146.013 146.685 133.341  1.00  0.00     0.035 C 
ATOM      5  C   UNL     1     145.526 145.407 132.636  1.00  0.00     0.018 C 
ATOM      6  C   UNL     1     144.788 145.776 131.340  1.00  0.00     0.013 C 
ATOM      7  C   UNL     1     145.735 146.506 130.380  1.00  0.00     0.031 C 
ENDROOT
BRANCH   5   8
ATOM      8  C   UNL     1     144.655 144.564 133.556  1.00  0.00    -0.077 C 
ATOM      9  C   UNL     1     143.563 145.098 134.125  1.00  0.00     0.008 C 
ATOM     10  C   UNL     1     144.981 143.119 133.842  1.00  0.00     0.039 C 
ENDBRANCH   5   8
TORSDOF 1
ENDMDL
MODEL 4
REMARK VINA RESULT:    -3.710     12.129     12.949
REMARK INTER + INTRA:          -4.057
REMARK INTER:                  -3.928
REMARK INTRA:                  -0.129
REMARK UNBOUND:                -0.130
REMARK SMILES C=C(C)[C@@H]1CC=C(C)CC1
REMARK SMILES IDX 8 1 7 2 6 3 5 4 4 5 10 6 9 7 2 8 1 9 3 10
REMARK H PARENT
REMARK Flexibility Score: inf
ROOT
ATOM      1  C   UNL     1     143.497 142.120 130.172  1.00  0.00     0.039 C 
ATOM      2  C   UNL     1     144.196 143.142 131.026  1.00  0.00    -0.077 C 
ATOM      3  C   UNL     1     143.998 143.125 132.362  1.00  0.00    -0.027 C 
ATOM      4  C   UNL     1     144.693 144.072 133.309  1.00  0.00     0.035 C 
ATOM      5  C   UNL     1     145.176 145.350 132.601  1.00  0.00     0.018 C 
ATOM      6  C   UNL     1     145.928 144.981 131.314  1.00  0.00     0.013 C 
ATOM      7  C   UNL     1     144.994 144.240 130.349  1.00  0.00     0.031 C 
ENDROOT
BRANCH   5   8
ATOM      8  C   UNL     1     146.034 146.204 133.525  1.00  0.00    -0.077 C 
ATOM      9  C   UNL     1     147.111 145.672 134.125  1.00  0.00     0.008 C 
ATOM     10  C   UNL     1     145.711 147.655 133.779  1.00  0.00     0.039 C 
ENDBRANCH   5   8
TORSDOF 1
ENDMDL
MODEL 5
REMARK VINA RESULT:    -3.450     12.209     12.926
REMARK INTER + INTRA:          -3.781
REMARK INTER:                  -3.660
REMARK INTRA:                  -0.121
REMARK UNBOUND:                -0.130
REMARK SMILES C=C(C)[C@@H]1CC=C(C)CC1
REMARK SMILES IDX 8 1 7 2 6 3 5 4 4 5 10 6 9 7 2 8 1 9 3 10
REMARK H PARENT
REMARK Flexibility Score: inf
ROOT
ATOM      1  C   UNL     1     142.332 147.316 130.257  1.00  0.00     0.039 C 
ATOM      2  C   UNL     1     143.340 146.558 131.077  1.00  0.00    -0.077 C 
ATOM      3  C   UNL     1     143.251 146.596 132.424  1.00  0.00    -0.027 C 
ATOM      4  C   UNL     1     144.179 145.828 133.332  1.00  0.00     0.035 C 
ATOM      5  C   UNL     1     145.508 145.475 132.641  1.00  0.00     0.018 C 
ATOM      6  C   UNL     1     145.232 144.868 131.257  1.00  0.00     0.013 C 
ATOM      7  C   UNL     1     144.500 145.883 130.370  1.00  0.00     0.031 C 
ENDROOT
BRANCH   5   8
ATOM      8  C   UNL     1     146.351 144.545 133.502  1.00  0.00    -0.077 C 
ATOM      9  C   UNL     1     147.641 144.834 133.741  1.00  0.00     0.008 C 
ATOM     10  C   UNL     1     145.769 143.296 134.114  1.00  0.00     0.039 C 
ENDBRANCH   5   8
TORSDOF 1
ENDMDL
MODEL 6
REMARK VINA RESULT:    -3.403     13.054     13.832
REMARK INTER + INTRA:          -3.732
REMARK INTER:                  -3.611
REMARK INTRA:                  -0.121
REMARK UNBOUND:                -0.130
REMARK SMILES C=C(C)[C@@H]1CC=C(C)CC1
REMARK SMILES IDX 8 1 7 2 6 3 5 4 4 5 10 6 9 7 2 8 1 9 3 10
REMARK H PARENT
REMARK Flexibility Score: inf
ROOT
ATOM      1  C   UNL     1     148.379 143.497 130.310  1.00  0.00     0.039 C 
ATOM      2  C   UNL     1     147.391 144.286 131.127  1.00  0.00    -0.077 C 
ATOM      3  C   UNL     1     147.465 144.233 132.474  1.00  0.00    -0.027 C 
ATOM      4  C   UNL     1     146.557 145.028 133.379  1.00  0.00     0.035 C 
ATOM      5  C   UNL     1     145.249 145.436 132.678  1.00  0.00     0.018 C 
ATOM      6  C   UNL     1     145.562 146.044 131.302  1.00  0.00     0.013 C 
ATOM      7  C   UNL     1     146.265 145.009 130.414  1.00  0.00     0.031 C 
ENDROOT
BRANCH   5   8
ATOM      8  C   UNL     1     144.433 146.390 133.538  1.00  0.00    -0.077 C 
ATOM      9  C   UNL     1     143.143 146.123 133.799  1.00  0.00     0.008 C 
ATOM     10  C   UNL     1     145.042 147.639 134.125  1.00  0.00     0.039 C 
ENDBRANCH   5   8
TORSDOF 1
ENDMDL
MODEL 7
REMARK VINA RESULT:    -3.363     12.519     13.305
REMARK INTER + INTRA:          -3.690
REMARK INTER:                  -3.560
REMARK INTRA:                  -0.130
REMARK UNBOUND:                -0.130
REMARK SMILES C=C(C)[C@@H]1CC=C(C)CC1
REMARK SMILES IDX 8 1 7 2 6 3 5 4 4 5 10 6 9 7 2 8 1 9 3 10
REMARK H PARENT
REMARK Flexibility Score: inf
ROOT
ATOM      1  C   UNL     1     148.373 143.526 130.519  1.00  0.00     0.039 C 
ATOM      2  C   UNL     1     147.172 144.174 131.152  1.00  0.00    -0.077 C 
ATOM      3  C   UNL     1     146.305 144.853 130.370  1.00  0.00    -0.027 C 
ATOM      4  C   UNL     1     145.045 145.492 130.901  1.00  0.00     0.035 C 
ATOM      5  C   UNL     1     145.127 145.771 132.411  1.00  0.00     0.018 C 
ATOM      6  C   UNL     1     145.634 144.521 133.147  1.00  0.00     0.013 C 
ATOM      7  C   UNL     1     147.043 144.157 132.663  1.00  0.00     0.031 C 
ENDROOT
BRANCH   5   8
ATOM      8  C   UNL     1     143.788 146.240 132.962  1.00  0.00    -0.077 C 
ATOM      9  C   UNL     1     143.329 145.748 134.124  1.00  0.00     0.008 C 
ATOM     10  C   UNL     1     142.953 147.265 132.235  1.00  0.00     0.039 C 
ENDBRANCH   5   8
TORSDOF 1
ENDMDL
MODEL 8
REMARK VINA RESULT:    -1.530     12.695     13.740
REMARK INTER + INTRA:          -1.749
REMARK INTER:                  -1.621
REMARK INTRA:                  -0.129
REMARK UNBOUND:                -0.130
REMARK SMILES C=C(C)[C@@H]1CC=C(C)CC1
REMARK SMILES IDX 8 1 7 2 6 3 5 4 4 5 10 6 9 7 2 8 1 9 3 10
REMARK H PARENT
REMARK Flexibility Score: inf
ROOT
ATOM      1  C   UNL     1     147.864 144.644 134.125  1.00  0.00     0.039 C 
ATOM      2  C   UNL     1     146.661 145.267 133.470  1.00  0.00    -0.077 C 
ATOM      3  C   UNL     1     145.471 144.633 133.547  1.00  0.00    -0.027 C 
ATOM      4  C   UNL     1     144.197 145.201 132.971  1.00  0.00     0.035 C 
ATOM      5  C   UNL     1     144.470 146.230 131.860  1.00  0.00     0.018 C 
ATOM      6  C   UNL     1     145.529 147.238 132.331  1.00  0.00     0.013 C 
ATOM      7  C   UNL     1     146.849 146.518 132.634  1.00  0.00     0.031 C 
ENDROOT
BRANCH   5   8
ATOM      8  C   UNL     1     143.190 146.926 131.422  1.00  0.00    -0.077 C 
ATOM      9  C   UNL     1     142.464 147.622 132.313  1.00  0.00     0.008 C 
ATOM     10  C   UNL     1     142.710 146.867 129.994  1.00  0.00     0.039 C 
ENDBRANCH   5   8
TORSDOF 1
ENDMDL
