MODEL 1
REMARK VINA RESULT:    -5.789      0.000      0.000
REMARK INTER + INTRA:         -12.670
REMARK INTER:                 -11.203
REMARK INTRA:                  -1.467
REMARK UNBOUND:                -1.467
REMARK SMILES CCCCCCCCCCCCCCCCCC(=O)[O-]
REMARK SMILES IDX 10 1 11 2 12 3 13 4 14 5 15 6 16 7 17 8 18 9 19 10 20 11
REMARK SMILES IDX 9 12 8 13 7 14 6 15 5 16 4 17 3 18 2 19 1 20
REMARK H PARENT
REMARK Flexibility Score: inf
ROOT
ATOM      1  C   UNL     1      41.267  54.467  59.926  1.00  0.00     0.000 C 
ENDROOT
BRANCH   1   2
ATOM      2  C   UNL     1      42.654  54.854  60.458  1.00  0.00     0.000 C 
BRANCH   2   3
ATOM      3  C   UNL     1      43.368  55.802  59.484  1.00  0.00     0.000 C 
BRANCH   3   4
ATOM      4  C   UNL     1      43.989  57.022  60.187  1.00  0.00     0.000 C 
BRANCH   4   5
ATOM      5  C   UNL     1      43.275  58.360  59.916  1.00  0.00     0.000 C 
BRANCH   5   6
ATOM      6  C   UNL     1      41.749  58.223  59.716  1.00  0.00     0.000 C 
BRANCH   6   7
ATOM      7  C   UNL     1      41.334  58.409  58.246  1.00  0.00     0.006 C 
BRANCH   7   8
ATOM      8  C   UNL     1      42.010  59.625  57.600  1.00  0.00     0.053 C 
BRANCH   8   9
ATOM      9  C   UNL     1      41.046  60.750  57.383  1.00  0.00     0.041 C 
ATOM     10  O   UNL     1      40.038  60.587  56.647  1.00  0.00    -0.550 OA
ATOM     11  O   UNL     1      41.279  61.990  57.965  1.00  0.00    -0.550 OA
ENDBRANCH   8   9
ENDBRANCH   7   8
ENDBRANCH   6   7
ENDBRANCH   5   6
ENDBRANCH   4   5
ENDBRANCH   3   4
ENDBRANCH   2   3
ENDBRANCH   1   2
BRANCH   1  12
ATOM     12  C   UNL     1      40.369  53.855  61.013  1.00  0.00     0.000 C 
BRANCH  12  13
ATOM     13  C   UNL     1      38.957  54.467  61.028  1.00  0.00    -0.000 C 
BRANCH  13  14
ATOM     14  C   UNL     1      38.962  55.988  60.792  1.00  0.00    -0.000 C 
BRANCH  14  15
ATOM     15  C   UNL     1      38.075  56.470  59.629  1.00  0.00    -0.000 C 
BRANCH  15  16
ATOM     16  C   UNL     1      36.574  56.248  59.888  1.00  0.00    -0.000 C 
BRANCH  16  17
ATOM     17  C   UNL     1      35.901  55.423  58.779  1.00  0.00    -0.000 C 
BRANCH  17  18
ATOM     18  C   UNL     1      35.926  53.912  59.067  1.00  0.00    -0.000 C 
BRANCH  18  19
ATOM     19  C   UNL     1      35.030  53.116  58.105  1.00  0.00    -0.003 C 
ATOM     20  C   UNL     1      35.511  51.679  57.903  1.00  0.00     0.004 C 
ENDBRANCH  18  19
ENDBRANCH  17  18
ENDBRANCH  16  17
ENDBRANCH  15  16
ENDBRANCH  14  15
ENDBRANCH  13  14
ENDBRANCH  12  13
ENDBRANCH   1  12
TORSDOF 16
ENDMDL
MODEL 2
REMARK VINA RESULT:    -5.563      4.053      8.009
REMARK INTER + INTRA:         -12.233
REMARK INTER:                 -10.732
REMARK INTRA:                  -1.501
REMARK UNBOUND:                -1.467
REMARK SMILES CCCCCCCCCCCCCCCCCC(=O)[O-]
REMARK SMILES IDX 10 1 11 2 12 3 13 4 14 5 15 6 16 7 17 8 18 9 19 10 20 11
REMARK SMILES IDX 9 12 8 13 7 14 6 15 5 16 4 17 3 18 2 19 1 20
REMARK H PARENT
REMARK Flexibility Score: inf
ROOT
ATOM      1  C   UNL     1      39.280  54.416  60.711  1.00  0.00     0.000 C 
ENDROOT
BRANCH   1   2
ATOM      2  C   UNL     1      39.145  55.945  60.672  1.00  0.00     0.000 C 
BRANCH   2   3
ATOM      3  C   UNL     1      37.673  56.361  60.526  1.00  0.00     0.000 C 
BRANCH   3   4
ATOM      4  C   UNL     1      37.127  56.129  59.107  1.00  0.00     0.000 C 
BRANCH   4   5
ATOM      5  C   UNL     1      35.802  55.344  59.042  1.00  0.00     0.000 C 
BRANCH   5   6
ATOM      6  C   UNL     1      35.987  53.810  59.015  1.00  0.00     0.000 C 
BRANCH   6   7
ATOM      7  C   UNL     1      35.057  53.127  57.997  1.00  0.00     0.006 C 
BRANCH   7   8
ATOM      8  C   UNL     1      35.121  51.597  58.087  1.00  0.00     0.053 C 
BRANCH   8   9
ATOM      9  C   UNL     1      33.756  50.981  58.071  1.00  0.00     0.041 C 
ATOM     10  O   UNL     1      33.606  49.782  57.716  1.00  0.00    -0.550 OA
ATOM     11  O   UNL     1      32.644  51.740  58.413  1.00  0.00    -0.550 OA
ENDBRANCH   8   9
ENDBRANCH   7   8
ENDBRANCH   6   7
ENDBRANCH   5   6
ENDBRANCH   4   5
ENDBRANCH   3   4
ENDBRANCH   2   3
ENDBRANCH   1   2
BRANCH   1  12
ATOM     12  C   UNL     1      40.737  53.950  60.562  1.00  0.00     0.000 C 
BRANCH  12  13
ATOM     13  C   UNL     1      41.621  54.989  59.848  1.00  0.00    -0.000 C 
BRANCH  13  14
ATOM     14  C   UNL     1      43.000  55.157  60.508  1.00  0.00    -0.000 C 
BRANCH  14  15
ATOM     15  C   UNL     1      43.782  56.410  60.074  1.00  0.00    -0.000 C 
BRANCH  15  16
ATOM     16  C   UNL     1      43.214  57.709  60.672  1.00  0.00    -0.000 C 
BRANCH  16  17
ATOM     17  C   UNL     1      43.410  58.920  59.745  1.00  0.00    -0.000 C 
BRANCH  17  18
ATOM     18  C   UNL     1      42.963  58.639  58.300  1.00  0.00    -0.000 C 
BRANCH  18  19
ATOM     19  C   UNL     1      41.579  59.231  57.988  1.00  0.00    -0.003 C 
ATOM     20  C   UNL     1      40.450  58.216  58.167  1.00  0.00     0.004 C 
ENDBRANCH  18  19
ENDBRANCH  17  18
ENDBRANCH  16  17
ENDBRANCH  15  16
ENDBRANCH  14  15
ENDBRANCH  13  14
ENDBRANCH  12  13
ENDBRANCH   1  12
TORSDOF 16
ENDMDL
MODEL 3
REMARK VINA RESULT:    -5.549      3.618      7.762
REMARK INTER + INTRA:         -12.207
REMARK INTER:                 -10.589
REMARK INTRA:                  -1.618
REMARK UNBOUND:                -1.467
REMARK SMILES CCCCCCCCCCCCCCCCCC(=O)[O-]
REMARK SMILES IDX 10 1 11 2 12 3 13 4 14 5 15 6 16 7 17 8 18 9 19 10 20 11
REMARK SMILES IDX 9 12 8 13 7 14 6 15 5 16 4 17 3 18 2 19 1 20
REMARK H PARENT
REMARK Flexibility Score: inf
ROOT
ATOM      1  C   UNL     1      41.187  54.551  60.001  1.00  0.00     0.000 C 
ENDROOT
BRANCH   1   2
ATOM      2  C   UNL     1      40.209  53.887  60.981  1.00  0.00     0.000 C 
BRANCH   2   3
ATOM      3  C   UNL     1      38.847  54.598  60.959  1.00  0.00     0.000 C 
BRANCH   3   4
ATOM      4  C   UNL     1      38.910  55.986  60.300  1.00  0.00     0.000 C 
BRANCH   4   5
ATOM      5  C   UNL     1      37.621  56.417  59.573  1.00  0.00     0.000 C 
BRANCH   5   6
ATOM      6  C   UNL     1      36.380  55.581  59.954  1.00  0.00     0.000 C 
BRANCH   6   7
ATOM      7  C   UNL     1      35.878  54.715  58.785  1.00  0.00     0.006 C 
BRANCH   7   8
ATOM      8  C   UNL     1      36.148  53.222  59.009  1.00  0.00     0.053 C 
BRANCH   8   9
ATOM      9  C   UNL     1      35.301  52.362  58.123  1.00  0.00     0.041 C 
ATOM     10  O   UNL     1      35.829  51.455  57.429  1.00  0.00    -0.550 OA
ATOM     11  O   UNL     1      33.933  52.587  58.035  1.00  0.00    -0.550 OA
ENDBRANCH   8   9
ENDBRANCH   7   8
ENDBRANCH   6   7
ENDBRANCH   5   6
ENDBRANCH   4   5
ENDBRANCH   3   4
ENDBRANCH   2   3
ENDBRANCH   1   2
BRANCH   1  12
ATOM     12  C   UNL     1      42.582  54.758  60.611  1.00  0.00     0.000 C 
BRANCH  12  13
ATOM     13  C   UNL     1      43.257  56.051  60.118  1.00  0.00    -0.000 C 
BRANCH  13  14
ATOM     14  C   UNL     1      42.354  57.289  60.259  1.00  0.00    -0.000 C 
BRANCH  14  15
ATOM     15  C   UNL     1      41.803  57.848  58.934  1.00  0.00    -0.000 C 
BRANCH  15  16
ATOM     16  C   UNL     1      42.910  58.346  57.988  1.00  0.00    -0.000 C 
BRANCH  16  17
ATOM     17  C   UNL     1      43.404  59.757  58.350  1.00  0.00    -0.000 C 
BRANCH  17  18
ATOM     18  C   UNL     1      44.849  59.762  58.875  1.00  0.00    -0.000 C 
BRANCH  18  19
ATOM     19  C   UNL     1      45.566  58.424  58.638  1.00  0.00    -0.003 C 
ATOM     20  C   UNL     1      46.745  58.209  59.587  1.00  0.00     0.004 C 
ENDBRANCH  18  19
ENDBRANCH  17  18
ENDBRANCH  16  17
ENDBRANCH  15  16
ENDBRANCH  14  15
ENDBRANCH  13  14
ENDBRANCH  12  13
ENDBRANCH   1  12
TORSDOF 16
ENDMDL
MODEL 4
REMARK VINA RESULT:    -5.414      1.248      1.991
REMARK INTER + INTRA:         -11.946
REMARK INTER:                 -10.527
REMARK INTRA:                  -1.420
REMARK UNBOUND:                -1.467
REMARK SMILES CCCCCCCCCCCCCCCCCC(=O)[O-]
REMARK SMILES IDX 10 1 11 2 12 3 13 4 14 5 15 6 16 7 17 8 18 9 19 10 20 11
REMARK SMILES IDX 9 12 8 13 7 14 6 15 5 16 4 17 3 18 2 19 1 20
REMARK H PARENT
REMARK Flexibility Score: inf
ROOT
ATOM      1  C   UNL     1      42.149  55.991  60.014  1.00  0.00     0.000 C 
ENDROOT
BRANCH   1   2
ATOM      2  C   UNL     1      43.304  56.195  59.022  1.00  0.00     0.000 C 
BRANCH   2   3
ATOM      3  C   UNL     1      44.261  57.290  59.515  1.00  0.00     0.000 C 
BRANCH   3   4
ATOM      4  C   UNL     1      44.297  58.514  58.584  1.00  0.00     0.000 C 
BRANCH   4   5
ATOM      5  C   UNL     1      43.707  59.804  59.186  1.00  0.00     0.000 C 
BRANCH   5   6
ATOM      6  C   UNL     1      42.833  60.609  58.199  1.00  0.00     0.000 C 
BRANCH   6   7
ATOM      7  C   UNL     1      41.775  59.733  57.506  1.00  0.00     0.006 C 
BRANCH   7   8
ATOM      8  C   UNL     1      40.459  60.486  57.271  1.00  0.00     0.053 C 
BRANCH   8   9
ATOM      9  C   UNL     1      40.623  61.601  56.285  1.00  0.00     0.041 C 
ATOM     10  O   UNL     1      40.733  61.349  55.057  1.00  0.00    -0.550 OA
ATOM     11  O   UNL     1      40.691  62.917  56.725  1.00  0.00    -0.550 OA
ENDBRANCH   8   9
ENDBRANCH   7   8
ENDBRANCH   6   7
ENDBRANCH   5   6
ENDBRANCH   4   5
ENDBRANCH   3   4
ENDBRANCH   2   3
ENDBRANCH   1   2
BRANCH   1  12
ATOM     12  C   UNL     1      41.375  57.289  60.291  1.00  0.00     0.000 C 
BRANCH  12  13
ATOM     13  C   UNL     1      39.961  57.276  59.682  1.00  0.00    -0.000 C 
BRANCH  13  14
ATOM     14  C   UNL     1      38.905  56.686  60.633  1.00  0.00    -0.000 C 
BRANCH  14  15
ATOM     15  C   UNL     1      37.879  55.750  59.967  1.00  0.00    -0.000 C 
BRANCH  15  16
ATOM     16  C   UNL     1      37.992  54.295  60.456  1.00  0.00    -0.000 C 
BRANCH  16  17
ATOM     17  C   UNL     1      36.936  53.376  59.818  1.00  0.00    -0.000 C 
BRANCH  17  18
ATOM     18  C   UNL     1      35.872  54.156  59.027  1.00  0.00    -0.000 C 
BRANCH  18  19
ATOM     19  C   UNL     1      34.935  53.232  58.234  1.00  0.00    -0.003 C 
ATOM     20  C   UNL     1      35.554  51.863  57.953  1.00  0.00     0.004 C 
ENDBRANCH  18  19
ENDBRANCH  17  18
ENDBRANCH  16  17
ENDBRANCH  15  16
ENDBRANCH  14  15
ENDBRANCH  13  14
ENDBRANCH  12  13
ENDBRANCH   1  12
TORSDOF 16
ENDMDL
MODEL 5
REMARK VINA RESULT:    -5.411      3.467      7.089
REMARK INTER + INTRA:         -11.940
REMARK INTER:                 -10.510
REMARK INTRA:                  -1.429
REMARK UNBOUND:                -1.467
REMARK SMILES CCCCCCCCCCCCCCCCCC(=O)[O-]
REMARK SMILES IDX 10 1 11 2 12 3 13 4 14 5 15 6 16 7 17 8 18 9 19 10 20 11
REMARK SMILES IDX 9 12 8 13 7 14 6 15 5 16 4 17 3 18 2 19 1 20
REMARK H PARENT
REMARK Flexibility Score: inf
ROOT
ATOM      1  C   UNL     1      41.454  55.394  60.527  1.00  0.00     0.000 C 
ENDROOT
BRANCH   1   2
ATOM      2  C   UNL     1      40.603  54.144  60.260  1.00  0.00     0.000 C 
BRANCH   2   3
ATOM      3  C   UNL     1      39.131  54.398  60.618  1.00  0.00     0.000 C 
BRANCH   3   4
ATOM      4  C   UNL     1      38.784  55.895  60.685  1.00  0.00     0.000 C 
BRANCH   4   5
ATOM      5  C   UNL     1      37.826  56.389  59.584  1.00  0.00     0.000 C 
BRANCH   5   6
ATOM      6  C   UNL     1      36.353  55.981  59.808  1.00  0.00     0.000 C 
BRANCH   6   7
ATOM      7  C   UNL     1      35.843  55.015  58.724  1.00  0.00     0.006 C 
BRANCH   7   8
ATOM      8  C   UNL     1      35.975  53.546  59.146  1.00  0.00     0.053 C 
BRANCH   8   9
ATOM      9  C   UNL     1      35.262  52.629  58.201  1.00  0.00     0.041 C 
ATOM     10  O   UNL     1      35.909  51.782  57.531  1.00  0.00    -0.550 OA
ATOM     11  O   UNL     1      33.887  52.733  58.033  1.00  0.00    -0.550 OA
ENDBRANCH   8   9
ENDBRANCH   7   8
ENDBRANCH   6   7
ENDBRANCH   5   6
ENDBRANCH   4   5
ENDBRANCH   3   4
ENDBRANCH   2   3
ENDBRANCH   1   2
BRANCH   1  12
ATOM     12  C   UNL     1      42.740  55.422  59.685  1.00  0.00     0.000 C 
BRANCH  12  13
ATOM     13  C   UNL     1      43.798  56.384  60.254  1.00  0.00    -0.000 C 
BRANCH  13  14
ATOM     14  C   UNL     1      44.090  57.572  59.321  1.00  0.00    -0.000 C 
BRANCH  14  15
ATOM     15  C   UNL     1      43.230  57.626  58.045  1.00  0.00    -0.000 C 
BRANCH  15  16
ATOM     16  C   UNL     1      42.328  58.872  57.984  1.00  0.00    -0.000 C 
BRANCH  16  17
ATOM     17  C   UNL     1      40.850  58.543  58.252  1.00  0.00    -0.000 C 
BRANCH  17  18
ATOM     18  C   UNL     1      39.894  59.302  57.316  1.00  0.00    -0.000 C 
BRANCH  18  19
ATOM     19  C   UNL     1      40.412  60.704  56.959  1.00  0.00    -0.003 C 
ATOM     20  C   UNL     1      39.917  61.186  55.595  1.00  0.00     0.004 C 
ENDBRANCH  18  19
ENDBRANCH  17  18
ENDBRANCH  16  17
ENDBRANCH  15  16
ENDBRANCH  14  15
ENDBRANCH  13  14
ENDBRANCH  12  13
ENDBRANCH   1  12
TORSDOF 16
ENDMDL
MODEL 6
REMARK VINA RESULT:    -5.383      2.043      2.529
REMARK INTER + INTRA:         -11.885
REMARK INTER:                 -10.260
REMARK INTRA:                  -1.625
REMARK UNBOUND:                -1.467
REMARK SMILES CCCCCCCCCCCCCCCCCC(=O)[O-]
REMARK SMILES IDX 10 1 11 2 12 3 13 4 14 5 15 6 16 7 17 8 18 9 19 10 20 11
REMARK SMILES IDX 9 12 8 13 7 14 6 15 5 16 4 17 3 18 2 19 1 20
REMARK H PARENT
REMARK Flexibility Score: inf
ROOT
ATOM      1  C   UNL     1      41.543  54.580  59.757  1.00  0.00     0.000 C 
ENDROOT
BRANCH   1   2
ATOM      2  C   UNL     1      42.847  54.935  60.485  1.00  0.00     0.000 C 
BRANCH   2   3
ATOM      3  C   UNL     1      43.247  56.393  60.211  1.00  0.00     0.000 C 
BRANCH   3   4
ATOM      4  C   UNL     1      42.933  56.837  58.772  1.00  0.00     0.000 C 
BRANCH   4   5
ATOM      5  C   UNL     1      41.933  58.003  58.657  1.00  0.00     0.000 C 
BRANCH   5   6
ATOM      6  C   UNL     1      42.459  59.196  57.827  1.00  0.00     0.000 C 
BRANCH   6   7
ATOM      7  C   UNL     1      43.025  60.320  58.713  1.00  0.00     0.006 C 
BRANCH   7   8
ATOM      8  C   UNL     1      44.553  60.416  58.624  1.00  0.00     0.053 C 
BRANCH   8   9
ATOM      9  C   UNL     1      45.226  59.595  59.681  1.00  0.00     0.041 C 
ATOM     10  O   UNL     1      46.191  58.845  59.381  1.00  0.00    -0.550 OA
ATOM     11  O   UNL     1      44.763  59.631  60.990  1.00  0.00    -0.550 OA
ENDBRANCH   8   9
ENDBRANCH   7   8
ENDBRANCH   6   7
ENDBRANCH   5   6
ENDBRANCH   4   5
ENDBRANCH   3   4
ENDBRANCH   2   3
ENDBRANCH   1   2
BRANCH   1  12
ATOM     12  C   UNL     1      40.571  53.784  60.643  1.00  0.00     0.000 C 
BRANCH  12  13
ATOM     13  C   UNL     1      39.329  54.601  61.041  1.00  0.00    -0.000 C 
BRANCH  13  14
ATOM     14  C   UNL     1      39.389  56.058  60.553  1.00  0.00    -0.000 C 
BRANCH  14  15
ATOM     15  C   UNL     1      38.345  56.433  59.485  1.00  0.00    -0.000 C 
BRANCH  15  16
ATOM     16  C   UNL     1      36.897  56.288  59.988  1.00  0.00    -0.000 C 
BRANCH  16  17
ATOM     17  C   UNL     1      35.995  55.552  58.983  1.00  0.00    -0.000 C 
BRANCH  17  18
ATOM     18  C   UNL     1      36.073  54.022  59.126  1.00  0.00    -0.000 C 
BRANCH  18  19
ATOM     19  C   UNL     1      35.028  53.298  58.263  1.00  0.00    -0.003 C 
ATOM     20  C   UNL     1      35.414  51.850  57.959  1.00  0.00     0.004 C 
ENDBRANCH  18  19
ENDBRANCH  17  18
ENDBRANCH  16  17
ENDBRANCH  15  16
ENDBRANCH  14  15
ENDBRANCH  13  14
ENDBRANCH  12  13
ENDBRANCH   1  12
TORSDOF 16
ENDMDL
MODEL 7
REMARK VINA RESULT:    -5.255      1.589      3.697
REMARK INTER + INTRA:         -11.638
REMARK INTER:                  -9.949
REMARK INTRA:                  -1.689
REMARK UNBOUND:                -1.467
REMARK SMILES CCCCCCCCCCCCCCCCCC(=O)[O-]
REMARK SMILES IDX 10 1 11 2 12 3 13 4 14 5 15 6 16 7 17 8 18 9 19 10 20 11
REMARK SMILES IDX 9 12 8 13 7 14 6 15 5 16 4 17 3 18 2 19 1 20
REMARK H PARENT
REMARK Flexibility Score: inf
ROOT
ATOM      1  C   UNL     1      44.928  57.536  59.386  1.00  0.00     0.000 C 
ENDROOT
BRANCH   1   2
ATOM      2  C   UNL     1      46.033  58.176  60.238  1.00  0.00     0.000 C 
BRANCH   2   3
ATOM      3  C   UNL     1      45.939  59.709  60.195  1.00  0.00     0.000 C 
BRANCH   3   4
ATOM      4  C   UNL     1      45.207  60.226  58.945  1.00  0.00     0.000 C 
BRANCH   4   5
ATOM      5  C   UNL     1      44.035  61.186  59.229  1.00  0.00     0.000 C 
BRANCH   5   6
ATOM      6  C   UNL     1      42.655  60.494  59.259  1.00  0.00     0.000 C 
BRANCH   6   7
ATOM      7  C   UNL     1      42.377  59.688  57.978  1.00  0.00     0.006 C 
BRANCH   7   8
ATOM      8  C   UNL     1      41.243  58.671  58.165  1.00  0.00     0.053 C 
BRANCH   8   9
ATOM      9  C   UNL     1      39.978  59.119  57.501  1.00  0.00     0.041 C 
ATOM     10  O   UNL     1      39.878  60.290  57.051  1.00  0.00    -0.550 OA
ATOM     11  O   UNL     1      38.895  58.253  57.410  1.00  0.00    -0.550 OA
ENDBRANCH   8   9
ENDBRANCH   7   8
ENDBRANCH   6   7
ENDBRANCH   5   6
ENDBRANCH   4   5
ENDBRANCH   3   4
ENDBRANCH   2   3
ENDBRANCH   1   2
BRANCH   1  12
ATOM     12  C   UNL     1      43.786  56.960  60.238  1.00  0.00     0.000 C 
BRANCH  12  13
ATOM     13  C   UNL     1      43.130  55.726  59.593  1.00  0.00    -0.000 C 
BRANCH  13  14
ATOM     14  C   UNL     1      42.462  54.797  60.621  1.00  0.00    -0.000 C 
BRANCH  14  15
ATOM     15  C   UNL     1      41.227  54.035  60.105  1.00  0.00    -0.000 C 
BRANCH  15  16
ATOM     16  C   UNL     1      40.051  54.059  61.098  1.00  0.00    -0.000 C 
BRANCH  16  17
ATOM     17  C   UNL     1      38.719  54.431  60.424  1.00  0.00    -0.000 C 
BRANCH  17  18
ATOM     18  C   UNL     1      38.524  55.952  60.295  1.00  0.00    -0.000 C 
BRANCH  18  19
ATOM     19  C   UNL     1      37.070  56.333  59.978  1.00  0.00    -0.003 C 
ATOM     20  C   UNL     1      36.284  55.186  59.343  1.00  0.00     0.004 C 
ENDBRANCH  18  19
ENDBRANCH  17  18
ENDBRANCH  16  17
ENDBRANCH  15  16
ENDBRANCH  14  15
ENDBRANCH  13  14
ENDBRANCH  12  13
ENDBRANCH   1  12
TORSDOF 16
ENDMDL
MODEL 8
REMARK VINA RESULT:    -5.194      1.704      2.969
REMARK INTER + INTRA:         -11.519
REMARK INTER:                 -10.549
REMARK INTRA:                  -0.970
REMARK UNBOUND:                -1.467
REMARK SMILES CCCCCCCCCCCCCCCCCC(=O)[O-]
REMARK SMILES IDX 10 1 11 2 12 3 13 4 14 5 15 6 16 7 17 8 18 9 19 10 20 11
REMARK SMILES IDX 9 12 8 13 7 14 6 15 5 16 4 17 3 18 2 19 1 20
REMARK H PARENT
REMARK Flexibility Score: inf
ROOT
ATOM      1  C   UNL     1      39.895  56.198  60.267  1.00  0.00     0.000 C 
ENDROOT
BRANCH   1   2
ATOM      2  C   UNL     1      40.345  54.731  60.324  1.00  0.00     0.000 C 
BRANCH   2   3
ATOM      3  C   UNL     1      41.740  54.562  59.703  1.00  0.00     0.000 C 
BRANCH   3   4
ATOM      4  C   UNL     1      42.862  55.107  60.603  1.00  0.00     0.000 C 
BRANCH   4   5
ATOM      5  C   UNL     1      43.692  56.249  59.985  1.00  0.00     0.000 C 
BRANCH   5   6
ATOM      6  C   UNL     1      43.589  57.583  60.757  1.00  0.00     0.000 C 
BRANCH   6   7
ATOM      7  C   UNL     1      43.943  58.796  59.878  1.00  0.00     0.006 C 
BRANCH   7   8
ATOM      8  C   UNL     1      43.665  58.538  58.392  1.00  0.00     0.053 C 
BRANCH   8   9
ATOM      9  C   UNL     1      42.257  58.888  58.019  1.00  0.00     0.041 C 
ATOM     10  O   UNL     1      41.882  60.089  58.021  1.00  0.00    -0.550 OA
ATOM     11  O   UNL     1      41.349  57.884  57.705  1.00  0.00    -0.550 OA
ENDBRANCH   8   9
ENDBRANCH   7   8
ENDBRANCH   6   7
ENDBRANCH   5   6
ENDBRANCH   4   5
ENDBRANCH   3   4
ENDBRANCH   2   3
ENDBRANCH   1   2
BRANCH   1  12
ATOM     12  C   UNL     1      38.443  56.388  60.731  1.00  0.00     0.000 C 
BRANCH  12  13
ATOM     13  C   UNL     1      37.420  56.007  59.645  1.00  0.00    -0.000 C 
BRANCH  13  14
ATOM     14  C   UNL     1      36.608  54.750  60.003  1.00  0.00    -0.000 C 
BRANCH  14  15
ATOM     15  C   UNL     1      35.939  54.045  58.809  1.00  0.00    -0.000 C 
BRANCH  15  16
ATOM     16  C   UNL     1      35.807  52.524  59.009  1.00  0.00    -0.000 C 
BRANCH  16  17
ATOM     17  C   UNL     1      34.998  51.851  57.888  1.00  0.00    -0.000 C 
BRANCH  17  18
ATOM     18  C   UNL     1      33.482  52.066  58.040  1.00  0.00    -0.000 C 
BRANCH  18  19
ATOM     19  C   UNL     1      32.725  50.753  58.293  1.00  0.00    -0.003 C 
ATOM     20  C   UNL     1      31.460  50.952  59.129  1.00  0.00     0.004 C 
ENDBRANCH  18  19
ENDBRANCH  17  18
ENDBRANCH  16  17
ENDBRANCH  15  16
ENDBRANCH  14  15
ENDBRANCH  13  14
ENDBRANCH  12  13
ENDBRANCH   1  12
TORSDOF 16
ENDMDL
MODEL 9
REMARK VINA RESULT:    -5.191      2.640      3.770
REMARK INTER + INTRA:         -11.513
REMARK INTER:                 -10.672
REMARK INTRA:                  -0.841
REMARK UNBOUND:                -1.467
REMARK SMILES CCCCCCCCCCCCCCCCCC(=O)[O-]
REMARK SMILES IDX 10 1 11 2 12 3 13 4 14 5 15 6 16 7 17 8 18 9 19 10 20 11
REMARK SMILES IDX 9 12 8 13 7 14 6 15 5 16 4 17 3 18 2 19 1 20
REMARK H PARENT
REMARK Flexibility Score: inf
ROOT
ATOM      1  C   UNL     1      39.910  56.208  60.264  1.00  0.00     0.000 C 
ENDROOT
BRANCH   1   2
ATOM      2  C   UNL     1      40.302  54.740  60.484  1.00  0.00     0.000 C 
BRANCH   2   3
ATOM      3  C   UNL     1      41.616  54.410  59.761  1.00  0.00     0.000 C 
BRANCH   3   4
ATOM      4  C   UNL     1      42.859  54.838  60.559  1.00  0.00     0.000 C 
BRANCH   4   5
ATOM      5  C   UNL     1      43.384  56.250  60.234  1.00  0.00     0.000 C 
BRANCH   5   6
ATOM      6  C   UNL     1      43.284  56.625  58.739  1.00  0.00     0.000 C 
BRANCH   6   7
ATOM      7  C   UNL     1      43.682  58.087  58.475  1.00  0.00     0.006 C 
BRANCH   7   8
ATOM      8  C   UNL     1      44.569  58.659  59.589  1.00  0.00     0.053 C 
BRANCH   8   9
ATOM      9  C   UNL     1      46.023  58.576  59.241  1.00  0.00     0.041 C 
ATOM     10  O   UNL     1      46.486  59.256  58.288  1.00  0.00    -0.550 OA
ATOM     11  O   UNL     1      46.861  57.721  59.946  1.00  0.00    -0.550 OA
ENDBRANCH   8   9
ENDBRANCH   7   8
ENDBRANCH   6   7
ENDBRANCH   5   6
ENDBRANCH   4   5
ENDBRANCH   3   4
ENDBRANCH   2   3
ENDBRANCH   1   2
BRANCH   1  12
ATOM     12  C   UNL     1      38.463  56.502  60.691  1.00  0.00     0.000 C 
BRANCH  12  13
ATOM     13  C   UNL     1      37.437  56.122  59.608  1.00  0.00    -0.000 C 
BRANCH  13  14
ATOM     14  C   UNL     1      36.588  54.897  59.992  1.00  0.00    -0.000 C 
BRANCH  14  15
ATOM     15  C   UNL     1      35.900  54.186  58.813  1.00  0.00    -0.000 C 
BRANCH  15  16
ATOM     16  C   UNL     1      35.802  52.662  59.007  1.00  0.00    -0.000 C 
BRANCH  16  17
ATOM     17  C   UNL     1      34.982  51.979  57.900  1.00  0.00    -0.000 C 
BRANCH  17  18
ATOM     18  C   UNL     1      33.466  52.174  58.078  1.00  0.00    -0.000 C 
BRANCH  18  19
ATOM     19  C   UNL     1      32.724  50.846  58.293  1.00  0.00    -0.003 C 
ATOM     20  C   UNL     1      31.437  51.013  59.101  1.00  0.00     0.004 C 
ENDBRANCH  18  19
ENDBRANCH  17  18
ENDBRANCH  16  17
ENDBRANCH  15  16
ENDBRANCH  14  15
ENDBRANCH  13  14
ENDBRANCH  12  13
ENDBRANCH   1  12
TORSDOF 16
ENDMDL
