MODEL 1
REMARK VINA RESULT:    -4.794      0.000      0.000
REMARK INTER + INTRA:          -7.697
REMARK INTER:                  -7.317
REMARK INTRA:                  -0.380
REMARK UNBOUND:                -0.380
REMARK SMILES CCCCCCCCCCC(=O)[O-]
REMARK SMILES IDX 7 1 8 2 9 3 10 4 11 5 12 6 13 7 6 8 5 9 4 10 3 11 2 12 1 13
REMARK H PARENT
REMARK Flexibility Score: inf
ROOT
ATOM      1  C   UNL     1      -3.624  37.819  19.907  1.00  0.00     0.000 C 
ENDROOT
BRANCH   1   2
ATOM      2  C   UNL     1      -4.992  37.213  20.244  1.00  0.00     0.000 C 
BRANCH   2   3
ATOM      3  C   UNL     1      -4.856  36.080  21.267  1.00  0.00     0.006 C 
BRANCH   3   4
ATOM      4  C   UNL     1      -6.093  35.999  22.165  1.00  0.00     0.053 C 
BRANCH   4   5
ATOM      5  C   UNL     1      -5.717  35.530  23.536  1.00  0.00     0.041 C 
ATOM      6  O   UNL     1      -5.368  36.360  24.416  1.00  0.00    -0.550 OA
ATOM      7  O   UNL     1      -5.798  34.181  23.855  1.00  0.00    -0.550 OA
ENDBRANCH   4   5
ENDBRANCH   3   4
ENDBRANCH   2   3
ENDBRANCH   1   2
BRANCH   1   8
ATOM      8  C   UNL     1      -3.398  37.858  18.389  1.00  0.00     0.000 C 
BRANCH   8   9
ATOM      9  C   UNL     1      -1.908  37.828  18.002  1.00  0.00    -0.000 C 
BRANCH   9  10
ATOM     10  C   UNL     1      -1.620  37.408  16.550  1.00  0.00    -0.000 C 
BRANCH  10  11
ATOM     11  C   UNL     1      -2.785  36.643  15.905  1.00  0.00    -0.000 C 
BRANCH  11  12
ATOM     12  C   UNL     1      -2.922  37.002  14.420  1.00  0.00    -0.003 C 
ATOM     13  C   UNL     1      -3.842  38.204  14.226  1.00  0.00     0.004 C 
ENDBRANCH  11  12
ENDBRANCH  10  11
ENDBRANCH   9  10
ENDBRANCH   8   9
ENDBRANCH   1   8
TORSDOF 9
ENDMDL
MODEL 2
REMARK VINA RESULT:    -4.667      3.967      7.379
REMARK INTER + INTRA:          -7.502
REMARK INTER:                  -6.980
REMARK INTRA:                  -0.522
REMARK UNBOUND:                -0.380
REMARK SMILES CCCCCCCCCCC(=O)[O-]
REMARK SMILES IDX 7 1 8 2 9 3 10 4 11 5 12 6 13 7 6 8 5 9 4 10 3 11 2 12 1 13
REMARK H PARENT
REMARK Flexibility Score: inf
ROOT
ATOM      1  C   UNL     1      -4.479  38.097  19.627  1.00  0.00     0.000 C 
ENDROOT
BRANCH   1   2
ATOM      2  C   UNL     1      -2.963  37.887  19.727  1.00  0.00     0.000 C 
BRANCH   2   3
ATOM      3  C   UNL     1      -2.310  37.918  18.340  1.00  0.00     0.006 C 
BRANCH   3   4
ATOM      4  C   UNL     1      -3.101  37.069  17.341  1.00  0.00     0.053 C 
BRANCH   4   5
ATOM      5  C   UNL     1      -2.724  37.424  15.937  1.00  0.00     0.041 C 
ATOM      6  O   UNL     1      -3.382  38.290  15.303  1.00  0.00    -0.550 OA
ATOM      7  O   UNL     1      -1.614  36.833  15.346  1.00  0.00    -0.550 OA
ENDBRANCH   4   5
ENDBRANCH   3   4
ENDBRANCH   2   3
ENDBRANCH   1   2
BRANCH   1   8
ATOM      8  C   UNL     1      -5.210  37.380  20.771  1.00  0.00     0.000 C 
BRANCH   8   9
ATOM      9  C   UNL     1      -4.498  36.091  21.224  1.00  0.00    -0.000 C 
BRANCH   9  10
ATOM     10  C   UNL     1      -4.910  35.574  22.613  1.00  0.00    -0.000 C 
BRANCH  10  11
ATOM     11  C   UNL     1      -5.959  36.463  23.298  1.00  0.00    -0.000 C 
BRANCH  11  12
ATOM     12  C   UNL     1      -5.916  36.290  24.820  1.00  0.00    -0.003 C 
ATOM     13  C   UNL     1      -5.319  37.520  25.499  1.00  0.00     0.004 C 
ENDBRANCH  11  12
ENDBRANCH  10  11
ENDBRANCH   9  10
ENDBRANCH   8   9
ENDBRANCH   1   8
TORSDOF 9
ENDMDL
MODEL 3
REMARK VINA RESULT:    -4.660      4.190      7.144
REMARK INTER + INTRA:          -7.492
REMARK INTER:                  -6.998
REMARK INTRA:                  -0.494
REMARK UNBOUND:                -0.380
REMARK SMILES CCCCCCCCCCC(=O)[O-]
REMARK SMILES IDX 7 1 8 2 9 3 10 4 11 5 12 6 13 7 6 8 5 9 4 10 3 11 2 12 1 13
REMARK H PARENT
REMARK Flexibility Score: inf
ROOT
ATOM      1  C   UNL     1      -1.923  37.975  19.648  1.00  0.00     0.000 C 
ENDROOT
BRANCH   1   2
ATOM      2  C   UNL     1      -1.719  37.892  18.130  1.00  0.00     0.000 C 
BRANCH   2   3
ATOM      3  C   UNL     1      -3.062  37.782  17.399  1.00  0.00     0.006 C 
BRANCH   3   4
ATOM      4  C   UNL     1      -3.014  36.697  16.320  1.00  0.00     0.053 C 
BRANCH   4   5
ATOM      5  C   UNL     1      -2.906  37.314  14.961  1.00  0.00     0.041 C 
ATOM      6  O   UNL     1      -2.053  36.891  14.138  1.00  0.00    -0.550 OA
ATOM      7  O   UNL     1      -3.783  38.325  14.586  1.00  0.00    -0.550 OA
ENDBRANCH   4   5
ENDBRANCH   3   4
ENDBRANCH   2   3
ENDBRANCH   1   2
BRANCH   1   8
ATOM      8  C   UNL     1      -3.410  37.851  20.010  1.00  0.00     0.000 C 
BRANCH   8   9
ATOM      9  C   UNL     1      -3.785  36.453  20.536  1.00  0.00    -0.000 C 
BRANCH   9  10
ATOM     10  C   UNL     1      -5.236  36.022  20.260  1.00  0.00    -0.000 C 
BRANCH  10  11
ATOM     11  C   UNL     1      -6.084  35.916  21.536  1.00  0.00    -0.000 C 
BRANCH  11  12
ATOM     12  C   UNL     1      -5.202  35.640  22.760  1.00  0.00    -0.003 C 
ATOM     13  C   UNL     1      -5.978  34.892  23.841  1.00  0.00     0.004 C 
ENDBRANCH  11  12
ENDBRANCH  10  11
ENDBRANCH   9  10
ENDBRANCH   8   9
ENDBRANCH   1   8
TORSDOF 9
ENDMDL
MODEL 4
REMARK VINA RESULT:    -4.511      0.936      1.549
REMARK INTER + INTRA:          -7.264
REMARK INTER:                  -6.648
REMARK INTRA:                  -0.616
REMARK UNBOUND:                -0.380
REMARK SMILES CCCCCCCCCCC(=O)[O-]
REMARK SMILES IDX 7 1 8 2 9 3 10 4 11 5 12 6 13 7 6 8 5 9 4 10 3 11 2 12 1 13
REMARK H PARENT
REMARK Flexibility Score: inf
ROOT
ATOM      1  C   UNL     1      -3.731  36.207  20.764  1.00  0.00     0.000 C 
ENDROOT
BRANCH   1   2
ATOM      2  C   UNL     1      -5.173  36.014  20.277  1.00  0.00     0.000 C 
BRANCH   2   3
ATOM      3  C   UNL     1      -6.124  35.771  21.455  1.00  0.00     0.006 C 
BRANCH   3   4
ATOM      4  C   UNL     1      -5.739  36.635  22.659  1.00  0.00     0.053 C 
BRANCH   4   5
ATOM      5  C   UNL     1      -5.924  35.871  23.933  1.00  0.00     0.041 C 
ATOM      6  O   UNL     1      -6.053  36.482  25.026  1.00  0.00    -0.550 OA
ATOM      7  O   UNL     1      -6.003  34.484  23.905  1.00  0.00    -0.550 OA
ENDBRANCH   4   5
ENDBRANCH   3   4
ENDBRANCH   2   3
ENDBRANCH   1   2
BRANCH   1   8
ATOM      8  C   UNL     1      -3.006  37.269  19.924  1.00  0.00     0.000 C 
BRANCH   8   9
ATOM      9  C   UNL     1      -3.857  37.791  18.751  1.00  0.00    -0.000 C 
BRANCH   9  10
ATOM     10  C   UNL     1      -3.063  38.162  17.486  1.00  0.00    -0.000 C 
BRANCH  10  11
ATOM     11  C   UNL     1      -1.726  37.415  17.376  1.00  0.00    -0.000 C 
BRANCH  11  12
ATOM     12  C   UNL     1      -1.657  36.602  16.078  1.00  0.00    -0.003 C 
ATOM     13  C   UNL     1      -2.794  36.976  15.131  1.00  0.00     0.004 C 
ENDBRANCH  11  12
ENDBRANCH  10  11
ENDBRANCH   9  10
ENDBRANCH   8   9
ENDBRANCH   1   8
TORSDOF 9
ENDMDL
MODEL 5
REMARK VINA RESULT:    -4.296      1.087      1.639
REMARK INTER + INTRA:          -6.936
REMARK INTER:                  -6.544
REMARK INTRA:                  -0.392
REMARK UNBOUND:                -0.380
REMARK SMILES CCCCCCCCCCC(=O)[O-]
REMARK SMILES IDX 7 1 8 2 9 3 10 4 11 5 12 6 13 7 6 8 5 9 4 10 3 11 2 12 1 13
REMARK H PARENT
REMARK Flexibility Score: inf
ROOT
ATOM      1  C   UNL     1      -3.954  36.570  20.096  1.00  0.00     0.000 C 
ENDROOT
BRANCH   1   2
ATOM      2  C   UNL     1      -4.974  37.561  20.670  1.00  0.00     0.000 C 
BRANCH   2   3
ATOM      3  C   UNL     1      -5.737  36.945  21.848  1.00  0.00     0.006 C 
BRANCH   3   4
ATOM      4  C   UNL     1      -4.935  35.810  22.490  1.00  0.00     0.053 C 
BRANCH   4   5
ATOM      5  C   UNL     1      -5.546  35.409  23.796  1.00  0.00     0.041 C 
ATOM      6  O   UNL     1      -6.013  34.250  23.948  1.00  0.00    -0.550 OA
ATOM      7  O   UNL     1      -5.554  36.301  24.861  1.00  0.00    -0.550 OA
ENDBRANCH   4   5
ENDBRANCH   3   4
ENDBRANCH   2   3
ENDBRANCH   1   2
BRANCH   1   8
ATOM      8  C   UNL     1      -4.574  35.734  18.967  1.00  0.00     0.000 C 
BRANCH   8   9
ATOM      9  C   UNL     1      -3.893  35.965  17.605  1.00  0.00    -0.000 C 
BRANCH   9  10
ATOM     10  C   UNL     1      -3.141  37.300  17.472  1.00  0.00    -0.000 C 
BRANCH  10  11
ATOM     11  C   UNL     1      -2.045  37.267  16.397  1.00  0.00    -0.000 C 
BRANCH  11  12
ATOM     12  C   UNL     1      -2.634  36.936  15.021  1.00  0.00    -0.003 C 
ATOM     13  C   UNL     1      -3.574  38.040  14.543  1.00  0.00     0.004 C 
ENDBRANCH  11  12
ENDBRANCH  10  11
ENDBRANCH   9  10
ENDBRANCH   8   9
ENDBRANCH   1   8
TORSDOF 9
ENDMDL
MODEL 6
REMARK VINA RESULT:    -4.013      4.364      6.579
REMARK INTER + INTRA:          -6.505
REMARK INTER:                  -5.779
REMARK INTRA:                  -0.726
REMARK UNBOUND:                -0.380
REMARK SMILES CCCCCCCCCCC(=O)[O-]
REMARK SMILES IDX 7 1 8 2 9 3 10 4 11 5 12 6 13 7 6 8 5 9 4 10 3 11 2 12 1 13
REMARK H PARENT
REMARK Flexibility Score: inf
ROOT
ATOM      1  C   UNL     1      -2.131  38.371  18.545  1.00  0.00     0.000 C 
ENDROOT
BRANCH   1   2
ATOM      2  C   UNL     1      -1.120  37.529  17.757  1.00  0.00     0.000 C 
BRANCH   2   3
ATOM      3  C   UNL     1      -1.711  37.069  16.420  1.00  0.00     0.006 C 
BRANCH   3   4
ATOM      4  C   UNL     1      -3.097  37.679  16.192  1.00  0.00     0.053 C 
BRANCH   4   5
ATOM      5  C   UNL     1      -3.346  37.883  14.730  1.00  0.00     0.041 C 
ATOM      6  O   UNL     1      -2.963  37.022  13.895  1.00  0.00    -0.550 OA
ATOM      7  O   UNL     1      -4.044  39.002  14.295  1.00  0.00    -0.550 OA
ENDBRANCH   4   5
ENDBRANCH   3   4
ENDBRANCH   2   3
ENDBRANCH   1   2
BRANCH   1   8
ATOM      8  C   UNL     1      -2.733  37.564  19.705  1.00  0.00     0.000 C 
BRANCH   8   9
ATOM      9  C   UNL     1      -3.975  38.233  20.321  1.00  0.00    -0.000 C 
BRANCH   9  10
ATOM     10  C   UNL     1      -5.321  37.611  19.909  1.00  0.00    -0.000 C 
BRANCH  10  11
ATOM     11  C   UNL     1      -5.509  36.182  20.437  1.00  0.00    -0.000 C 
BRANCH  11  12
ATOM     12  C   UNL     1      -6.078  35.265  19.349  1.00  0.00    -0.003 C 
ATOM     13  C   UNL     1      -5.005  34.880  18.334  1.00  0.00     0.004 C 
ENDBRANCH  11  12
ENDBRANCH  10  11
ENDBRANCH   9  10
ENDBRANCH   8   9
ENDBRANCH   1   8
TORSDOF 9
ENDMDL
MODEL 7
REMARK VINA RESULT:    -3.843      2.850      3.464
REMARK INTER + INTRA:          -6.245
REMARK INTER:                  -5.721
REMARK INTRA:                  -0.524
REMARK UNBOUND:                -0.380
REMARK SMILES CCCCCCCCCCC(=O)[O-]
REMARK SMILES IDX 7 1 8 2 9 3 10 4 11 5 12 6 13 7 6 8 5 9 4 10 3 11 2 12 1 13
REMARK H PARENT
REMARK Flexibility Score: inf
ROOT
ATOM      1  C   UNL     1      -4.909  37.033  20.018  1.00  0.00     0.000 C 
ENDROOT
BRANCH   1   2
ATOM      2  C   UNL     1      -5.368  38.495  19.947  1.00  0.00     0.000 C 
BRANCH   2   3
ATOM      3  C   UNL     1      -5.366  39.141  21.337  1.00  0.00     0.006 C 
BRANCH   3   4
ATOM      4  C   UNL     1      -6.018  40.526  21.300  1.00  0.00     0.053 C 
BRANCH   4   5
ATOM      5  C   UNL     1      -5.815  41.236  22.603  1.00  0.00     0.041 C 
ATOM      6  O   UNL     1      -6.125  42.451  22.718  1.00  0.00    -0.550 OA
ATOM      7  O   UNL     1      -5.331  40.540  23.704  1.00  0.00    -0.550 OA
ENDBRANCH   4   5
ENDBRANCH   3   4
ENDBRANCH   2   3
ENDBRANCH   1   2
BRANCH   1   8
ATOM      8  C   UNL     1      -3.823  36.747  18.971  1.00  0.00     0.000 C 
BRANCH   8   9
ATOM      9  C   UNL     1      -2.937  37.972  18.674  1.00  0.00    -0.000 C 
BRANCH   9  10
ATOM     10  C   UNL     1      -2.306  37.994  17.271  1.00  0.00    -0.000 C 
BRANCH  10  11
ATOM     11  C   UNL     1      -2.413  36.645  16.544  1.00  0.00    -0.000 C 
BRANCH  11  12
ATOM     12  C   UNL     1      -2.918  36.834  15.108  1.00  0.00    -0.003 C 
ATOM     13  C   UNL     1      -3.401  38.263  14.877  1.00  0.00     0.004 C 
ENDBRANCH  11  12
ENDBRANCH  10  11
ENDBRANCH   9  10
ENDBRANCH   8   9
ENDBRANCH   1   8
TORSDOF 9
ENDMDL
MODEL 8
REMARK VINA RESULT:    -3.828      3.009      6.364
REMARK INTER + INTRA:          -6.223
REMARK INTER:                  -5.719
REMARK INTRA:                  -0.504
REMARK UNBOUND:                -0.380
REMARK SMILES CCCCCCCCCCC(=O)[O-]
REMARK SMILES IDX 7 1 8 2 9 3 10 4 11 5 12 6 13 7 6 8 5 9 4 10 3 11 2 12 1 13
REMARK H PARENT
REMARK Flexibility Score: inf
ROOT
ATOM      1  C   UNL     1      -4.189  36.358  17.981  1.00  0.00     0.000 C 
ENDROOT
BRANCH   1   2
ATOM      2  C   UNL     1      -3.188  36.052  16.859  1.00  0.00     0.000 C 
BRANCH   2   3
ATOM      3  C   UNL     1      -2.131  37.158  16.748  1.00  0.00     0.006 C 
BRANCH   3   4
ATOM      4  C   UNL     1      -2.321  38.212  17.842  1.00  0.00     0.053 C 
BRANCH   4   5
ATOM      5  C   UNL     1      -1.317  38.019  18.935  1.00  0.00     0.041 C 
ATOM      6  O   UNL     1      -0.091  38.188  18.707  1.00  0.00    -0.550 OA
ATOM      7  O   UNL     1      -1.742  37.700  20.219  1.00  0.00    -0.550 OA
ENDBRANCH   4   5
ENDBRANCH   3   4
ENDBRANCH   2   3
ENDBRANCH   1   2
BRANCH   1   8
ATOM      8  C   UNL     1      -4.912  35.082  18.434  1.00  0.00     0.000 C 
BRANCH   8   9
ATOM      9  C   UNL     1      -5.926  35.336  19.566  1.00  0.00    -0.000 C 
BRANCH   9  10
ATOM     10  C   UNL     1      -5.550  36.472  20.534  1.00  0.00    -0.000 C 
BRANCH  10  11
ATOM     11  C   UNL     1      -4.638  36.007  21.678  1.00  0.00    -0.000 C 
BRANCH  11  12
ATOM     12  C   UNL     1      -5.345  36.141  23.033  1.00  0.00    -0.003 C 
ATOM     13  C   UNL     1      -6.124  34.875  23.376  1.00  0.00     0.004 C 
ENDBRANCH  11  12
ENDBRANCH  10  11
ENDBRANCH   9  10
ENDBRANCH   8   9
ENDBRANCH   1   8
TORSDOF 9
ENDMDL
MODEL 9
REMARK VINA RESULT:    -3.778      3.148      7.118
REMARK INTER + INTRA:          -6.145
REMARK INTER:                  -6.061
REMARK INTRA:                  -0.084
REMARK UNBOUND:                -0.380
REMARK SMILES CCCCCCCCCCC(=O)[O-]
REMARK SMILES IDX 7 1 8 2 9 3 10 4 11 5 12 6 13 7 6 8 5 9 4 10 3 11 2 12 1 13
REMARK H PARENT
REMARK Flexibility Score: inf
ROOT
ATOM      1  C   UNL     1      -5.000  37.284  19.735  1.00  0.00     0.000 C 
ENDROOT
BRANCH   1   2
ATOM      2  C   UNL     1      -3.926  36.658  18.836  1.00  0.00     0.000 C 
BRANCH   2   3
ATOM      3  C   UNL     1      -3.445  37.656  17.776  1.00  0.00     0.006 C 
BRANCH   3   4
ATOM      4  C   UNL     1      -1.936  37.530  17.547  1.00  0.00     0.053 C 
BRANCH   4   5
ATOM      5  C   UNL     1      -1.181  38.136  18.689  1.00  0.00     0.041 C 
ATOM      6  O   UNL     1      -1.799  38.605  19.680  1.00  0.00    -0.550 OA
ATOM      7  O   UNL     1       0.208  38.136  18.679  1.00  0.00    -0.550 OA
ENDBRANCH   4   5
ENDBRANCH   3   4
ENDBRANCH   2   3
ENDBRANCH   1   2
BRANCH   1   8
ATOM      8  C   UNL     1      -5.591  36.240  20.693  1.00  0.00     0.000 C 
BRANCH   8   9
ATOM      9  C   UNL     1      -4.593  35.786  21.776  1.00  0.00    -0.000 C 
BRANCH   9  10
ATOM     10  C   UNL     1      -5.234  35.284  23.082  1.00  0.00    -0.000 C 
BRANCH  10  11
ATOM     11  C   UNL     1      -6.124  36.338  23.757  1.00  0.00    -0.000 C 
BRANCH  11  12
ATOM     12  C   UNL     1      -5.765  36.491  25.240  1.00  0.00    -0.003 C 
ATOM     13  C   UNL     1      -5.092  37.834  25.509  1.00  0.00     0.004 C 
ENDBRANCH  11  12
ENDBRANCH  10  11
ENDBRANCH   9  10
ENDBRANCH   8   9
ENDBRANCH   1   8
TORSDOF 9
ENDMDL
