MODEL 1
REMARK VINA RESULT:    -6.633      0.000      0.000
REMARK INTER + INTRA:          -6.633
REMARK INTER:                  -6.633
REMARK INTRA:                   0.000
REMARK UNBOUND:                 0.000
REMARK SMILES CC1=CC[C@]23C[C@H]1C(C)(C)[C@H]2CC[C@H]3C
REMARK SMILES IDX 15 1 14 2 13 3 12 4 11 5 5 6 4 7 3 8 2 9 7 10 6 11 8 12 9 13
REMARK SMILES IDX 10 14 1 15
REMARK H PARENT
REMARK Flexibility Score: inf
ROOT
ATOM      1  C   UNL     1      -1.051  11.729   6.229  1.00  0.00     0.008 C 
ATOM      2  C   UNL     1      -0.551  13.165   6.011  1.00  0.00    -0.007 C 
ATOM      3  C   UNL     1      -1.595  14.037   5.298  1.00  0.00     0.004 C 
ATOM      4  C   UNL     1      -1.032  14.333   3.920  1.00  0.00     0.005 C 
ATOM      5  C   UNL     1       0.492  14.346   4.101  1.00  0.00     0.002 C 
ATOM      6  C   UNL     1       0.765  13.287   5.184  1.00  0.00    -0.020 C 
ATOM      7  C   UNL     1       1.971  13.695   6.089  1.00  0.00     0.035 C 
ATOM      8  C   UNL     1       3.310  13.594   5.381  1.00  0.00    -0.027 C 
ATOM      9  C   UNL     1       3.419  13.067   4.142  1.00  0.00    -0.074 C 
ATOM     10  C   UNL     1       2.156  12.695   3.366  1.00  0.00     0.021 C 
ATOM     11  C   UNL     1       1.182  12.060   4.357  1.00  0.00     0.016 C 
ATOM     12  C   UNL     1       1.381  13.955   2.865  1.00  0.00    -0.025 C 
ATOM     13  C   UNL     1       0.583  13.583   1.588  1.00  0.00     0.012 C 
ATOM     14  C   UNL     1       2.314  15.133   2.480  1.00  0.00     0.012 C 
ATOM     15  C   UNL     1       4.776  12.892   3.518  1.00  0.00     0.039 C 
ENDROOT
TORSDOF 0
ENDMDL
MODEL 2
REMARK VINA RESULT:    -5.843      1.970      3.902
REMARK INTER + INTRA:          -5.843
REMARK INTER:                  -5.843
REMARK INTRA:                   0.000
REMARK UNBOUND:                 0.000
REMARK SMILES CC1=CC[C@]23C[C@H]1C(C)(C)[C@H]2CC[C@H]3C
REMARK SMILES IDX 15 1 14 2 13 3 12 4 11 5 5 6 4 7 3 8 2 9 7 10 6 11 8 12 9 13
REMARK SMILES IDX 10 14 1 15
REMARK H PARENT
REMARK Flexibility Score: inf
ROOT
ATOM      1  C   UNL     1       2.676  12.307   3.698  1.00  0.00     0.008 C 
ATOM      2  C   UNL     1       2.046  13.708   3.728  1.00  0.00    -0.007 C 
ATOM      3  C   UNL     1       0.714  13.725   4.491  1.00  0.00     0.004 C 
ATOM      4  C   UNL     1      -0.367  13.978   3.457  1.00  0.00     0.005 C 
ATOM      5  C   UNL     1       0.304  14.832   2.373  1.00  0.00     0.002 C 
ATOM      6  C   UNL     1       1.759  14.331   2.327  1.00  0.00    -0.020 C 
ATOM      7  C   UNL     1       2.753  15.494   2.007  1.00  0.00     0.035 C 
ATOM      8  C   UNL     1       2.670  15.971   0.569  1.00  0.00    -0.027 C 
ATOM      9  C   UNL     1       1.904  15.336  -0.347  1.00  0.00    -0.074 C 
ATOM     10  C   UNL     1       0.983  14.201   0.098  1.00  0.00     0.021 C 
ATOM     11  C   UNL     1       1.746  13.370   1.128  1.00  0.00     0.016 C 
ATOM     12  C   UNL     1      -0.248  14.723   0.905  1.00  0.00    -0.025 C 
ATOM     13  C   UNL     1      -1.425  13.728   0.731  1.00  0.00     0.012 C 
ATOM     14  C   UNL     1      -0.756  16.105   0.417  1.00  0.00     0.012 C 
ATOM     15  C   UNL     1       1.929  15.779  -1.783  1.00  0.00     0.039 C 
ENDROOT
TORSDOF 0
ENDMDL
MODEL 3
REMARK VINA RESULT:    -5.372      2.194      4.050
REMARK INTER + INTRA:          -5.372
REMARK INTER:                  -5.372
REMARK INTRA:                   0.000
REMARK UNBOUND:                 0.000
REMARK SMILES CC1=CC[C@]23C[C@H]1C(C)(C)[C@H]2CC[C@H]3C
REMARK SMILES IDX 15 1 14 2 13 3 12 4 11 5 5 6 4 7 3 8 2 9 7 10 6 11 8 12 9 13
REMARK SMILES IDX 10 14 1 15
REMARK H PARENT
REMARK Flexibility Score: inf
ROOT
ATOM      1  C   UNL     1      -1.926  13.057  -0.250  1.00  0.00     0.008 C 
ATOM      2  C   UNL     1      -1.611  14.360   0.500  1.00  0.00    -0.007 C 
ATOM      3  C   UNL     1      -1.690  15.588  -0.419  1.00  0.00     0.004 C 
ATOM      4  C   UNL     1      -0.270  16.102  -0.567  1.00  0.00     0.005 C 
ATOM      5  C   UNL     1       0.428  15.743   0.752  1.00  0.00     0.002 C 
ATOM      6  C   UNL     1      -0.209  14.408   1.179  1.00  0.00    -0.020 C 
ATOM      7  C   UNL     1      -0.325  14.303   2.734  1.00  0.00     0.035 C 
ATOM      8  C   UNL     1       1.014  14.105   3.421  1.00  0.00    -0.027 C 
ATOM      9  C   UNL     1       2.150  13.903   2.716  1.00  0.00    -0.074 C 
ATOM     10  C   UNL     1       2.124  14.021   1.193  1.00  0.00     0.021 C 
ATOM     11  C   UNL     1       0.828  13.375   0.707  1.00  0.00     0.016 C 
ATOM     12  C   UNL     1       1.981  15.502   0.720  1.00  0.00    -0.025 C 
ATOM     13  C   UNL     1       2.627  15.649  -0.683  1.00  0.00     0.012 C 
ATOM     14  C   UNL     1       2.701  16.513   1.650  1.00  0.00     0.012 C 
ATOM     15  C   UNL     1       3.437  13.610   3.437  1.00  0.00     0.039 C 
ENDROOT
TORSDOF 0
ENDMDL
MODEL 4
REMARK VINA RESULT:    -5.122      2.810      6.280
REMARK INTER + INTRA:          -5.122
REMARK INTER:                  -5.122
REMARK INTRA:                   0.000
REMARK UNBOUND:                 0.000
REMARK SMILES CC1=CC[C@]23C[C@H]1C(C)(C)[C@H]2CC[C@H]3C
REMARK SMILES IDX 15 1 14 2 13 3 12 4 11 5 5 6 4 7 3 8 2 9 7 10 6 11 8 12 9 13
REMARK SMILES IDX 10 14 1 15
REMARK H PARENT
REMARK Flexibility Score: inf
ROOT
ATOM      1  C   UNL     1       3.438  15.642  -2.099  1.00  0.00     0.008 C 
ATOM      2  C   UNL     1       2.522  16.343  -1.084  1.00  0.00    -0.007 C 
ATOM      3  C   UNL     1       3.285  16.788   0.171  1.00  0.00     0.004 C 
ATOM      4  C   UNL     1       2.781  15.919   1.308  1.00  0.00     0.005 C 
ATOM      5  C   UNL     1       1.325  15.592   0.949  1.00  0.00     0.002 C 
ATOM      6  C   UNL     1       1.315  15.491  -0.587  1.00  0.00    -0.020 C 
ATOM      7  C   UNL     1      -0.033  16.008  -1.184  1.00  0.00     0.035 C 
ATOM      8  C   UNL     1      -1.200  15.073  -0.922  1.00  0.00    -0.027 C 
ATOM      9  C   UNL     1      -1.024  13.861  -0.353  1.00  0.00    -0.074 C 
ATOM     10  C   UNL     1       0.355  13.470   0.179  1.00  0.00     0.021 C 
ATOM     11  C   UNL     1       1.391  13.974  -0.824  1.00  0.00     0.016 C 
ATOM     12  C   UNL     1       0.721  14.243   1.486  1.00  0.00    -0.025 C 
ATOM     13  C   UNL     1       1.706  13.384   2.322  1.00  0.00     0.012 C 
ATOM     14  C   UNL     1      -0.505  14.525   2.393  1.00  0.00     0.012 C 
ATOM     15  C   UNL     1      -2.191  12.924  -0.205  1.00  0.00     0.039 C 
ENDROOT
TORSDOF 0
ENDMDL
MODEL 5
REMARK VINA RESULT:    -5.024      1.876      4.633
REMARK INTER + INTRA:          -5.024
REMARK INTER:                  -5.024
REMARK INTRA:                   0.000
REMARK UNBOUND:                 0.000
REMARK SMILES CC1=CC[C@]23C[C@H]1C(C)(C)[C@H]2CC[C@H]3C
REMARK SMILES IDX 15 1 14 2 13 3 12 4 11 5 5 6 4 7 3 8 2 9 7 10 6 11 8 12 9 13
REMARK SMILES IDX 10 14 1 15
REMARK H PARENT
REMARK Flexibility Score: inf
ROOT
ATOM      1  C   UNL     1       1.355  12.826   4.441  1.00  0.00     0.008 C 
ATOM      2  C   UNL     1       2.370  12.842   3.288  1.00  0.00    -0.007 C 
ATOM      3  C   UNL     1       3.772  13.254   3.759  1.00  0.00     0.004 C 
ATOM      4  C   UNL     1       4.045  14.615   3.146  1.00  0.00     0.005 C 
ATOM      5  C   UNL     1       3.270  14.622   1.821  1.00  0.00     0.002 C 
ATOM      6  C   UNL     1       2.007  13.788   2.103  1.00  0.00    -0.020 C 
ATOM      7  C   UNL     1       1.565  12.978   0.842  1.00  0.00     0.035 C 
ATOM      8  C   UNL     1       0.978  13.851  -0.252  1.00  0.00    -0.027 C 
ATOM      9  C   UNL     1       0.747  15.169  -0.062  1.00  0.00    -0.074 C 
ATOM     10  C   UNL     1       1.220  15.838   1.228  1.00  0.00     0.021 C 
ATOM     11  C   UNL     1       0.946  14.866   2.374  1.00  0.00     0.016 C 
ATOM     12  C   UNL     1       2.772  16.007   1.269  1.00  0.00    -0.025 C 
ATOM     13  C   UNL     1       3.124  17.223   2.165  1.00  0.00     0.012 C 
ATOM     14  C   UNL     1       3.392  16.286  -0.125  1.00  0.00     0.012 C 
ATOM     15  C   UNL     1       0.070  15.974  -1.136  1.00  0.00     0.039 C 
ENDROOT
TORSDOF 0
ENDMDL
MODEL 6
REMARK VINA RESULT:    -4.970      2.737      5.595
REMARK INTER + INTRA:          -4.970
REMARK INTER:                  -4.970
REMARK INTRA:                   0.000
REMARK UNBOUND:                 0.000
REMARK SMILES CC1=CC[C@]23C[C@H]1C(C)(C)[C@H]2CC[C@H]3C
REMARK SMILES IDX 15 1 14 2 13 3 12 4 11 5 5 6 4 7 3 8 2 9 7 10 6 11 8 12 9 13
REMARK SMILES IDX 10 14 1 15
REMARK H PARENT
REMARK Flexibility Score: inf
ROOT
ATOM      1  C   UNL     1       1.765  13.770   3.138  1.00  0.00     0.008 C 
ATOM      2  C   UNL     1       2.069  14.211   1.698  1.00  0.00    -0.007 C 
ATOM      3  C   UNL     1       2.494  15.684   1.623  1.00  0.00     0.004 C 
ATOM      4  C   UNL     1       1.372  16.417   0.912  1.00  0.00     0.005 C 
ATOM      5  C   UNL     1       0.762  15.386  -0.047  1.00  0.00     0.002 C 
ATOM      6  C   UNL     1       0.888  14.042   0.693  1.00  0.00    -0.020 C 
ATOM      7  C   UNL     1       1.150  12.865  -0.301  1.00  0.00     0.035 C 
ATOM      8  C   UNL     1      -0.065  12.509  -1.138  1.00  0.00    -0.027 C 
ATOM      9  C   UNL     1      -1.270  13.079  -0.917  1.00  0.00    -0.074 C 
ATOM     10  C   UNL     1      -1.393  14.215   0.097  1.00  0.00     0.021 C 
ATOM     11  C   UNL     1      -0.514  13.856   1.294  1.00  0.00     0.016 C 
ATOM     12  C   UNL     1      -0.756  15.542  -0.425  1.00  0.00    -0.025 C 
ATOM     13  C   UNL     1      -1.468  16.744   0.248  1.00  0.00     0.012 C 
ATOM     14  C   UNL     1      -0.912  15.732  -1.957  1.00  0.00     0.012 C 
ATOM     15  C   UNL     1      -2.470  12.624  -1.701  1.00  0.00     0.039 C 
ENDROOT
TORSDOF 0
ENDMDL
MODEL 7
REMARK VINA RESULT:    -4.764      2.638      5.563
REMARK INTER + INTRA:          -4.764
REMARK INTER:                  -4.764
REMARK INTRA:                   0.000
REMARK UNBOUND:                 0.000
REMARK SMILES CC1=CC[C@]23C[C@H]1C(C)(C)[C@H]2CC[C@H]3C
REMARK SMILES IDX 15 1 14 2 13 3 12 4 11 5 5 6 4 7 3 8 2 9 7 10 6 11 8 12 9 13
REMARK SMILES IDX 10 14 1 15
REMARK H PARENT
REMARK Flexibility Score: inf
ROOT
ATOM      1  C   UNL     1      -0.676  15.522  -2.125  1.00  0.00     0.008 C 
ATOM      2  C   UNL     1       0.537  14.644  -1.780  1.00  0.00    -0.007 C 
ATOM      3  C   UNL     1       0.125  13.213  -1.405  1.00  0.00     0.004 C 
ATOM      4  C   UNL     1       0.422  13.058   0.075  1.00  0.00     0.005 C 
ATOM      5  C   UNL     1       1.621  13.977   0.344  1.00  0.00     0.002 C 
ATOM      6  C   UNL     1       1.419  15.171  -0.607  1.00  0.00    -0.020 C 
ATOM      7  C   UNL     1       2.785  15.724  -1.125  1.00  0.00     0.035 C 
ATOM      8  C   UNL     1       3.574  16.461  -0.059  1.00  0.00    -0.027 C 
ATOM      9  C   UNL     1       3.053  16.714   1.162  1.00  0.00    -0.074 C 
ATOM     10  C   UNL     1       1.695  16.122   1.540  1.00  0.00     0.021 C 
ATOM     11  C   UNL     1       0.792  16.231   0.313  1.00  0.00     0.016 C 
ATOM     12  C   UNL     1       1.773  14.582   1.787  1.00  0.00    -0.025 C 
ATOM     13  C   UNL     1       0.654  14.173   2.780  1.00  0.00     0.012 C 
ATOM     14  C   UNL     1       3.116  14.133   2.420  1.00  0.00     0.012 C 
ATOM     15  C   UNL     1       3.829  17.535   2.154  1.00  0.00     0.039 C 
ENDROOT
TORSDOF 0
ENDMDL
MODEL 8
REMARK VINA RESULT:    -4.763      1.211      4.340
REMARK INTER + INTRA:          -4.763
REMARK INTER:                  -4.763
REMARK INTRA:                   0.000
REMARK UNBOUND:                 0.000
REMARK SMILES CC1=CC[C@]23C[C@H]1C(C)(C)[C@H]2CC[C@H]3C
REMARK SMILES IDX 15 1 14 2 13 3 12 4 11 5 5 6 4 7 3 8 2 9 7 10 6 11 8 12 9 13
REMARK SMILES IDX 10 14 1 15
REMARK H PARENT
REMARK Flexibility Score: inf
ROOT
ATOM      1  C   UNL     1       1.567  14.664  -0.209  1.00  0.00     0.008 C 
ATOM      2  C   UNL     1       1.700  15.412   1.127  1.00  0.00    -0.007 C 
ATOM      3  C   UNL     1       3.091  16.039   1.300  1.00  0.00     0.004 C 
ATOM      4  C   UNL     1       3.770  15.269   2.417  1.00  0.00     0.005 C 
ATOM      5  C   UNL     1       2.633  14.812   3.341  1.00  0.00     0.002 C 
ATOM      6  C   UNL     1       1.447  14.543   2.397  1.00  0.00    -0.020 C 
ATOM      7  C   UNL     1       0.086  14.905   3.073  1.00  0.00     0.035 C 
ATOM      8  C   UNL     1      -0.315  13.932   4.166  1.00  0.00    -0.027 C 
ATOM      9  C   UNL     1       0.388  12.802   4.404  1.00  0.00    -0.074 C 
ATOM     10  C   UNL     1       1.701  12.561   3.661  1.00  0.00     0.021 C 
ATOM     11  C   UNL     1       1.500  13.017   2.217  1.00  0.00     0.016 C 
ATOM     12  C   UNL     1       2.845  13.494   4.171  1.00  0.00    -0.025 C 
ATOM     13  C   UNL     1       4.210  12.795   3.934  1.00  0.00     0.012 C 
ATOM     14  C   UNL     1       2.756  13.794   5.690  1.00  0.00     0.012 C 
ATOM     15  C   UNL     1      -0.102  11.815   5.426  1.00  0.00     0.039 C 
ENDROOT
TORSDOF 0
ENDMDL
MODEL 9
REMARK VINA RESULT:    -4.376      3.155      5.852
REMARK INTER + INTRA:          -4.376
REMARK INTER:                  -4.376
REMARK INTRA:                   0.000
REMARK UNBOUND:                 0.000
REMARK SMILES CC1=CC[C@]23C[C@H]1C(C)(C)[C@H]2CC[C@H]3C
REMARK SMILES IDX 15 1 14 2 13 3 12 4 11 5 5 6 4 7 3 8 2 9 7 10 6 11 8 12 9 13
REMARK SMILES IDX 10 14 1 15
REMARK H PARENT
REMARK Flexibility Score: inf
ROOT
ATOM      1  C   UNL     1       2.302  15.732   0.987  1.00  0.00     0.008 C 
ATOM      2  C   UNL     1       1.490  14.452   1.234  1.00  0.00    -0.007 C 
ATOM      3  C   UNL     1       1.719  13.403   0.136  1.00  0.00     0.004 C 
ATOM      4  C   UNL     1       0.414  13.297  -0.631  1.00  0.00     0.005 C 
ATOM      5  C   UNL     1      -0.683  13.612   0.395  1.00  0.00     0.002 C 
ATOM      6  C   UNL     1      -0.052  14.658   1.332  1.00  0.00    -0.020 C 
ATOM      7  C   UNL     1      -0.558  14.486   2.801  1.00  0.00     0.035 C 
ATOM      8  C   UNL     1      -2.003  14.909   2.988  1.00  0.00    -0.027 C 
ATOM      9  C   UNL     1      -2.704  15.501   1.995  1.00  0.00    -0.074 C 
ATOM     10  C   UNL     1      -2.086  15.618   0.603  1.00  0.00     0.021 C 
ATOM     11  C   UNL     1      -0.613  15.981   0.786  1.00  0.00     0.016 C 
ATOM     12  C   UNL     1      -2.024  14.242  -0.132  1.00  0.00    -0.025 C 
ATOM     13  C   UNL     1      -2.064  14.484  -1.664  1.00  0.00     0.012 C 
ATOM     14  C   UNL     1      -3.222  13.316   0.204  1.00  0.00     0.012 C 
ATOM     15  C   UNL     1      -4.100  15.996   2.254  1.00  0.00     0.039 C 
ENDROOT
TORSDOF 0
ENDMDL
