MODEL 1
REMARK VINA RESULT:    -3.899      0.000      0.000
REMARK INTER + INTRA:          -5.955
REMARK INTER:                  -5.951
REMARK INTRA:                  -0.004
REMARK UNBOUND:                -0.004
REMARK SMILES CC1=CCC[C@@H](C)C(=O)C[C@@H](C(C)C)C(=O)C1
REMARK SMILES IDX 8 1 9 2 6 3 7 4 5 5 4 6 3 7 2 8 1 9 10 11 11 12 15 13 16 14
REMARK SMILES IDX 17 15 12 17 13 18 14 19
REMARK H PARENT
REMARK Flexibility Score: 70.00
ROOT
ATOM      1  C   UNL     1     -10.288  19.904   6.051  1.00  0.00     0.136 C 
ATOM      2  O   UNL     1     -10.933  20.943   6.111  1.00  0.00    -0.299 OA
ENDROOT
BRANCH   1   3
ATOM      3  C   UNL     1     -10.539  18.940   4.900  1.00  0.00     0.053 C 
ATOM      4  C   UNL     1     -11.550  19.516   3.896  1.00  0.00     0.016 C 
BRANCH   3   5
ATOM      5  C   UNL     1     -10.977  17.534   5.381  1.00  0.00     0.015 C 
BRANCH   5   6
ATOM      6  C   UNL     1      -9.866  16.457   5.340  1.00  0.00     0.028 C 
BRANCH   6   7
ATOM      7  C   UNL     1      -9.736  15.716   6.648  1.00  0.00    -0.028 C 
ATOM      8  C   UNL     1      -8.638  15.723   7.441  1.00  0.00    -0.070 CG0
ATOM      9  C   UNL     1      -8.698  14.953   8.737  1.00  0.00     0.039 C 
ATOM     10  G   UNL     1      -7.340  16.430   7.074  1.00  0.00     0.000 G0
ENDBRANCH   6   7
ENDBRANCH   5   6
ENDBRANCH   3   5
ENDBRANCH   1   3
BRANCH   1  11
ATOM     11  C   UNL     1      -9.210  19.687   7.089  1.00  0.00     0.087 C 
BRANCH  11  12
ATOM     12  C   UNL     1      -7.898  19.024   6.583  1.00  0.00     0.066 C 
BRANCH  12  13
ATOM     13  C   UNL     1      -7.346  17.887   7.448  1.00  0.00     0.140 C 
ATOM     14  O   UNL     1      -6.905  18.181   8.551  1.00  0.00    -0.299 OA
BRANCH  13  15
ATOM     15  C   UNL     1      -7.319  16.423   7.052  1.00  0.00     0.106 CG0
ATOM     16  G   UNL     1      -8.614  15.726   7.444  1.00  0.00     0.000 G0
ENDBRANCH  13  15
ENDBRANCH  12  13
BRANCH  12  17
ATOM     17  C   UNL     1      -6.770  20.077   6.323  1.00  0.00    -0.006 C 
ATOM     18  C   UNL     1      -5.570  19.488   5.563  1.00  0.00     0.008 C 
ATOM     19  C   UNL     1      -7.278  21.347   5.620  1.00  0.00     0.008 C 
ENDBRANCH  12  17
ENDBRANCH  11  12
ENDBRANCH   1  11
TORSDOF 1
ENDMDL
MODEL 2
REMARK VINA RESULT:    -3.831      4.578      6.406
REMARK INTER + INTRA:          -5.850
REMARK INTER:                  -5.589
REMARK INTRA:                  -0.261
REMARK UNBOUND:                -0.004
REMARK SMILES CC1=CCC[C@@H](C)C(=O)C[C@@H](C(C)C)C(=O)C1
REMARK SMILES IDX 8 1 9 2 6 3 7 4 5 5 4 6 3 7 2 8 1 9 10 11 11 12 15 13 16 14
REMARK SMILES IDX 17 15 12 17 13 18 14 19
REMARK H PARENT
REMARK Flexibility Score: 70.00
ROOT
ATOM      1  C   UNL     1     -10.816  17.309  12.284  1.00  0.00     0.136 C 
ATOM      2  O   UNL     1     -11.718  17.921  12.840  1.00  0.00    -0.299 OA
ENDROOT
BRANCH   1   3
ATOM      3  C   UNL     1     -10.556  15.859  12.667  1.00  0.00     0.053 C 
ATOM      4  C   UNL     1     -11.830  15.009  12.536  1.00  0.00     0.016 C 
BRANCH   3   5
ATOM      5  C   UNL     1      -9.936  15.713  14.079  1.00  0.00     0.015 C 
BRANCH   5   6
ATOM      6  C   UNL     1      -8.839  16.751  14.417  1.00  0.00     0.028 C 
BRANCH   6   7
ATOM      7  C   UNL     1      -7.455  16.254  14.080  1.00  0.00    -0.028 C 
ATOM      8  C   UNL     1      -6.673  16.740  13.086  1.00  0.00    -0.070 CG0
ATOM      9  C   UNL     1      -5.297  16.148  12.916  1.00  0.00     0.039 C 
ATOM     10  G   UNL     1      -7.127  17.819  12.112  1.00  0.00     0.000 G0
ENDBRANCH   6   7
ENDBRANCH   5   6
ENDBRANCH   3   5
ENDBRANCH   1   3
BRANCH   1  11
ATOM     11  C   UNL     1     -10.065  18.017  11.178  1.00  0.00     0.087 C 
BRANCH  11  12
ATOM     12  C   UNL     1      -9.067  17.146  10.365  1.00  0.00     0.066 C 
BRANCH  12  13
ATOM     13  C   UNL     1      -7.598  17.236  10.793  1.00  0.00     0.140 C 
ATOM     14  O   UNL     1      -6.757  16.815  10.011  1.00  0.00    -0.299 OA
BRANCH  13  15
ATOM     15  C   UNL     1      -7.105  17.820  12.102  1.00  0.00     0.106 CG0
ATOM     16  G   UNL     1      -6.679  16.721  13.066  1.00  0.00     0.000 G0
ENDBRANCH  13  15
ENDBRANCH  12  13
BRANCH  12  17
ATOM     17  C   UNL     1      -9.179  17.407   8.826  1.00  0.00    -0.006 C 
ATOM     18  C   UNL     1      -9.782  16.216   8.062  1.00  0.00     0.008 C 
ATOM     19  C   UNL     1      -9.937  18.701   8.484  1.00  0.00     0.008 C 
ENDBRANCH  12  17
ENDBRANCH  11  12
ENDBRANCH   1  11
TORSDOF 1
ENDMDL
MODEL 3
REMARK VINA RESULT:    -3.816      2.084      3.533
REMARK INTER + INTRA:          -5.827
REMARK INTER:                  -6.111
REMARK INTRA:                   0.283
REMARK UNBOUND:                -0.004
REMARK SMILES CC1=CCC[C@@H](C)C(=O)C[C@@H](C(C)C)C(=O)C1
REMARK SMILES IDX 8 1 9 2 6 3 7 4 5 5 4 6 3 7 2 8 1 9 10 11 11 12 15 13 16 14
REMARK SMILES IDX 17 15 12 17 13 18 14 19
REMARK H PARENT
REMARK Flexibility Score: 70.00
ROOT
ATOM      1  C   UNL     1      -9.283  19.279   7.381  1.00  0.00     0.136 C 
ATOM      2  O   UNL     1      -8.060  19.337   7.383  1.00  0.00    -0.299 OA
ENDROOT
BRANCH   1   3
ATOM      3  C   UNL     1     -10.049  19.815   6.180  1.00  0.00     0.053 C 
ATOM      4  C   UNL     1     -11.486  20.204   6.562  1.00  0.00     0.016 C 
BRANCH   3   5
ATOM      5  C   UNL     1     -10.040  18.839   4.979  1.00  0.00     0.015 C 
BRANCH   5   6
ATOM      6  C   UNL     1     -10.797  17.509   5.215  1.00  0.00     0.028 C 
BRANCH   6   7
ATOM      7  C   UNL     1      -9.897  16.305   5.079  1.00  0.00    -0.028 C 
ATOM      8  C   UNL     1      -9.616  15.427   6.073  1.00  0.00    -0.070 CG0
ATOM      9  C   UNL     1      -8.724  14.255   5.747  1.00  0.00     0.039 C 
ATOM     10  G   UNL     1     -10.118  15.586   7.501  1.00  0.00     0.000 G0
ENDBRANCH   6   7
ENDBRANCH   5   6
ENDBRANCH   3   5
ENDBRANCH   1   3
BRANCH   1  11
ATOM     11  C   UNL     1      -9.954  18.589   8.548  1.00  0.00     0.087 C 
BRANCH  11  12
ATOM     12  C   UNL     1      -9.144  17.445   9.222  1.00  0.00     0.066 C 
BRANCH  12  13
ATOM     13  C   UNL     1      -9.021  16.148   8.416  1.00  0.00     0.140 C 
ATOM     14  O   UNL     1      -7.977  15.519   8.517  1.00  0.00    -0.299 OA
BRANCH  13  15
ATOM     15  C   UNL     1     -10.099  15.574   7.517  1.00  0.00     0.106 CG0
ATOM     16  G   UNL     1      -9.605  15.445   6.083  1.00  0.00     0.000 G0
ENDBRANCH  13  15
ENDBRANCH  12  13
BRANCH  12  17
ATOM     17  C   UNL     1      -9.672  17.120  10.658  1.00  0.00    -0.006 C 
ATOM     18  C   UNL     1      -8.597  16.488  11.559  1.00  0.00     0.008 C 
ATOM     19  C   UNL     1     -10.311  18.331  11.358  1.00  0.00     0.008 C 
ENDBRANCH  12  17
ENDBRANCH  11  12
ENDBRANCH   1  11
TORSDOF 1
ENDMDL
MODEL 4
REMARK VINA RESULT:    -3.814      2.257      3.987
REMARK INTER + INTRA:          -5.824
REMARK INTER:                  -5.776
REMARK INTRA:                  -0.048
REMARK UNBOUND:                -0.004
REMARK SMILES CC1=CCC[C@@H](C)C(=O)C[C@@H](C(C)C)C(=O)C1
REMARK SMILES IDX 8 1 9 2 6 3 7 4 5 5 4 6 3 7 2 8 1 9 10 11 11 12 15 13 16 14
REMARK SMILES IDX 17 15 12 17 13 18 14 19
REMARK H PARENT
REMARK Flexibility Score: 70.00
ROOT
ATOM      1  C   UNL     1      -9.022  17.837   9.116  1.00  0.00     0.136 C 
ATOM      2  O   UNL     1      -7.805  17.818   9.240  1.00  0.00    -0.299 OA
ENDROOT
BRANCH   1   3
ATOM      3  C   UNL     1      -9.883  17.082  10.118  1.00  0.00     0.053 C 
ATOM      4  C   UNL     1      -9.731  17.659  11.534  1.00  0.00     0.016 C 
BRANCH   3   5
ATOM      5  C   UNL     1      -9.614  15.556  10.110  1.00  0.00     0.015 C 
BRANCH   5   6
ATOM      6  C   UNL     1      -9.727  14.883   8.722  1.00  0.00     0.028 C 
BRANCH   6   7
ATOM      7  C   UNL     1      -8.377  14.570   8.124  1.00  0.00    -0.028 C 
ATOM      8  C   UNL     1      -7.980  14.914   6.874  1.00  0.00    -0.070 CG0
ATOM      9  C   UNL     1      -6.577  14.552   6.455  1.00  0.00     0.039 C 
ATOM     10  G   UNL     1      -8.885  15.606   5.865  1.00  0.00     0.000 G0
ENDBRANCH   6   7
ENDBRANCH   5   6
ENDBRANCH   3   5
ENDBRANCH   1   3
BRANCH   1  11
ATOM     11  C   UNL     1      -9.600  18.692   8.010  1.00  0.00     0.087 C 
BRANCH  11  12
ATOM     12  C   UNL     1      -9.958  17.951   6.691  1.00  0.00     0.066 C 
BRANCH  12  13
ATOM     13  C   UNL     1      -8.838  17.110   6.070  1.00  0.00     0.140 C 
ATOM     14  O   UNL     1      -7.824  17.696   5.715  1.00  0.00    -0.299 OA
BRANCH  13  15
ATOM     15  C   UNL     1      -8.879  15.607   5.878  1.00  0.00     0.106 CG0
ATOM     16  G   UNL     1      -7.978  14.901   6.881  1.00  0.00     0.000 G0
ENDBRANCH  13  15
ENDBRANCH  12  13
BRANCH  12  17
ATOM     17  C   UNL     1     -10.541  18.922   5.611  1.00  0.00    -0.006 C 
ATOM     18  C   UNL     1     -11.160  18.180   4.415  1.00  0.00     0.008 C 
ATOM     19  C   UNL     1     -11.542  19.938   6.187  1.00  0.00     0.008 C 
ENDBRANCH  12  17
ENDBRANCH  11  12
ENDBRANCH   1  11
TORSDOF 1
ENDMDL
MODEL 5
REMARK VINA RESULT:    -3.797      3.755      5.583
REMARK INTER + INTRA:          -5.799
REMARK INTER:                  -5.935
REMARK INTRA:                   0.136
REMARK UNBOUND:                -0.004
REMARK SMILES CC1=CCC[C@@H](C)C(=O)C[C@@H](C(C)C)C(=O)C1
REMARK SMILES IDX 8 1 9 2 6 3 7 4 5 5 4 6 3 7 2 8 1 9 10 11 11 12 15 13 16 14
REMARK SMILES IDX 17 15 12 17 13 18 14 19
REMARK H PARENT
REMARK Flexibility Score: 70.00
ROOT
ATOM      1  C   UNL     1      -9.678  18.842  12.268  1.00  0.00     0.136 C 
ATOM      2  O   UNL     1      -8.856  19.679  12.618  1.00  0.00    -0.299 OA
ENDROOT
BRANCH   1   3
ATOM      3  C   UNL     1     -10.351  17.976  13.323  1.00  0.00     0.053 C 
ATOM      4  C   UNL     1      -9.331  17.430  14.335  1.00  0.00     0.016 C 
BRANCH   3   5
ATOM      5  C   UNL     1     -11.192  16.829  12.711  1.00  0.00     0.015 C 
BRANCH   5   6
ATOM      6  C   UNL     1     -10.625  15.408  12.949  1.00  0.00     0.028 C 
BRANCH   6   7
ATOM      7  C   UNL     1     -10.348  14.676  11.659  1.00  0.00    -0.028 C 
ATOM      8  C   UNL     1      -9.201  14.768  10.943  1.00  0.00    -0.070 CG0
ATOM      9  C   UNL     1      -9.082  13.932   9.693  1.00  0.00     0.039 C 
ATOM     10  G   UNL     1      -8.051  15.694  11.312  1.00  0.00     0.000 G0
ENDBRANCH   6   7
ENDBRANCH   5   6
ENDBRANCH   3   5
ENDBRANCH   1   3
BRANCH   1  11
ATOM     11  C   UNL     1     -10.036  18.782  10.800  1.00  0.00     0.087 C 
BRANCH  11  12
ATOM     12  C   UNL     1      -9.423  17.601   9.995  1.00  0.00     0.066 C 
BRANCH  12  13
ATOM     13  C   UNL     1      -8.130  17.006  10.561  1.00  0.00     0.140 C 
ATOM     14  O   UNL     1      -7.102  17.655  10.422  1.00  0.00    -0.299 OA
BRANCH  13  15
ATOM     15  C   UNL     1      -8.026  15.683  11.295  1.00  0.00     0.106 CG0
ATOM     16  G   UNL     1      -9.202  14.777  10.958  1.00  0.00     0.000 G0
ENDBRANCH  13  15
ENDBRANCH  12  13
BRANCH  12  17
ATOM     17  C   UNL     1      -9.215  17.964   8.487  1.00  0.00    -0.006 C 
ATOM     18  C   UNL     1      -9.965  17.015   7.538  1.00  0.00     0.008 C 
ATOM     19  C   UNL     1      -9.559  19.427   8.163  1.00  0.00     0.008 C 
ENDBRANCH  12  17
ENDBRANCH  11  12
ENDBRANCH   1  11
TORSDOF 1
ENDMDL
MODEL 6
REMARK VINA RESULT:    -3.669      2.041      4.463
REMARK INTER + INTRA:          -5.604
REMARK INTER:                  -5.883
REMARK INTRA:                   0.279
REMARK UNBOUND:                -0.004
REMARK SMILES CC1=CCC[C@@H](C)C(=O)C[C@@H](C(C)C)C(=O)C1
REMARK SMILES IDX 8 1 9 2 6 3 7 4 5 5 4 6 3 7 2 8 1 9 10 11 11 12 15 13 16 14
REMARK SMILES IDX 17 15 12 17 13 18 14 19
REMARK H PARENT
REMARK Flexibility Score: 70.00
ROOT
ATOM      1  C   UNL     1      -9.696  18.414   9.336  1.00  0.00     0.136 C 
ATOM      2  O   UNL     1      -9.596  18.966  10.424  1.00  0.00    -0.299 OA
ENDROOT
BRANCH   1   3
ATOM      3  C   UNL     1      -9.271  16.959   9.199  1.00  0.00     0.053 C 
ATOM      4  C   UNL     1      -9.768  16.117  10.385  1.00  0.00     0.016 C 
BRANCH   3   5
ATOM      5  C   UNL     1      -7.743  16.796   9.006  1.00  0.00     0.015 C 
BRANCH   5   6
ATOM      6  C   UNL     1      -7.270  16.799   7.533  1.00  0.00     0.028 C 
BRANCH   6   7
ATOM      7  C   UNL     1      -6.237  17.867   7.264  1.00  0.00    -0.028 C 
ATOM      8  C   UNL     1      -6.364  18.862   6.353  1.00  0.00    -0.070 CG0
ATOM      9  C   UNL     1      -5.245  19.867   6.245  1.00  0.00     0.039 C 
ATOM     10  G   UNL     1      -7.553  18.992   5.412  1.00  0.00     0.000 G0
ENDBRANCH   6   7
ENDBRANCH   5   6
ENDBRANCH   3   5
ENDBRANCH   1   3
BRANCH   1  11
ATOM     11  C   UNL     1     -10.323  19.200   8.207  1.00  0.00     0.087 C 
BRANCH  11  12
ATOM     12  C   UNL     1      -9.897  18.788   6.769  1.00  0.00     0.066 C 
BRANCH  12  13
ATOM     13  C   UNL     1      -8.753  19.599   6.152  1.00  0.00     0.140 C 
ATOM     14  O   UNL     1      -8.796  20.816   6.272  1.00  0.00    -0.299 OA
BRANCH  13  15
ATOM     15  C   UNL     1      -7.562  19.011   5.420  1.00  0.00     0.106 CG0
ATOM     16  G   UNL     1      -6.362  18.875   6.347  1.00  0.00     0.000 G0
ENDBRANCH  13  15
ENDBRANCH  12  13
BRANCH  12  17
ATOM     17  C   UNL     1     -11.110  18.763   5.781  1.00  0.00    -0.006 C 
ATOM     18  C   UNL     1     -12.131  19.878   6.063  1.00  0.00     0.008 C 
ATOM     19  C   UNL     1     -10.688  18.786   4.302  1.00  0.00     0.008 C 
ENDBRANCH  12  17
ENDBRANCH  11  12
ENDBRANCH   1  11
TORSDOF 1
ENDMDL
MODEL 7
REMARK VINA RESULT:    -3.629      1.998      3.509
REMARK INTER + INTRA:          -5.542
REMARK INTER:                  -5.268
REMARK INTRA:                  -0.274
REMARK UNBOUND:                -0.004
REMARK SMILES CC1=CCC[C@@H](C)C(=O)C[C@@H](C(C)C)C(=O)C1
REMARK SMILES IDX 8 1 9 2 6 3 7 4 5 5 4 6 3 7 2 8 1 9 10 11 11 12 15 13 16 14
REMARK SMILES IDX 17 15 12 17 13 18 14 19
REMARK H PARENT
REMARK Flexibility Score: 70.00
ROOT
ATOM      1  C   UNL     1     -10.168  15.730   6.334  1.00  0.00     0.136 C 
ATOM      2  O   UNL     1     -10.739  15.175   7.263  1.00  0.00    -0.299 OA
ENDROOT
BRANCH   1   3
ATOM      3  C   UNL     1      -9.214  14.926   5.461  1.00  0.00     0.053 C 
ATOM      4  C   UNL     1      -9.969  13.891   4.613  1.00  0.00     0.016 C 
BRANCH   3   5
ATOM      5  C   UNL     1      -8.080  14.254   6.274  1.00  0.00     0.015 C 
BRANCH   5   6
ATOM      6  C   UNL     1      -6.935  15.203   6.702  1.00  0.00     0.028 C 
BRANCH   6   7
ATOM      7  C   UNL     1      -7.067  15.653   8.136  1.00  0.00    -0.028 C 
ATOM      8  C   UNL     1      -7.217  16.938   8.539  1.00  0.00    -0.070 CG0
ATOM      9  C   UNL     1      -7.373  17.201  10.016  1.00  0.00     0.039 C 
ATOM     10  G   UNL     1      -7.194  18.125   7.586  1.00  0.00     0.000 G0
ENDBRANCH   6   7
ENDBRANCH   5   6
ENDBRANCH   3   5
ENDBRANCH   1   3
BRANCH   1  11
ATOM     11  C   UNL     1     -10.519  17.175   6.058  1.00  0.00     0.087 C 
BRANCH  11  12
ATOM     12  C   UNL     1      -9.318  18.149   5.893  1.00  0.00     0.066 C 
BRANCH  12  13
ATOM     13  C   UNL     1      -8.606  18.559   7.186  1.00  0.00     0.140 C 
ATOM     14  O   UNL     1      -9.221  19.274   7.965  1.00  0.00    -0.299 OA
BRANCH  13  15
ATOM     15  C   UNL     1      -7.206  18.134   7.584  1.00  0.00     0.106 CG0
ATOM     16  G   UNL     1      -7.244  16.932   8.517  1.00  0.00     0.000 G0
ENDBRANCH  13  15
ENDBRANCH  12  13
BRANCH  12  17
ATOM     17  C   UNL     1      -9.708  19.430   5.083  1.00  0.00    -0.006 C 
ATOM     18  C   UNL     1      -8.619  19.858   4.084  1.00  0.00     0.008 C 
ATOM     19  C   UNL     1     -11.067  19.308   4.373  1.00  0.00     0.008 C 
ENDBRANCH  12  17
ENDBRANCH  11  12
ENDBRANCH   1  11
TORSDOF 1
ENDMDL
MODEL 8
REMARK VINA RESULT:    -3.617      2.086      3.104
REMARK INTER + INTRA:          -5.523
REMARK INTER:                  -5.658
REMARK INTRA:                   0.134
REMARK UNBOUND:                -0.004
REMARK SMILES CC1=CCC[C@@H](C)C(=O)C[C@@H](C(C)C)C(=O)C1
REMARK SMILES IDX 8 1 9 2 6 3 7 4 5 5 4 6 3 7 2 8 1 9 10 11 11 12 15 13 16 14
REMARK SMILES IDX 17 15 12 17 13 18 14 19
REMARK H PARENT
REMARK Flexibility Score: 70.00
ROOT
ATOM      1  C   UNL     1     -10.202  17.043   5.479  1.00  0.00     0.136 C 
ATOM      2  O   UNL     1     -10.381  17.276   4.291  1.00  0.00    -0.299 OA
ENDROOT
BRANCH   1   3
ATOM      3  C   UNL     1      -9.663  15.682   5.896  1.00  0.00     0.053 C 
ATOM      4  C   UNL     1      -9.767  14.664   4.751  1.00  0.00     0.016 C 
BRANCH   3   5
ATOM      5  C   UNL     1     -10.335  15.140   7.182  1.00  0.00     0.015 C 
BRANCH   5   6
ATOM      6  C   UNL     1      -9.355  14.590   8.246  1.00  0.00     0.028 C 
BRANCH   6   7
ATOM      7  C   UNL     1      -9.698  15.059   9.639  1.00  0.00    -0.028 C 
ATOM      8  C   UNL     1      -9.339  16.254  10.169  1.00  0.00    -0.070 CG0
ATOM      9  C   UNL     1      -9.803  16.574  11.568  1.00  0.00     0.039 C 
ATOM     10  G   UNL     1      -8.463  17.266   9.443  1.00  0.00     0.000 G0
ENDBRANCH   6   7
ENDBRANCH   5   6
ENDBRANCH   3   5
ENDBRANCH   1   3
BRANCH   1  11
ATOM     11  C   UNL     1     -10.448  18.169   6.459  1.00  0.00     0.087 C 
BRANCH  11  12
ATOM     12  C   UNL     1      -9.211  18.653   7.267  1.00  0.00     0.066 C 
BRANCH  12  13
ATOM     13  C   UNL     1      -9.234  18.353   8.769  1.00  0.00     0.140 C 
ATOM     14  O   UNL     1      -9.962  19.042   9.471  1.00  0.00    -0.299 OA
BRANCH  13  15
ATOM     15  C   UNL     1      -8.439  17.258   9.452  1.00  0.00     0.106 CG0
ATOM     16  G   UNL     1      -9.359  16.274  10.162  1.00  0.00     0.000 G0
ENDBRANCH  13  15
ENDBRANCH  12  13
BRANCH  12  17
ATOM     17  C   UNL     1      -8.922  20.175   7.043  1.00  0.00    -0.006 C 
ATOM     18  C   UNL     1      -7.701  20.422   6.142  1.00  0.00     0.008 C 
ATOM     19  C   UNL     1     -10.141  20.952   6.518  1.00  0.00     0.008 C 
ENDBRANCH  12  17
ENDBRANCH  11  12
ENDBRANCH   1  11
TORSDOF 1
ENDMDL
MODEL 9
REMARK VINA RESULT:    -3.369     13.178     14.705
REMARK INTER + INTRA:          -5.146
REMARK INTER:                  -4.756
REMARK INTRA:                  -0.389
REMARK UNBOUND:                -0.004
REMARK SMILES CC1=CCC[C@@H](C)C(=O)C[C@@H](C(C)C)C(=O)C1
REMARK SMILES IDX 8 1 9 2 6 3 7 4 5 5 4 6 3 7 2 8 1 9 10 11 11 12 15 13 16 14
REMARK SMILES IDX 17 15 12 17 13 18 14 19
REMARK H PARENT
REMARK Flexibility Score: 70.00
ROOT
ATOM      1  C   UNL     1      -7.051  18.909  18.597  1.00  0.00     0.136 C 
ATOM      2  O   UNL     1      -7.332  18.009  17.816  1.00  0.00    -0.299 OA
ENDROOT
BRANCH   1   3
ATOM      3  C   UNL     1      -5.994  19.931  18.203  1.00  0.00     0.053 C 
ATOM      4  C   UNL     1      -6.204  20.428  16.765  1.00  0.00     0.016 C 
BRANCH   3   5
ATOM      5  C   UNL     1      -4.550  19.408  18.404  1.00  0.00     0.015 C 
BRANCH   5   6
ATOM      6  C   UNL     1      -3.952  19.669  19.807  1.00  0.00     0.028 C 
BRANCH   6   7
ATOM      7  C   UNL     1      -4.098  18.479  20.724  1.00  0.00    -0.028 C 
ATOM      8  C   UNL     1      -4.765  18.482  21.904  1.00  0.00    -0.070 CG0
ATOM      9  C   UNL     1      -4.842  17.188  22.674  1.00  0.00     0.039 C 
ATOM     10  G   UNL     1      -5.399  19.727  22.507  1.00  0.00     0.000 G0
ENDBRANCH   6   7
ENDBRANCH   5   6
ENDBRANCH   3   5
ENDBRANCH   1   3
BRANCH   1  11
ATOM     11  C   UNL     1      -7.845  18.995  19.881  1.00  0.00     0.087 C 
BRANCH  11  12
ATOM     12  C   UNL     1      -7.486  20.175  20.827  1.00  0.00     0.066 C 
BRANCH  12  13
ATOM     13  C   UNL     1      -6.898  19.787  22.187  1.00  0.00     0.140 C 
ATOM     14  O   UNL     1      -7.683  19.490  23.077  1.00  0.00    -0.299 OA
BRANCH  13  15
ATOM     15  C   UNL     1      -5.418  19.726  22.512  1.00  0.00     0.106 CG0
ATOM     16  G   UNL     1      -4.776  18.485  21.908  1.00  0.00     0.000 G0
ENDBRANCH  13  15
ENDBRANCH  12  13
BRANCH  12  17
ATOM     17  C   UNL     1      -8.694  21.147  21.039  1.00  0.00    -0.006 C 
ATOM     18  C   UNL     1      -8.574  22.437  20.211  1.00  0.00     0.008 C 
ATOM     19  C   UNL     1     -10.058  20.479  20.795  1.00  0.00     0.008 C 
ENDBRANCH  12  17
ENDBRANCH  11  12
ENDBRANCH   1  11
TORSDOF 1
ENDMDL
