MODEL 1
REMARK VINA RESULT:    -5.529      0.000      0.000
REMARK INTER + INTRA:          -5.949
REMARK INTER:                  -5.852
REMARK INTRA:                  -0.097
REMARK UNBOUND:                -0.097
REMARK SMILES C=C(C)[C@@H]1CC=C(C)C(=O)C1
REMARK SMILES IDX 8 1 7 2 6 3 5 4 4 5 11 6 9 7 10 8 2 9 1 10 3 11
REMARK H PARENT
REMARK Flexibility Score: inf
ROOT
ATOM      1  C   UNL     1       0.611  31.288  28.311  1.00  0.00     0.048 C 
ATOM      2  C   UNL     1       0.840  30.645  29.651  1.00  0.00    -0.012 C 
ATOM      3  C   UNL     1      -0.170  30.011  30.269  1.00  0.00    -0.019 C 
ATOM      4  C   UNL     1       0.008  29.335  31.604  1.00  0.00     0.036 C 
ATOM      5  C   UNL     1       1.047  30.077  32.466  1.00  0.00     0.025 C 
ATOM      6  C   UNL     1       2.376  30.217  31.700  1.00  0.00     0.089 C 
ATOM      7  C   UNL     1       2.142  30.819  30.341  1.00  0.00     0.158 C 
ATOM      8  O   UNL     1       3.079  31.445  29.777  1.00  0.00    -0.295 OA
ENDROOT
BRANCH   5   9
ATOM      9  C   UNL     1       1.246  29.399  33.815  1.00  0.00    -0.077 C 
ATOM     10  C   UNL     1       2.463  29.297  34.374  1.00  0.00     0.008 C 
ATOM     11  C   UNL     1       0.064  28.824  34.552  1.00  0.00     0.039 C 
ENDBRANCH   5   9
TORSDOF 1
ENDMDL
MODEL 2
REMARK VINA RESULT:    -5.474      2.061      4.629
REMARK INTER + INTRA:          -5.892
REMARK INTER:                  -5.796
REMARK INTRA:                  -0.096
REMARK UNBOUND:                -0.097
REMARK SMILES C=C(C)[C@@H]1CC=C(C)C(=O)C1
REMARK SMILES IDX 8 1 7 2 6 3 5 4 4 5 11 6 9 7 10 8 2 9 1 10 3 11
REMARK H PARENT
REMARK Flexibility Score: inf
ROOT
ATOM      1  C   UNL     1       0.110  28.516  34.935  1.00  0.00     0.048 C 
ATOM      2  C   UNL     1       0.588  28.989  33.590  1.00  0.00    -0.012 C 
ATOM      3  C   UNL     1       1.490  29.982  33.512  1.00  0.00    -0.019 C 
ATOM      4  C   UNL     1       2.015  30.483  32.192  1.00  0.00     0.036 C 
ATOM      5  C   UNL     1       0.941  30.378  31.093  1.00  0.00     0.025 C 
ATOM      6  C   UNL     1       0.409  28.935  31.000  1.00  0.00     0.089 C 
ATOM      7  C   UNL     1      -0.028  28.445  32.354  1.00  0.00     0.158 C 
ATOM      8  O   UNL     1      -0.900  27.538  32.427  1.00  0.00    -0.295 OA
ENDROOT
BRANCH   5   9
ATOM      9  C   UNL     1       1.461  30.872  29.749  1.00  0.00    -0.077 C 
ATOM     10  C   UNL     1       2.770  31.098  29.546  1.00  0.00     0.008 C 
ATOM     11  C   UNL     1       0.503  31.116  28.612  1.00  0.00     0.039 C 
ENDBRANCH   5   9
TORSDOF 1
ENDMDL
MODEL 3
REMARK VINA RESULT:    -5.364      2.797      3.901
REMARK INTER + INTRA:          -5.775
REMARK INTER:                  -5.681
REMARK INTRA:                  -0.094
REMARK UNBOUND:                -0.097
REMARK SMILES C=C(C)[C@@H]1CC=C(C)C(=O)C1
REMARK SMILES IDX 8 1 7 2 6 3 5 4 4 5 11 6 9 7 10 8 2 9 1 10 3 11
REMARK H PARENT
REMARK Flexibility Score: inf
ROOT
ATOM      1  C   UNL     1       4.947  25.857  30.577  1.00  0.00     0.048 C 
ATOM      2  C   UNL     1       4.223  26.981  31.266  1.00  0.00    -0.012 C 
ATOM      3  C   UNL     1       4.296  27.103  32.602  1.00  0.00    -0.019 C 
ATOM      4  C   UNL     1       3.606  28.220  33.342  1.00  0.00     0.036 C 
ATOM      5  C   UNL     1       2.297  28.624  32.638  1.00  0.00     0.025 C 
ATOM      6  C   UNL     1       2.570  28.981  31.164  1.00  0.00     0.089 C 
ATOM      7  C   UNL     1       3.333  27.875  30.486  1.00  0.00     0.158 C 
ATOM      8  O   UNL     1       3.236  27.740  29.237  1.00  0.00    -0.295 OA
ENDROOT
BRANCH   5   9
ATOM      9  C   UNL     1       1.593  29.760  33.369  1.00  0.00    -0.077 C 
ATOM     10  C   UNL     1       1.970  31.039  33.203  1.00  0.00     0.008 C 
ATOM     11  C   UNL     1       0.448  29.462  34.301  1.00  0.00     0.039 C 
ENDBRANCH   5   9
TORSDOF 1
ENDMDL
MODEL 4
REMARK VINA RESULT:    -5.345      1.692      4.398
REMARK INTER + INTRA:          -5.755
REMARK INTER:                  -5.659
REMARK INTRA:                  -0.096
REMARK UNBOUND:                -0.097
REMARK SMILES C=C(C)[C@@H]1CC=C(C)C(=O)C1
REMARK SMILES IDX 8 1 7 2 6 3 5 4 4 5 11 6 9 7 10 8 2 9 1 10 3 11
REMARK H PARENT
REMARK Flexibility Score: inf
ROOT
ATOM      1  C   UNL     1       0.724  28.136  34.932  1.00  0.00     0.048 C 
ATOM      2  C   UNL     1       0.762  28.929  33.655  1.00  0.00    -0.012 C 
ATOM      3  C   UNL     1      -0.178  28.729  32.715  1.00  0.00    -0.019 C 
ATOM      4  C   UNL     1      -0.198  29.507  31.426  1.00  0.00     0.036 C 
ATOM      5  C   UNL     1       1.231  29.862  30.972  1.00  0.00     0.025 C 
ATOM      6  C   UNL     1       1.978  30.609  32.093  1.00  0.00     0.089 C 
ATOM      7  C   UNL     1       1.903  29.837  33.382  1.00  0.00     0.158 C 
ATOM      8  O   UNL     1       2.804  29.999  34.248  1.00  0.00    -0.295 OA
ENDROOT
BRANCH   5   9
ATOM      9  C   UNL     1       1.226  30.659  29.673  1.00  0.00    -0.077 C 
ATOM     10  C   UNL     1       0.091  30.873  28.988  1.00  0.00     0.008 C 
ATOM     11  C   UNL     1       2.512  31.227  29.132  1.00  0.00     0.039 C 
ENDBRANCH   5   9
TORSDOF 1
ENDMDL
MODEL 5
REMARK VINA RESULT:    -5.085      2.583      3.222
REMARK INTER + INTRA:          -5.480
REMARK INTER:                  -5.385
REMARK INTRA:                  -0.095
REMARK UNBOUND:                -0.097
REMARK SMILES C=C(C)[C@@H]1CC=C(C)C(=O)C1
REMARK SMILES IDX 8 1 7 2 6 3 5 4 4 5 11 6 9 7 10 8 2 9 1 10 3 11
REMARK H PARENT
REMARK Flexibility Score: inf
ROOT
ATOM      1  C   UNL     1      -1.149  28.004  28.118  1.00  0.00     0.048 C 
ATOM      2  C   UNL     1      -0.844  28.459  29.518  1.00  0.00    -0.012 C 
ATOM      3  C   UNL     1      -0.181  29.611  29.717  1.00  0.00    -0.019 C 
ATOM      4  C   UNL     1       0.136  30.122  31.098  1.00  0.00     0.036 C 
ATOM      5  C   UNL     1       0.375  28.958  32.079  1.00  0.00     0.025 C 
ATOM      6  C   UNL     1      -0.830  27.999  32.073  1.00  0.00     0.089 C 
ATOM      7  C   UNL     1      -1.164  27.578  30.668  1.00  0.00     0.158 C 
ATOM      8  O   UNL     1      -1.755  26.481  30.480  1.00  0.00    -0.295 OA
ENDROOT
BRANCH   5   9
ATOM      9  C   UNL     1       0.686  29.460  33.483  1.00  0.00    -0.077 C 
ATOM     10  C   UNL     1       1.331  30.622  33.683  1.00  0.00     0.008 C 
ATOM     11  C   UNL     1       0.271  28.650  34.684  1.00  0.00     0.039 C 
ENDBRANCH   5   9
TORSDOF 1
ENDMDL
MODEL 6
REMARK VINA RESULT:    -5.049      2.854      4.408
REMARK INTER + INTRA:          -5.441
REMARK INTER:                  -5.346
REMARK INTRA:                  -0.095
REMARK UNBOUND:                -0.097
REMARK SMILES C=C(C)[C@@H]1CC=C(C)C(=O)C1
REMARK SMILES IDX 8 1 7 2 6 3 5 4 4 5 11 6 9 7 10 8 2 9 1 10 3 11
REMARK H PARENT
REMARK Flexibility Score: inf
ROOT
ATOM      1  C   UNL     1       1.692  31.051  33.443  1.00  0.00     0.048 C 
ATOM      2  C   UNL     1       0.984  29.927  32.737  1.00  0.00    -0.012 C 
ATOM      3  C   UNL     1       0.915  29.919  31.395  1.00  0.00    -0.019 C 
ATOM      4  C   UNL     1       0.234  28.810  30.637  1.00  0.00     0.036 C 
ATOM      5  C   UNL     1      -0.952  28.239  31.437  1.00  0.00     0.025 C 
ATOM      6  C   UNL     1      -0.487  27.791  32.836  1.00  0.00     0.089 C 
ATOM      7  C   UNL     1       0.259  28.900  33.525  1.00  0.00     0.158 C 
ATOM      8  O   UNL     1       0.294  28.927  34.784  1.00  0.00    -0.295 OA
ENDROOT
BRANCH   5   9
ATOM      9  C   UNL     1      -1.645  27.109  30.687  1.00  0.00    -0.077 C 
ATOM     10  C   UNL     1      -1.042  26.474  29.667  1.00  0.00     0.008 C 
ATOM     11  C   UNL     1      -3.034  26.680  31.082  1.00  0.00     0.039 C 
ENDBRANCH   5   9
TORSDOF 1
ENDMDL
MODEL 7
REMARK VINA RESULT:    -5.023      2.099      2.814
REMARK INTER + INTRA:          -5.414
REMARK INTER:                  -5.317
REMARK INTRA:                  -0.097
REMARK UNBOUND:                -0.097
REMARK SMILES C=C(C)[C@@H]1CC=C(C)C(=O)C1
REMARK SMILES IDX 8 1 7 2 6 3 5 4 4 5 11 6 9 7 10 8 2 9 1 10 3 11
REMARK H PARENT
REMARK Flexibility Score: inf
ROOT
ATOM      1  C   UNL     1      -1.820  27.313  28.763  1.00  0.00     0.048 C 
ATOM      2  C   UNL     1      -1.042  27.736  29.979  1.00  0.00    -0.012 C 
ATOM      3  C   UNL     1      -1.485  27.405  31.204  1.00  0.00    -0.019 C 
ATOM      4  C   UNL     1      -0.738  27.788  32.454  1.00  0.00     0.036 C 
ATOM      5  C   UNL     1      -0.010  29.134  32.274  1.00  0.00     0.025 C 
ATOM      6  C   UNL     1       0.906  29.086  31.037  1.00  0.00     0.089 C 
ATOM      7  C   UNL     1       0.140  28.621  29.830  1.00  0.00     0.158 C 
ATOM      8  O   UNL     1       0.535  28.961  28.683  1.00  0.00    -0.295 OA
ENDROOT
BRANCH   5   9
ATOM      9  C   UNL     1       0.760  29.529  33.528  1.00  0.00    -0.077 C 
ATOM     10  C   UNL     1       0.671  28.809  34.659  1.00  0.00     0.008 C 
ATOM     11  C   UNL     1       1.643  30.750  33.519  1.00  0.00     0.039 C 
ENDBRANCH   5   9
TORSDOF 1
ENDMDL
MODEL 8
REMARK VINA RESULT:    -4.739      3.453      4.785
REMARK INTER + INTRA:          -5.113
REMARK INTER:                  -5.020
REMARK INTRA:                  -0.093
REMARK UNBOUND:                -0.097
REMARK SMILES C=C(C)[C@@H]1CC=C(C)C(=O)C1
REMARK SMILES IDX 8 1 7 2 6 3 5 4 4 5 11 6 9 7 10 8 2 9 1 10 3 11
REMARK H PARENT
REMARK Flexibility Score: inf
ROOT
ATOM      1  C   UNL     1       1.990  30.637  33.042  1.00  0.00     0.048 C 
ATOM      2  C   UNL     1       2.582  29.375  32.477  1.00  0.00    -0.012 C 
ATOM      3  C   UNL     1       3.388  28.616  33.239  1.00  0.00    -0.019 C 
ATOM      4  C   UNL     1       3.994  27.334  32.730  1.00  0.00     0.036 C 
ATOM      5  C   UNL     1       4.275  27.417  31.217  1.00  0.00     0.025 C 
ATOM      6  C   UNL     1       2.993  27.800  30.455  1.00  0.00     0.089 C 
ATOM      7  C   UNL     1       2.376  29.038  31.047  1.00  0.00     0.158 C 
ATOM      8  O   UNL     1       1.649  29.768  30.322  1.00  0.00    -0.295 OA
ENDROOT
BRANCH   5   9
ATOM      9  C   UNL     1       4.878  26.122  30.686  1.00  0.00    -0.077 C 
ATOM     10  C   UNL     1       4.258  24.942  30.850  1.00  0.00     0.008 C 
ATOM     11  C   UNL     1       6.198  26.147  29.959  1.00  0.00     0.039 C 
ENDBRANCH   5   9
TORSDOF 1
ENDMDL
MODEL 9
REMARK VINA RESULT:    -4.680      2.315      4.611
REMARK INTER + INTRA:          -5.051
REMARK INTER:                  -4.954
REMARK INTRA:                  -0.097
REMARK UNBOUND:                -0.097
REMARK SMILES C=C(C)[C@@H]1CC=C(C)C(=O)C1
REMARK SMILES IDX 8 1 7 2 6 3 5 4 4 5 11 6 9 7 10 8 2 9 1 10 3 11
REMARK H PARENT
REMARK Flexibility Score: inf
ROOT
ATOM      1  C   UNL     1       0.872  28.795  34.673  1.00  0.00     0.048 C 
ATOM      2  C   UNL     1       1.612  29.260  33.450  1.00  0.00    -0.012 C 
ATOM      3  C   UNL     1       1.234  30.391  32.829  1.00  0.00    -0.019 C 
ATOM      4  C   UNL     1       1.950  30.912  31.611  1.00  0.00     0.036 C 
ATOM      5  C   UNL     1       2.504  29.755  30.757  1.00  0.00     0.025 C 
ATOM      6  C   UNL     1       3.398  28.839  31.613  1.00  0.00     0.089 C 
ATOM      7  C   UNL     1       2.674  28.408  32.860  1.00  0.00     0.158 C 
ATOM      8  O   UNL     1       3.005  27.330  33.421  1.00  0.00    -0.295 OA
ENDROOT
BRANCH   5   9
ATOM      9  C   UNL     1       3.241  30.267  29.526  1.00  0.00    -0.077 C 
ATOM     10  C   UNL     1       3.915  29.433  28.717  1.00  0.00     0.008 C 
ATOM     11  C   UNL     1       3.226  31.737  29.194  1.00  0.00     0.039 C 
ENDBRANCH   5   9
TORSDOF 1
ENDMDL
