MODEL 1
REMARK VINA RESULT:    -6.356      0.000      0.000
REMARK INTER + INTRA:         -10.809
REMARK INTER:                  -8.957
REMARK INTRA:                  -1.852
REMARK UNBOUND:                -1.852
REMARK SMILES OC[C@H]1O[C@@H](O[C@H]2OC=C[C@H]3[C@@H](O)[C@H]4O[C@@]4(CO)[C@@H]23)[C@@H](O)[C@@H](O)[C@H]1O
REMARK SMILES IDX 6 1 7 2 10 3 9 4 11 5 8 6 19 7 12 8 16 9 14 10 15 11 13 12
REMARK SMILES IDX 17 14 18 15 5 17 20 18 4 19 22 20 3 21 24 22 21 23 23 25
REMARK SMILES IDX 2 27 1 28 25 30
REMARK H PARENT 13 13 18 16 21 24 23 26 1 29 25 31
REMARK Flexibility Score: inf
ROOT
ATOM      1  O   UNL     1       3.356   0.228 -24.961  1.00  0.00    -0.310 OA
ENDROOT
BRANCH   1   2
ATOM      2  C   UNL     1       2.195  -0.466 -24.520  1.00  0.00     0.315 C 
ATOM      3  C   UNL     1       0.292  -2.502 -24.032  1.00  0.00     0.018 C 
ATOM      4  C   UNL     1       0.491  -2.058 -25.277  1.00  0.00     0.186 C 
ATOM      5  C   UNL     1       1.286  -2.246 -22.903  1.00  0.00     0.059 C 
ATOM      6  O   UNL     1       1.566  -1.220 -25.559  1.00  0.00    -0.472 OA
ATOM      7  C   UNL     1       2.522  -1.406 -23.339  1.00  0.00     0.105 C 
ATOM      8  C   UNL     1       1.883  -3.572 -22.367  1.00  0.00     0.154 C 
ATOM      9  C   UNL     1       3.630  -2.433 -23.636  1.00  0.00     0.130 C 
ATOM     10  C   UNL     1       3.257  -3.714 -23.013  1.00  0.00     0.183 C 
ATOM     11  O   UNL     1       3.233  -3.542 -24.414  1.00  0.00    -0.360 OA
BRANCH   8  12
ATOM     12  O   UNL     1       1.085  -4.691 -22.672  1.00  0.00    -0.390 OA
ATOM     13  H   UNL     1       0.147  -4.425 -22.516  1.00  0.00     0.211 HD
ENDBRANCH   8  12
BRANCH   9  14
ATOM     14  C   UNL     1       5.142  -2.127 -23.681  1.00  0.00     0.195 C 
BRANCH  14  15
ATOM     15  O   UNL     1       5.417  -0.827 -23.234  1.00  0.00    -0.393 OA
ATOM     16  H   UNL     1       5.309  -0.827 -22.241  1.00  0.00     0.210 HD
ENDBRANCH  14  15
ENDBRANCH   9  14
ENDBRANCH   1   2
BRANCH   1  17
ATOM     17  C   UNL     1       3.106   1.181 -25.997  1.00  0.00     0.286 C 
ATOM     18  C   UNL     1       3.896   2.512 -25.887  1.00  0.00     0.202 C 
ATOM     19  O   UNL     1       3.331   0.582 -27.265  1.00  0.00    -0.341 OA
ATOM     20  C   UNL     1       5.405   2.261 -26.003  1.00  0.00     0.179 C 
ATOM     21  C   UNL     1       4.703   0.320 -27.569  1.00  0.00     0.178 C 
ATOM     22  C   UNL     1       5.680   1.517 -27.319  1.00  0.00     0.177 C 
BRANCH  18  23
ATOM     23  O   UNL     1       3.582   3.211 -24.708  1.00  0.00    -0.385 OA
ATOM     24  H   UNL     1       3.538   4.173 -24.949  1.00  0.00     0.211 HD
ENDBRANCH  18  23
BRANCH  20  25
ATOM     25  O   UNL     1       5.888   1.530 -24.902  1.00  0.00    -0.387 OA
ATOM     26  H   UNL     1       6.718   1.071 -25.193  1.00  0.00     0.211 HD
ENDBRANCH  20  25
BRANCH  21  27
ATOM     27  C   UNL     1       5.169  -1.058 -27.042  1.00  0.00     0.191 C 
BRANCH  27  28
ATOM     28  O   UNL     1       4.126  -1.993 -27.023  1.00  0.00    -0.394 OA
ATOM     29  H   UNL     1       4.260  -2.579 -27.815  1.00  0.00     0.210 HD
ENDBRANCH  27  28
ENDBRANCH  21  27
BRANCH  22  30
ATOM     30  O   UNL     1       7.023   1.103 -27.355  1.00  0.00    -0.387 OA
ATOM     31  H   UNL     1       7.382   1.358 -28.245  1.00  0.00     0.211 HD
ENDBRANCH  22  30
ENDBRANCH   1  17
TORSDOF 10
ENDMDL
MODEL 2
REMARK VINA RESULT:    -6.141      2.054      5.761
REMARK INTER + INTRA:         -10.506
REMARK INTER:                  -8.750
REMARK INTRA:                  -1.756
REMARK UNBOUND:                -1.852
REMARK SMILES OC[C@H]1O[C@@H](O[C@H]2OC=C[C@H]3[C@@H](O)[C@H]4O[C@@]4(CO)[C@@H]23)[C@@H](O)[C@@H](O)[C@H]1O
REMARK SMILES IDX 6 1 7 2 10 3 9 4 11 5 8 6 19 7 12 8 16 9 14 10 15 11 13 12
REMARK SMILES IDX 17 14 18 15 5 17 20 18 4 19 22 20 3 21 24 22 21 23 23 25
REMARK SMILES IDX 2 27 1 28 25 30
REMARK H PARENT 13 13 18 16 21 24 23 26 1 29 25 31
REMARK Flexibility Score: inf
ROOT
ATOM      1  O   UNL     1       4.127   0.246 -24.855  1.00  0.00    -0.310 OA
ENDROOT
BRANCH   1   2
ATOM      2  C   UNL     1       4.225   1.578 -25.347  1.00  0.00     0.315 C 
ATOM      3  C   UNL     1       3.982   4.385 -25.598  1.00  0.00     0.018 C 
ATOM      4  C   UNL     1       2.899   3.609 -25.701  1.00  0.00     0.186 C 
ATOM      5  C   UNL     1       5.289   3.890 -24.986  1.00  0.00     0.059 C 
ATOM      6  O   UNL     1       2.968   2.259 -25.366  1.00  0.00    -0.472 OA
ATOM      7  C   UNL     1       5.238   2.404 -24.525  1.00  0.00     0.105 C 
ATOM      8  C   UNL     1       5.647   4.685 -23.705  1.00  0.00     0.154 C 
ATOM      9  C   UNL     1       4.934   2.454 -23.016  1.00  0.00     0.130 C 
ATOM     10  C   UNL     1       5.224   3.813 -22.528  1.00  0.00     0.183 C 
ATOM     11  O   UNL     1       3.899   3.337 -22.636  1.00  0.00    -0.360 OA
BRANCH   8  12
ATOM     12  O   UNL     1       5.002   5.935 -23.641  1.00  0.00    -0.390 OA
ATOM     13  H   UNL     1       4.810   6.206 -24.570  1.00  0.00     0.211 HD
ENDBRANCH   8  12
BRANCH   9  14
ATOM     14  C   UNL     1       5.203   1.313 -22.013  1.00  0.00     0.195 C 
BRANCH  14  15
ATOM     15  O   UNL     1       6.086   0.361 -22.541  1.00  0.00    -0.393 OA
ATOM     16  H   UNL     1       6.784   0.190 -21.848  1.00  0.00     0.210 HD
ENDBRANCH  14  15
ENDBRANCH   9  14
ENDBRANCH   1   2
BRANCH   1  17
ATOM     17  C   UNL     1       3.744  -0.713 -25.843  1.00  0.00     0.286 C 
ATOM     18  C   UNL     1       4.790  -1.819 -26.144  1.00  0.00     0.202 C 
ATOM     19  O   UNL     1       2.501  -1.300 -25.484  1.00  0.00    -0.341 OA
ATOM     20  C   UNL     1       5.043  -2.682 -24.902  1.00  0.00     0.179 C 
ATOM     21  C   UNL     1       2.557  -2.186 -24.364  1.00  0.00     0.178 C 
ATOM     22  C   UNL     1       3.700  -3.253 -24.418  1.00  0.00     0.177 C 
BRANCH  18  23
ATOM     23  O   UNL     1       5.988  -1.283 -26.648  1.00  0.00    -0.385 OA
ATOM     24  H   UNL     1       6.390  -0.746 -25.917  1.00  0.00     0.211 HD
ENDBRANCH  18  23
BRANCH  20  25
ATOM     25  O   UNL     1       5.670  -1.941 -23.883  1.00  0.00    -0.387 OA
ATOM     26  H   UNL     1       4.964  -1.417 -23.421  1.00  0.00     0.211 HD
ENDBRANCH  20  25
BRANCH  21  27
ATOM     27  C   UNL     1       2.384  -1.443 -23.018  1.00  0.00     0.191 C 
BRANCH  27  28
ATOM     28  O   UNL     1       3.588  -1.357 -22.307  1.00  0.00    -0.394 OA
ATOM     29  H   UNL     1       3.662  -2.194 -21.776  1.00  0.00     0.210 HD
ENDBRANCH  27  28
ENDBRANCH  21  27
BRANCH  22  30
ATOM     30  O   UNL     1       3.877  -3.883 -23.172  1.00  0.00    -0.387 OA
ATOM     31  H   UNL     1       4.806  -4.231 -23.152  1.00  0.00     0.211 HD
ENDBRANCH  22  30
ENDBRANCH   1  17
TORSDOF 10
ENDMDL
MODEL 3
REMARK VINA RESULT:    -6.027      2.441      5.828
REMARK INTER + INTRA:         -10.345
REMARK INTER:                  -8.749
REMARK INTRA:                  -1.596
REMARK UNBOUND:                -1.852
REMARK SMILES OC[C@H]1O[C@@H](O[C@H]2OC=C[C@H]3[C@@H](O)[C@H]4O[C@@]4(CO)[C@@H]23)[C@@H](O)[C@@H](O)[C@H]1O
REMARK SMILES IDX 6 1 7 2 10 3 9 4 11 5 8 6 19 7 12 8 16 9 14 10 15 11 13 12
REMARK SMILES IDX 17 14 18 15 5 17 20 18 4 19 22 20 3 21 24 22 21 23 23 25
REMARK SMILES IDX 2 27 1 28 25 30
REMARK H PARENT 13 13 18 16 21 24 23 26 1 29 25 31
REMARK Flexibility Score: inf
ROOT
ATOM      1  O   UNL     1       4.849   0.876 -24.565  1.00  0.00    -0.310 OA
ENDROOT
BRANCH   1   2
ATOM      2  C   UNL     1       5.219   2.226 -24.821  1.00  0.00     0.315 C 
ATOM      3  C   UNL     1       5.179   5.051 -24.970  1.00  0.00     0.018 C 
ATOM      4  C   UNL     1       4.343   4.331 -25.724  1.00  0.00     0.186 C 
ATOM      5  C   UNL     1       5.900   4.466 -23.760  1.00  0.00     0.059 C 
ATOM      6  O   UNL     1       4.201   2.963 -25.504  1.00  0.00    -0.472 OA
ATOM      7  C   UNL     1       5.586   2.962 -23.514  1.00  0.00     0.105 C 
ATOM      8  C   UNL     1       5.469   5.175 -22.451  1.00  0.00     0.154 C 
ATOM      9  C   UNL     1       4.476   2.945 -22.446  1.00  0.00     0.130 C 
ATOM     10  C   UNL     1       4.444   4.261 -21.787  1.00  0.00     0.183 C 
ATOM     11  O   UNL     1       3.415   3.851 -22.662  1.00  0.00    -0.360 OA
BRANCH   8  12
ATOM     12  O   UNL     1       4.909   6.447 -22.679  1.00  0.00    -0.390 OA
ATOM     13  H   UNL     1       4.628   6.797 -21.800  1.00  0.00     0.211 HD
ENDBRANCH   8  12
BRANCH   9  14
ATOM     14  C   UNL     1       4.119   1.740 -21.550  1.00  0.00     0.195 C 
BRANCH  14  15
ATOM     15  O   UNL     1       5.139   0.780 -21.546  1.00  0.00    -0.393 OA
ATOM     16  H   UNL     1       5.590   0.824 -22.436  1.00  0.00     0.210 HD
ENDBRANCH  14  15
ENDBRANCH   9  14
ENDBRANCH   1   2
BRANCH   1  17
ATOM     17  C   UNL     1       3.641   0.470 -25.213  1.00  0.00     0.286 C 
ATOM     18  C   UNL     1       3.818  -0.202 -26.600  1.00  0.00     0.202 C 
ATOM     19  O   UNL     1       2.896  -0.377 -24.350  1.00  0.00    -0.341 OA
ATOM     20  C   UNL     1       4.602  -1.514 -26.474  1.00  0.00     0.179 C 
ATOM     21  C   UNL     1       3.458  -1.677 -24.154  1.00  0.00     0.178 C 
ATOM     22  C   UNL     1       3.881  -2.422 -25.464  1.00  0.00     0.177 C 
BRANCH  18  23
ATOM     23  O   UNL     1       4.418   0.666 -27.529  1.00  0.00    -0.385 OA
ATOM     24  H   UNL     1       4.283   0.262 -28.426  1.00  0.00     0.211 HD
ENDBRANCH  18  23
BRANCH  20  25
ATOM     25  O   UNL     1       5.931  -1.280 -26.079  1.00  0.00    -0.387 OA
ATOM     26  H   UNL     1       6.086  -0.300 -26.125  1.00  0.00     0.211 HD
ENDBRANCH  20  25
BRANCH  21  27
ATOM     27  C   UNL     1       4.482  -1.706 -22.995  1.00  0.00     0.191 C 
BRANCH  27  28
ATOM     28  O   UNL     1       5.793  -1.504 -23.447  1.00  0.00    -0.394 OA
ATOM     29  H   UNL     1       5.723  -1.244 -24.404  1.00  0.00     0.210 HD
ENDBRANCH  27  28
ENDBRANCH  21  27
BRANCH  22  30
ATOM     30  O   UNL     1       4.682  -3.544 -25.183  1.00  0.00    -0.387 OA
ATOM     31  H   UNL     1       4.913  -3.961 -26.054  1.00  0.00     0.211 HD
ENDBRANCH  22  30
ENDBRANCH   1  17
TORSDOF 10
ENDMDL
MODEL 4
REMARK VINA RESULT:    -5.939      1.826      5.848
REMARK INTER + INTRA:         -10.221
REMARK INTER:                  -8.229
REMARK INTRA:                  -1.992
REMARK UNBOUND:                -1.852
REMARK SMILES OC[C@H]1O[C@@H](O[C@H]2OC=C[C@H]3[C@@H](O)[C@H]4O[C@@]4(CO)[C@@H]23)[C@@H](O)[C@@H](O)[C@H]1O
REMARK SMILES IDX 6 1 7 2 10 3 9 4 11 5 8 6 19 7 12 8 16 9 14 10 15 11 13 12
REMARK SMILES IDX 17 14 18 15 5 17 20 18 4 19 22 20 3 21 24 22 21 23 23 25
REMARK SMILES IDX 2 27 1 28 25 30
REMARK H PARENT 13 13 18 16 21 24 23 26 1 29 25 31
REMARK Flexibility Score: inf
ROOT
ATOM      1  O   UNL     1       4.041  -0.134 -25.123  1.00  0.00    -0.310 OA
ENDROOT
BRANCH   1   2
ATOM      2  C   UNL     1       3.847   1.002 -25.959  1.00  0.00     0.315 C 
ATOM      3  C   UNL     1       3.159   3.588 -26.878  1.00  0.00     0.018 C 
ATOM      4  C   UNL     1       2.200   2.730 -26.517  1.00  0.00     0.186 C 
ATOM      5  C   UNL     1       4.619   3.398 -26.478  1.00  0.00     0.059 C 
ATOM      6  O   UNL     1       2.527   1.544 -25.864  1.00  0.00    -0.472 OA
ATOM      7  C   UNL     1       4.875   2.110 -25.643  1.00  0.00     0.105 C 
ATOM      8  C   UNL     1       5.110   4.556 -25.574  1.00  0.00     0.154 C 
ATOM      9  C   UNL     1       4.877   2.570 -24.173  1.00  0.00     0.130 C 
ATOM     10  C   UNL     1       5.061   4.031 -24.143  1.00  0.00     0.183 C 
ATOM     11  O   UNL     1       3.824   3.438 -23.810  1.00  0.00    -0.360 OA
BRANCH   8  12
ATOM     12  O   UNL     1       4.318   5.714 -25.693  1.00  0.00    -0.390 OA
ATOM     13  H   UNL     1       3.574   5.619 -25.051  1.00  0.00     0.211 HD
ENDBRANCH   8  12
BRANCH   9  14
ATOM     14  C   UNL     1       5.502   1.793 -22.996  1.00  0.00     0.195 C 
BRANCH  14  15
ATOM     15  O   UNL     1       4.550   1.006 -22.334  1.00  0.00    -0.393 OA
ATOM     16  H   UNL     1       3.950   0.618 -23.032  1.00  0.00     0.210 HD
ENDBRANCH  14  15
ENDBRANCH   9  14
ENDBRANCH   1   2
BRANCH   1  17
ATOM     17  C   UNL     1       3.933  -1.384 -25.807  1.00  0.00     0.286 C 
ATOM     18  C   UNL     1       4.907  -2.494 -25.330  1.00  0.00     0.202 C 
ATOM     19  O   UNL     1       2.593  -1.850 -25.745  1.00  0.00    -0.341 OA
ATOM     20  C   UNL     1       4.630  -2.872 -23.870  1.00  0.00     0.179 C 
ATOM     21  C   UNL     1       2.172  -2.297 -24.454  1.00  0.00     0.178 C 
ATOM     22  C   UNL     1       3.155  -3.283 -23.739  1.00  0.00     0.177 C 
BRANCH  18  23
ATOM     23  O   UNL     1       6.251  -2.127 -25.519  1.00  0.00    -0.385 OA
ATOM     24  H   UNL     1       6.259  -1.148 -25.686  1.00  0.00     0.211 HD
ENDBRANCH  18  23
BRANCH  20  25
ATOM     25  O   UNL     1       4.934  -1.808 -23.000  1.00  0.00    -0.387 OA
ATOM     26  H   UNL     1       4.167  -1.179 -23.023  1.00  0.00     0.211 HD
ENDBRANCH  20  25
BRANCH  21  27
ATOM     27  C   UNL     1       1.616  -1.144 -23.585  1.00  0.00     0.191 C 
BRANCH  27  28
ATOM     28  O   UNL     1       2.514  -0.764 -22.578  1.00  0.00    -0.394 OA
ATOM     29  H   UNL     1       2.345  -1.369 -21.808  1.00  0.00     0.210 HD
ENDBRANCH  27  28
ENDBRANCH  21  27
BRANCH  22  30
ATOM     30  O   UNL     1       2.829  -3.443 -22.380  1.00  0.00    -0.387 OA
ATOM     31  H   UNL     1       2.094  -2.806 -22.181  1.00  0.00     0.211 HD
ENDBRANCH  22  30
ENDBRANCH   1  17
TORSDOF 10
ENDMDL
MODEL 5
REMARK VINA RESULT:    -5.921      2.200      5.886
REMARK INTER + INTRA:         -10.196
REMARK INTER:                  -8.164
REMARK INTRA:                  -2.032
REMARK UNBOUND:                -1.852
REMARK SMILES OC[C@H]1O[C@@H](O[C@H]2OC=C[C@H]3[C@@H](O)[C@H]4O[C@@]4(CO)[C@@H]23)[C@@H](O)[C@@H](O)[C@H]1O
REMARK SMILES IDX 6 1 7 2 10 3 9 4 11 5 8 6 19 7 12 8 16 9 14 10 15 11 13 12
REMARK SMILES IDX 17 14 18 15 5 17 20 18 4 19 22 20 3 21 24 22 21 23 23 25
REMARK SMILES IDX 2 27 1 28 25 30
REMARK H PARENT 13 13 18 16 21 24 23 26 1 29 25 31
REMARK Flexibility Score: inf
ROOT
ATOM      1  O   UNL     1       3.865   0.227 -24.382  1.00  0.00    -0.310 OA
ENDROOT
BRANCH   1   2
ATOM      2  C   UNL     1       4.270   1.482 -24.917  1.00  0.00     0.315 C 
ATOM      3  C   UNL     1       4.473   4.259 -25.422  1.00  0.00     0.018 C 
ATOM      4  C   UNL     1       3.371   3.594 -25.779  1.00  0.00     0.186 C 
ATOM      5  C   UNL     1       5.481   3.695 -24.424  1.00  0.00     0.059 C 
ATOM      6  O   UNL     1       3.168   2.286 -25.346  1.00  0.00    -0.472 OA
ATOM      7  C   UNL     1       5.111   2.279 -23.896  1.00  0.00     0.105 C 
ATOM      8  C   UNL     1       5.569   4.577 -23.154  1.00  0.00     0.154 C 
ATOM      9  C   UNL     1       4.407   2.517 -22.546  1.00  0.00     0.130 C 
ATOM     10  C   UNL     1       4.724   3.882 -22.091  1.00  0.00     0.183 C 
ATOM     11  O   UNL     1       3.432   3.538 -22.545  1.00  0.00    -0.360 OA
BRANCH   8  12
ATOM     12  O   UNL     1       5.099   5.888 -23.366  1.00  0.00    -0.390 OA
ATOM     13  H   UNL     1       4.399   5.831 -24.060  1.00  0.00     0.211 HD
ENDBRANCH   8  12
BRANCH   9  14
ATOM     14  C   UNL     1       4.235   1.464 -21.432  1.00  0.00     0.195 C 
BRANCH  14  15
ATOM     15  O   UNL     1       5.110   0.383 -21.605  1.00  0.00    -0.393 OA
ATOM     16  H   UNL     1       6.025   0.762 -21.734  1.00  0.00     0.210 HD
ENDBRANCH  14  15
ENDBRANCH   9  14
ENDBRANCH   1   2
BRANCH   1  17
ATOM     17  C   UNL     1       4.431  -0.901 -25.054  1.00  0.00     0.286 C 
ATOM     18  C   UNL     1       4.987  -2.019 -24.133  1.00  0.00     0.202 C 
ATOM     19  O   UNL     1       3.484  -1.442 -25.964  1.00  0.00    -0.341 OA
ATOM     20  C   UNL     1       3.864  -2.642 -23.294  1.00  0.00     0.179 C 
ATOM     21  C   UNL     1       2.381  -2.114 -25.352  1.00  0.00     0.178 C 
ATOM     22  C   UNL     1       2.765  -3.148 -24.242  1.00  0.00     0.177 C 
BRANCH  18  23
ATOM     23  O   UNL     1       6.037  -1.555 -23.321  1.00  0.00    -0.385 OA
ATOM     24  H   UNL     1       6.379  -2.340 -22.819  1.00  0.00     0.211 HD
ENDBRANCH  18  23
BRANCH  20  25
ATOM     25  O   UNL     1       3.344  -1.718 -22.369  1.00  0.00    -0.387 OA
ATOM     26  H   UNL     1       2.557  -2.143 -21.937  1.00  0.00     0.211 HD
ENDBRANCH  20  25
BRANCH  21  27
ATOM     27  C   UNL     1       1.222  -1.148 -25.008  1.00  0.00     0.191 C 
BRANCH  27  28
ATOM     28  O   UNL     1       1.140  -0.895 -23.633  1.00  0.00    -0.394 OA
ATOM     29  H   UNL     1       1.414   0.053 -23.504  1.00  0.00     0.210 HD
ENDBRANCH  27  28
ENDBRANCH  21  27
BRANCH  22  30
ATOM     30  O   UNL     1       1.641  -3.543 -23.493  1.00  0.00    -0.387 OA
ATOM     31  H   UNL     1       1.069  -2.739 -23.383  1.00  0.00     0.211 HD
ENDBRANCH  22  30
ENDBRANCH   1  17
TORSDOF 10
ENDMDL
MODEL 6
REMARK VINA RESULT:    -5.776      1.499      6.002
REMARK INTER + INTRA:          -9.992
REMARK INTER:                  -8.218
REMARK INTRA:                  -1.774
REMARK UNBOUND:                -1.852
REMARK SMILES OC[C@H]1O[C@@H](O[C@H]2OC=C[C@H]3[C@@H](O)[C@H]4O[C@@]4(CO)[C@@H]23)[C@@H](O)[C@@H](O)[C@H]1O
REMARK SMILES IDX 6 1 7 2 10 3 9 4 11 5 8 6 19 7 12 8 16 9 14 10 15 11 13 12
REMARK SMILES IDX 17 14 18 15 5 17 20 18 4 19 22 20 3 21 24 22 21 23 23 25
REMARK SMILES IDX 2 27 1 28 25 30
REMARK H PARENT 13 13 18 16 21 24 23 26 1 29 25 31
REMARK Flexibility Score: inf
ROOT
ATOM      1  O   UNL     1       3.298  -0.146 -24.340  1.00  0.00    -0.310 OA
ENDROOT
BRANCH   1   2
ATOM      2  C   UNL     1       3.630   1.236 -24.262  1.00  0.00     0.315 C 
ATOM      3  C   UNL     1       4.973   3.708 -24.562  1.00  0.00     0.018 C 
ATOM      4  C   UNL     1       5.503   2.749 -23.796  1.00  0.00     0.186 C 
ATOM      5  C   UNL     1       3.875   3.427 -25.583  1.00  0.00     0.059 C 
ATOM      6  O   UNL     1       4.969   1.463 -23.813  1.00  0.00    -0.472 OA
ATOM      7  C   UNL     1       3.426   1.938 -25.622  1.00  0.00     0.105 C 
ATOM      8  C   UNL     1       4.357   3.729 -27.024  1.00  0.00     0.154 C 
ATOM      9  C   UNL     1       4.212   1.304 -26.785  1.00  0.00     0.130 C 
ATOM     10  C   UNL     1       4.728   2.385 -27.641  1.00  0.00     0.183 C 
ATOM     11  O   UNL     1       5.588   1.617 -26.826  1.00  0.00    -0.360 OA
BRANCH   8  12
ATOM     12  O   UNL     1       5.462   4.601 -27.058  1.00  0.00    -0.390 OA
ATOM     13  H   UNL     1       5.173   5.409 -27.545  1.00  0.00     0.211 HD
ENDBRANCH   8  12
BRANCH   9  14
ATOM     14  C   UNL     1       3.829  -0.001 -27.513  1.00  0.00     0.195 C 
BRANCH  14  15
ATOM     15  O   UNL     1       4.394  -1.123 -26.891  1.00  0.00    -0.393 OA
ATOM     16  H   UNL     1       4.952  -1.590 -27.574  1.00  0.00     0.210 HD
ENDBRANCH  14  15
ENDBRANCH   9  14
ENDBRANCH   1   2
BRANCH   1  17
ATOM     17  C   UNL     1       2.540  -0.627 -23.228  1.00  0.00     0.286 C 
ATOM     18  C   UNL     1       1.305  -1.495 -23.584  1.00  0.00     0.202 C 
ATOM     19  O   UNL     1       3.393  -1.331 -22.336  1.00  0.00    -0.341 OA
ATOM     20  C   UNL     1       1.732  -2.784 -24.296  1.00  0.00     0.179 C 
ATOM     21  C   UNL     1       3.853  -2.595 -22.819  1.00  0.00     0.178 C 
ATOM     22  C   UNL     1       2.740  -3.527 -23.405  1.00  0.00     0.177 C 
BRANCH  18  23
ATOM     23  O   UNL     1       0.363  -0.778 -24.343  1.00  0.00    -0.385 OA
ATOM     24  H   UNL     1      -0.069  -0.132 -23.725  1.00  0.00     0.211 HD
ENDBRANCH  18  23
BRANCH  20  25
ATOM     25  O   UNL     1       2.285  -2.511 -25.560  1.00  0.00    -0.387 OA
ATOM     26  H   UNL     1       2.199  -1.534 -25.716  1.00  0.00     0.211 HD
ENDBRANCH  20  25
BRANCH  21  27
ATOM     27  C   UNL     1       5.145  -2.468 -23.660  1.00  0.00     0.191 C 
BRANCH  27  28
ATOM     28  O   UNL     1       5.904  -1.349 -23.292  1.00  0.00    -0.394 OA
ATOM     29  H   UNL     1       5.354  -0.839 -22.639  1.00  0.00     0.210 HD
ENDBRANCH  27  28
ENDBRANCH  21  27
BRANCH  22  30
ATOM     30  O   UNL     1       3.294  -4.606 -24.118  1.00  0.00    -0.387 OA
ATOM     31  H   UNL     1       3.820  -4.221 -24.866  1.00  0.00     0.211 HD
ENDBRANCH  22  30
ENDBRANCH   1  17
TORSDOF 10
ENDMDL
MODEL 7
REMARK VINA RESULT:    -5.680      2.027      6.146
REMARK INTER + INTRA:          -9.857
REMARK INTER:                  -7.821
REMARK INTRA:                  -2.036
REMARK UNBOUND:                -1.852
REMARK SMILES OC[C@H]1O[C@@H](O[C@H]2OC=C[C@H]3[C@@H](O)[C@H]4O[C@@]4(CO)[C@@H]23)[C@@H](O)[C@@H](O)[C@H]1O
REMARK SMILES IDX 6 1 7 2 10 3 9 4 11 5 8 6 19 7 12 8 16 9 14 10 15 11 13 12
REMARK SMILES IDX 17 14 18 15 5 17 20 18 4 19 22 20 3 21 24 22 21 23 23 25
REMARK SMILES IDX 2 27 1 28 25 30
REMARK H PARENT 13 13 18 16 21 24 23 26 1 29 25 31
REMARK Flexibility Score: inf
ROOT
ATOM      1  O   UNL     1       4.058   0.891 -25.067  1.00  0.00    -0.310 OA
ENDROOT
BRANCH   1   2
ATOM      2  C   UNL     1       3.637   2.109 -24.463  1.00  0.00     0.315 C 
ATOM      3  C   UNL     1       3.584   4.779 -23.529  1.00  0.00     0.018 C 
ATOM      4  C   UNL     1       4.409   3.891 -22.967  1.00  0.00     0.186 C 
ATOM      5  C   UNL     1       2.932   4.543 -24.888  1.00  0.00     0.059 C 
ATOM      6  O   UNL     1       4.602   2.642 -23.553  1.00  0.00    -0.472 OA
ATOM      7  C   UNL     1       3.302   3.174 -25.529  1.00  0.00     0.105 C 
ATOM      8  C   UNL     1       3.394   5.598 -25.924  1.00  0.00     0.154 C 
ATOM      9  C   UNL     1       4.455   3.477 -26.504  1.00  0.00     0.130 C 
ATOM     10  C   UNL     1       4.473   4.926 -26.767  1.00  0.00     0.183 C 
ATOM     11  O   UNL     1       5.477   4.305 -25.992  1.00  0.00    -0.360 OA
BRANCH   8  12
ATOM     12  O   UNL     1       3.904   6.765 -25.324  1.00  0.00    -0.390 OA
ATOM     13  H   UNL     1       3.301   6.988 -24.575  1.00  0.00     0.211 HD
ENDBRANCH   8  12
BRANCH   9  14
ATOM     14  C   UNL     1       4.886   2.579 -27.682  1.00  0.00     0.195 C 
BRANCH  14  15
ATOM     15  O   UNL     1       5.677   1.506 -27.248  1.00  0.00    -0.393 OA
ATOM     16  H   UNL     1       6.302   1.860 -26.556  1.00  0.00     0.210 HD
ENDBRANCH  14  15
ENDBRANCH   9  14
ENDBRANCH   1   2
BRANCH   1  17
ATOM     17  C   UNL     1       2.996  -0.031 -25.321  1.00  0.00     0.286 C 
ATOM     18  C   UNL     1       3.291  -1.115 -26.392  1.00  0.00     0.202 C 
ATOM     19  O   UNL     1       2.590  -0.642 -24.105  1.00  0.00    -0.341 OA
ATOM     20  C   UNL     1       4.441  -2.025 -25.942  1.00  0.00     0.179 C 
ATOM     21  C   UNL     1       3.528  -1.573 -23.559  1.00  0.00     0.178 C 
ATOM     22  C   UNL     1       4.085  -2.627 -24.573  1.00  0.00     0.177 C 
BRANCH  18  23
ATOM     23  O   UNL     1       3.549  -0.548 -27.653  1.00  0.00    -0.385 OA
ATOM     24  H   UNL     1       2.791   0.061 -27.853  1.00  0.00     0.211 HD
ENDBRANCH  18  23
BRANCH  20  25
ATOM     25  O   UNL     1       5.657  -1.321 -25.880  1.00  0.00    -0.387 OA
ATOM     26  H   UNL     1       5.841  -1.130 -24.923  1.00  0.00     0.211 HD
ENDBRANCH  20  25
BRANCH  21  27
ATOM     27  C   UNL     1       4.575  -0.887 -22.650  1.00  0.00     0.191 C 
BRANCH  27  28
ATOM     28  O   UNL     1       5.829  -0.794 -23.269  1.00  0.00    -0.394 OA
ATOM     29  H   UNL     1       5.756  -0.067 -23.944  1.00  0.00     0.210 HD
ENDBRANCH  27  28
ENDBRANCH  21  27
BRANCH  22  30
ATOM     30  O   UNL     1       5.201  -3.305 -24.052  1.00  0.00    -0.387 OA
ATOM     31  H   UNL     1       5.921  -2.632 -23.932  1.00  0.00     0.211 HD
ENDBRANCH  22  30
ENDBRANCH   1  17
TORSDOF 10
ENDMDL
MODEL 8
REMARK VINA RESULT:    -5.676      2.173      3.968
REMARK INTER + INTRA:          -9.851
REMARK INTER:                  -8.059
REMARK INTRA:                  -1.792
REMARK UNBOUND:                -1.852
REMARK SMILES OC[C@H]1O[C@@H](O[C@H]2OC=C[C@H]3[C@@H](O)[C@H]4O[C@@]4(CO)[C@@H]23)[C@@H](O)[C@@H](O)[C@H]1O
REMARK SMILES IDX 6 1 7 2 10 3 9 4 11 5 8 6 19 7 12 8 16 9 14 10 15 11 13 12
REMARK SMILES IDX 17 14 18 15 5 17 20 18 4 19 22 20 3 21 24 22 21 23 23 25
REMARK SMILES IDX 2 27 1 28 25 30
REMARK H PARENT 13 13 18 16 21 24 23 26 1 29 25 31
REMARK Flexibility Score: inf
ROOT
ATOM      1  O   UNL     1       3.846   2.074 -24.294  1.00  0.00    -0.310 OA
ENDROOT
BRANCH   1   2
ATOM      2  C   UNL     1       3.383   0.912 -24.973  1.00  0.00     0.315 C 
ATOM      3  C   UNL     1       3.224  -1.702 -26.045  1.00  0.00     0.018 C 
ATOM      4  C   UNL     1       4.111  -0.832 -26.536  1.00  0.00     0.186 C 
ATOM      5  C   UNL     1       2.542  -1.501 -24.695  1.00  0.00     0.059 C 
ATOM      6  O   UNL     1       4.348   0.374 -25.881  1.00  0.00    -0.472 OA
ATOM      7  C   UNL     1       2.960  -0.187 -23.974  1.00  0.00     0.105 C 
ATOM      8  C   UNL     1       2.916  -2.629 -23.702  1.00  0.00     0.154 C 
ATOM      9  C   UNL     1       4.064  -0.598 -22.982  1.00  0.00     0.130 C 
ATOM     10  C   UNL     1       4.000  -2.058 -22.794  1.00  0.00     0.183 C 
ATOM     11  O   UNL     1       5.059  -1.453 -23.505  1.00  0.00    -0.360 OA
BRANCH   8  12
ATOM     12  O   UNL     1       3.385  -3.790 -24.346  1.00  0.00    -0.390 OA
ATOM     13  H   UNL     1       4.369  -3.717 -24.387  1.00  0.00     0.211 HD
ENDBRANCH   8  12
BRANCH   9  14
ATOM     14  C   UNL     1       4.503   0.216 -21.747  1.00  0.00     0.195 C 
BRANCH  14  15
ATOM     15  O   UNL     1       5.759   0.808 -21.940  1.00  0.00    -0.393 OA
ATOM     16  H   UNL     1       6.446   0.109 -21.752  1.00  0.00     0.210 HD
ENDBRANCH  14  15
ENDBRANCH   9  14
ENDBRANCH   1   2
BRANCH   1  17
ATOM     17  C   UNL     1       5.068   2.604 -24.815  1.00  0.00     0.286 C 
ATOM     18  C   UNL     1       4.913   3.738 -25.863  1.00  0.00     0.202 C 
ATOM     19  O   UNL     1       5.897   3.036 -23.745  1.00  0.00    -0.341 OA
ATOM     20  C   UNL     1       4.238   4.967 -25.241  1.00  0.00     0.179 C 
ATOM     21  C   UNL     1       5.444   4.214 -23.074  1.00  0.00     0.178 C 
ATOM     22  C   UNL     1       5.050   5.404 -24.012  1.00  0.00     0.177 C 
BRANCH  18  23
ATOM     23  O   UNL     1       4.225   3.300 -27.009  1.00  0.00    -0.385 OA
ATOM     24  H   UNL     1       3.433   3.891 -27.110  1.00  0.00     0.211 HD
ENDBRANCH  18  23
BRANCH  20  25
ATOM     25  O   UNL     1       2.903   4.694 -24.889  1.00  0.00    -0.387 OA
ATOM     26  H   UNL     1       2.880   3.781 -24.500  1.00  0.00     0.211 HD
ENDBRANCH  20  25
BRANCH  21  27
ATOM     27  C   UNL     1       4.452   3.894 -21.931  1.00  0.00     0.191 C 
BRANCH  27  28
ATOM     28  O   UNL     1       3.136   4.237 -22.266  1.00  0.00    -0.394 OA
ATOM     29  H   UNL     1       2.645   4.341 -21.408  1.00  0.00     0.210 HD
ENDBRANCH  27  28
ENDBRANCH  21  27
BRANCH  22  30
ATOM     30  O   UNL     1       4.348   6.402 -23.312  1.00  0.00    -0.387 OA
ATOM     31  H   UNL     1       4.469   7.249 -23.814  1.00  0.00     0.211 HD
ENDBRANCH  22  30
ENDBRANCH   1  17
TORSDOF 10
ENDMDL
MODEL 9
REMARK VINA RESULT:    -5.496      1.839      5.962
REMARK INTER + INTRA:          -9.597
REMARK INTER:                  -7.829
REMARK INTRA:                  -1.769
REMARK UNBOUND:                -1.852
REMARK SMILES OC[C@H]1O[C@@H](O[C@H]2OC=C[C@H]3[C@@H](O)[C@H]4O[C@@]4(CO)[C@@H]23)[C@@H](O)[C@@H](O)[C@H]1O
REMARK SMILES IDX 6 1 7 2 10 3 9 4 11 5 8 6 19 7 12 8 16 9 14 10 15 11 13 12
REMARK SMILES IDX 17 14 18 15 5 17 20 18 4 19 22 20 3 21 24 22 21 23 23 25
REMARK SMILES IDX 2 27 1 28 25 30
REMARK H PARENT 13 13 18 16 21 24 23 26 1 29 25 31
REMARK Flexibility Score: inf
ROOT
ATOM      1  O   UNL     1       3.953   0.313 -25.076  1.00  0.00    -0.310 OA
ENDROOT
BRANCH   1   2
ATOM      2  C   UNL     1       3.766   1.365 -26.017  1.00  0.00     0.315 C 
ATOM      3  C   UNL     1       3.097   3.856 -27.178  1.00  0.00     0.018 C 
ATOM      4  C   UNL     1       2.132   3.046 -26.734  1.00  0.00     0.186 C 
ATOM      5  C   UNL     1       4.557   3.693 -26.766  1.00  0.00     0.059 C 
ATOM      6  O   UNL     1       2.451   1.926 -25.971  1.00  0.00    -0.472 OA
ATOM      7  C   UNL     1       4.804   2.489 -25.812  1.00  0.00     0.105 C 
ATOM      8  C   UNL     1       5.061   4.928 -25.978  1.00  0.00     0.154 C 
ATOM      9  C   UNL     1       4.815   3.088 -24.392  1.00  0.00     0.130 C 
ATOM     10  C   UNL     1       5.012   4.543 -24.503  1.00  0.00     0.183 C 
ATOM     11  O   UNL     1       3.771   3.996 -24.112  1.00  0.00    -0.360 OA
BRANCH   8  12
ATOM     12  O   UNL     1       4.279   6.076 -26.206  1.00  0.00    -0.390 OA
ATOM     13  H   UNL     1       4.681   6.548 -26.974  1.00  0.00     0.211 HD
ENDBRANCH   8  12
BRANCH   9  14
ATOM     14  C   UNL     1       5.437   2.422 -23.148  1.00  0.00     0.195 C 
BRANCH  14  15
ATOM     15  O   UNL     1       4.483   2.218 -22.141  1.00  0.00    -0.393 OA
ATOM     16  H   UNL     1       4.180   1.270 -22.209  1.00  0.00     0.210 HD
ENDBRANCH  14  15
ENDBRANCH   9  14
ENDBRANCH   1   2
BRANCH   1  17
ATOM     17  C   UNL     1       2.781  -0.013 -24.326  1.00  0.00     0.286 C 
ATOM     18  C   UNL     1       1.965  -1.224 -24.849  1.00  0.00     0.202 C 
ATOM     19  O   UNL     1       3.124  -0.206 -22.961  1.00  0.00    -0.341 OA
ATOM     20  C   UNL     1       2.795  -2.513 -24.774  1.00  0.00     0.179 C 
ATOM     21  C   UNL     1       3.864  -1.399 -22.693  1.00  0.00     0.178 C 
ATOM     22  C   UNL     1       3.276  -2.704 -23.327  1.00  0.00     0.177 C 
BRANCH  18  23
ATOM     23  O   UNL     1       1.477  -1.004 -26.150  1.00  0.00    -0.385 OA
ATOM     24  H   UNL     1       1.351  -1.898 -26.562  1.00  0.00     0.211 HD
ENDBRANCH  18  23
BRANCH  20  25
ATOM     25  O   UNL     1       3.884  -2.472 -25.664  1.00  0.00    -0.387 OA
ATOM     26  H   UNL     1       3.666  -3.072 -26.425  1.00  0.00     0.211 HD
ENDBRANCH  20  25
BRANCH  21  27
ATOM     27  C   UNL     1       5.389  -1.194 -22.855  1.00  0.00     0.191 C 
BRANCH  27  28
ATOM     28  O   UNL     1       5.878  -1.788 -24.026  1.00  0.00    -0.394 OA
ATOM     29  H   UNL     1       6.628  -2.379 -23.750  1.00  0.00     0.210 HD
ENDBRANCH  27  28
ENDBRANCH  21  27
BRANCH  22  30
ATOM     30  O   UNL     1       4.197  -3.765 -23.272  1.00  0.00    -0.387 OA
ATOM     31  H   UNL     1       5.096  -3.379 -23.441  1.00  0.00     0.211 HD
ENDBRANCH  22  30
ENDBRANCH   1  17
TORSDOF 10
ENDMDL
