MODEL 1
REMARK VINA RESULT:    -4.118      0.000      0.000
REMARK INTER + INTRA:          -5.249
REMARK INTER:                  -4.960
REMARK INTRA:                  -0.289
REMARK UNBOUND:                -0.289
REMARK SMILES NC(=O)C[C@H]([NH3+])C(=O)[O-]
REMARK SMILES IDX 4 1 5 2 6 3 7 7 8 8 9 9 2 10 3 11 1 12
REMARK H PARENT 6 4 6 5 6 6 1 13 1 14
REMARK Flexibility Score: inf
ROOT
ATOM      1  C   UNL     1     -15.435 -36.033 -13.420  1.00  0.00     0.171 C 
ENDROOT
BRANCH   1   2
ATOM      2  C   UNL     1     -16.653 -36.632 -14.154  1.00  0.00     0.237 C 
BRANCH   2   3
ATOM      3  N   UNL     1     -17.157 -35.719 -15.189  1.00  0.00    -0.350 N 
ATOM      4  H   UNL     1     -17.866 -36.197 -15.793  1.00  0.00     0.345 HD
ATOM      5  H   UNL     1     -16.365 -35.389 -15.788  1.00  0.00     0.345 HD
ATOM      6  H   UNL     1     -17.595 -34.880 -14.745  1.00  0.00     0.345 HD
ENDBRANCH   2   3
BRANCH   2   7
ATOM      7  C   UNL     1     -17.740 -36.950 -13.163  1.00  0.00     0.100 C 
ATOM      8  O   UNL     1     -17.465 -37.125 -11.947  1.00  0.00    -0.544 OA
ATOM      9  O   UNL     1     -19.056 -37.069 -13.593  1.00  0.00    -0.544 OA
ENDBRANCH   2   7
ENDBRANCH   1   2
BRANCH   1  10
ATOM     10  C   UNL     1     -14.463 -35.407 -14.377  1.00  0.00     0.223 C 
ATOM     11  O   UNL     1     -14.565 -34.184 -14.664  1.00  0.00    -0.275 OA
ATOM     12  N   UNL     1     -13.442 -36.195 -14.988  1.00  0.00    -0.369 N 
ATOM     13  H   UNL     1     -13.351 -37.211 -14.769  1.00  0.00     0.159 HD
ATOM     14  H   UNL     1     -12.774 -35.760 -15.663  1.00  0.00     0.159 HD
ENDBRANCH   1  10
TORSDOF 4
ENDMDL
MODEL 2
REMARK VINA RESULT:    -4.086      2.125      3.906
REMARK INTER + INTRA:          -5.211
REMARK INTER:                  -4.943
REMARK INTRA:                  -0.267
REMARK UNBOUND:                -0.289
REMARK SMILES NC(=O)C[C@H]([NH3+])C(=O)[O-]
REMARK SMILES IDX 4 1 5 2 6 3 7 7 8 8 9 9 2 10 3 11 1 12
REMARK H PARENT 6 4 6 5 6 6 1 13 1 14
REMARK Flexibility Score: inf
ROOT
ATOM      1  C   UNL     1     -16.137 -36.447 -13.306  1.00  0.00     0.171 C 
ENDROOT
BRANCH   1   2
ATOM      2  C   UNL     1     -15.209 -35.317 -13.795  1.00  0.00     0.237 C 
BRANCH   2   3
ATOM      3  N   UNL     1     -15.889 -34.445 -14.764  1.00  0.00    -0.350 N 
ATOM      4  H   UNL     1     -16.921 -34.433 -14.592  1.00  0.00     0.345 HD
ATOM      5  H   UNL     1     -15.708 -34.787 -15.736  1.00  0.00     0.345 HD
ATOM      6  H   UNL     1     -15.517 -33.471 -14.692  1.00  0.00     0.345 HD
ENDBRANCH   2   3
BRANCH   2   7
ATOM      7  C   UNL     1     -13.966 -35.906 -14.406  1.00  0.00     0.100 C 
ATOM      8  O   UNL     1     -13.693 -37.125 -14.251  1.00  0.00    -0.544 OA
ATOM      9  O   UNL     1     -13.100 -35.097 -15.132  1.00  0.00    -0.544 OA
ENDBRANCH   2   7
ENDBRANCH   1   2
BRANCH   1  10
ATOM     10  C   UNL     1     -17.174 -36.797 -14.333  1.00  0.00     0.223 C 
ATOM     11  O   UNL     1     -16.819 -37.108 -15.501  1.00  0.00    -0.275 OA
ATOM     12  N   UNL     1     -18.562 -36.752 -14.003  1.00  0.00    -0.369 N 
ATOM     13  H   UNL     1     -18.872 -36.487 -13.042  1.00  0.00     0.159 HD
ATOM     14  H   UNL     1     -19.283 -36.984 -14.722  1.00  0.00     0.159 HD
ENDBRANCH   1  10
TORSDOF 4
ENDMDL
MODEL 3
REMARK VINA RESULT:    -4.051      1.429      2.083
REMARK INTER + INTRA:          -5.169
REMARK INTER:                  -4.703
REMARK INTRA:                  -0.465
REMARK UNBOUND:                -0.289
REMARK SMILES NC(=O)C[C@H]([NH3+])C(=O)[O-]
REMARK SMILES IDX 4 1 5 2 6 3 7 7 8 8 9 9 2 10 3 11 1 12
REMARK H PARENT 6 4 6 5 6 6 1 13 1 14
REMARK Flexibility Score: inf
ROOT
ATOM      1  C   UNL     1     -15.408 -34.950 -13.979  1.00  0.00     0.171 C 
ENDROOT
BRANCH   1   2
ATOM      2  C   UNL     1     -15.494 -36.123 -12.979  1.00  0.00     0.237 C 
BRANCH   2   3
ATOM      3  N   UNL     1     -14.450 -37.124 -13.236  1.00  0.00    -0.350 N 
ATOM      4  H   UNL     1     -14.678 -38.029 -12.762  1.00  0.00     0.345 HD
ATOM      5  H   UNL     1     -13.529 -36.775 -12.881  1.00  0.00     0.345 HD
ATOM      6  H   UNL     1     -14.356 -37.289 -14.264  1.00  0.00     0.345 HD
ENDBRANCH   2   3
BRANCH   2   7
ATOM      7  C   UNL     1     -16.856 -36.759 -13.054  1.00  0.00     0.100 C 
ATOM      8  O   UNL     1     -17.331 -37.125 -14.161  1.00  0.00    -0.544 OA
ATOM      9  O   UNL     1     -17.606 -36.928 -11.897  1.00  0.00    -0.544 OA
ENDBRANCH   2   7
ENDBRANCH   1   2
BRANCH   1  10
ATOM     10  C   UNL     1     -14.785 -35.373 -15.277  1.00  0.00     0.223 C 
ATOM     11  O   UNL     1     -13.530 -35.365 -15.401  1.00  0.00    -0.275 OA
ATOM     12  N   UNL     1     -15.604 -35.755 -16.381  1.00  0.00    -0.369 N 
ATOM     13  H   UNL     1     -16.644 -35.756 -16.296  1.00  0.00     0.159 HD
ATOM     14  H   UNL     1     -15.168 -36.037 -17.287  1.00  0.00     0.159 HD
ENDBRANCH   1  10
TORSDOF 4
ENDMDL
MODEL 4
REMARK VINA RESULT:    -4.049      1.582      1.992
REMARK INTER + INTRA:          -5.166
REMARK INTER:                  -5.040
REMARK INTRA:                  -0.126
REMARK UNBOUND:                -0.289
REMARK SMILES NC(=O)C[C@H]([NH3+])C(=O)[O-]
REMARK SMILES IDX 4 1 5 2 6 3 7 7 8 8 9 9 2 10 3 11 1 12
REMARK H PARENT 6 4 6 5 6 6 1 13 1 14
REMARK Flexibility Score: inf
ROOT
ATOM      1  C   UNL     1     -15.249 -34.496 -14.113  1.00  0.00     0.171 C 
ENDROOT
BRANCH   1   2
ATOM      2  C   UNL     1     -15.963 -35.830 -14.416  1.00  0.00     0.237 C 
BRANCH   2   3
ATOM      3  N   UNL     1     -17.125 -35.629 -15.293  1.00  0.00    -0.350 N 
ATOM      4  H   UNL     1     -17.753 -36.466 -15.276  1.00  0.00     0.345 HD
ATOM      5  H   UNL     1     -16.804 -35.462 -16.275  1.00  0.00     0.345 HD
ATOM      6  H   UNL     1     -17.666 -34.789 -14.985  1.00  0.00     0.345 HD
ENDBRANCH   2   3
BRANCH   2   7
ATOM      7  C   UNL     1     -16.388 -36.486 -13.129  1.00  0.00     0.100 C 
ATOM      8  O   UNL     1     -17.472 -37.123 -13.064  1.00  0.00    -0.544 OA
ATOM      9  O   UNL     1     -15.589 -36.374 -11.998  1.00  0.00    -0.544 OA
ENDBRANCH   2   7
ENDBRANCH   1   2
BRANCH   1  10
ATOM     10  C   UNL     1     -13.822 -34.513 -14.577  1.00  0.00     0.223 C 
ATOM     11  O   UNL     1     -13.354 -35.546 -15.127  1.00  0.00    -0.275 OA
ATOM     12  N   UNL     1     -12.983 -33.378 -14.372  1.00  0.00    -0.369 N 
ATOM     13  H   UNL     1     -13.353 -32.518 -13.909  1.00  0.00     0.159 HD
ATOM     14  H   UNL     1     -11.986 -33.395 -14.685  1.00  0.00     0.159 HD
ENDBRANCH   1  10
TORSDOF 4
ENDMDL
MODEL 5
REMARK VINA RESULT:    -3.995      1.667      4.019
REMARK INTER + INTRA:          -5.101
REMARK INTER:                  -4.852
REMARK INTRA:                  -0.249
REMARK UNBOUND:                -0.289
REMARK SMILES NC(=O)C[C@H]([NH3+])C(=O)[O-]
REMARK SMILES IDX 4 1 5 2 6 3 7 7 8 8 9 9 2 10 3 11 1 12
REMARK H PARENT 6 4 6 5 6 6 1 13 1 14
REMARK Flexibility Score: inf
ROOT
ATOM      1  C   UNL     1     -16.729 -37.122 -13.519  1.00  0.00     0.171 C 
ENDROOT
BRANCH   1   2
ATOM      2  C   UNL     1     -16.389 -35.839 -14.306  1.00  0.00     0.237 C 
BRANCH   2   3
ATOM      3  N   UNL     1     -16.906 -35.900 -15.680  1.00  0.00    -0.350 N 
ATOM      4  H   UNL     1     -17.652 -36.629 -15.765  1.00  0.00     0.345 HD
ATOM      5  H   UNL     1     -16.127 -36.128 -16.341  1.00  0.00     0.345 HD
ATOM      6  H   UNL     1     -17.300 -34.972 -15.957  1.00  0.00     0.345 HD
ENDBRANCH   2   3
BRANCH   2   7
ATOM      7  C   UNL     1     -14.899 -35.627 -14.317  1.00  0.00     0.100 C 
ATOM      8  O   UNL     1     -14.116 -36.578 -14.057  1.00  0.00    -0.544 OA
ATOM      9  O   UNL     1     -14.381 -34.369 -14.598  1.00  0.00    -0.544 OA
ENDBRANCH   2   7
ENDBRANCH   1   2
BRANCH   1  10
ATOM     10  C   UNL     1     -18.117 -37.074 -12.951  1.00  0.00     0.223 C 
ATOM     11  O   UNL     1     -19.110 -37.023 -13.726  1.00  0.00    -0.275 OA
ATOM     12  N   UNL     1     -18.319 -37.055 -11.539  1.00  0.00    -0.369 N 
ATOM     13  H   UNL     1     -17.506 -37.087 -10.884  1.00  0.00     0.159 HD
ATOM     14  H   UNL     1     -19.285 -37.010 -11.144  1.00  0.00     0.159 HD
ENDBRANCH   1  10
TORSDOF 4
ENDMDL
MODEL 6
REMARK VINA RESULT:    -3.891      2.088      2.692
REMARK INTER + INTRA:          -4.976
REMARK INTER:                  -4.643
REMARK INTRA:                  -0.334
REMARK UNBOUND:                -0.289
REMARK SMILES NC(=O)C[C@H]([NH3+])C(=O)[O-]
REMARK SMILES IDX 4 1 5 2 6 3 7 7 8 8 9 9 2 10 3 11 1 12
REMARK H PARENT 6 4 6 5 6 6 1 13 1 14
REMARK Flexibility Score: inf
ROOT
ATOM      1  C   UNL     1     -15.289 -34.294 -14.582  1.00  0.00     0.171 C 
ENDROOT
BRANCH   1   2
ATOM      2  C   UNL     1     -15.785 -35.623 -13.976  1.00  0.00     0.237 C 
BRANCH   2   3
ATOM      3  N   UNL     1     -14.700 -36.340 -13.293  1.00  0.00    -0.350 N 
ATOM      4  H   UNL     1     -14.292 -35.755 -12.527  1.00  0.00     0.345 HD
ATOM      5  H   UNL     1     -13.946 -36.578 -13.979  1.00  0.00     0.345 HD
ATOM      6  H   UNL     1     -15.059 -37.235 -12.889  1.00  0.00     0.345 HD
ENDBRANCH   2   3
BRANCH   2   7
ATOM      7  C   UNL     1     -16.382 -36.485 -15.056  1.00  0.00     0.100 C 
ATOM      8  O   UNL     1     -17.446 -37.125 -14.849  1.00  0.00    -0.544 OA
ATOM      9  O   UNL     1     -15.746 -36.593 -16.287  1.00  0.00    -0.544 OA
ENDBRANCH   2   7
ENDBRANCH   1   2
BRANCH   1  10
ATOM     10  C   UNL     1     -13.802 -34.142 -14.442  1.00  0.00     0.223 C 
ATOM     11  O   UNL     1     -13.032 -34.936 -15.045  1.00  0.00    -0.275 OA
ATOM     12  N   UNL     1     -13.256 -33.121 -13.608  1.00  0.00    -0.369 N 
ATOM     13  H   UNL     1     -13.882 -32.462 -13.094  1.00  0.00     0.159 HD
ATOM     14  H   UNL     1     -12.222 -33.024 -13.503  1.00  0.00     0.159 HD
ENDBRANCH   1  10
TORSDOF 4
ENDMDL
MODEL 7
REMARK VINA RESULT:    -3.861      2.045      2.536
REMARK INTER + INTRA:          -4.940
REMARK INTER:                  -4.657
REMARK INTRA:                  -0.283
REMARK UNBOUND:                -0.289
REMARK SMILES NC(=O)C[C@H]([NH3+])C(=O)[O-]
REMARK SMILES IDX 4 1 5 2 6 3 7 7 8 8 9 9 2 10 3 11 1 12
REMARK H PARENT 6 4 6 5 6 6 1 13 1 14
REMARK Flexibility Score: inf
ROOT
ATOM      1  C   UNL     1     -15.430 -36.021 -12.809  1.00  0.00     0.171 C 
ENDROOT
BRANCH   1   2
ATOM      2  C   UNL     1     -16.490 -37.040 -12.341  1.00  0.00     0.237 C 
BRANCH   2   3
ATOM      3  N   UNL     1     -17.659 -37.046 -13.231  1.00  0.00    -0.350 N 
ATOM      4  H   UNL     1     -17.688 -37.924 -13.800  1.00  0.00     0.345 HD
ATOM      5  H   UNL     1     -17.618 -36.222 -13.875  1.00  0.00     0.345 HD
ATOM      6  H   UNL     1     -18.537 -36.971 -12.669  1.00  0.00     0.345 HD
ENDBRANCH   2   3
BRANCH   2   7
ATOM      7  C   UNL     1     -16.910 -36.728 -10.929  1.00  0.00     0.100 C 
ATOM      8  O   UNL     1     -18.129 -36.689 -10.619  1.00  0.00    -0.544 OA
ATOM      9  O   UNL     1     -15.948 -36.463  -9.963  1.00  0.00    -0.544 OA
ENDBRANCH   2   7
ENDBRANCH   1   2
BRANCH   1  10
ATOM     10  C   UNL     1     -15.518 -35.769 -14.286  1.00  0.00     0.223 C 
ATOM     11  O   UNL     1     -15.388 -36.727 -15.094  1.00  0.00    -0.275 OA
ATOM     12  N   UNL     1     -15.719 -34.446 -14.782  1.00  0.00    -0.369 N 
ATOM     13  H   UNL     1     -15.818 -33.640 -14.125  1.00  0.00     0.159 HD
ATOM     14  H   UNL     1     -15.768 -34.270 -15.810  1.00  0.00     0.159 HD
ENDBRANCH   1  10
TORSDOF 4
ENDMDL
MODEL 8
REMARK VINA RESULT:    -3.827      2.082      3.808
REMARK INTER + INTRA:          -4.899
REMARK INTER:                  -4.637
REMARK INTRA:                  -0.261
REMARK UNBOUND:                -0.289
REMARK SMILES NC(=O)C[C@H]([NH3+])C(=O)[O-]
REMARK SMILES IDX 4 1 5 2 6 3 7 7 8 8 9 9 2 10 3 11 1 12
REMARK H PARENT 6 4 6 5 6 6 1 13 1 14
REMARK Flexibility Score: inf
ROOT
ATOM      1  C   UNL     1     -15.567 -36.982 -13.656  1.00  0.00     0.171 C 
ENDROOT
BRANCH   1   2
ATOM      2  C   UNL     1     -15.743 -35.775 -14.601  1.00  0.00     0.237 C 
BRANCH   2   3
ATOM      3  N   UNL     1     -17.111 -35.705 -15.133  1.00  0.00    -0.350 N 
ATOM      4  H   UNL     1     -17.767 -36.273 -14.547  1.00  0.00     0.345 HD
ATOM      5  H   UNL     1     -17.129 -36.067 -16.115  1.00  0.00     0.345 HD
ATOM      6  H   UNL     1     -17.439 -34.713 -15.151  1.00  0.00     0.345 HD
ENDBRANCH   2   3
BRANCH   2   7
ATOM      7  C   UNL     1     -14.749 -35.860 -15.728  1.00  0.00     0.100 C 
ATOM      8  O   UNL     1     -13.514 -35.768 -15.500  1.00  0.00    -0.544 OA
ATOM      9  O   UNL     1     -15.194 -36.024 -17.034  1.00  0.00    -0.544 OA
ENDBRANCH   2   7
ENDBRANCH   1   2
BRANCH   1  10
ATOM     10  C   UNL     1     -16.445 -36.870 -12.444  1.00  0.00     0.223 C 
ATOM     11  O   UNL     1     -17.675 -37.125 -12.535  1.00  0.00    -0.275 OA
ATOM     12  N   UNL     1     -15.899 -36.447 -11.195  1.00  0.00    -0.369 N 
ATOM     13  H   UNL     1     -14.883 -36.223 -11.106  1.00  0.00     0.159 HD
ATOM     14  H   UNL     1     -16.513 -36.358 -10.354  1.00  0.00     0.159 HD
ENDBRANCH   1  10
TORSDOF 4
ENDMDL
