MODEL 1
REMARK VINA RESULT:    -4.627      0.000      0.000
REMARK INTER + INTRA:          -6.038
REMARK INTER:                  -7.061
REMARK INTRA:                   1.023
REMARK UNBOUND:                 1.023
REMARK SMILES CC1=CCC[C@H](C)C(=O)C[C@H](C(C)C)C(=O)C1
REMARK SMILES IDX 8 1 9 2 6 3 7 4 5 5 4 6 3 7 2 8 1 9 10 11 11 12 15 13 16 14
REMARK SMILES IDX 17 15 12 17 13 18 14 19
REMARK H PARENT
REMARK Flexibility Score: 70.00
ROOT
ATOM      1  C   UNL     1      81.805   6.002  28.230  1.00  0.00     0.136 C 
ATOM      2  O   UNL     1      81.450   7.135  28.520  1.00  0.00    -0.299 OA
ENDROOT
BRANCH   1   3
ATOM      3  C   UNL     1      81.534   5.487  26.827  1.00  0.00     0.053 C 
ATOM      4  C   UNL     1      80.476   6.356  26.139  1.00  0.00     0.016 C 
BRANCH   3   5
ATOM      5  C   UNL     1      82.814   5.403  25.973  1.00  0.00     0.015 C 
BRANCH   5   6
ATOM      6  C   UNL     1      83.545   4.063  26.162  1.00  0.00     0.028 C 
BRANCH   6   7
ATOM      7  C   UNL     1      84.882   4.218  26.839  1.00  0.00    -0.028 C 
ATOM      8  C   UNL     1      85.300   3.543  27.940  1.00  0.00    -0.070 CG0
ATOM      9  C   UNL     1      86.722   3.779  28.391  1.00  0.00     0.039 C 
ATOM     10  G   UNL     1      84.415   2.621  28.778  1.00  0.00     0.000 G0
ENDBRANCH   6   7
ENDBRANCH   5   6
ENDBRANCH   3   5
ENDBRANCH   1   3
BRANCH   1  11
ATOM     11  C   UNL     1      82.558   5.185  29.258  1.00  0.00     0.087 C 
BRANCH  11  12
ATOM     12  C   UNL     1      82.061   3.716  29.347  1.00  0.00     0.066 C 
BRANCH  12  13
ATOM     13  C   UNL     1      82.935   2.718  28.589  1.00  0.00     0.140 C 
ATOM     14  O   UNL     1      82.387   1.908  27.854  1.00  0.00    -0.299 OA
BRANCH  13  15
ATOM     15  C   UNL     1      84.426   2.597  28.807  1.00  0.00     0.106 CG0
ATOM     16  G   UNL     1      85.270   3.538  27.949  1.00  0.00     0.000 G0
ENDBRANCH  13  15
ENDBRANCH  12  13
BRANCH  12  17
ATOM     17  C   UNL     1      81.766   3.286  30.819  1.00  0.00    -0.006 C 
ATOM     18  C   UNL     1      81.611   4.500  31.748  1.00  0.00     0.008 C 
ATOM     19  C   UNL     1      80.564   2.339  30.980  1.00  0.00     0.008 C 
ENDBRANCH  12  17
ENDBRANCH  11  12
ENDBRANCH   1  11
TORSDOF 1
ENDMDL
MODEL 2
REMARK VINA RESULT:    -4.172      1.494      3.851
REMARK INTER + INTRA:          -5.344
REMARK INTER:                  -6.895
REMARK INTRA:                   1.551
REMARK UNBOUND:                 1.023
REMARK SMILES CC1=CCC[C@H](C)C(=O)C[C@H](C(C)C)C(=O)C1
REMARK SMILES IDX 8 1 9 2 6 3 7 4 5 5 4 6 3 7 2 8 1 9 10 11 11 12 15 13 16 14
REMARK SMILES IDX 17 15 12 17 13 18 14 19
REMARK H PARENT
REMARK Flexibility Score: 70.00
ROOT
ATOM      1  C   UNL     1      81.945   4.434  29.807  1.00  0.00     0.136 C 
ATOM      2  O   UNL     1      82.273   5.391  30.493  1.00  0.00    -0.299 OA
ENDROOT
BRANCH   1   3
ATOM      3  C   UNL     1      81.807   3.073  30.470  1.00  0.00     0.053 C 
ATOM      4  C   UNL     1      80.475   2.982  31.222  1.00  0.00     0.016 C 
BRANCH   3   5
ATOM      5  C   UNL     1      81.951   1.912  29.466  1.00  0.00     0.015 C 
BRANCH   5   6
ATOM      6  C   UNL     1      82.707   2.340  28.197  1.00  0.00     0.028 C 
BRANCH   6   7
ATOM      7  C   UNL     1      84.192   2.470  28.418  1.00  0.00    -0.028 C 
ATOM      8  C   UNL     1      84.982   3.469  27.949  1.00  0.00    -0.070 CG0
ATOM      9  C   UNL     1      86.430   3.457  28.379  1.00  0.00     0.039 C 
ATOM     10  G   UNL     1      84.521   4.554  26.978  1.00  0.00     0.000 G0
ENDBRANCH   6   7
ENDBRANCH   5   6
ENDBRANCH   3   5
ENDBRANCH   1   3
BRANCH   1  11
ATOM     11  C   UNL     1      81.624   4.656  28.345  1.00  0.00     0.087 C 
BRANCH  11  12
ATOM     12  C   UNL     1      82.340   5.899  27.750  1.00  0.00     0.066 C 
BRANCH  12  13
ATOM     13  C   UNL     1      83.857   5.746  27.634  1.00  0.00     0.140 C 
ATOM     14  O   UNL     1      84.563   6.679  27.992  1.00  0.00    -0.299 OA
BRANCH  13  15
ATOM     15  C   UNL     1      84.515   4.557  26.973  1.00  0.00     0.106 CG0
ATOM     16  G   UNL     1      84.976   3.470  27.943  1.00  0.00     0.000 G0
ENDBRANCH  13  15
ENDBRANCH  12  13
BRANCH  12  17
ATOM     17  C   UNL     1      81.665   6.388  26.430  1.00  0.00    -0.006 C 
ATOM     18  C   UNL     1      81.472   5.240  25.429  1.00  0.00     0.008 C 
ATOM     19  C   UNL     1      80.340   7.143  26.631  1.00  0.00     0.008 C 
ENDBRANCH  12  17
ENDBRANCH  11  12
ENDBRANCH   1  11
TORSDOF 1
ENDMDL
MODEL 3
REMARK VINA RESULT:    -3.482      2.013      4.692
REMARK INTER + INTRA:          -4.291
REMARK INTER:                  -5.462
REMARK INTRA:                   1.171
REMARK UNBOUND:                 1.023
REMARK SMILES CC1=CCC[C@H](C)C(=O)C[C@H](C(C)C)C(=O)C1
REMARK SMILES IDX 8 1 9 2 6 3 7 4 5 5 4 6 3 7 2 8 1 9 10 11 11 12 15 13 16 14
REMARK SMILES IDX 17 15 12 17 13 18 14 19
REMARK H PARENT
REMARK Flexibility Score: 70.00
ROOT
ATOM      1  C   UNL     1      82.613   2.851  28.949  1.00  0.00     0.136 C 
ATOM      2  O   UNL     1      83.443   2.219  29.587  1.00  0.00    -0.299 OA
ENDROOT
BRANCH   1   3
ATOM      3  C   UNL     1      81.602   3.698  29.704  1.00  0.00     0.053 C 
ATOM      4  C   UNL     1      80.807   2.828  30.683  1.00  0.00     0.016 C 
BRANCH   3   5
ATOM      5  C   UNL     1      82.258   4.886  30.434  1.00  0.00     0.015 C 
BRANCH   5   6
ATOM      6  C   UNL     1      82.468   6.090  29.500  1.00  0.00     0.028 C 
BRANCH   6   7
ATOM      7  C   UNL     1      81.396   6.206  28.447  1.00  0.00    -0.028 C 
ATOM      8  C   UNL     1      81.590   6.156  27.105  1.00  0.00    -0.070 CG0
ATOM      9  C   UNL     1      80.359   6.188  26.232  1.00  0.00     0.039 C 
ATOM     10  G   UNL     1      82.960   6.133  26.428  1.00  0.00     0.000 G0
ENDBRANCH   6   7
ENDBRANCH   5   6
ENDBRANCH   3   5
ENDBRANCH   1   3
BRANCH   1  11
ATOM     11  C   UNL     1      82.669   2.815  27.438  1.00  0.00     0.087 C 
BRANCH  11  12
ATOM     12  C   UNL     1      83.842   3.649  26.855  1.00  0.00     0.066 C 
BRANCH  12  13
ATOM     13  C   UNL     1      83.401   4.774  25.919  1.00  0.00     0.140 C 
ATOM     14  O   UNL     1      83.514   4.604  24.713  1.00  0.00    -0.299 OA
BRANCH  13  15
ATOM     15  C   UNL     1      82.960   6.131  26.417  1.00  0.00     0.106 CG0
ATOM     16  G   UNL     1      81.597   6.140  27.107  1.00  0.00     0.000 G0
ENDBRANCH  13  15
ENDBRANCH  12  13
BRANCH  12  17
ATOM     17  C   UNL     1      84.834   4.120  27.965  1.00  0.00    -0.006 C 
ATOM     18  C   UNL     1      86.101   3.252  28.004  1.00  0.00     0.008 C 
ATOM     19  C   UNL     1      85.214   5.609  27.893  1.00  0.00     0.008 C 
ENDBRANCH  12  17
ENDBRANCH  11  12
ENDBRANCH   1  11
TORSDOF 1
ENDMDL
MODEL 4
REMARK VINA RESULT:    -3.426      1.766      3.899
REMARK INTER + INTRA:          -4.205
REMARK INTER:                  -6.196
REMARK INTRA:                   1.990
REMARK UNBOUND:                 1.023
REMARK SMILES CC1=CCC[C@H](C)C(=O)C[C@H](C(C)C)C(=O)C1
REMARK SMILES IDX 8 1 9 2 6 3 7 4 5 5 4 6 3 7 2 8 1 9 10 11 11 12 15 13 16 14
REMARK SMILES IDX 17 15 12 17 13 18 14 19
REMARK H PARENT
REMARK Flexibility Score: 70.00
ROOT
ATOM      1  C   UNL     1      83.548   3.117  27.806  1.00  0.00     0.136 C 
ATOM      2  O   UNL     1      83.095   2.732  26.738  1.00  0.00    -0.299 OA
ENDROOT
BRANCH   1   3
ATOM      3  C   UNL     1      84.633   4.181  27.799  1.00  0.00     0.053 C 
ATOM      4  C   UNL     1      86.017   3.528  27.880  1.00  0.00     0.016 C 
BRANCH   3   5
ATOM      5  C   UNL     1      84.536   5.112  26.574  1.00  0.00     0.015 C 
BRANCH   5   6
ATOM      6  C   UNL     1      83.241   4.883  25.778  1.00  0.00     0.028 C 
BRANCH   6   7
ATOM      7  C   UNL     1      82.240   5.995  25.959  1.00  0.00    -0.028 C 
ATOM      8  C   UNL     1      81.316   6.081  26.949  1.00  0.00    -0.070 CG0
ATOM      9  C   UNL     1      80.480   7.337  26.999  1.00  0.00     0.039 C 
ATOM     10  G   UNL     1      81.028   4.975  27.964  1.00  0.00     0.000 G0
ENDBRANCH   6   7
ENDBRANCH   5   6
ENDBRANCH   3   5
ENDBRANCH   1   3
BRANCH   1  11
ATOM     11  C   UNL     1      82.965   2.567  29.089  1.00  0.00     0.087 C 
BRANCH  11  12
ATOM     12  C   UNL     1      82.249   3.650  29.942  1.00  0.00     0.066 C 
BRANCH  12  13
ATOM     13  C   UNL     1      81.933   4.935  29.178  1.00  0.00     0.140 C 
ATOM     14  O   UNL     1      82.352   5.994  29.624  1.00  0.00    -0.299 OA
BRANCH  13  15
ATOM     15  C   UNL     1      81.016   4.973  27.976  1.00  0.00     0.106 CG0
ATOM     16  G   UNL     1      81.319   6.095  26.985  1.00  0.00     0.000 G0
ENDBRANCH  13  15
ENDBRANCH  12  13
BRANCH  12  17
ATOM     17  C   UNL     1      81.021   3.070  30.713  1.00  0.00    -0.006 C 
ATOM     18  C   UNL     1      81.074   1.538  30.801  1.00  0.00     0.008 C 
ATOM     19  C   UNL     1      80.800   3.674  32.111  1.00  0.00     0.008 C 
ENDBRANCH  12  17
ENDBRANCH  11  12
ENDBRANCH   1  11
TORSDOF 1
ENDMDL
MODEL 5
REMARK VINA RESULT:    -2.891      1.953      4.120
REMARK INTER + INTRA:          -3.389
REMARK INTER:                  -4.427
REMARK INTRA:                   1.038
REMARK UNBOUND:                 1.023
REMARK SMILES CC1=CCC[C@H](C)C(=O)C[C@H](C(C)C)C(=O)C1
REMARK SMILES IDX 8 1 9 2 6 3 7 4 5 5 4 6 3 7 2 8 1 9 10 11 11 12 15 13 16 14
REMARK SMILES IDX 17 15 12 17 13 18 14 19
REMARK H PARENT
REMARK Flexibility Score: 70.00
ROOT
ATOM      1  C   UNL     1      81.983   4.442  29.715  1.00  0.00     0.136 C 
ATOM      2  O   UNL     1      82.077   5.211  30.661  1.00  0.00    -0.299 OA
ENDROOT
BRANCH   1   3
ATOM      3  C   UNL     1      82.466   3.012  29.886  1.00  0.00     0.053 C 
ATOM      4  C   UNL     1      81.334   2.130  30.423  1.00  0.00     0.016 C 
BRANCH   3   5
ATOM      5  C   UNL     1      83.047   2.427  28.584  1.00  0.00     0.015 C 
BRANCH   5   6
ATOM      6  C   UNL     1      84.153   3.319  27.995  1.00  0.00     0.028 C 
BRANCH   6   7
ATOM      7  C   UNL     1      84.061   3.450  26.497  1.00  0.00    -0.028 C 
ATOM      8  C   UNL     1      84.142   4.607  25.792  1.00  0.00    -0.070 CG0
ATOM      9  C   UNL     1      84.130   4.496  24.287  1.00  0.00     0.039 C 
ATOM     10  G   UNL     1      84.181   6.001  26.418  1.00  0.00     0.000 G0
ENDBRANCH   6   7
ENDBRANCH   5   6
ENDBRANCH   3   5
ENDBRANCH   1   3
BRANCH   1  11
ATOM     11  C   UNL     1      81.330   4.926  28.440  1.00  0.00     0.087 C 
BRANCH  11  12
ATOM     12  C   UNL     1      81.969   6.229  27.888  1.00  0.00     0.066 C 
BRANCH  12  13
ATOM     13  C   UNL     1      83.489   6.162  27.741  1.00  0.00     0.140 C 
ATOM     14  O   UNL     1      84.177   6.340  28.737  1.00  0.00    -0.299 OA
BRANCH  13  15
ATOM     15  C   UNL     1      84.181   6.022  26.405  1.00  0.00     0.106 CG0
ATOM     16  G   UNL     1      84.113   4.620  25.800  1.00  0.00     0.000 G0
ENDBRANCH  13  15
ENDBRANCH  12  13
BRANCH  12  17
ATOM     17  C   UNL     1      81.246   6.738  26.601  1.00  0.00    -0.006 C 
ATOM     18  C   UNL     1      80.735   5.576  25.737  1.00  0.00     0.008 C 
ATOM     19  C   UNL     1      80.111   7.744  26.860  1.00  0.00     0.008 C 
ENDBRANCH  12  17
ENDBRANCH  11  12
ENDBRANCH   1  11
TORSDOF 1
ENDMDL
MODEL 6
REMARK VINA RESULT:    -2.647     11.442     13.478
REMARK INTER + INTRA:          -3.017
REMARK INTER:                  -4.776
REMARK INTRA:                   1.759
REMARK UNBOUND:                 1.023
REMARK SMILES CC1=CCC[C@H](C)C(=O)C[C@H](C(C)C)C(=O)C1
REMARK SMILES IDX 8 1 9 2 6 3 7 4 5 5 4 6 3 7 2 8 1 9 10 11 11 12 15 13 16 14
REMARK SMILES IDX 17 15 12 17 13 18 14 19
REMARK H PARENT
REMARK Flexibility Score: 70.00
ROOT
ATOM      1  C   UNL     1      85.057  -7.923  28.771  1.00  0.00     0.136 C 
ATOM      2  O   UNL     1      84.979  -7.059  27.909  1.00  0.00    -0.299 OA
ENDROOT
BRANCH   1   3
ATOM      3  C   UNL     1      85.463  -7.518  30.178  1.00  0.00     0.053 C 
ATOM      4  C   UNL     1      86.087  -6.119  30.167  1.00  0.00     0.016 C 
BRANCH   3   5
ATOM      5  C   UNL     1      84.288  -7.587  31.173  1.00  0.00     0.015 C 
BRANCH   5   6
ATOM      6  C   UNL     1      83.786  -9.027  31.371  1.00  0.00     0.028 C 
BRANCH   6   7
ATOM      7  C   UNL     1      82.282  -9.120  31.415  1.00  0.00    -0.028 C 
ATOM      8  C   UNL     1      81.437  -8.841  30.390  1.00  0.00    -0.070 CG0
ATOM      9  C   UNL     1      79.968  -9.103  30.621  1.00  0.00     0.039 C 
ATOM     10  G   UNL     1      81.865  -8.227  29.058  1.00  0.00     0.000 G0
ENDBRANCH   6   7
ENDBRANCH   5   6
ENDBRANCH   3   5
ENDBRANCH   1   3
BRANCH   1  11
ATOM     11  C   UNL     1      84.681  -9.345  28.417  1.00  0.00     0.087 C 
BRANCH  11  12
ATOM     12  C   UNL     1      83.545  -9.428  27.362  1.00  0.00     0.066 C 
BRANCH  12  13
ATOM     13  C   UNL     1      82.144  -9.225  27.940  1.00  0.00     0.140 C 
ATOM     14  O   UNL     1      81.209  -9.816  27.418  1.00  0.00    -0.299 OA
BRANCH  13  15
ATOM     15  C   UNL     1      81.843  -8.227  29.035  1.00  0.00     0.106 CG0
ATOM     16  G   UNL     1      81.444  -8.853  30.370  1.00  0.00     0.000 G0
ENDBRANCH  13  15
ENDBRANCH  12  13
BRANCH  12  17
ATOM     17  C   UNL     1      83.835  -8.533  26.116  1.00  0.00    -0.006 C 
ATOM     18  C   UNL     1      84.123  -9.375  24.864  1.00  0.00     0.008 C 
ATOM     19  C   UNL     1      82.750  -7.486  25.812  1.00  0.00     0.008 C 
ENDBRANCH  12  17
ENDBRANCH  11  12
ENDBRANCH   1  11
TORSDOF 1
ENDMDL
MODEL 7
REMARK VINA RESULT:    -2.534      2.186      3.770
REMARK INTER + INTRA:          -2.845
REMARK INTER:                  -3.401
REMARK INTRA:                   0.556
REMARK UNBOUND:                 1.023
REMARK SMILES CC1=CCC[C@H](C)C(=O)C[C@H](C(C)C)C(=O)C1
REMARK SMILES IDX 8 1 9 2 6 3 7 4 5 5 4 6 3 7 2 8 1 9 10 11 11 12 15 13 16 14
REMARK SMILES IDX 17 15 12 17 13 18 14 19
REMARK H PARENT
REMARK Flexibility Score: 70.00
ROOT
ATOM      1  C   UNL     1      84.433   5.409  27.354  1.00  0.00     0.136 C 
ATOM      2  O   UNL     1      84.987   6.294  27.991  1.00  0.00    -0.299 OA
ENDROOT
BRANCH   1   3
ATOM      3  C   UNL     1      83.935   5.719  25.953  1.00  0.00     0.053 C 
ATOM      4  C   UNL     1      85.094   6.192  25.070  1.00  0.00     0.016 C 
BRANCH   3   5
ATOM      5  C   UNL     1      83.208   4.523  25.308  1.00  0.00     0.015 C 
BRANCH   5   6
ATOM      6  C   UNL     1      81.703   4.789  25.138  1.00  0.00     0.028 C 
BRANCH   6   7
ATOM      7  C   UNL     1      81.253   6.056  25.819  1.00  0.00    -0.028 C 
ATOM      8  C   UNL     1      81.035   6.210  27.149  1.00  0.00    -0.070 CG0
ATOM      9  C   UNL     1      80.688   7.598  27.631  1.00  0.00     0.039 C 
ATOM     10  G   UNL     1      81.059   5.071  28.168  1.00  0.00     0.000 G0
ENDBRANCH   6   7
ENDBRANCH   5   6
ENDBRANCH   3   5
ENDBRANCH   1   3
BRANCH   1  11
ATOM     11  C   UNL     1      84.328   4.027  27.961  1.00  0.00     0.087 C 
BRANCH  11  12
ATOM     12  C   UNL     1      83.302   3.953  29.125  1.00  0.00     0.066 C 
BRANCH  12  13
ATOM     13  C   UNL     1      82.260   5.071  29.107  1.00  0.00     0.140 C 
ATOM     14  O   UNL     1      82.331   5.945  29.960  1.00  0.00    -0.299 OA
BRANCH  13  15
ATOM     15  C   UNL     1      81.071   5.072  28.173  1.00  0.00     0.106 CG0
ATOM     16  G   UNL     1      81.070   6.209  27.152  1.00  0.00     0.000 G0
ENDBRANCH  13  15
ENDBRANCH  12  13
BRANCH  12  17
ATOM     17  C   UNL     1      82.679   2.528  29.266  1.00  0.00    -0.006 C 
ATOM     18  C   UNL     1      81.494   2.518  30.244  1.00  0.00     0.008 C 
ATOM     19  C   UNL     1      82.273   1.872  27.935  1.00  0.00     0.008 C 
ENDBRANCH  12  17
ENDBRANCH  11  12
ENDBRANCH   1  11
TORSDOF 1
ENDMDL
MODEL 8
REMARK VINA RESULT:    -2.441      1.878      4.393
REMARK INTER + INTRA:          -2.702
REMARK INTER:                  -3.743
REMARK INTRA:                   1.041
REMARK UNBOUND:                 1.023
REMARK SMILES CC1=CCC[C@H](C)C(=O)C[C@H](C(C)C)C(=O)C1
REMARK SMILES IDX 8 1 9 2 6 3 7 4 5 5 4 6 3 7 2 8 1 9 10 11 11 12 15 13 16 14
REMARK SMILES IDX 17 15 12 17 13 18 14 19
REMARK H PARENT
REMARK Flexibility Score: 70.00
ROOT
ATOM      1  C   UNL     1      84.648   5.208  27.434  1.00  0.00     0.136 C 
ATOM      2  O   UNL     1      85.568   5.785  27.997  1.00  0.00    -0.299 OA
ENDROOT
BRANCH   1   3
ATOM      3  C   UNL     1      84.758   3.710  27.202  1.00  0.00     0.053 C 
ATOM      4  C   UNL     1      85.891   3.124  28.050  1.00  0.00     0.016 C 
BRANCH   3   5
ATOM      5  C   UNL     1      83.432   2.974  27.474  1.00  0.00     0.015 C 
BRANCH   5   6
ATOM      6  C   UNL     1      83.495   2.132  28.759  1.00  0.00     0.028 C 
BRANCH   6   7
ATOM      7  C   UNL     1      82.247   2.249  29.596  1.00  0.00    -0.028 C 
ATOM      8  C   UNL     1      81.806   3.374  30.213  1.00  0.00    -0.070 CG0
ATOM      9  C   UNL     1      80.472   3.293  30.917  1.00  0.00     0.039 C 
ATOM     10  G   UNL     1      82.591   4.683  30.293  1.00  0.00     0.000 G0
ENDBRANCH   6   7
ENDBRANCH   5   6
ENDBRANCH   3   5
ENDBRANCH   1   3
BRANCH   1  11
ATOM     11  C   UNL     1      83.414   5.996  27.053  1.00  0.00     0.087 C 
BRANCH  11  12
ATOM     12  C   UNL     1      82.132   5.500  27.774  1.00  0.00     0.066 C 
BRANCH  12  13
ATOM     13  C   UNL     1      82.128   5.756  29.281  1.00  0.00     0.140 C 
ATOM     14  O   UNL     1      81.871   6.884  29.678  1.00  0.00    -0.299 OA
BRANCH  13  15
ATOM     15  C   UNL     1      82.557   4.718  30.293  1.00  0.00     0.106 CG0
ATOM     16  G   UNL     1      81.779   3.405  30.221  1.00  0.00     0.000 G0
ENDBRANCH  13  15
ENDBRANCH  12  13
BRANCH  12  17
ATOM     17  C   UNL     1      80.832   5.988  27.060  1.00  0.00    -0.006 C 
ATOM     18  C   UNL     1      80.614   7.497  27.242  1.00  0.00     0.008 C 
ATOM     19  C   UNL     1      80.741   5.616  25.570  1.00  0.00     0.008 C 
ENDBRANCH  12  17
ENDBRANCH  11  12
ENDBRANCH   1  11
TORSDOF 1
ENDMDL
MODEL 9
REMARK VINA RESULT:    -2.212      1.968      4.995
REMARK INTER + INTRA:          -2.353
REMARK INTER:                  -3.500
REMARK INTRA:                   1.147
REMARK UNBOUND:                 1.023
REMARK SMILES CC1=CCC[C@H](C)C(=O)C[C@H](C(C)C)C(=O)C1
REMARK SMILES IDX 8 1 9 2 6 3 7 4 5 5 4 6 3 7 2 8 1 9 10 11 11 12 15 13 16 14
REMARK SMILES IDX 17 15 12 17 13 18 14 19
REMARK H PARENT
REMARK Flexibility Score: 70.00
ROOT
ATOM      1  C   UNL     1      83.962   3.150  28.052  1.00  0.00     0.136 C 
ATOM      2  O   UNL     1      84.949   2.613  28.534  1.00  0.00    -0.299 OA
ENDROOT
BRANCH   1   3
ATOM      3  C   UNL     1      82.612   2.471  28.206  1.00  0.00     0.053 C 
ATOM      4  C   UNL     1      82.538   1.228  27.313  1.00  0.00     0.016 C 
BRANCH   3   5
ATOM      5  C   UNL     1      82.297   2.112  29.672  1.00  0.00     0.015 C 
BRANCH   5   6
ATOM      6  C   UNL     1      81.471   3.207  30.367  1.00  0.00     0.028 C 
BRANCH   6   7
ATOM      7  C   UNL     1      82.141   4.556  30.331  1.00  0.00    -0.028 C 
ATOM      8  C   UNL     1      81.954   5.514  29.388  1.00  0.00    -0.070 CG0
ATOM      9  C   UNL     1      82.651   6.836  29.604  1.00  0.00     0.039 C 
ATOM     10  G   UNL     1      81.143   5.321  28.107  1.00  0.00     0.000 G0
ENDBRANCH   6   7
ENDBRANCH   5   6
ENDBRANCH   3   5
ENDBRANCH   1   3
BRANCH   1  11
ATOM     11  C   UNL     1      84.116   4.498  27.383  1.00  0.00     0.087 C 
BRANCH  11  12
ATOM     12  C   UNL     1      83.030   4.768  26.307  1.00  0.00     0.066 C 
BRANCH  12  13
ATOM     13  C   UNL     1      81.859   5.614  26.804  1.00  0.00     0.140 C 
ATOM     14  O   UNL     1      81.574   6.632  26.187  1.00  0.00    -0.299 OA
BRANCH  13  15
ATOM     15  C   UNL     1      81.125   5.326  28.094  1.00  0.00     0.106 CG0
ATOM     16  G   UNL     1      81.966   5.515  29.356  1.00  0.00     0.000 G0
ENDBRANCH  13  15
ENDBRANCH  12  13
BRANCH  12  17
ATOM     17  C   UNL     1      83.647   5.290  24.971  1.00  0.00    -0.006 C 
ATOM     18  C   UNL     1      84.775   6.303  25.220  1.00  0.00     0.008 C 
ATOM     19  C   UNL     1      84.129   4.187  24.013  1.00  0.00     0.008 C 
ENDBRANCH  12  17
ENDBRANCH  11  12
ENDBRANCH   1  11
TORSDOF 1
ENDMDL
