MODEL 1
REMARK VINA RESULT:    -3.630      0.000      0.000
REMARK INTER + INTRA:          -4.567
REMARK INTER:                  -4.479
REMARK INTRA:                  -0.087
REMARK UNBOUND:                -0.087
REMARK SMILES CCCCCC(=O)[O-]
REMARK SMILES IDX 4 1 5 2 6 3 7 4 8 5 3 6 2 7 1 8
REMARK H PARENT
REMARK Flexibility Score: inf
ROOT
ATOM      1  C   UNL     1       8.415   6.086  15.864  1.00  0.00     0.006 C 
ENDROOT
BRANCH   1   2
ATOM      2  C   UNL     1       9.321   5.679  14.697  1.00  0.00     0.053 C 
BRANCH   2   3
ATOM      3  C   UNL     1      10.254   6.794  14.344  1.00  0.00     0.041 C 
ATOM      4  O   UNL     1      10.750   7.516  15.249  1.00  0.00    -0.550 OA
ATOM      5  O   UNL     1      10.538   7.068  13.013  1.00  0.00    -0.550 OA
ENDBRANCH   2   3
ENDBRANCH   1   2
BRANCH   1   6
ATOM      6  C   UNL     1       7.038   5.417  15.747  1.00  0.00     0.000 C 
BRANCH   6   7
ATOM      7  C   UNL     1       5.937   6.202  16.478  1.00  0.00    -0.003 C 
ATOM      8  C   UNL     1       6.356   7.632  16.819  1.00  0.00     0.004 C 
ENDBRANCH   6   7
ENDBRANCH   1   6
TORSDOF 4
ENDMDL
MODEL 2
REMARK VINA RESULT:    -3.569      5.105      6.373
REMARK INTER + INTRA:          -4.491
REMARK INTER:                  -4.402
REMARK INTRA:                  -0.089
REMARK UNBOUND:                -0.087
REMARK SMILES CCCCCC(=O)[O-]
REMARK SMILES IDX 4 1 5 2 6 3 7 4 8 5 3 6 2 7 1 8
REMARK H PARENT
REMARK Flexibility Score: inf
ROOT
ATOM      1  C   UNL     1       6.420   4.968  18.527  1.00  0.00     0.006 C 
ENDROOT
BRANCH   1   2
ATOM      2  C   UNL     1       5.959   4.958  19.989  1.00  0.00     0.053 C 
BRANCH   2   3
ATOM      3  C   UNL     1       5.368   3.631  20.343  1.00  0.00     0.041 C 
ATOM      4  O   UNL     1       5.724   2.593  19.726  1.00  0.00    -0.550 OA
ATOM      5  O   UNL     1       4.387   3.546  21.322  1.00  0.00    -0.550 OA
ENDBRANCH   2   3
ENDBRANCH   1   2
BRANCH   1   6
ATOM      6  C   UNL     1       6.385   6.391  17.951  1.00  0.00     0.000 C 
BRANCH   6   7
ATOM      7  C   UNL     1       6.229   6.405  16.422  1.00  0.00    -0.003 C 
ATOM      8  C   UNL     1       5.520   5.161  15.888  1.00  0.00     0.004 C 
ENDBRANCH   6   7
ENDBRANCH   1   6
TORSDOF 4
ENDMDL
MODEL 3
REMARK VINA RESULT:    -3.314      3.966      5.200
REMARK INTER + INTRA:          -4.176
REMARK INTER:                  -3.977
REMARK INTRA:                  -0.199
REMARK UNBOUND:                -0.087
REMARK SMILES CCCCCC(=O)[O-]
REMARK SMILES IDX 4 1 5 2 6 3 7 4 8 5 3 6 2 7 1 8
REMARK H PARENT
REMARK Flexibility Score: inf
ROOT
ATOM      1  C   UNL     1       6.872   6.320  18.166  1.00  0.00     0.006 C 
ENDROOT
BRANCH   1   2
ATOM      2  C   UNL     1       6.066   5.501  19.180  1.00  0.00     0.053 C 
BRANCH   2   3
ATOM      3  C   UNL     1       6.522   4.077  19.185  1.00  0.00     0.041 C 
ATOM      4  O   UNL     1       7.687   3.783  18.810  1.00  0.00    -0.550 OA
ATOM      5  O   UNL     1       5.644   3.067  19.558  1.00  0.00    -0.550 OA
ENDBRANCH   2   3
ENDBRANCH   1   2
BRANCH   1   6
ATOM      6  C   UNL     1       6.039   6.611  16.910  1.00  0.00     0.000 C 
BRANCH   6   7
ATOM      7  C   UNL     1       6.055   5.445  15.908  1.00  0.00    -0.003 C 
ATOM      8  C   UNL     1       7.465   5.090  15.436  1.00  0.00     0.004 C 
ENDBRANCH   6   7
ENDBRANCH   1   6
TORSDOF 4
ENDMDL
MODEL 4
REMARK VINA RESULT:    -3.307      4.890      6.102
REMARK INTER + INTRA:          -4.168
REMARK INTER:                  -4.098
REMARK INTRA:                  -0.070
REMARK UNBOUND:                -0.087
REMARK SMILES CCCCCC(=O)[O-]
REMARK SMILES IDX 4 1 5 2 6 3 7 4 8 5 3 6 2 7 1 8
REMARK H PARENT
REMARK Flexibility Score: inf
ROOT
ATOM      1  C   UNL     1       6.461   6.147  18.584  1.00  0.00     0.006 C 
ENDROOT
BRANCH   1   2
ATOM      2  C   UNL     1       6.443   7.141  19.752  1.00  0.00     0.053 C 
BRANCH   2   3
ATOM      3  C   UNL     1       5.778   6.534  20.946  1.00  0.00     0.041 C 
ATOM      4  O   UNL     1       5.089   5.487  20.825  1.00  0.00    -0.550 OA
ATOM      5  O   UNL     1       5.879   7.151  22.186  1.00  0.00    -0.550 OA
ENDBRANCH   2   3
ENDBRANCH   1   2
BRANCH   1   6
ATOM      6  C   UNL     1       6.525   6.884  17.239  1.00  0.00     0.000 C 
BRANCH   6   7
ATOM      7  C   UNL     1       6.655   5.923  16.046  1.00  0.00    -0.003 C 
ATOM      8  C   UNL     1       5.413   5.054  15.848  1.00  0.00     0.004 C 
ENDBRANCH   6   7
ENDBRANCH   1   6
TORSDOF 4
ENDMDL
MODEL 5
REMARK VINA RESULT:    -3.285      2.167      2.683
REMARK INTER + INTRA:          -4.141
REMARK INTER:                  -3.997
REMARK INTRA:                  -0.144
REMARK UNBOUND:                -0.087
REMARK SMILES CCCCCC(=O)[O-]
REMARK SMILES IDX 4 1 5 2 6 3 7 4 8 5 3 6 2 7 1 8
REMARK H PARENT
REMARK Flexibility Score: inf
ROOT
ATOM      1  C   UNL     1       8.030   5.025  15.503  1.00  0.00     0.006 C 
ENDROOT
BRANCH   1   2
ATOM      2  C   UNL     1       8.984   5.342  14.346  1.00  0.00     0.053 C 
BRANCH   2   3
ATOM      3  C   UNL     1       8.696   4.460  13.172  1.00  0.00     0.041 C 
ATOM      4  O   UNL     1       7.852   3.531  13.269  1.00  0.00    -0.550 OA
ATOM      5  O   UNL     1       9.395   4.633  11.985  1.00  0.00    -0.550 OA
ENDBRANCH   2   3
ENDBRANCH   1   2
BRANCH   1   6
ATOM      6  C   UNL     1       7.487   6.315  16.134  1.00  0.00     0.000 C 
BRANCH   6   7
ATOM      7  C   UNL     1       5.986   6.229  16.452  1.00  0.00    -0.003 C 
ATOM      8  C   UNL     1       5.312   5.018  15.807  1.00  0.00     0.004 C 
ENDBRANCH   6   7
ENDBRANCH   1   6
TORSDOF 4
ENDMDL
MODEL 6
REMARK VINA RESULT:    -3.246      5.100      6.387
REMARK INTER + INTRA:          -4.093
REMARK INTER:                  -4.007
REMARK INTRA:                  -0.085
REMARK UNBOUND:                -0.087
REMARK SMILES CCCCCC(=O)[O-]
REMARK SMILES IDX 4 1 5 2 6 3 7 4 8 5 3 6 2 7 1 8
REMARK H PARENT
REMARK Flexibility Score: inf
ROOT
ATOM      1  C   UNL     1       6.388   5.644  18.971  1.00  0.00     0.006 C 
ENDROOT
BRANCH   1   2
ATOM      2  C   UNL     1       5.753   4.642  19.941  1.00  0.00     0.053 C 
BRANCH   2   3
ATOM      3  C   UNL     1       5.060   5.359  21.056  1.00  0.00     0.041 C 
ATOM      4  O   UNL     1       5.141   6.611  21.152  1.00  0.00    -0.550 OA
ATOM      5  O   UNL     1       4.365   4.639  22.020  1.00  0.00    -0.550 OA
ENDBRANCH   2   3
ENDBRANCH   1   2
BRANCH   1   6
ATOM      6  C   UNL     1       6.038   5.297  17.517  1.00  0.00     0.000 C 
BRANCH   6   7
ATOM      7  C   UNL     1       6.640   6.292  16.512  1.00  0.00    -0.003 C 
ATOM      8  C   UNL     1       6.366   7.749  16.885  1.00  0.00     0.004 C 
ENDBRANCH   6   7
ENDBRANCH   1   6
TORSDOF 4
ENDMDL
MODEL 7
REMARK VINA RESULT:    -3.237      3.390      4.711
REMARK INTER + INTRA:          -4.081
REMARK INTER:                  -3.964
REMARK INTRA:                  -0.116
REMARK UNBOUND:                -0.087
REMARK SMILES CCCCCC(=O)[O-]
REMARK SMILES IDX 4 1 5 2 6 3 7 4 8 5 3 6 2 7 1 8
REMARK H PARENT
REMARK Flexibility Score: inf
ROOT
ATOM      1  C   UNL     1       6.789   5.295  15.776  1.00  0.00     0.006 C 
ENDROOT
BRANCH   1   2
ATOM      2  C   UNL     1       6.170   6.350  16.699  1.00  0.00     0.053 C 
BRANCH   2   3
ATOM      3  C   UNL     1       6.330   5.953  18.132  1.00  0.00     0.041 C 
ATOM      4  O   UNL     1       6.622   6.816  19.001  1.00  0.00    -0.550 OA
ATOM      5  O   UNL     1       6.206   4.620  18.502  1.00  0.00    -0.550 OA
ENDBRANCH   2   3
ENDBRANCH   1   2
BRANCH   1   6
ATOM      6  C   UNL     1       8.247   5.644  15.445  1.00  0.00     0.000 C 
BRANCH   6   7
ATOM      7  C   UNL     1       8.732   4.982  14.145  1.00  0.00    -0.003 C 
ATOM      8  C   UNL     1       7.866   3.794  13.728  1.00  0.00     0.004 C 
ENDBRANCH   6   7
ENDBRANCH   1   6
TORSDOF 4
ENDMDL
MODEL 8
REMARK VINA RESULT:    -3.175      1.558      2.146
REMARK INTER + INTRA:          -4.005
REMARK INTER:                  -3.922
REMARK INTRA:                  -0.083
REMARK UNBOUND:                -0.087
REMARK SMILES CCCCCC(=O)[O-]
REMARK SMILES IDX 4 1 5 2 6 3 7 4 8 5 3 6 2 7 1 8
REMARK H PARENT
REMARK Flexibility Score: inf
ROOT
ATOM      1  C   UNL     1       9.792   5.751  14.834  1.00  0.00     0.006 C 
ENDROOT
BRANCH   1   2
ATOM      2  C   UNL     1      10.378   6.844  13.933  1.00  0.00     0.053 C 
BRANCH   2   3
ATOM      3  C   UNL     1      10.388   6.397  12.506  1.00  0.00     0.041 C 
ATOM      4  O   UNL     1      11.431   6.517  11.811  1.00  0.00    -0.550 OA
ATOM      5  O   UNL     1       9.231   5.892  11.927  1.00  0.00    -0.550 OA
ENDBRANCH   2   3
ENDBRANCH   1   2
BRANCH   1   6
ATOM      6  C   UNL     1       8.643   6.304  15.689  1.00  0.00     0.000 C 
BRANCH   6   7
ATOM      7  C   UNL     1       7.401   5.399  15.663  1.00  0.00    -0.003 C 
ATOM      8  C   UNL     1       6.167   6.070  16.267  1.00  0.00     0.004 C 
ENDBRANCH   6   7
ENDBRANCH   1   6
TORSDOF 4
ENDMDL
MODEL 9
REMARK VINA RESULT:    -3.162      2.705      4.282
REMARK INTER + INTRA:          -3.988
REMARK INTER:                  -3.870
REMARK INTRA:                  -0.119
REMARK UNBOUND:                -0.087
REMARK SMILES CCCCCC(=O)[O-]
REMARK SMILES IDX 4 1 5 2 6 3 7 4 8 5 3 6 2 7 1 8
REMARK H PARENT
REMARK Flexibility Score: inf
ROOT
ATOM      1  C   UNL     1       7.850   4.923  15.128  1.00  0.00     0.006 C 
ENDROOT
BRANCH   1   2
ATOM      2  C   UNL     1       7.942   6.046  16.167  1.00  0.00     0.053 C 
BRANCH   2   3
ATOM      3  C   UNL     1       6.577   6.539  16.529  1.00  0.00     0.041 C 
ATOM      4  O   UNL     1       5.631   5.724  16.693  1.00  0.00    -0.550 OA
ATOM      5  O   UNL     1       6.336   7.902  16.636  1.00  0.00    -0.550 OA
ENDBRANCH   2   3
ENDBRANCH   1   2
BRANCH   1   6
ATOM      6  C   UNL     1       8.817   5.174  13.962  1.00  0.00     0.000 C 
BRANCH   6   7
ATOM      7  C   UNL     1       9.836   6.283  14.269  1.00  0.00    -0.003 C 
ATOM      8  C   UNL     1      10.516   6.826  13.013  1.00  0.00     0.004 C 
ENDBRANCH   6   7
ENDBRANCH   1   6
TORSDOF 4
ENDMDL
