MODEL 1
REMARK VINA RESULT:    -1.325      0.000      0.000
REMARK INTER + INTRA:          -5.391
REMARK INTER:                  -3.493
REMARK INTRA:                  -1.897
REMARK UNBOUND:                -1.897
REMARK SMILES CCCCCCCCCCCCCCCCCCCCCCCCCCCCCC(=O)[O-]
REMARK SMILES IDX 16 1 17 2 18 3 19 4 20 5 21 6 22 7 23 8 24 9 25 10 26 11
REMARK SMILES IDX 27 12 28 13 29 14 30 15 31 16 32 17 15 18 14 19 13 20 12 21
REMARK SMILES IDX 11 22 10 23 9 24 8 25 7 26 6 27 5 28 4 29 3 30 2 31 1 32
REMARK H PARENT
REMARK Flexibility Score: inf
ROOT
ATOM      1  C   UNL     1     -21.917   5.452   8.909  1.00  0.00     0.000 C 
ENDROOT
BRANCH   1   2
ATOM      2  C   UNL     1     -22.404   3.994   8.942  1.00  0.00     0.000 C 
BRANCH   2   3
ATOM      3  C   UNL     1     -21.264   2.983   9.171  1.00  0.00     0.000 C 
BRANCH   3   4
ATOM      4  C   UNL     1     -21.257   1.774   8.217  1.00  0.00     0.000 C 
BRANCH   4   5
ATOM      5  C   UNL     1     -19.891   1.543   7.547  1.00  0.00     0.000 C 
BRANCH   5   6
ATOM      6  C   UNL     1     -19.806   0.183   6.836  1.00  0.00     0.000 C 
BRANCH   6   7
ATOM      7  C   UNL     1     -20.699  -0.888   7.483  1.00  0.00     0.000 C 
BRANCH   7   8
ATOM      8  C   UNL     1     -19.909  -2.186   7.715  1.00  0.00     0.000 C 
BRANCH   8   9
ATOM      9  C   UNL     1     -19.534  -2.397   9.189  1.00  0.00     0.000 C 
BRANCH   9  10
ATOM     10  C   UNL     1     -20.502  -1.701  10.155  1.00  0.00     0.000 C 
BRANCH  10  11
ATOM     11  C   UNL     1     -19.938  -1.695  11.583  1.00  0.00     0.000 C 
BRANCH  11  12
ATOM     12  C   UNL     1     -20.703  -2.629  12.537  1.00  0.00     0.000 C 
BRANCH  12  13
ATOM     13  C   UNL     1     -21.194  -1.970  13.838  1.00  0.00     0.006 C 
BRANCH  13  14
ATOM     14  C   UNL     1     -21.821  -0.588  13.612  1.00  0.00     0.053 C 
BRANCH  14  15
ATOM     15  C   UNL     1     -20.876   0.494  14.029  1.00  0.00     0.041 C 
ATOM     16  O   UNL     1     -20.121   0.329  15.025  1.00  0.00    -0.550 OA
ATOM     17  O   UNL     1     -20.854   1.702  13.344  1.00  0.00    -0.550 OA
ENDBRANCH  14  15
ENDBRANCH  13  14
ENDBRANCH  12  13
ENDBRANCH  11  12
ENDBRANCH  10  11
ENDBRANCH   9  10
ENDBRANCH   8   9
ENDBRANCH   7   8
ENDBRANCH   6   7
ENDBRANCH   5   6
ENDBRANCH   4   5
ENDBRANCH   3   4
ENDBRANCH   2   3
ENDBRANCH   1   2
BRANCH   1  18
ATOM     18  C   UNL     1     -20.395   5.572   9.078  1.00  0.00     0.000 C 
BRANCH  18  19
ATOM     19  C   UNL     1     -19.997   6.278  10.387  1.00  0.00     0.000 C 
BRANCH  19  20
ATOM     20  C   UNL     1     -18.493   6.615  10.436  1.00  0.00     0.000 C 
BRANCH  20  21
ATOM     21  C   UNL     1     -18.098   7.837   9.586  1.00  0.00     0.000 C 
BRANCH  21  22
ATOM     22  C   UNL     1     -17.233   8.875  10.332  1.00  0.00     0.000 C 
BRANCH  22  23
ATOM     23  C   UNL     1     -15.717   8.749  10.074  1.00  0.00     0.000 C 
BRANCH  23  24
ATOM     24  C   UNL     1     -15.011  10.058   9.672  1.00  0.00    -0.000 C 
BRANCH  24  25
ATOM     25  C   UNL     1     -14.797  11.019  10.850  1.00  0.00    -0.000 C 
BRANCH  25  26
ATOM     26  C   UNL     1     -14.825  10.264  12.188  1.00  0.00    -0.000 C 
BRANCH  26  27
ATOM     27  C   UNL     1     -14.097  11.014  13.319  1.00  0.00    -0.000 C 
BRANCH  27  28
ATOM     28  C   UNL     1     -12.935  10.242  13.969  1.00  0.00    -0.000 C 
BRANCH  28  29
ATOM     29  C   UNL     1     -11.643  11.067  14.067  1.00  0.00    -0.000 C 
BRANCH  29  30
ATOM     30  C   UNL     1     -10.487  10.359  13.342  1.00  0.00    -0.000 C 
BRANCH  30  31
ATOM     31  C   UNL     1     -10.037  11.110  12.079  1.00  0.00    -0.003 C 
ATOM     32  C   UNL     1     -11.078  11.066  10.961  1.00  0.00     0.004 C 
ENDBRANCH  30  31
ENDBRANCH  29  30
ENDBRANCH  28  29
ENDBRANCH  27  28
ENDBRANCH  26  27
ENDBRANCH  25  26
ENDBRANCH  24  25
ENDBRANCH  23  24
ENDBRANCH  22  23
ENDBRANCH  21  22
ENDBRANCH  20  21
ENDBRANCH  19  20
ENDBRANCH  18  19
ENDBRANCH   1  18
TORSDOF 28
ENDMDL
MODEL 2
REMARK VINA RESULT:    -0.724      1.986      4.524
REMARK INTER + INTRA:          -3.806
REMARK INTER:                  -1.418
REMARK INTRA:                  -2.387
REMARK UNBOUND:                -1.897
REMARK SMILES CCCCCCCCCCCCCCCCCCCCCCCCCCCCCC(=O)[O-]
REMARK SMILES IDX 16 1 17 2 18 3 19 4 20 5 21 6 22 7 23 8 24 9 25 10 26 11
REMARK SMILES IDX 27 12 28 13 29 14 30 15 31 16 32 17 15 18 14 19 13 20 12 21
REMARK SMILES IDX 11 22 10 23 9 24 8 25 7 26 6 27 5 28 4 29 3 30 2 31 1 32
REMARK H PARENT
REMARK Flexibility Score: inf
ROOT
ATOM      1  C   UNL     1     -22.268   2.051   9.515  1.00  0.00     0.000 C 
ENDROOT
BRANCH   1   2
ATOM      2  C   UNL     1     -21.201   1.638  10.542  1.00  0.00     0.000 C 
BRANCH   2   3
ATOM      3  C   UNL     1     -21.805   1.164  11.878  1.00  0.00     0.000 C 
BRANCH   3   4
ATOM      4  C   UNL     1     -21.147   1.753  13.140  1.00  0.00     0.000 C 
BRANCH   4   5
ATOM      5  C   UNL     1     -20.591   0.676  14.088  1.00  0.00     0.000 C 
BRANCH   5   6
ATOM      6  C   UNL     1     -21.694  -0.224  14.669  1.00  0.00     0.000 C 
BRANCH   6   7
ATOM      7  C   UNL     1     -21.523  -1.703  14.291  1.00  0.00     0.000 C 
BRANCH   7   8
ATOM      8  C   UNL     1     -20.327  -1.888  13.344  1.00  0.00     0.000 C 
BRANCH   8   9
ATOM      9  C   UNL     1     -20.737  -2.438  11.970  1.00  0.00     0.000 C 
BRANCH   9  10
ATOM     10  C   UNL     1     -19.907  -1.848  10.822  1.00  0.00     0.000 C 
BRANCH  10  11
ATOM     11  C   UNL     1     -19.538  -2.935   9.801  1.00  0.00     0.000 C 
BRANCH  11  12
ATOM     12  C   UNL     1     -19.743  -2.487   8.343  1.00  0.00     0.000 C 
BRANCH  12  13
ATOM     13  C   UNL     1     -19.954  -0.974   8.151  1.00  0.00     0.006 C 
BRANCH  13  14
ATOM     14  C   UNL     1     -20.365  -0.602   6.720  1.00  0.00     0.053 C 
BRANCH  14  15
ATOM     15  C   UNL     1     -20.541   0.879   6.591  1.00  0.00     0.041 C 
ATOM     16  O   UNL     1     -21.371   1.350   5.768  1.00  0.00    -0.550 OA
ATOM     17  O   UNL     1     -19.762   1.742   7.351  1.00  0.00    -0.550 OA
ENDBRANCH  14  15
ENDBRANCH  13  14
ENDBRANCH  12  13
ENDBRANCH  11  12
ENDBRANCH  10  11
ENDBRANCH   9  10
ENDBRANCH   8   9
ENDBRANCH   7   8
ENDBRANCH   6   7
ENDBRANCH   5   6
ENDBRANCH   4   5
ENDBRANCH   3   4
ENDBRANCH   2   3
ENDBRANCH   1   2
BRANCH   1  18
ATOM     18  C   UNL     1     -22.597   3.550   9.573  1.00  0.00     0.000 C 
BRANCH  18  19
ATOM     19  C   UNL     1     -21.738   4.385   8.606  1.00  0.00     0.000 C 
BRANCH  19  20
ATOM     20  C   UNL     1     -21.476   5.809   9.137  1.00  0.00     0.000 C 
BRANCH  20  21
ATOM     21  C   UNL     1     -20.006   6.256   9.029  1.00  0.00     0.000 C 
BRANCH  21  22
ATOM     22  C   UNL     1     -19.359   6.639  10.376  1.00  0.00     0.000 C 
BRANCH  22  23
ATOM     23  C   UNL     1     -17.832   6.853  10.316  1.00  0.00     0.000 C 
BRANCH  23  24
ATOM     24  C   UNL     1     -17.386   8.286   9.970  1.00  0.00    -0.000 C 
BRANCH  24  25
ATOM     25  C   UNL     1     -15.889   8.530  10.211  1.00  0.00    -0.000 C 
BRANCH  25  26
ATOM     26  C   UNL     1     -15.526  10.004   9.972  1.00  0.00    -0.000 C 
BRANCH  26  27
ATOM     27  C   UNL     1     -14.534  10.558  11.012  1.00  0.00    -0.000 C 
BRANCH  27  28
ATOM     28  C   UNL     1     -14.849  10.187  12.472  1.00  0.00    -0.000 C 
BRANCH  28  29
ATOM     29  C   UNL     1     -13.968  10.931  13.487  1.00  0.00    -0.000 C 
BRANCH  29  30
ATOM     30  C   UNL     1     -12.545  11.124  12.936  1.00  0.00    -0.000 C 
BRANCH  30  31
ATOM     31  C   UNL     1     -11.476  10.468  13.824  1.00  0.00    -0.003 C 
ATOM     32  C   UNL     1     -10.122  10.344  13.127  1.00  0.00     0.004 C 
ENDBRANCH  30  31
ENDBRANCH  29  30
ENDBRANCH  28  29
ENDBRANCH  27  28
ENDBRANCH  26  27
ENDBRANCH  25  26
ENDBRANCH  24  25
ENDBRANCH  23  24
ENDBRANCH  22  23
ENDBRANCH  21  22
ENDBRANCH  20  21
ENDBRANCH  19  20
ENDBRANCH  18  19
ENDBRANCH   1  18
TORSDOF 28
ENDMDL
MODEL 3
REMARK VINA RESULT:    -0.407      4.957     14.698
REMARK INTER + INTRA:          -2.971
REMARK INTER:                  -1.646
REMARK INTRA:                  -1.324
REMARK UNBOUND:                -1.897
REMARK SMILES CCCCCCCCCCCCCCCCCCCCCCCCCCCCCC(=O)[O-]
REMARK SMILES IDX 16 1 17 2 18 3 19 4 20 5 21 6 22 7 23 8 24 9 25 10 26 11
REMARK SMILES IDX 27 12 28 13 29 14 30 15 31 16 32 17 15 18 14 19 13 20 12 21
REMARK SMILES IDX 11 22 10 23 9 24 8 25 7 26 6 27 5 28 4 29 3 30 2 31 1 32
REMARK H PARENT
REMARK Flexibility Score: inf
ROOT
ATOM      1  C   UNL     1     -20.809   0.910   6.671  1.00  0.00     0.000 C 
ENDROOT
BRANCH   1   2
ATOM      2  C   UNL     1     -20.488   2.083   7.612  1.00  0.00     0.000 C 
BRANCH   2   3
ATOM      3  C   UNL     1     -21.231   1.996   8.958  1.00  0.00     0.000 C 
BRANCH   3   4
ATOM      4  C   UNL     1     -22.022   3.256   9.354  1.00  0.00     0.000 C 
BRANCH   4   5
ATOM      5  C   UNL     1     -21.616   4.500   8.545  1.00  0.00     0.000 C 
BRANCH   5   6
ATOM      6  C   UNL     1     -21.478   5.755   9.424  1.00  0.00     0.000 C 
BRANCH   6   7
ATOM      7  C   UNL     1     -20.111   5.854  10.119  1.00  0.00     0.000 C 
BRANCH   7   8
ATOM      8  C   UNL     1     -19.249   6.945   9.467  1.00  0.00     0.000 C 
BRANCH   8   9
ATOM      9  C   UNL     1     -17.991   7.275  10.284  1.00  0.00     0.000 C 
BRANCH   9  10
ATOM     10  C   UNL     1     -17.425   8.666   9.969  1.00  0.00     0.000 C 
BRANCH  10  11
ATOM     11  C   UNL     1     -16.014   8.828  10.556  1.00  0.00     0.000 C 
BRANCH  11  12
ATOM     12  C   UNL     1     -15.106   9.729   9.700  1.00  0.00     0.000 C 
BRANCH  12  13
ATOM     13  C   UNL     1     -14.704  11.060  10.359  1.00  0.00     0.006 C 
BRANCH  13  14
ATOM     14  C   UNL     1     -13.321  11.010  11.021  1.00  0.00     0.053 C 
BRANCH  14  15
ATOM     15  C   UNL     1     -13.452  10.886  12.507  1.00  0.00     0.041 C 
ATOM     16  O   UNL     1     -14.567  10.612  13.025  1.00  0.00    -0.550 OA
ATOM     17  O   UNL     1     -12.351  11.110  13.324  1.00  0.00    -0.550 OA
ENDBRANCH  14  15
ENDBRANCH  13  14
ENDBRANCH  12  13
ENDBRANCH  11  12
ENDBRANCH  10  11
ENDBRANCH   9  10
ENDBRANCH   8   9
ENDBRANCH   7   8
ENDBRANCH   6   7
ENDBRANCH   5   6
ENDBRANCH   4   5
ENDBRANCH   3   4
ENDBRANCH   2   3
ENDBRANCH   1   2
BRANCH   1  18
ATOM     18  C   UNL     1     -19.799  -0.241   6.793  1.00  0.00     0.000 C 
BRANCH  18  19
ATOM     19  C   UNL     1     -20.372  -1.457   7.542  1.00  0.00     0.000 C 
BRANCH  19  20
ATOM     20  C   UNL     1     -20.086  -1.400   9.056  1.00  0.00     0.000 C 
BRANCH  20  21
ATOM     21  C   UNL     1     -19.630  -2.743   9.657  1.00  0.00     0.000 C 
BRANCH  21  22
ATOM     22  C   UNL     1     -19.435  -3.869   8.620  1.00  0.00     0.000 C 
BRANCH  22  23
ATOM     23  C   UNL     1     -19.754  -5.285   9.143  1.00  0.00     0.000 C 
BRANCH  23  24
ATOM     24  C   UNL     1     -20.763  -6.083   8.296  1.00  0.00    -0.000 C 
BRANCH  24  25
ATOM     25  C   UNL     1     -21.843  -6.780   9.136  1.00  0.00    -0.000 C 
BRANCH  25  26
ATOM     26  C   UNL     1     -22.643  -7.779   8.286  1.00  0.00    -0.000 C 
BRANCH  26  27
ATOM     27  C   UNL     1     -24.164  -7.675   8.504  1.00  0.00    -0.000 C 
BRANCH  27  28
ATOM     28  C   UNL     1     -24.935  -8.999   8.353  1.00  0.00    -0.000 C 
BRANCH  28  29
ATOM     29  C   UNL     1     -26.159  -9.094   9.276  1.00  0.00    -0.000 C 
BRANCH  29  30
ATOM     30  C   UNL     1     -26.282  -7.834  10.149  1.00  0.00    -0.000 C 
BRANCH  30  31
ATOM     31  C   UNL     1     -27.313  -8.000  11.278  1.00  0.00    -0.003 C 
ATOM     32  C   UNL     1     -27.222  -6.894  12.329  1.00  0.00     0.004 C 
ENDBRANCH  30  31
ENDBRANCH  29  30
ENDBRANCH  28  29
ENDBRANCH  27  28
ENDBRANCH  26  27
ENDBRANCH  25  26
ENDBRANCH  24  25
ENDBRANCH  23  24
ENDBRANCH  22  23
ENDBRANCH  21  22
ENDBRANCH  20  21
ENDBRANCH  19  20
ENDBRANCH  18  19
ENDBRANCH   1  18
TORSDOF 28
ENDMDL
MODEL 4
REMARK VINA RESULT:    -0.201      3.488     12.248
REMARK INTER + INTRA:          -2.428
REMARK INTER:                  -0.836
REMARK INTRA:                  -1.592
REMARK UNBOUND:                -1.897
REMARK SMILES CCCCCCCCCCCCCCCCCCCCCCCCCCCCCC(=O)[O-]
REMARK SMILES IDX 16 1 17 2 18 3 19 4 20 5 21 6 22 7 23 8 24 9 25 10 26 11
REMARK SMILES IDX 27 12 28 13 29 14 30 15 31 16 32 17 15 18 14 19 13 20 12 21
REMARK SMILES IDX 11 22 10 23 9 24 8 25 7 26 6 27 5 28 4 29 3 30 2 31 1 32
REMARK H PARENT
REMARK Flexibility Score: inf
ROOT
ATOM      1  C   UNL     1     -21.720   1.880  10.473  1.00  0.00     0.000 C 
ENDROOT
BRANCH   1   2
ATOM      2  C   UNL     1     -21.247   2.871   9.397  1.00  0.00     0.000 C 
BRANCH   2   3
ATOM      3  C   UNL     1     -22.333   3.888   8.995  1.00  0.00     0.000 C 
BRANCH   3   4
ATOM      4  C   UNL     1     -21.831   5.324   8.761  1.00  0.00     0.000 C 
BRANCH   4   5
ATOM      5  C   UNL     1     -20.846   5.802   9.842  1.00  0.00     0.000 C 
BRANCH   5   6
ATOM      6  C   UNL     1     -19.674   6.607   9.256  1.00  0.00     0.000 C 
BRANCH   6   7
ATOM      7  C   UNL     1     -18.573   6.900  10.288  1.00  0.00     0.000 C 
BRANCH   7   8
ATOM      8  C   UNL     1     -17.858   8.219   9.960  1.00  0.00     0.000 C 
BRANCH   8   9
ATOM      9  C   UNL     1     -16.361   8.184  10.299  1.00  0.00     0.000 C 
BRANCH   9  10
ATOM     10  C   UNL     1     -15.542   9.190   9.478  1.00  0.00     0.000 C 
BRANCH  10  11
ATOM     11  C   UNL     1     -15.143  10.399  10.339  1.00  0.00     0.000 C 
BRANCH  11  12
ATOM     12  C   UNL     1     -14.807  10.020  11.792  1.00  0.00     0.000 C 
BRANCH  12  13
ATOM     13  C   UNL     1     -14.113  11.125  12.608  1.00  0.00     0.006 C 
BRANCH  13  14
ATOM     14  C   UNL     1     -12.582  11.068  12.516  1.00  0.00     0.053 C 
BRANCH  14  15
ATOM     15  C   UNL     1     -11.991  10.633  13.820  1.00  0.00     0.041 C 
ATOM     16  O   UNL     1     -12.732  10.445  14.822  1.00  0.00    -0.550 OA
ATOM     17  O   UNL     1     -10.617  10.471  13.943  1.00  0.00    -0.550 OA
ENDBRANCH  14  15
ENDBRANCH  13  14
ENDBRANCH  12  13
ENDBRANCH  11  12
ENDBRANCH  10  11
ENDBRANCH   9  10
ENDBRANCH   8   9
ENDBRANCH   7   8
ENDBRANCH   6   7
ENDBRANCH   5   6
ENDBRANCH   4   5
ENDBRANCH   3   4
ENDBRANCH   2   3
ENDBRANCH   1   2
BRANCH   1  18
ATOM     18  C   UNL     1     -21.118   2.175  11.856  1.00  0.00     0.000 C 
BRANCH  18  19
ATOM     19  C   UNL     1     -21.547   1.150  12.920  1.00  0.00     0.000 C 
BRANCH  19  20
ATOM     20  C   UNL     1     -20.496   0.992  14.038  1.00  0.00     0.000 C 
BRANCH  20  21
ATOM     21  C   UNL     1     -20.707  -0.250  14.923  1.00  0.00     0.000 C 
BRANCH  21  22
ATOM     22  C   UNL     1     -21.798  -1.215  14.414  1.00  0.00     0.000 C 
BRANCH  22  23
ATOM     23  C   UNL     1     -21.273  -2.368  13.532  1.00  0.00     0.000 C 
BRANCH  23  24
ATOM     24  C   UNL     1     -20.176  -1.973  12.525  1.00  0.00    -0.000 C 
BRANCH  24  25
ATOM     25  C   UNL     1     -20.643  -2.038  11.064  1.00  0.00    -0.000 C 
BRANCH  25  26
ATOM     26  C   UNL     1     -19.711  -1.226  10.151  1.00  0.00    -0.000 C 
BRANCH  26  27
ATOM     27  C   UNL     1     -20.303  -0.979   8.751  1.00  0.00    -0.000 C 
BRANCH  27  28
ATOM     28  C   UNL     1     -20.307  -2.205   7.821  1.00  0.00    -0.000 C 
BRANCH  28  29
ATOM     29  C   UNL     1     -19.110  -3.140   8.051  1.00  0.00    -0.000 C 
BRANCH  29  30
ATOM     30  C   UNL     1     -19.480  -4.270   9.027  1.00  0.00    -0.000 C 
BRANCH  30  31
ATOM     31  C   UNL     1     -19.971  -5.534   8.304  1.00  0.00    -0.003 C 
ATOM     32  C   UNL     1     -20.992  -6.325   9.123  1.00  0.00     0.004 C 
ENDBRANCH  30  31
ENDBRANCH  29  30
ENDBRANCH  28  29
ENDBRANCH  27  28
ENDBRANCH  26  27
ENDBRANCH  25  26
ENDBRANCH  24  25
ENDBRANCH  23  24
ENDBRANCH  22  23
ENDBRANCH  21  22
ENDBRANCH  20  21
ENDBRANCH  19  20
ENDBRANCH  18  19
ENDBRANCH   1  18
TORSDOF 28
ENDMDL
MODEL 5
REMARK VINA RESULT:    -0.173      3.488     11.621
REMARK INTER + INTRA:          -2.352
REMARK INTER:                  -0.436
REMARK INTRA:                  -1.917
REMARK UNBOUND:                -1.897
REMARK SMILES CCCCCCCCCCCCCCCCCCCCCCCCCCCCCC(=O)[O-]
REMARK SMILES IDX 16 1 17 2 18 3 19 4 20 5 21 6 22 7 23 8 24 9 25 10 26 11
REMARK SMILES IDX 27 12 28 13 29 14 30 15 31 16 32 17 15 18 14 19 13 20 12 21
REMARK SMILES IDX 11 22 10 23 9 24 8 25 7 26 6 27 5 28 4 29 3 30 2 31 1 32
REMARK H PARENT
REMARK Flexibility Score: inf
ROOT
ATOM      1  C   UNL     1     -20.756   1.769   7.959  1.00  0.00     0.000 C 
ENDROOT
BRANCH   1   2
ATOM      2  C   UNL     1     -20.707   3.297   7.793  1.00  0.00     0.000 C 
BRANCH   2   3
ATOM      3  C   UNL     1     -21.550   4.044   8.844  1.00  0.00     0.000 C 
BRANCH   3   4
ATOM      4  C   UNL     1     -21.124   5.499   9.113  1.00  0.00     0.000 C 
BRANCH   4   5
ATOM      5  C   UNL     1     -20.068   5.621  10.226  1.00  0.00     0.000 C 
BRANCH   5   6
ATOM      6  C   UNL     1     -19.437   7.022  10.287  1.00  0.00     0.000 C 
BRANCH   6   7
ATOM      7  C   UNL     1     -17.904   6.993  10.190  1.00  0.00     0.000 C 
BRANCH   7   8
ATOM      8  C   UNL     1     -17.359   8.370   9.780  1.00  0.00     0.000 C 
BRANCH   8   9
ATOM      9  C   UNL     1     -15.973   8.661  10.374  1.00  0.00     0.000 C 
BRANCH   9  10
ATOM     10  C   UNL     1     -15.344   9.944   9.812  1.00  0.00     0.000 C 
BRANCH  10  11
ATOM     11  C   UNL     1     -14.730  10.789  10.939  1.00  0.00     0.000 C 
BRANCH  11  12
ATOM     12  C   UNL     1     -14.711  10.062  12.295  1.00  0.00     0.000 C 
BRANCH  12  13
ATOM     13  C   UNL     1     -13.787  10.687  13.355  1.00  0.00     0.006 C 
BRANCH  13  14
ATOM     14  C   UNL     1     -12.418  11.096  12.793  1.00  0.00     0.053 C 
BRANCH  14  15
ATOM     15  C   UNL     1     -11.317  10.612  13.685  1.00  0.00     0.041 C 
ATOM     16  O   UNL     1     -10.114  10.843  13.389  1.00  0.00    -0.550 OA
ATOM     17  O   UNL     1     -11.616   9.874  14.822  1.00  0.00    -0.550 OA
ENDBRANCH  14  15
ENDBRANCH  13  14
ENDBRANCH  12  13
ENDBRANCH  11  12
ENDBRANCH  10  11
ENDBRANCH   9  10
ENDBRANCH   8   9
ENDBRANCH   7   8
ENDBRANCH   6   7
ENDBRANCH   5   6
ENDBRANCH   4   5
ENDBRANCH   3   4
ENDBRANCH   2   3
ENDBRANCH   1   2
BRANCH   1  18
ATOM     18  C   UNL     1     -20.745   1.026   6.614  1.00  0.00     0.000 C 
BRANCH  18  19
ATOM     19  C   UNL     1     -20.573  -0.494   6.778  1.00  0.00     0.000 C 
BRANCH  19  20
ATOM     20  C   UNL     1     -20.351  -0.903   8.248  1.00  0.00     0.000 C 
BRANCH  20  21
ATOM     21  C   UNL     1     -19.769  -2.319   8.423  1.00  0.00     0.000 C 
BRANCH  21  22
ATOM     22  C   UNL     1     -19.244  -2.618   9.843  1.00  0.00     0.000 C 
BRANCH  22  23
ATOM     23  C   UNL     1     -19.835  -1.718  10.948  1.00  0.00     0.000 C 
BRANCH  23  24
ATOM     24  C   UNL     1     -20.864  -2.403  11.868  1.00  0.00    -0.000 C 
BRANCH  24  25
ATOM     25  C   UNL     1     -20.589  -2.175  13.361  1.00  0.00    -0.000 C 
BRANCH  25  26
ATOM     26  C   UNL     1     -21.885  -1.841  14.115  1.00  0.00    -0.000 C 
BRANCH  26  27
ATOM     27  C   UNL     1     -21.773  -0.565  14.970  1.00  0.00    -0.000 C 
BRANCH  27  28
ATOM     28  C   UNL     1     -20.445   0.199  14.829  1.00  0.00    -0.000 C 
BRANCH  28  29
ATOM     29  C   UNL     1     -20.493   1.300  13.759  1.00  0.00    -0.000 C 
BRANCH  29  30
ATOM     30  C   UNL     1     -21.789   1.207  12.937  1.00  0.00    -0.000 C 
BRANCH  30  31
ATOM     31  C   UNL     1     -21.545   1.380  11.430  1.00  0.00    -0.003 C 
ATOM     32  C   UNL     1     -22.815   1.746  10.662  1.00  0.00     0.004 C 
ENDBRANCH  30  31
ENDBRANCH  29  30
ENDBRANCH  28  29
ENDBRANCH  27  28
ENDBRANCH  26  27
ENDBRANCH  25  26
ENDBRANCH  24  25
ENDBRANCH  23  24
ENDBRANCH  22  23
ENDBRANCH  21  22
ENDBRANCH  20  21
ENDBRANCH  19  20
ENDBRANCH  18  19
ENDBRANCH   1  18
TORSDOF 28
ENDMDL
MODEL 6
REMARK VINA RESULT:     0.062      2.614      5.328
REMARK INTER + INTRA:          -1.735
REMARK INTER:                  -1.072
REMARK INTRA:                  -0.663
REMARK UNBOUND:                -1.897
REMARK SMILES CCCCCCCCCCCCCCCCCCCCCCCCCCCCCC(=O)[O-]
REMARK SMILES IDX 16 1 17 2 18 3 19 4 20 5 21 6 22 7 23 8 24 9 25 10 26 11
REMARK SMILES IDX 27 12 28 13 29 14 30 15 31 16 32 17 15 18 14 19 13 20 12 21
REMARK SMILES IDX 11 22 10 23 9 24 8 25 7 26 6 27 5 28 4 29 3 30 2 31 1 32
REMARK H PARENT
REMARK Flexibility Score: inf
ROOT
ATOM      1  C   UNL     1     -20.757   0.072   8.129  1.00  0.00     0.000 C 
ENDROOT
BRANCH   1   2
ATOM      2  C   UNL     1     -20.613   0.315   9.640  1.00  0.00     0.000 C 
BRANCH   2   3
ATOM      3  C   UNL     1     -21.630   1.336  10.186  1.00  0.00     0.000 C 
BRANCH   3   4
ATOM      4  C   UNL     1     -21.220   2.034  11.496  1.00  0.00     0.000 C 
BRANCH   4   5
ATOM      5  C   UNL     1     -21.744   1.313  12.751  1.00  0.00     0.000 C 
BRANCH   5   6
ATOM      6  C   UNL     1     -20.748   1.370  13.921  1.00  0.00     0.000 C 
BRANCH   6   7
ATOM      7  C   UNL     1     -20.521   0.002  14.583  1.00  0.00     0.000 C 
BRANCH   7   8
ATOM      8  C   UNL     1     -21.717  -0.929  14.329  1.00  0.00     0.000 C 
BRANCH   8   9
ATOM      9  C   UNL     1     -21.305  -2.262  13.686  1.00  0.00     0.000 C 
BRANCH   9  10
ATOM     10  C   UNL     1     -20.017  -2.150  12.858  1.00  0.00     0.000 C 
BRANCH  10  11
ATOM     11  C   UNL     1     -20.339  -1.858  11.384  1.00  0.00     0.000 C 
BRANCH  11  12
ATOM     12  C   UNL     1     -19.254  -2.365  10.418  1.00  0.00     0.000 C 
BRANCH  12  13
ATOM     13  C   UNL     1     -19.781  -3.128   9.190  1.00  0.00     0.006 C 
BRANCH  13  14
ATOM     14  C   UNL     1     -18.773  -4.143   8.635  1.00  0.00     0.053 C 
BRANCH  14  15
ATOM     15  C   UNL     1     -19.379  -5.511   8.579  1.00  0.00     0.041 C 
ATOM     16  O   UNL     1     -18.823  -6.424   7.912  1.00  0.00    -0.550 OA
ATOM     17  O   UNL     1     -20.578  -5.768   9.231  1.00  0.00    -0.550 OA
ENDBRANCH  14  15
ENDBRANCH  13  14
ENDBRANCH  12  13
ENDBRANCH  11  12
ENDBRANCH  10  11
ENDBRANCH   9  10
ENDBRANCH   8   9
ENDBRANCH   7   8
ENDBRANCH   6   7
ENDBRANCH   5   6
ENDBRANCH   4   5
ENDBRANCH   3   4
ENDBRANCH   2   3
ENDBRANCH   1   2
BRANCH   1  18
ATOM     18  C   UNL     1     -20.237   1.247   7.287  1.00  0.00     0.000 C 
BRANCH  18  19
ATOM     19  C   UNL     1     -21.183   2.461   7.313  1.00  0.00     0.000 C 
BRANCH  19  20
ATOM     20  C   UNL     1     -20.681   3.574   8.256  1.00  0.00     0.000 C 
BRANCH  20  21
ATOM     21  C   UNL     1     -21.796   4.498   8.781  1.00  0.00     0.000 C 
BRANCH  21  22
ATOM     22  C   UNL     1     -21.339   5.944   9.066  1.00  0.00     0.000 C 
BRANCH  22  23
ATOM     23  C   UNL     1     -20.129   6.058  10.016  1.00  0.00     0.000 C 
BRANCH  23  24
ATOM     24  C   UNL     1     -19.070   7.099   9.604  1.00  0.00    -0.000 C 
BRANCH  24  25
ATOM     25  C   UNL     1     -17.766   6.989  10.407  1.00  0.00    -0.000 C 
BRANCH  25  26
ATOM     26  C   UNL     1     -16.625   7.748   9.713  1.00  0.00    -0.000 C 
BRANCH  26  27
ATOM     27  C   UNL     1     -16.402   9.159  10.287  1.00  0.00    -0.000 C 
BRANCH  27  28
ATOM     28  C   UNL     1     -15.135   9.874   9.783  1.00  0.00    -0.000 C 
BRANCH  28  29
ATOM     29  C   UNL     1     -14.469  10.749  10.856  1.00  0.00    -0.000 C 
BRANCH  29  30
ATOM     30  C   UNL     1     -14.915  10.321  12.264  1.00  0.00    -0.000 C 
BRANCH  30  31
ATOM     31  C   UNL     1     -13.978  10.847  13.363  1.00  0.00    -0.003 C 
ATOM     32  C   UNL     1     -12.545  11.051  12.872  1.00  0.00     0.004 C 
ENDBRANCH  30  31
ENDBRANCH  29  30
ENDBRANCH  28  29
ENDBRANCH  27  28
ENDBRANCH  26  27
ENDBRANCH  25  26
ENDBRANCH  24  25
ENDBRANCH  23  24
ENDBRANCH  22  23
ENDBRANCH  21  22
ENDBRANCH  20  21
ENDBRANCH  19  20
ENDBRANCH  18  19
ENDBRANCH   1  18
TORSDOF 28
ENDMDL
MODEL 7
REMARK VINA RESULT:     0.063      1.933      3.892
REMARK INTER + INTRA:          -1.731
REMARK INTER:                  -0.080
REMARK INTRA:                  -1.651
REMARK UNBOUND:                -1.897
REMARK SMILES CCCCCCCCCCCCCCCCCCCCCCCCCCCCCC(=O)[O-]
REMARK SMILES IDX 16 1 17 2 18 3 19 4 20 5 21 6 22 7 23 8 24 9 25 10 26 11
REMARK SMILES IDX 27 12 28 13 29 14 30 15 31 16 32 17 15 18 14 19 13 20 12 21
REMARK SMILES IDX 11 22 10 23 9 24 8 25 7 26 6 27 5 28 4 29 3 30 2 31 1 32
REMARK H PARENT
REMARK Flexibility Score: inf
ROOT
ATOM      1  C   UNL     1     -22.266   3.693   8.679  1.00  0.00     0.000 C 
ENDROOT
BRANCH   1   2
ATOM      2  C   UNL     1     -21.164   2.651   8.933  1.00  0.00     0.000 C 
BRANCH   2   3
ATOM      3  C   UNL     1     -21.547   1.620  10.011  1.00  0.00     0.000 C 
BRANCH   3   4
ATOM      4  C   UNL     1     -22.009   2.216  11.354  1.00  0.00     0.000 C 
BRANCH   4   5
ATOM      5  C   UNL     1     -21.018   1.954  12.502  1.00  0.00     0.000 C 
BRANCH   5   6
ATOM      6  C   UNL     1     -21.565   0.955  13.535  1.00  0.00     0.000 C 
BRANCH   6   7
ATOM      7  C   UNL     1     -20.550  -0.135  13.912  1.00  0.00     0.000 C 
BRANCH   7   8
ATOM      8  C   UNL     1     -21.268  -1.445  14.272  1.00  0.00     0.000 C 
BRANCH   8   9
ATOM      9  C   UNL     1     -21.030  -2.556  13.239  1.00  0.00     0.000 C 
BRANCH   9  10
ATOM     10  C   UNL     1     -19.880  -2.235  12.274  1.00  0.00     0.000 C 
BRANCH  10  11
ATOM     11  C   UNL     1     -20.421  -1.687  10.944  1.00  0.00     0.000 C 
BRANCH  11  12
ATOM     12  C   UNL     1     -19.448  -1.889   9.769  1.00  0.00     0.000 C 
BRANCH  12  13
ATOM     13  C   UNL     1     -19.910  -2.903   8.708  1.00  0.00     0.006 C 
BRANCH  13  14
ATOM     14  C   UNL     1     -19.690  -2.411   7.271  1.00  0.00     0.053 C 
BRANCH  14  15
ATOM     15  C   UNL     1     -20.141  -0.992   7.125  1.00  0.00     0.041 C 
ATOM     16  O   UNL     1     -21.169  -0.587   7.731  1.00  0.00    -0.550 OA
ATOM     17  O   UNL     1     -19.451  -0.124   6.288  1.00  0.00    -0.550 OA
ENDBRANCH  14  15
ENDBRANCH  13  14
ENDBRANCH  12  13
ENDBRANCH  11  12
ENDBRANCH  10  11
ENDBRANCH   9  10
ENDBRANCH   8   9
ENDBRANCH   7   8
ENDBRANCH   6   7
ENDBRANCH   5   6
ENDBRANCH   4   5
ENDBRANCH   3   4
ENDBRANCH   2   3
ENDBRANCH   1   2
BRANCH   1  18
ATOM     18  C   UNL     1     -21.769   5.136   8.853  1.00  0.00     0.000 C 
BRANCH  18  19
ATOM     19  C   UNL     1     -20.478   5.222   9.687  1.00  0.00     0.000 C 
BRANCH  19  20
ATOM     20  C   UNL     1     -19.681   6.510   9.399  1.00  0.00     0.000 C 
BRANCH  20  21
ATOM     21  C   UNL     1     -18.783   6.963  10.566  1.00  0.00     0.000 C 
BRANCH  21  22
ATOM     22  C   UNL     1     -17.283   7.056  10.213  1.00  0.00     0.000 C 
BRANCH  22  23
ATOM     23  C   UNL     1     -16.849   8.406   9.606  1.00  0.00     0.000 C 
BRANCH  23  24
ATOM     24  C   UNL     1     -16.153   9.370  10.586  1.00  0.00    -0.000 C 
BRANCH  24  25
ATOM     25  C   UNL     1     -14.915  10.054   9.988  1.00  0.00    -0.000 C 
BRANCH  25  26
ATOM     26  C   UNL     1     -14.240  10.972  11.018  1.00  0.00    -0.000 C 
BRANCH  26  27
ATOM     27  C   UNL     1     -14.767  10.762  12.450  1.00  0.00    -0.000 C 
BRANCH  27  28
ATOM     28  C   UNL     1     -13.742  11.028  13.566  1.00  0.00    -0.000 C 
BRANCH  28  29
ATOM     29  C   UNL     1     -12.374  10.382  13.295  1.00  0.00    -0.000 C 
BRANCH  29  30
ATOM     30  C   UNL     1     -11.310  10.932  14.259  1.00  0.00    -0.000 C 
BRANCH  30  31
ATOM     31  C   UNL     1      -9.944  11.122  13.581  1.00  0.00    -0.003 C 
ATOM     32  C   UNL     1      -9.970  10.784  12.091  1.00  0.00     0.004 C 
ENDBRANCH  30  31
ENDBRANCH  29  30
ENDBRANCH  28  29
ENDBRANCH  27  28
ENDBRANCH  26  27
ENDBRANCH  25  26
ENDBRANCH  24  25
ENDBRANCH  23  24
ENDBRANCH  22  23
ENDBRANCH  21  22
ENDBRANCH  20  21
ENDBRANCH  19  20
ENDBRANCH  18  19
ENDBRANCH   1  18
TORSDOF 28
ENDMDL
MODEL 8
REMARK VINA RESULT:     0.124      4.507     13.764
REMARK INTER + INTRA:          -1.569
REMARK INTER:                   0.337
REMARK INTRA:                  -1.906
REMARK UNBOUND:                -1.897
REMARK SMILES CCCCCCCCCCCCCCCCCCCCCCCCCCCCCC(=O)[O-]
REMARK SMILES IDX 16 1 17 2 18 3 19 4 20 5 21 6 22 7 23 8 24 9 25 10 26 11
REMARK SMILES IDX 27 12 28 13 29 14 30 15 31 16 32 17 15 18 14 19 13 20 12 21
REMARK SMILES IDX 11 22 10 23 9 24 8 25 7 26 6 27 5 28 4 29 3 30 2 31 1 32
REMARK H PARENT
REMARK Flexibility Score: inf
ROOT
ATOM      1  C   UNL     1     -20.947   0.773  13.269  1.00  0.00     0.000 C 
ENDROOT
BRANCH   1   2
ATOM      2  C   UNL     1     -21.863   1.213  12.115  1.00  0.00     0.000 C 
BRANCH   2   3
ATOM      3  C   UNL     1     -21.146   2.103  11.083  1.00  0.00     0.000 C 
BRANCH   3   4
ATOM      4  C   UNL     1     -21.379   1.717   9.610  1.00  0.00     0.000 C 
BRANCH   4   5
ATOM      5  C   UNL     1     -21.283   2.917   8.651  1.00  0.00     0.000 C 
BRANCH   5   6
ATOM      6  C   UNL     1     -22.048   4.146   9.167  1.00  0.00     0.000 C 
BRANCH   6   7
ATOM      7  C   UNL     1     -21.373   5.475   8.792  1.00  0.00     0.000 C 
BRANCH   7   8
ATOM      8  C   UNL     1     -20.305   5.853   9.829  1.00  0.00     0.000 C 
BRANCH   8   9
ATOM      9  C   UNL     1     -19.374   6.974   9.341  1.00  0.00     0.000 C 
BRANCH   9  10
ATOM     10  C   UNL     1     -18.183   7.207  10.280  1.00  0.00     0.000 C 
BRANCH  10  11
ATOM     11  C   UNL     1     -17.495   8.545   9.966  1.00  0.00     0.000 C 
BRANCH  11  12
ATOM     12  C   UNL     1     -15.982   8.524  10.245  1.00  0.00     0.000 C 
BRANCH  12  13
ATOM     13  C   UNL     1     -15.296   9.902  10.220  1.00  0.00     0.006 C 
BRANCH  13  14
ATOM     14  C   UNL     1     -15.200  10.551  11.607  1.00  0.00     0.053 C 
BRANCH  14  15
ATOM     15  C   UNL     1     -13.769  10.710  12.016  1.00  0.00     0.041 C 
ATOM     16  O   UNL     1     -13.464  10.794  13.236  1.00  0.00    -0.550 OA
ATOM     17  O   UNL     1     -12.775  10.804  11.051  1.00  0.00    -0.550 OA
ENDBRANCH  14  15
ENDBRANCH  13  14
ENDBRANCH  12  13
ENDBRANCH  11  12
ENDBRANCH  10  11
ENDBRANCH   9  10
ENDBRANCH   8   9
ENDBRANCH   7   8
ENDBRANCH   6   7
ENDBRANCH   5   6
ENDBRANCH   4   5
ENDBRANCH   3   4
ENDBRANCH   2   3
ENDBRANCH   1   2
BRANCH   1  18
ATOM     18  C   UNL     1     -21.307  -0.616  13.815  1.00  0.00     0.000 C 
BRANCH  18  19
ATOM     19  C   UNL     1     -20.401  -1.727  13.254  1.00  0.00     0.000 C 
BRANCH  19  20
ATOM     20  C   UNL     1     -20.767  -2.104  11.805  1.00  0.00     0.000 C 
BRANCH  20  21
ATOM     21  C   UNL     1     -19.619  -1.904  10.797  1.00  0.00     0.000 C 
BRANCH  21  22
ATOM     22  C   UNL     1     -20.077  -1.794   9.328  1.00  0.00     0.000 C 
BRANCH  22  23
ATOM     23  C   UNL     1     -19.661  -2.982   8.436  1.00  0.00     0.000 C 
BRANCH  23  24
ATOM     24  C   UNL     1     -18.806  -4.056   9.135  1.00  0.00    -0.000 C 
BRANCH  24  25
ATOM     25  C   UNL     1     -19.209  -5.489   8.761  1.00  0.00    -0.000 C 
BRANCH  25  26
ATOM     26  C   UNL     1     -20.645  -5.535   8.217  1.00  0.00    -0.000 C 
BRANCH  26  27
ATOM     27  C   UNL     1     -21.646  -6.157   9.208  1.00  0.00    -0.000 C 
BRANCH  27  28
ATOM     28  C   UNL     1     -22.215  -7.523   8.785  1.00  0.00    -0.000 C 
BRANCH  28  29
ATOM     29  C   UNL     1     -23.711  -7.472   8.436  1.00  0.00    -0.000 C 
BRANCH  29  30
ATOM     30  C   UNL     1     -24.214  -8.852   7.984  1.00  0.00    -0.000 C 
BRANCH  30  31
ATOM     31  C   UNL     1     -25.688  -9.090   8.347  1.00  0.00    -0.003 C 
ATOM     32  C   UNL     1     -26.059  -8.523   9.718  1.00  0.00     0.004 C 
ENDBRANCH  30  31
ENDBRANCH  29  30
ENDBRANCH  28  29
ENDBRANCH  27  28
ENDBRANCH  26  27
ENDBRANCH  25  26
ENDBRANCH  24  25
ENDBRANCH  23  24
ENDBRANCH  22  23
ENDBRANCH  21  22
ENDBRANCH  20  21
ENDBRANCH  19  20
ENDBRANCH  18  19
ENDBRANCH   1  18
TORSDOF 28
ENDMDL
MODEL 9
REMARK VINA RESULT:     0.322      1.246      3.294
REMARK INTER + INTRA:          -1.047
REMARK INTER:                  -0.107
REMARK INTRA:                  -0.941
REMARK UNBOUND:                -1.897
REMARK SMILES CCCCCCCCCCCCCCCCCCCCCCCCCCCCCC(=O)[O-]
REMARK SMILES IDX 16 1 17 2 18 3 19 4 20 5 21 6 22 7 23 8 24 9 25 10 26 11
REMARK SMILES IDX 27 12 28 13 29 14 30 15 31 16 32 17 15 18 14 19 13 20 12 21
REMARK SMILES IDX 11 22 10 23 9 24 8 25 7 26 6 27 5 28 4 29 3 30 2 31 1 32
REMARK H PARENT
REMARK Flexibility Score: inf
ROOT
ATOM      1  C   UNL     1     -20.966   1.886   8.014  1.00  0.00     0.000 C 
ENDROOT
BRANCH   1   2
ATOM      2  C   UNL     1     -20.499   1.214   6.712  1.00  0.00     0.000 C 
BRANCH   2   3
ATOM      3  C   UNL     1     -19.665  -0.058   6.958  1.00  0.00     0.000 C 
BRANCH   3   4
ATOM      4  C   UNL     1     -20.400  -1.192   7.696  1.00  0.00     0.000 C 
BRANCH   4   5
ATOM      5  C   UNL     1     -19.788  -2.579   7.429  1.00  0.00     0.000 C 
BRANCH   5   6
ATOM      6  C   UNL     1     -19.706  -3.441   8.700  1.00  0.00     0.000 C 
BRANCH   6   7
ATOM      7  C   UNL     1     -18.953  -2.749   9.847  1.00  0.00     0.000 C 
BRANCH   7   8
ATOM      8  C   UNL     1     -19.853  -1.719  10.546  1.00  0.00     0.000 C 
BRANCH   8   9
ATOM      9  C   UNL     1     -20.679  -2.330  11.688  1.00  0.00     0.000 C 
BRANCH   9  10
ATOM     10  C   UNL     1     -20.150  -1.944  13.076  1.00  0.00     0.000 C 
BRANCH  10  11
ATOM     11  C   UNL     1     -21.275  -1.365  13.947  1.00  0.00     0.000 C 
BRANCH  11  12
ATOM     12  C   UNL     1     -20.848  -0.109  14.727  1.00  0.00     0.000 C 
BRANCH  12  13
ATOM     13  C   UNL     1     -20.853   1.196  13.911  1.00  0.00     0.006 C 
BRANCH  13  14
ATOM     14  C   UNL     1     -22.003   1.266  12.898  1.00  0.00     0.053 C 
BRANCH  14  15
ATOM     15  C   UNL     1     -21.492   1.658  11.547  1.00  0.00     0.041 C 
ATOM     16  O   UNL     1     -21.938   1.095  10.511  1.00  0.00    -0.550 OA
ATOM     17  O   UNL     1     -20.495   2.618  11.431  1.00  0.00    -0.550 OA
ENDBRANCH  14  15
ENDBRANCH  13  14
ENDBRANCH  12  13
ENDBRANCH  11  12
ENDBRANCH  10  11
ENDBRANCH   9  10
ENDBRANCH   8   9
ENDBRANCH   7   8
ENDBRANCH   6   7
ENDBRANCH   5   6
ENDBRANCH   4   5
ENDBRANCH   3   4
ENDBRANCH   2   3
ENDBRANCH   1   2
BRANCH   1  18
ATOM     18  C   UNL     1     -20.746   3.406   8.008  1.00  0.00     0.000 C 
BRANCH  18  19
ATOM     19  C   UNL     1     -21.879   4.172   8.714  1.00  0.00     0.000 C 
BRANCH  19  20
ATOM     20  C   UNL     1     -21.597   5.686   8.799  1.00  0.00     0.000 C 
BRANCH  20  21
ATOM     21  C   UNL     1     -21.124   6.158  10.187  1.00  0.00     0.000 C 
BRANCH  21  22
ATOM     22  C   UNL     1     -19.606   6.018  10.421  1.00  0.00     0.000 C 
BRANCH  22  23
ATOM     23  C   UNL     1     -18.732   6.905   9.510  1.00  0.00     0.000 C 
BRANCH  23  24
ATOM     24  C   UNL     1     -18.090   8.121  10.203  1.00  0.00    -0.000 C 
BRANCH  24  25
ATOM     25  C   UNL     1     -16.630   8.355   9.789  1.00  0.00    -0.000 C 
BRANCH  25  26
ATOM     26  C   UNL     1     -15.836   9.024  10.922  1.00  0.00    -0.000 C 
BRANCH  26  27
ATOM     27  C   UNL     1     -15.031  10.250  10.452  1.00  0.00    -0.000 C 
BRANCH  27  28
ATOM     28  C   UNL     1     -14.281  11.001  11.566  1.00  0.00    -0.000 C 
BRANCH  28  29
ATOM     29  C   UNL     1     -14.281  10.250  12.906  1.00  0.00    -0.000 C 
BRANCH  29  30
ATOM     30  C   UNL     1     -13.687  11.125  14.022  1.00  0.00    -0.000 C 
BRANCH  30  31
ATOM     31  C   UNL     1     -12.204  10.817  14.286  1.00  0.00    -0.003 C 
ATOM     32  C   UNL     1     -11.373  10.768  13.004  1.00  0.00     0.004 C 
ENDBRANCH  30  31
ENDBRANCH  29  30
ENDBRANCH  28  29
ENDBRANCH  27  28
ENDBRANCH  26  27
ENDBRANCH  25  26
ENDBRANCH  24  25
ENDBRANCH  23  24
ENDBRANCH  22  23
ENDBRANCH  21  22
ENDBRANCH  20  21
ENDBRANCH  19  20
ENDBRANCH  18  19
ENDBRANCH   1  18
TORSDOF 28
ENDMDL
