MODEL 1
REMARK VINA RESULT:    -4.991      0.000      0.000
REMARK INTER + INTRA:          -5.459
REMARK INTER:                  -5.429
REMARK INTRA:                  -0.030
REMARK UNBOUND:                -0.030
REMARK SMILES O=C([O-])c1ccc(O)cc1
REMARK SMILES IDX 4 1 5 2 10 3 6 4 9 5 7 6 2 7 1 8 3 9 8 10
REMARK H PARENT 8 11
REMARK Flexibility Score: inf
ROOT
ATOM      1  C   UNL     1      22.616 -21.745  32.637  1.00  0.00    -0.003 A 
ATOM      2  C   UNL     1      22.359 -20.662  31.774  1.00  0.00     0.014 A 
ATOM      3  C   UNL     1      21.544 -22.332  33.332  1.00  0.00     0.014 A 
ATOM      4  C   UNL     1      21.055 -20.180  31.614  1.00  0.00     0.047 A 
ATOM      5  C   UNL     1      20.242 -21.847  33.167  1.00  0.00     0.047 A 
ATOM      6  C   UNL     1      19.994 -20.771  32.310  1.00  0.00     0.115 A 
ENDROOT
BRANCH   1   7
ATOM      7  C   UNL     1      23.992 -22.259  32.812  1.00  0.00     0.071 C 
ATOM      8  O   UNL     1      24.705 -22.533  31.811  1.00  0.00    -0.545 OA
ATOM      9  O   UNL     1      24.516 -22.447  34.085  1.00  0.00    -0.545 OA
ENDBRANCH   1   7
BRANCH   6  10
ATOM     10  O   UNL     1      18.693 -20.299  32.157  1.00  0.00    -0.508 OA
ATOM     11  H   UNL     1      17.952 -20.575  32.790  1.00  0.00     0.293 HD
ENDBRANCH   6  10
TORSDOF 2
ENDMDL
MODEL 2
REMARK VINA RESULT:    -4.981      0.046      1.532
REMARK INTER + INTRA:          -5.448
REMARK INTER:                  -5.417
REMARK INTRA:                  -0.031
REMARK UNBOUND:                -0.030
REMARK SMILES O=C([O-])c1ccc(O)cc1
REMARK SMILES IDX 4 1 5 2 10 3 6 4 9 5 7 6 2 7 1 8 3 9 8 10
REMARK H PARENT 8 11
REMARK Flexibility Score: inf
ROOT
ATOM      1  C   UNL     1      22.585 -21.754  32.622  1.00  0.00    -0.003 A 
ATOM      2  C   UNL     1      21.509 -22.329  33.326  1.00  0.00     0.014 A 
ATOM      3  C   UNL     1      22.336 -20.671  31.762  1.00  0.00     0.014 A 
ATOM      4  C   UNL     1      20.213 -21.827  33.168  1.00  0.00     0.047 A 
ATOM      5  C   UNL     1      21.038 -20.172  31.609  1.00  0.00     0.047 A 
ATOM      6  C   UNL     1      19.974 -20.747  32.310  1.00  0.00     0.115 A 
ENDROOT
BRANCH   1   7
ATOM      7  C   UNL     1      23.958 -22.281  32.783  1.00  0.00     0.071 C 
ATOM      8  O   UNL     1      24.671 -22.528  31.775  1.00  0.00    -0.545 OA
ATOM      9  O   UNL     1      24.480 -22.511  34.051  1.00  0.00    -0.545 OA
ENDBRANCH   1   7
BRANCH   6  10
ATOM     10  O   UNL     1      18.688 -20.240  32.146  1.00  0.00    -0.508 OA
ATOM     11  H   UNL     1      18.153 -20.413  31.304  1.00  0.00     0.293 HD
ENDBRANCH   6  10
TORSDOF 2
ENDMDL
MODEL 3
REMARK VINA RESULT:    -4.885      2.308      2.978
REMARK INTER + INTRA:          -5.344
REMARK INTER:                  -5.313
REMARK INTRA:                  -0.031
REMARK UNBOUND:                -0.030
REMARK SMILES O=C([O-])c1ccc(O)cc1
REMARK SMILES IDX 4 1 5 2 10 3 6 4 9 5 7 6 2 7 1 8 3 9 8 10
REMARK H PARENT 8 11
REMARK Flexibility Score: inf
ROOT
ATOM      1  C   UNL     1      22.314 -22.952  33.195  1.00  0.00    -0.003 A 
ATOM      2  C   UNL     1      21.046 -22.349  33.089  1.00  0.00     0.014 A 
ATOM      3  C   UNL     1      22.402 -24.355  33.217  1.00  0.00     0.014 A 
ATOM      4  C   UNL     1      19.893 -23.136  33.006  1.00  0.00     0.047 A 
ATOM      5  C   UNL     1      21.247 -25.138  33.133  1.00  0.00     0.047 A 
ATOM      6  C   UNL     1      19.991 -24.533  33.028  1.00  0.00     0.115 A 
ENDROOT
BRANCH   1   7
ATOM      7  C   UNL     1      23.538 -22.124  33.285  1.00  0.00     0.071 C 
ATOM      8  O   UNL     1      24.435 -22.397  34.125  1.00  0.00    -0.545 OA
ATOM      9  O   UNL     1      23.713 -21.034  32.441  1.00  0.00    -0.545 OA
ENDBRANCH   1   7
BRANCH   6  10
ATOM     10  O   UNL     1      18.849 -25.326  32.946  1.00  0.00    -0.508 OA
ATOM     11  H   UNL     1      18.908 -26.321  32.761  1.00  0.00     0.293 HD
ENDBRANCH   6  10
TORSDOF 2
ENDMDL
MODEL 4
REMARK VINA RESULT:    -4.795      9.257     11.028
REMARK INTER + INTRA:          -5.246
REMARK INTER:                  -5.216
REMARK INTRA:                  -0.030
REMARK UNBOUND:                -0.030
REMARK SMILES O=C([O-])c1ccc(O)cc1
REMARK SMILES IDX 4 1 5 2 10 3 6 4 9 5 7 6 2 7 1 8 3 9 8 10
REMARK H PARENT 8 11
REMARK Flexibility Score: inf
ROOT
ATOM      1  C   UNL     1      16.367 -14.007  37.956  1.00  0.00    -0.003 A 
ATOM      2  C   UNL     1      17.676 -14.505  37.812  1.00  0.00     0.014 A 
ATOM      3  C   UNL     1      15.768 -13.341  36.873  1.00  0.00     0.014 A 
ATOM      4  C   UNL     1      18.367 -14.339  36.607  1.00  0.00     0.047 A 
ATOM      5  C   UNL     1      16.462 -13.178  35.670  1.00  0.00     0.047 A 
ATOM      6  C   UNL     1      17.762 -13.675  35.533  1.00  0.00     0.115 A 
ENDROOT
BRANCH   1   7
ATOM      7  C   UNL     1      15.631 -14.178  39.229  1.00  0.00     0.071 C 
ATOM      8  O   UNL     1      16.150 -13.827  40.321  1.00  0.00    -0.545 OA
ATOM      9  O   UNL     1      14.355 -14.729  39.234  1.00  0.00    -0.545 OA
ENDBRANCH   1   7
BRANCH   6  10
ATOM     10  O   UNL     1      18.441 -13.505  34.329  1.00  0.00    -0.508 OA
ATOM     11  H   UNL     1      18.352 -14.171  33.572  1.00  0.00     0.293 HD
ENDBRANCH   6  10
TORSDOF 2
ENDMDL
MODEL 5
REMARK VINA RESULT:    -4.794      9.292     11.036
REMARK INTER + INTRA:          -5.244
REMARK INTER:                  -5.213
REMARK INTRA:                  -0.031
REMARK UNBOUND:                -0.030
REMARK SMILES O=C([O-])c1ccc(O)cc1
REMARK SMILES IDX 4 1 5 2 10 3 6 4 9 5 7 6 2 7 1 8 3 9 8 10
REMARK H PARENT 8 11
REMARK Flexibility Score: inf
ROOT
ATOM      1  C   UNL     1      16.302 -13.956  37.905  1.00  0.00    -0.003 A 
ATOM      2  C   UNL     1      15.709 -13.313  36.801  1.00  0.00     0.014 A 
ATOM      3  C   UNL     1      17.616 -14.440  37.787  1.00  0.00     0.014 A 
ATOM      4  C   UNL     1      16.420 -13.161  35.606  1.00  0.00     0.047 A 
ATOM      5  C   UNL     1      18.324 -14.284  36.590  1.00  0.00     0.047 A 
ATOM      6  C   UNL     1      17.729 -13.645  35.498  1.00  0.00     0.115 A 
ENDROOT
BRANCH   1   7
ATOM      7  C   UNL     1      15.555 -14.121  39.171  1.00  0.00     0.071 C 
ATOM      8  O   UNL     1      16.114 -13.901  40.278  1.00  0.00    -0.545 OA
ATOM      9  O   UNL     1      14.224 -14.523  39.156  1.00  0.00    -0.545 OA
ENDBRANCH   1   7
BRANCH   6  10
ATOM     10  O   UNL     1      18.446 -13.499  34.313  1.00  0.00    -0.508 OA
ATOM     11  H   UNL     1      18.482 -12.613  33.822  1.00  0.00     0.293 HD
ENDBRANCH   6  10
TORSDOF 2
ENDMDL
MODEL 6
REMARK VINA RESULT:    -4.785      2.642      3.851
REMARK INTER + INTRA:          -5.235
REMARK INTER:                  -5.203
REMARK INTRA:                  -0.032
REMARK UNBOUND:                -0.030
REMARK SMILES O=C([O-])c1ccc(O)cc1
REMARK SMILES IDX 4 1 5 2 10 3 6 4 9 5 7 6 2 7 1 8 3 9 8 10
REMARK H PARENT 8 11
REMARK Flexibility Score: inf
ROOT
ATOM      1  C   UNL     1      21.381 -23.713  33.200  1.00  0.00    -0.003 A 
ATOM      2  C   UNL     1      20.750 -22.456  33.153  1.00  0.00     0.014 A 
ATOM      3  C   UNL     1      22.758 -23.796  32.926  1.00  0.00     0.014 A 
ATOM      4  C   UNL     1      21.484 -21.307  32.840  1.00  0.00     0.047 A 
ATOM      5  C   UNL     1      23.488 -22.644  32.614  1.00  0.00     0.047 A 
ATOM      6  C   UNL     1      22.855 -21.399  32.570  1.00  0.00     0.115 A 
ENDROOT
BRANCH   1   7
ATOM      7  C   UNL     1      20.610 -24.933  33.530  1.00  0.00     0.071 C 
ATOM      8  O   UNL     1      21.117 -25.837  34.245  1.00  0.00    -0.545 OA
ATOM      9  O   UNL     1      19.315 -25.097  33.052  1.00  0.00    -0.545 OA
ENDBRANCH   1   7
BRANCH   6  10
ATOM     10  O   UNL     1      23.596 -20.261  32.257  1.00  0.00    -0.508 OA
ATOM     11  H   UNL     1      24.602 -20.236  32.371  1.00  0.00     0.293 HD
ENDBRANCH   6  10
TORSDOF 2
ENDMDL
MODEL 7
REMARK VINA RESULT:    -4.702      2.180      2.636
REMARK INTER + INTRA:          -5.145
REMARK INTER:                  -5.115
REMARK INTRA:                  -0.030
REMARK UNBOUND:                -0.030
REMARK SMILES O=C([O-])c1ccc(O)cc1
REMARK SMILES IDX 4 1 5 2 10 3 6 4 9 5 7 6 2 7 1 8 3 9 8 10
REMARK H PARENT 8 11
REMARK Flexibility Score: inf
ROOT
ATOM      1  C   UNL     1      22.017 -23.988  33.168  1.00  0.00    -0.003 A 
ATOM      2  C   UNL     1      22.589 -22.702  33.200  1.00  0.00     0.014 A 
ATOM      3  C   UNL     1      20.619 -24.110  33.077  1.00  0.00     0.014 A 
ATOM      4  C   UNL     1      21.777 -21.565  33.143  1.00  0.00     0.047 A 
ATOM      5  C   UNL     1      19.811 -22.970  33.018  1.00  0.00     0.047 A 
ATOM      6  C   UNL     1      20.386 -21.696  33.051  1.00  0.00     0.115 A 
ENDROOT
BRANCH   1   7
ATOM      7  C   UNL     1      22.871 -25.195  33.230  1.00  0.00     0.071 C 
ATOM      8  O   UNL     1      22.681 -26.068  34.118  1.00  0.00    -0.545 OA
ATOM      9  O   UNL     1      23.894 -25.381  32.308  1.00  0.00    -0.545 OA
ENDBRANCH   1   7
BRANCH   6  10
ATOM     10  O   UNL     1      19.568 -20.570  32.993  1.00  0.00    -0.508 OA
ATOM     11  H   UNL     1      18.565 -20.650  32.870  1.00  0.00     0.293 HD
ENDBRANCH   6  10
TORSDOF 2
ENDMDL
MODEL 8
REMARK VINA RESULT:    -4.666      8.436      9.863
REMARK INTER + INTRA:          -5.106
REMARK INTER:                  -5.074
REMARK INTRA:                  -0.031
REMARK UNBOUND:                -0.030
REMARK SMILES O=C([O-])c1ccc(O)cc1
REMARK SMILES IDX 4 1 5 2 10 3 6 4 9 5 7 6 2 7 1 8 3 9 8 10
REMARK H PARENT 8 11
REMARK Flexibility Score: inf
ROOT
ATOM      1  C   UNL     1      16.301 -15.938  37.256  1.00  0.00    -0.003 A 
ATOM      2  C   UNL     1      16.497 -15.617  35.900  1.00  0.00     0.014 A 
ATOM      3  C   UNL     1      15.881 -14.930  38.142  1.00  0.00     0.014 A 
ATOM      4  C   UNL     1      16.277 -14.314  35.443  1.00  0.00     0.047 A 
ATOM      5  C   UNL     1      15.661 -13.628  37.680  1.00  0.00     0.047 A 
ATOM      6  C   UNL     1      15.858 -13.316  36.332  1.00  0.00     0.115 A 
ENDROOT
BRANCH   1   7
ATOM      7  C   UNL     1      16.533 -17.315  37.747  1.00  0.00     0.071 C 
ATOM      8  O   UNL     1      15.715 -17.861  38.534  1.00  0.00    -0.545 OA
ATOM      9  O   UNL     1      17.659 -18.024  37.346  1.00  0.00    -0.545 OA
ENDBRANCH   1   7
BRANCH   6  10
ATOM     10  O   UNL     1      15.635 -12.015  35.887  1.00  0.00    -0.508 OA
ATOM     11  H   UNL     1      16.390 -11.442  35.529  1.00  0.00     0.293 HD
ENDBRANCH   6  10
TORSDOF 2
ENDMDL
MODEL 9
REMARK VINA RESULT:    -4.644      2.033      4.799
REMARK INTER + INTRA:          -5.081
REMARK INTER:                  -5.045
REMARK INTRA:                  -0.036
REMARK UNBOUND:                -0.030
REMARK SMILES O=C([O-])c1ccc(O)cc1
REMARK SMILES IDX 4 1 5 2 10 3 6 4 9 5 7 6 2 7 1 8 3 9 8 10
REMARK H PARENT 8 11
REMARK Flexibility Score: inf
ROOT
ATOM      1  C   UNL     1      21.870 -23.183  33.174  1.00  0.00    -0.003 A 
ATOM      2  C   UNL     1      22.356 -24.502  33.104  1.00  0.00     0.014 A 
ATOM      3  C   UNL     1      22.788 -22.119  33.212  1.00  0.00     0.014 A 
ATOM      4  C   UNL     1      23.733 -24.748  33.072  1.00  0.00     0.047 A 
ATOM      5  C   UNL     1      24.164 -22.369  33.179  1.00  0.00     0.047 A 
ATOM      6  C   UNL     1      24.640 -23.682  33.109  1.00  0.00     0.115 A 
ENDROOT
BRANCH   1   7
ATOM      7  C   UNL     1      20.415 -22.916  33.210  1.00  0.00     0.071 C 
ATOM      8  O   UNL     1      19.588 -23.862  33.118  1.00  0.00    -0.545 OA
ATOM      9  O   UNL     1      19.941 -21.617  33.344  1.00  0.00    -0.545 OA
ENDBRANCH   1   7
BRANCH   6  10
ATOM     10  O   UNL     1      26.013 -23.915  33.078  1.00  0.00    -0.508 OA
ATOM     11  H   UNL     1      26.492 -24.141  32.214  1.00  0.00     0.293 HD
ENDBRANCH   6  10
TORSDOF 2
ENDMDL
