MODEL 1
REMARK VINA RESULT:    -4.597      0.000      0.000
REMARK INTER + INTRA:          -5.252
REMARK INTER:                  -5.000
REMARK INTRA:                  -0.252
REMARK UNBOUND:                -0.252
REMARK SMILES CC(=O)c1cc(C)ccc1O
REMARK SMILES IDX 7 1 6 2 5 3 4 4 10 5 9 6 8 7 2 8 3 9 1 10 11 11
REMARK H PARENT 11 12
REMARK Flexibility Score: inf
ROOT
ATOM      1  C   UNL     1       2.315  -3.388  22.248  1.00  0.00     0.044 C 
ATOM      2  C   UNL     1       2.283  -4.041  20.898  1.00  0.00    -0.050 A 
ATOM      3  C   UNL     1       1.687  -3.384  19.811  1.00  0.00     0.019 A 
ATOM      4  C   UNL     1       1.690  -3.964  18.528  1.00  0.00     0.059 A 
ATOM      5  C   UNL     1       2.293  -5.234  18.349  1.00  0.00     0.126 A 
ATOM      6  C   UNL     1       2.916  -5.864  19.432  1.00  0.00     0.047 A 
ATOM      7  C   UNL     1       2.918  -5.272  20.696  1.00  0.00     0.007 A 
ENDROOT
BRANCH   4   8
ATOM      8  C   UNL     1       1.099  -3.211  17.396  1.00  0.00     0.163 C 
ATOM      9  O   UNL     1       1.835  -2.812  16.454  1.00  0.00    -0.294 OA
ATOM     10  C   UNL     1      -0.350  -2.829  17.394  1.00  0.00     0.093 C 
ENDBRANCH   4   8
BRANCH   5  11
ATOM     11  O   UNL     1       2.270  -5.909  17.127  1.00  0.00    -0.507 OA
ATOM     12  H   UNL     1       2.535  -5.481  16.250  1.00  0.00     0.293 HD
ENDBRANCH   5  11
TORSDOF 2
ENDMDL
MODEL 2
REMARK VINA RESULT:    -4.591      4.350      5.587
REMARK INTER + INTRA:          -5.246
REMARK INTER:                  -4.942
REMARK INTRA:                  -0.303
REMARK UNBOUND:                -0.252
REMARK SMILES CC(=O)c1cc(C)ccc1O
REMARK SMILES IDX 7 1 6 2 5 3 4 4 10 5 9 6 8 7 2 8 3 9 1 10 11 11
REMARK H PARENT 11 12
REMARK Flexibility Score: inf
ROOT
ATOM      1  C   UNL     1       2.658  -5.372  20.005  1.00  0.00     0.044 C 
ATOM      2  C   UNL     1       2.618  -5.323  21.504  1.00  0.00    -0.050 A 
ATOM      3  C   UNL     1       1.613  -4.597  22.159  1.00  0.00     0.019 A 
ATOM      4  C   UNL     1       1.535  -4.580  23.564  1.00  0.00     0.059 A 
ATOM      5  C   UNL     1       2.499  -5.299  24.315  1.00  0.00     0.126 A 
ATOM      6  C   UNL     1       3.475  -6.049  23.651  1.00  0.00     0.047 A 
ATOM      7  C   UNL     1       3.534  -6.068  22.256  1.00  0.00     0.007 A 
ENDROOT
BRANCH   4   8
ATOM      8  C   UNL     1       0.424  -3.846  24.215  1.00  0.00     0.163 C 
ATOM      9  O   UNL     1       0.631  -3.210  25.283  1.00  0.00    -0.294 OA
ATOM     10  C   UNL     1      -0.973  -3.922  23.678  1.00  0.00     0.093 C 
ENDBRANCH   4   8
BRANCH   5  11
ATOM     11  O   UNL     1       2.536  -5.269  25.710  1.00  0.00    -0.507 OA
ATOM     12  H   UNL     1       2.840  -6.051  26.276  1.00  0.00     0.293 HD
ENDBRANCH   5  11
TORSDOF 2
ENDMDL
MODEL 3
REMARK VINA RESULT:    -4.470      1.731      3.156
REMARK INTER + INTRA:          -5.114
REMARK INTER:                  -4.899
REMARK INTRA:                  -0.215
REMARK UNBOUND:                -0.252
REMARK SMILES CC(=O)c1cc(C)ccc1O
REMARK SMILES IDX 7 1 6 2 5 3 4 4 10 5 9 6 8 7 2 8 3 9 1 10 11 11
REMARK H PARENT 11 12
REMARK Flexibility Score: inf
ROOT
ATOM      1  C   UNL     1       3.793  -6.186  23.220  1.00  0.00     0.044 C 
ATOM      2  C   UNL     1       3.061  -5.176  22.386  1.00  0.00    -0.050 A 
ATOM      3  C   UNL     1       2.989  -5.329  20.995  1.00  0.00     0.019 A 
ATOM      4  C   UNL     1       2.267  -4.415  20.204  1.00  0.00     0.059 A 
ATOM      5  C   UNL     1       1.621  -3.322  20.834  1.00  0.00     0.126 A 
ATOM      6  C   UNL     1       1.669  -3.198  22.227  1.00  0.00     0.047 A 
ATOM      7  C   UNL     1       2.377  -4.119  23.000  1.00  0.00     0.007 A 
ENDROOT
BRANCH   4   8
ATOM      8  C   UNL     1       2.169  -4.646  18.743  1.00  0.00     0.163 C 
ATOM      9  O   UNL     1       1.674  -3.758  17.998  1.00  0.00    -0.294 OA
ATOM     10  C   UNL     1       2.561  -5.960  18.140  1.00  0.00     0.093 C 
ENDBRANCH   4   8
BRANCH   5  11
ATOM     11  O   UNL     1       0.951  -2.331  20.114  1.00  0.00    -0.507 OA
ATOM     12  H   UNL     1       0.065  -1.936  20.402  1.00  0.00     0.293 HD
ENDBRANCH   5  11
TORSDOF 2
ENDMDL
MODEL 4
REMARK VINA RESULT:    -4.402      3.504      5.131
REMARK INTER + INTRA:          -5.040
REMARK INTER:                  -4.752
REMARK INTRA:                  -0.289
REMARK UNBOUND:                -0.252
REMARK SMILES CC(=O)c1cc(C)ccc1O
REMARK SMILES IDX 7 1 6 2 5 3 4 4 10 5 9 6 8 7 2 8 3 9 1 10 11 11
REMARK H PARENT 11 12
REMARK Flexibility Score: inf
ROOT
ATOM      1  C   UNL     1       3.870  -6.518  23.006  1.00  0.00     0.044 C 
ATOM      2  C   UNL     1       2.859  -5.490  22.592  1.00  0.00    -0.050 A 
ATOM      3  C   UNL     1       1.785  -5.178  23.436  1.00  0.00     0.019 A 
ATOM      4  C   UNL     1       0.853  -4.183  23.082  1.00  0.00     0.059 A 
ATOM      5  C   UNL     1       1.007  -3.506  21.846  1.00  0.00     0.126 A 
ATOM      6  C   UNL     1       2.103  -3.801  21.027  1.00  0.00     0.047 A 
ATOM      7  C   UNL     1       3.026  -4.780  21.397  1.00  0.00     0.007 A 
ENDROOT
BRANCH   4   8
ATOM      8  C   UNL     1      -0.235  -3.844  24.030  1.00  0.00     0.163 C 
ATOM      9  O   UNL     1      -1.437  -4.011  23.692  1.00  0.00    -0.294 OA
ATOM     10  C   UNL     1       0.062  -3.213  25.356  1.00  0.00     0.093 C 
ENDBRANCH   4   8
BRANCH   5  11
ATOM     11  O   UNL     1       0.085  -2.563  21.388  1.00  0.00    -0.507 OA
ATOM     12  H   UNL     1      -0.330  -2.594  20.466  1.00  0.00     0.293 HD
ENDBRANCH   5  11
TORSDOF 2
ENDMDL
MODEL 5
REMARK VINA RESULT:    -4.337      5.993      8.909
REMARK INTER + INTRA:          -4.970
REMARK INTER:                  -4.694
REMARK INTRA:                  -0.276
REMARK UNBOUND:                -0.252
REMARK SMILES CC(=O)c1cc(C)ccc1O
REMARK SMILES IDX 7 1 6 2 5 3 4 4 10 5 9 6 8 7 2 8 3 9 1 10 11 11
REMARK H PARENT 11 12
REMARK Flexibility Score: inf
ROOT
ATOM      1  C   UNL     1      -5.609   0.259  14.981  1.00  0.00     0.044 C 
ATOM      2  C   UNL     1      -5.228   0.626  16.384  1.00  0.00    -0.050 A 
ATOM      3  C   UNL     1      -4.262  -0.121  17.071  1.00  0.00     0.019 A 
ATOM      4  C   UNL     1      -3.861   0.238  18.372  1.00  0.00     0.059 A 
ATOM      5  C   UNL     1      -4.461   1.365  18.989  1.00  0.00     0.126 A 
ATOM      6  C   UNL     1      -5.398   2.125  18.281  1.00  0.00     0.047 A 
ATOM      7  C   UNL     1      -5.777   1.765  16.987  1.00  0.00     0.007 A 
ENDROOT
BRANCH   4   8
ATOM      8  C   UNL     1      -2.795  -0.546  19.041  1.00  0.00     0.163 C 
ATOM      9  O   UNL     1      -2.713  -0.552  20.298  1.00  0.00    -0.294 OA
ATOM     10  C   UNL     1      -1.746  -1.261  18.245  1.00  0.00     0.093 C 
ENDBRANCH   4   8
BRANCH   5  11
ATOM     11  O   UNL     1      -4.174   1.740  20.303  1.00  0.00    -0.507 OA
ATOM     12  H   UNL     1      -4.846   1.681  21.057  1.00  0.00     0.293 HD
ENDBRANCH   5  11
TORSDOF 2
ENDMDL
MODEL 6
REMARK VINA RESULT:    -4.233      3.351      5.304
REMARK INTER + INTRA:          -4.857
REMARK INTER:                  -4.588
REMARK INTRA:                  -0.269
REMARK UNBOUND:                -0.252
REMARK SMILES CC(=O)c1cc(C)ccc1O
REMARK SMILES IDX 7 1 6 2 5 3 4 4 10 5 9 6 8 7 2 8 3 9 1 10 11 11
REMARK H PARENT 11 12
REMARK Flexibility Score: inf
ROOT
ATOM      1  C   UNL     1       2.623  -5.794  18.371  1.00  0.00     0.044 C 
ATOM      2  C   UNL     1       2.493  -5.048  19.666  1.00  0.00    -0.050 A 
ATOM      3  C   UNL     1       3.064  -5.564  20.838  1.00  0.00     0.019 A 
ATOM      4  C   UNL     1       2.990  -4.853  22.051  1.00  0.00     0.059 A 
ATOM      5  C   UNL     1       2.314  -3.607  22.077  1.00  0.00     0.126 A 
ATOM      6  C   UNL     1       1.779  -3.085  20.894  1.00  0.00     0.047 A 
ATOM      7  C   UNL     1       1.871  -3.794  19.696  1.00  0.00     0.007 A 
ENDROOT
BRANCH   4   8
ATOM      8  C   UNL     1       3.656  -5.408  23.253  1.00  0.00     0.163 C 
ATOM      9  O   UNL     1       3.910  -4.658  24.233  1.00  0.00    -0.294 OA
ATOM     10  C   UNL     1       4.123  -6.831  23.291  1.00  0.00     0.093 C 
ENDBRANCH   4   8
BRANCH   5  11
ATOM     11  O   UNL     1       2.130  -2.879  23.254  1.00  0.00    -0.507 OA
ATOM     12  H   UNL     1       2.878  -2.389  23.727  1.00  0.00     0.293 HD
ENDBRANCH   5  11
TORSDOF 2
ENDMDL
MODEL 7
REMARK VINA RESULT:    -4.218      3.989      5.804
REMARK INTER + INTRA:          -4.840
REMARK INTER:                  -4.532
REMARK INTRA:                  -0.308
REMARK UNBOUND:                -0.252
REMARK SMILES CC(=O)c1cc(C)ccc1O
REMARK SMILES IDX 7 1 6 2 5 3 4 4 10 5 9 6 8 7 2 8 3 9 1 10 11 11
REMARK H PARENT 11 12
REMARK Flexibility Score: inf
ROOT
ATOM      1  C   UNL     1      -1.471  -3.561  23.747  1.00  0.00     0.044 C 
ATOM      2  C   UNL     1      -0.031  -3.856  24.050  1.00  0.00    -0.050 A 
ATOM      3  C   UNL     1       0.725  -4.650  23.177  1.00  0.00     0.019 A 
ATOM      4  C   UNL     1       2.088  -4.898  23.424  1.00  0.00     0.059 A 
ATOM      5  C   UNL     1       2.689  -4.344  24.582  1.00  0.00     0.126 A 
ATOM      6  C   UNL     1       1.934  -3.523  25.428  1.00  0.00     0.047 A 
ATOM      7  C   UNL     1       0.587  -3.275  25.164  1.00  0.00     0.007 A 
ENDROOT
BRANCH   4   8
ATOM      8  C   UNL     1       2.865  -5.696  22.445  1.00  0.00     0.163 C 
ATOM      9  O   UNL     1       3.692  -6.556  22.850  1.00  0.00    -0.294 OA
ATOM     10  C   UNL     1       2.756  -5.434  20.974  1.00  0.00     0.093 C 
ENDBRANCH   4   8
BRANCH   5  11
ATOM     11  O   UNL     1       4.013  -4.605  24.938  1.00  0.00    -0.507 OA
ATOM     12  H   UNL     1       4.776  -4.615  24.274  1.00  0.00     0.293 HD
ENDBRANCH   5  11
TORSDOF 2
ENDMDL
MODEL 8
REMARK VINA RESULT:    -4.034      3.289      4.104
REMARK INTER + INTRA:          -4.640
REMARK INTER:                  -4.337
REMARK INTRA:                  -0.303
REMARK UNBOUND:                -0.252
REMARK SMILES CC(=O)c1cc(C)ccc1O
REMARK SMILES IDX 7 1 6 2 5 3 4 4 10 5 9 6 8 7 2 8 3 9 1 10 11 11
REMARK H PARENT 11 12
REMARK Flexibility Score: inf
ROOT
ATOM      1  C   UNL     1       3.593  -5.011  26.023  1.00  0.00     0.044 C 
ATOM      2  C   UNL     1       3.286  -5.080  24.556  1.00  0.00    -0.050 A 
ATOM      3  C   UNL     1       2.307  -4.245  24.001  1.00  0.00     0.019 A 
ATOM      4  C   UNL     1       2.040  -4.266  22.618  1.00  0.00     0.059 A 
ATOM      5  C   UNL     1       2.769  -5.157  21.791  1.00  0.00     0.126 A 
ATOM      6  C   UNL     1       3.769  -5.959  22.350  1.00  0.00     0.047 A 
ATOM      7  C   UNL     1       4.032  -5.919  23.720  1.00  0.00     0.007 A 
ENDROOT
BRANCH   4   8
ATOM      8  C   UNL     1       1.035  -3.327  22.064  1.00  0.00     0.163 C 
ATOM      9  O   UNL     1       1.230  -2.789  20.942  1.00  0.00    -0.294 OA
ATOM     10  C   UNL     1      -0.171  -2.927  22.858  1.00  0.00     0.093 C 
ENDBRANCH   4   8
BRANCH   5  11
ATOM     11  O   UNL     1       2.511  -5.292  20.426  1.00  0.00    -0.507 OA
ATOM     12  H   UNL     1       2.993  -5.953  19.831  1.00  0.00     0.293 HD
ENDBRANCH   5  11
TORSDOF 2
ENDMDL
MODEL 9
REMARK VINA RESULT:    -3.924      3.897      5.631
REMARK INTER + INTRA:          -4.521
REMARK INTER:                  -4.210
REMARK INTRA:                  -0.311
REMARK UNBOUND:                -0.252
REMARK SMILES CC(=O)c1cc(C)ccc1O
REMARK SMILES IDX 7 1 6 2 5 3 4 4 10 5 9 6 8 7 2 8 3 9 1 10 11 11
REMARK H PARENT 11 12
REMARK Flexibility Score: inf
ROOT
ATOM      1  C   UNL     1       1.124  -2.639  20.324  1.00  0.00     0.044 C 
ATOM      2  C   UNL     1       1.917  -3.423  21.328  1.00  0.00    -0.050 A 
ATOM      3  C   UNL     1       1.948  -3.021  22.671  1.00  0.00     0.019 A 
ATOM      4  C   UNL     1       2.650  -3.771  23.633  1.00  0.00     0.059 A 
ATOM      5  C   UNL     1       3.343  -4.938  23.223  1.00  0.00     0.126 A 
ATOM      6  C   UNL     1       3.276  -5.350  21.887  1.00  0.00     0.047 A 
ATOM      7  C   UNL     1       2.565  -4.603  20.946  1.00  0.00     0.007 A 
ENDROOT
BRANCH   4   8
ATOM      8  C   UNL     1       2.610  -3.342  25.052  1.00  0.00     0.163 C 
ATOM      9  O   UNL     1       3.682  -3.215  25.700  1.00  0.00    -0.294 OA
ATOM     10  C   UNL     1       1.306  -3.148  25.764  1.00  0.00     0.093 C 
ENDBRANCH   4   8
BRANCH   5  11
ATOM     11  O   UNL     1       4.124  -5.693  24.100  1.00  0.00    -0.507 OA
ATOM     12  H   UNL     1       5.124  -5.574  24.197  1.00  0.00     0.293 HD
ENDBRANCH   5  11
TORSDOF 2
ENDMDL
