MODEL 1
REMARK VINA RESULT:    -4.061      0.000      0.000
REMARK INTER + INTRA:          -4.798
REMARK INTER:                  -4.892
REMARK INTRA:                   0.094
REMARK UNBOUND:                 0.094
REMARK SMILES O=c1c(O)c(-c2ccc(O)c(O)c2)oc2cc(O)cc(O)c12
REMARK SMILES IDX 5 1 3 2 2 3 1 4 22 5 20 6 19 7 17 8 16 9 15 10 14 11 6 12
REMARK SMILES IDX 7 13 8 14 9 15 13 16 11 17 10 18 12 20 4 22 21 24 18 26
REMARK H PARENT 10 19 12 21 4 23 21 25 18 27
REMARK Flexibility Score: inf
ROOT
ATOM      1  C   UNL     1       1.523  16.562  19.052  1.00  0.00     0.180 A 
ATOM      2  C   UNL     1       1.781  16.265  20.402  1.00  0.00     0.208 A 
ATOM      3  C   UNL     1       1.829  14.921  20.806  1.00  0.00     0.238 A 
ATOM      4  O   UNL     1       2.008  14.664  22.025  1.00  0.00    -0.285 OA
ATOM      5  C   UNL     1       1.636  13.892  19.855  1.00  0.00     0.111 A 
ATOM      6  C   UNL     1       1.703  12.496  20.145  1.00  0.00     0.134 A 
ATOM      7  C   UNL     1       1.366  11.567  19.153  1.00  0.00     0.093 A 
ATOM      8  C   UNL     1       1.026  11.982  17.863  1.00  0.00     0.123 A 
ATOM      9  C   UNL     1       1.015  13.340  17.553  1.00  0.00     0.094 A 
ATOM     10  C   UNL     1       1.312  14.292  18.531  1.00  0.00     0.146 A 
ATOM     11  O   UNL     1       1.279  15.576  18.197  1.00  0.00    -0.452 OA
ENDROOT
BRANCH   1  12
ATOM     12  C   UNL     1       1.480  17.953  18.546  1.00  0.00     0.025 A 
ATOM     13  C   UNL     1       2.120  18.315  17.348  1.00  0.00     0.016 A 
ATOM     14  C   UNL     1       2.045  19.629  16.876  1.00  0.00     0.051 A 
ATOM     15  C   UNL     1       1.324  20.594  17.583  1.00  0.00     0.157 A 
ATOM     16  C   UNL     1       0.738  18.921  19.243  1.00  0.00     0.062 A 
ATOM     17  C   UNL     1       0.664  20.240  18.772  1.00  0.00     0.158 A 
BRANCH  15  18
ATOM     18  O   UNL     1       1.270  21.897  17.089  1.00  0.00    -0.504 OA
ATOM     19  H   UNL     1       2.085  22.363  16.708  1.00  0.00     0.293 HD
ENDBRANCH  15  18
BRANCH  17  20
ATOM     20  O   UNL     1      -0.064  21.196  19.478  1.00  0.00    -0.504 OA
ATOM     21  H   UNL     1      -0.143  21.164  20.488  1.00  0.00     0.293 HD
ENDBRANCH  17  20
ENDBRANCH   1  12
BRANCH   2  22
ATOM     22  O   UNL     1       1.948  17.297  21.329  1.00  0.00    -0.502 OA
ATOM     23  H   UNL     1       2.862  17.617  21.630  1.00  0.00     0.293 HD
ENDBRANCH   2  22
BRANCH   6  24
ATOM     24  O   UNL     1       2.120  11.974  21.373  1.00  0.00    -0.507 OA
ATOM     25  H   UNL     1       2.404  11.017  21.524  1.00  0.00     0.293 HD
ENDBRANCH   6  24
BRANCH   8  26
ATOM     26  O   UNL     1       0.706  11.050  16.878  1.00  0.00    -0.508 OA
ATOM     27  H   UNL     1       0.638  11.312  15.902  1.00  0.00     0.293 HD
ENDBRANCH   8  26
TORSDOF 6
ENDMDL
MODEL 2
REMARK VINA RESULT:    -4.047      2.632      8.253
REMARK INTER + INTRA:          -4.781
REMARK INTER:                  -4.739
REMARK INTRA:                  -0.041
REMARK UNBOUND:                 0.094
REMARK SMILES O=c1c(O)c(-c2ccc(O)c(O)c2)oc2cc(O)cc(O)c12
REMARK SMILES IDX 5 1 3 2 2 3 1 4 22 5 20 6 19 7 17 8 16 9 15 10 14 11 6 12
REMARK SMILES IDX 7 13 8 14 9 15 13 16 11 17 10 18 12 20 4 22 21 24 18 26
REMARK H PARENT 10 19 12 21 4 23 21 25 18 27
REMARK Flexibility Score: inf
ROOT
ATOM      1  C   UNL     1       0.859  19.567  19.601  1.00  0.00     0.180 A 
ATOM      2  C   UNL     1       0.279  19.840  18.350  1.00  0.00     0.208 A 
ATOM      3  C   UNL     1       0.070  21.176  17.974  1.00  0.00     0.238 A 
ATOM      4  O   UNL     1      -0.499  21.412  16.876  1.00  0.00    -0.285 OA
ATOM      5  C   UNL     1       0.457  22.222  18.844  1.00  0.00     0.111 A 
ATOM      6  C   UNL     1       0.329  23.613  18.548  1.00  0.00     0.134 A 
ATOM      7  C   UNL     1       0.624  24.559  19.536  1.00  0.00     0.093 A 
ATOM      8  C   UNL     1       1.105  24.168  20.788  1.00  0.00     0.123 A 
ATOM      9  C   UNL     1       1.290  22.816  21.066  1.00  0.00     0.094 A 
ATOM     10  C   UNL     1       0.970  21.846  20.113  1.00  0.00     0.146 A 
ATOM     11  O   UNL     1       1.151  20.568  20.423  1.00  0.00    -0.452 OA
ENDROOT
BRANCH   1  12
ATOM     12  C   UNL     1       1.133  18.185  20.058  1.00  0.00     0.025 A 
ATOM     13  C   UNL     1       1.847  17.278  19.256  1.00  0.00     0.016 A 
ATOM     14  C   UNL     1       2.116  15.987  19.719  1.00  0.00     0.051 A 
ATOM     15  C   UNL     1       1.689  15.586  20.988  1.00  0.00     0.157 A 
ATOM     16  C   UNL     1       0.725  17.787  21.341  1.00  0.00     0.062 A 
ATOM     17  C   UNL     1       0.992  16.491  21.807  1.00  0.00     0.158 A 
BRANCH  15  18
ATOM     18  O   UNL     1       1.971  14.291  21.421  1.00  0.00    -0.504 OA
ATOM     19  H   UNL     1       1.567  13.907  22.267  1.00  0.00     0.293 HD
ENDBRANCH  15  18
BRANCH  17  20
ATOM     20  O   UNL     1       0.570  16.101  23.077  1.00  0.00    -0.504 OA
ATOM     21  H   UNL     1       0.452  16.773  23.826  1.00  0.00     0.293 HD
ENDBRANCH  17  20
ENDBRANCH   1  12
BRANCH   2  22
ATOM     22  O   UNL     1      -0.116  18.791  17.515  1.00  0.00    -0.502 OA
ATOM     23  H   UNL     1       0.144  18.746  16.537  1.00  0.00     0.293 HD
ENDBRANCH   2  22
BRANCH   6  24
ATOM     24  O   UNL     1      -0.054  24.113  17.299  1.00  0.00    -0.507 OA
ATOM     25  H   UNL     1       0.256  24.992  16.913  1.00  0.00     0.293 HD
ENDBRANCH   6  24
BRANCH   8  26
ATOM     26  O   UNL     1       1.411  25.118  21.761  1.00  0.00    -0.508 OA
ATOM     27  H   UNL     1       2.315  25.575  21.790  1.00  0.00     0.293 HD
ENDBRANCH   8  26
TORSDOF 6
ENDMDL
MODEL 3
REMARK VINA RESULT:    -3.918      3.469      8.638
REMARK INTER + INTRA:          -4.625
REMARK INTER:                  -4.656
REMARK INTRA:                   0.030
REMARK UNBOUND:                 0.094
REMARK SMILES O=c1c(O)c(-c2ccc(O)c(O)c2)oc2cc(O)cc(O)c12
REMARK SMILES IDX 5 1 3 2 2 3 1 4 22 5 20 6 19 7 17 8 16 9 15 10 14 11 6 12
REMARK SMILES IDX 7 13 8 14 9 15 13 16 11 17 10 18 12 20 4 22 21 24 18 26
REMARK H PARENT 10 19 12 21 4 23 21 25 18 27
REMARK Flexibility Score: inf
ROOT
ATOM      1  C   UNL     1       0.807  21.040  19.753  1.00  0.00     0.180 A 
ATOM      2  C   UNL     1       1.443  22.063  19.028  1.00  0.00     0.208 A 
ATOM      3  C   UNL     1       1.603  23.323  19.627  1.00  0.00     0.238 A 
ATOM      4  O   UNL     1       2.125  24.249  18.953  1.00  0.00    -0.285 OA
ATOM      5  C   UNL     1       1.143  23.540  20.947  1.00  0.00     0.111 A 
ATOM      6  C   UNL     1       1.289  24.764  21.666  1.00  0.00     0.134 A 
ATOM      7  C   UNL     1       0.679  24.907  22.918  1.00  0.00     0.093 A 
ATOM      8  C   UNL     1      -0.017  23.847  23.505  1.00  0.00     0.123 A 
ATOM      9  C   UNL     1      -0.115  22.629  22.837  1.00  0.00     0.094 A 
ATOM     10  C   UNL     1       0.452  22.467  21.571  1.00  0.00     0.146 A 
ATOM     11  O   UNL     1       0.326  21.294  20.964  1.00  0.00    -0.452 OA
ENDROOT
BRANCH   1  12
ATOM     12  C   UNL     1       0.622  19.680  19.199  1.00  0.00     0.025 A 
ATOM     13  C   UNL     1       0.086  19.479  17.915  1.00  0.00     0.016 A 
ATOM     14  C   UNL     1      -0.056  18.186  17.403  1.00  0.00     0.051 A 
ATOM     15  C   UNL     1       0.344  17.079  18.155  1.00  0.00     0.157 A 
ATOM     16  C   UNL     1       1.044  18.566  19.944  1.00  0.00     0.062 A 
ATOM     17  C   UNL     1       0.901  17.268  19.431  1.00  0.00     0.158 A 
BRANCH  15  18
ATOM     18  O   UNL     1       0.189  15.802  17.618  1.00  0.00    -0.504 OA
ATOM     19  H   UNL     1      -0.406  15.623  16.817  1.00  0.00     0.293 HD
ENDBRANCH  15  18
BRANCH  17  20
ATOM     20  O   UNL     1       1.310  16.168  20.184  1.00  0.00    -0.504 OA
ATOM     21  H   UNL     1       2.020  15.529  19.847  1.00  0.00     0.293 HD
ENDBRANCH  17  20
ENDBRANCH   1  12
BRANCH   2  22
ATOM     22  O   UNL     1       1.871  21.834  17.717  1.00  0.00    -0.502 OA
ATOM     23  H   UNL     1       2.800  21.494  17.500  1.00  0.00     0.293 HD
ENDBRANCH   2  22
BRANCH   6  24
ATOM     24  O   UNL     1       2.041  25.852  21.211  1.00  0.00    -0.507 OA
ATOM     25  H   UNL     1       3.048  25.871  21.156  1.00  0.00     0.293 HD
ENDBRANCH   6  24
BRANCH   8  26
ATOM     26  O   UNL     1      -0.608  23.993  24.759  1.00  0.00    -0.508 OA
ATOM     27  H   UNL     1      -1.103  24.839  25.016  1.00  0.00     0.293 HD
ENDBRANCH   8  26
TORSDOF 6
ENDMDL
MODEL 4
REMARK VINA RESULT:    -3.898      3.307      5.899
REMARK INTER + INTRA:          -4.602
REMARK INTER:                  -4.466
REMARK INTRA:                  -0.135
REMARK UNBOUND:                 0.094
REMARK SMILES O=c1c(O)c(-c2ccc(O)c(O)c2)oc2cc(O)cc(O)c12
REMARK SMILES IDX 5 1 3 2 2 3 1 4 22 5 20 6 19 7 17 8 16 9 15 10 14 11 6 12
REMARK SMILES IDX 7 13 8 14 9 15 13 16 11 17 10 18 12 20 4 22 21 24 18 26
REMARK H PARENT 10 19 12 21 4 23 21 25 18 27
REMARK Flexibility Score: inf
ROOT
ATOM      1  C   UNL     1       0.807  21.295  20.084  1.00  0.00     0.180 A 
ATOM      2  C   UNL     1       0.247  21.361  18.797  1.00  0.00     0.208 A 
ATOM      3  C   UNL     1       0.028  20.169  18.088  1.00  0.00     0.238 A 
ATOM      4  O   UNL     1      -0.423  20.238  16.915  1.00  0.00    -0.285 OA
ATOM      5  C   UNL     1       0.355  18.926  18.681  1.00  0.00     0.111 A 
ATOM      6  C   UNL     1       0.138  17.655  18.070  1.00  0.00     0.134 A 
ATOM      7  C   UNL     1       0.620  16.498  18.695  1.00  0.00     0.093 A 
ATOM      8  C   UNL     1       1.254  16.561  19.938  1.00  0.00     0.123 A 
ATOM      9  C   UNL     1       1.417  17.791  20.570  1.00  0.00     0.094 A 
ATOM     10  C   UNL     1       0.979  18.967  19.956  1.00  0.00     0.146 A 
ATOM     11  O   UNL     1       1.164  20.120  20.587  1.00  0.00    -0.452 OA
ENDROOT
BRANCH   1  12
ATOM     12  C   UNL     1       1.045  22.506  20.903  1.00  0.00     0.025 A 
ATOM     13  C   UNL     1       1.935  23.510  20.482  1.00  0.00     0.016 A 
ATOM     14  C   UNL     1       2.125  24.656  21.259  1.00  0.00     0.051 A 
ATOM     15  C   UNL     1       1.425  24.824  22.457  1.00  0.00     0.157 A 
ATOM     16  C   UNL     1       0.327  22.687  22.096  1.00  0.00     0.062 A 
ATOM     17  C   UNL     1       0.518  23.836  22.878  1.00  0.00     0.158 A 
BRANCH  15  18
ATOM     18  O   UNL     1       1.637  25.977  23.211  1.00  0.00    -0.504 OA
ATOM     19  H   UNL     1       2.239  26.726  22.891  1.00  0.00     0.293 HD
ENDBRANCH  15  18
BRANCH  17  20
ATOM     20  O   UNL     1      -0.190  24.000  24.068  1.00  0.00    -0.504 OA
ATOM     21  H   UNL     1      -1.196  23.889  24.106  1.00  0.00     0.293 HD
ENDBRANCH  17  20
ENDBRANCH   1  12
BRANCH   2  22
ATOM     22  O   UNL     1      -0.048  22.600  18.221  1.00  0.00    -0.502 OA
ATOM     23  H   UNL     1      -0.273  22.704  17.238  1.00  0.00     0.293 HD
ENDBRANCH   2  22
BRANCH   6  24
ATOM     24  O   UNL     1      -0.564  17.472  16.875  1.00  0.00    -0.507 OA
ATOM     25  H   UNL     1      -0.768  18.204  16.211  1.00  0.00     0.293 HD
ENDBRANCH   6  24
BRANCH   8  26
ATOM     26  O   UNL     1       1.716  15.402  20.559  1.00  0.00    -0.508 OA
ATOM     27  H   UNL     1       2.292  15.441  21.393  1.00  0.00     0.293 HD
ENDBRANCH   8  26
TORSDOF 6
ENDMDL
MODEL 5
REMARK VINA RESULT:    -3.277      6.340     10.182
REMARK INTER + INTRA:          -3.853
REMARK INTER:                  -3.558
REMARK INTRA:                  -0.295
REMARK UNBOUND:                 0.094
REMARK SMILES O=c1c(O)c(-c2ccc(O)c(O)c2)oc2cc(O)cc(O)c12
REMARK SMILES IDX 5 1 3 2 2 3 1 4 22 5 20 6 19 7 17 8 16 9 15 10 14 11 6 12
REMARK SMILES IDX 7 13 8 14 9 15 13 16 11 17 10 18 12 20 4 22 21 24 18 26
REMARK H PARENT 10 19 12 21 4 23 21 25 18 27
REMARK Flexibility Score: inf
ROOT
ATOM      1  C   UNL     1       0.916  25.408  21.959  1.00  0.00     0.180 A 
ATOM      2  C   UNL     1       1.068  26.107  20.749  1.00  0.00     0.208 A 
ATOM      3  C   UNL     1       1.042  25.392  19.542  1.00  0.00     0.238 A 
ATOM      4  O   UNL     1       1.232  26.017  18.466  1.00  0.00    -0.285 OA
ATOM      5  C   UNL     1       0.849  23.990  19.557  1.00  0.00     0.111 A 
ATOM      6  C   UNL     1       0.766  23.171  18.392  1.00  0.00     0.134 A 
ATOM      7  C   UNL     1       0.704  21.778  18.529  1.00  0.00     0.093 A 
ATOM      8  C   UNL     1       0.657  21.181  19.791  1.00  0.00     0.123 A 
ATOM      9  C   UNL     1       0.677  21.976  20.935  1.00  0.00     0.094 A 
ATOM     10  C   UNL     1       0.775  23.365  20.830  1.00  0.00     0.146 A 
ATOM     11  O   UNL     1       0.803  24.086  21.945  1.00  0.00    -0.452 OA
ENDROOT
BRANCH   1  12
ATOM     12  C   UNL     1       0.908  26.095  23.271  1.00  0.00     0.025 A 
ATOM     13  C   UNL     1       2.103  26.480  23.903  1.00  0.00     0.016 A 
ATOM     14  C   UNL     1       2.070  27.150  25.129  1.00  0.00     0.051 A 
ATOM     15  C   UNL     1       0.849  27.456  25.736  1.00  0.00     0.157 A 
ATOM     16  C   UNL     1      -0.318  26.423  23.873  1.00  0.00     0.062 A 
ATOM     17  C   UNL     1      -0.353  27.094  25.104  1.00  0.00     0.158 A 
BRANCH  15  18
ATOM     18  O   UNL     1       0.848  28.123  26.960  1.00  0.00    -0.504 OA
ATOM     19  H   UNL     1       0.158  27.931  27.677  1.00  0.00     0.293 HD
ENDBRANCH  15  18
BRANCH  17  20
ATOM     20  O   UNL     1      -1.575  27.403  25.700  1.00  0.00    -0.504 OA
ATOM     21  H   UNL     1      -1.647  27.607  26.689  1.00  0.00     0.293 HD
ENDBRANCH  17  20
ENDBRANCH   1  12
BRANCH   2  22
ATOM     22  O   UNL     1       1.279  27.489  20.758  1.00  0.00    -0.502 OA
ATOM     23  H   UNL     1       1.667  27.986  19.964  1.00  0.00     0.293 HD
ENDBRANCH   2  22
BRANCH   6  24
ATOM     24  O   UNL     1       0.712  23.671  17.087  1.00  0.00    -0.507 OA
ATOM     25  H   UNL     1       1.339  23.403  16.343  1.00  0.00     0.293 HD
ENDBRANCH   6  24
BRANCH   8  26
ATOM     26  O   UNL     1       0.580  19.795  19.919  1.00  0.00    -0.508 OA
ATOM     27  H   UNL     1       0.890  19.177  19.178  1.00  0.00     0.293 HD
ENDBRANCH   8  26
TORSDOF 6
ENDMDL
MODEL 6
REMARK VINA RESULT:    -2.750      4.695      9.557
REMARK INTER + INTRA:          -3.218
REMARK INTER:                  -3.488
REMARK INTRA:                   0.270
REMARK UNBOUND:                 0.094
REMARK SMILES O=c1c(O)c(-c2ccc(O)c(O)c2)oc2cc(O)cc(O)c12
REMARK SMILES IDX 5 1 3 2 2 3 1 4 22 5 20 6 19 7 17 8 16 9 15 10 14 11 6 12
REMARK SMILES IDX 7 13 8 14 9 15 13 16 11 17 10 18 12 20 4 22 21 24 18 26
REMARK H PARENT 10 19 12 21 4 23 21 25 18 27
REMARK Flexibility Score: inf
ROOT
ATOM      1  C   UNL     1       0.392  22.399  20.871  1.00  0.00     0.180 A 
ATOM      2  C   UNL     1      -0.070  22.247  22.190  1.00  0.00     0.208 A 
ATOM      3  C   UNL     1      -0.055  23.358  23.048  1.00  0.00     0.238 A 
ATOM      4  O   UNL     1      -0.420  23.203  24.242  1.00  0.00    -0.285 OA
ATOM      5  C   UNL     1       0.405  24.609  22.573  1.00  0.00     0.111 A 
ATOM      6  C   UNL     1       0.426  25.811  23.343  1.00  0.00     0.134 A 
ATOM      7  C   UNL     1       1.025  26.960  22.813  1.00  0.00     0.093 A 
ATOM      8  C   UNL     1       1.544  26.970  21.516  1.00  0.00     0.123 A 
ATOM      9  C   UNL     1       1.474  25.819  20.735  1.00  0.00     0.094 A 
ATOM     10  C   UNL     1       0.916  24.646  21.249  1.00  0.00     0.146 A 
ATOM     11  O   UNL     1       0.880  23.568  20.475  1.00  0.00    -0.452 OA
ENDROOT
BRANCH   1  12
ATOM     12  C   UNL     1       0.385  21.281  19.900  1.00  0.00     0.025 A 
ATOM     13  C   UNL     1       0.178  21.504  18.528  1.00  0.00     0.016 A 
ATOM     14  C   UNL     1       0.200  20.436  17.626  1.00  0.00     0.051 A 
ATOM     15  C   UNL     1       0.440  19.135  18.077  1.00  0.00     0.157 A 
ATOM     16  C   UNL     1       0.648  19.975  20.347  1.00  0.00     0.062 A 
ATOM     17  C   UNL     1       0.669  18.902  19.443  1.00  0.00     0.158 A 
BRANCH  15  18
ATOM     18  O   UNL     1       0.455  18.090  17.154  1.00  0.00    -0.504 OA
ATOM     19  H   UNL     1      -0.235  18.014  16.416  1.00  0.00     0.293 HD
ENDBRANCH  15  18
BRANCH  17  20
ATOM     20  O   UNL     1       0.917  17.608  19.899  1.00  0.00    -0.504 OA
ATOM     21  H   UNL     1       1.859  17.280  20.078  1.00  0.00     0.293 HD
ENDBRANCH  17  20
ENDBRANCH   1  12
BRANCH   2  22
ATOM     22  O   UNL     1      -0.500  20.998  22.644  1.00  0.00    -0.502 OA
ATOM     23  H   UNL     1       0.067  20.413  23.247  1.00  0.00     0.293 HD
ENDBRANCH   2  22
BRANCH   6  24
ATOM     24  O   UNL     1      -0.147  25.934  24.613  1.00  0.00    -0.507 OA
ATOM     25  H   UNL     1       0.315  25.693  25.477  1.00  0.00     0.293 HD
ENDBRANCH   6  24
BRANCH   8  26
ATOM     26  O   UNL     1       2.124  28.123  20.992  1.00  0.00    -0.508 OA
ATOM     27  H   UNL     1       3.127  28.204  20.871  1.00  0.00     0.293 HD
ENDBRANCH   8  26
TORSDOF 6
ENDMDL
MODEL 7
REMARK VINA RESULT:    -2.702      8.239     11.240
REMARK INTER + INTRA:          -3.160
REMARK INTER:                  -2.852
REMARK INTRA:                  -0.308
REMARK UNBOUND:                 0.094
REMARK SMILES O=c1c(O)c(-c2ccc(O)c(O)c2)oc2cc(O)cc(O)c12
REMARK SMILES IDX 5 1 3 2 2 3 1 4 22 5 20 6 19 7 17 8 16 9 15 10 14 11 6 12
REMARK SMILES IDX 7 13 8 14 9 15 13 16 11 17 10 18 12 20 4 22 21 24 18 26
REMARK H PARENT 10 19 12 21 4 23 21 25 18 27
REMARK Flexibility Score: inf
ROOT
ATOM      1  C   UNL     1       0.456  25.665  22.555  1.00  0.00     0.180 A 
ATOM      2  C   UNL     1       0.554  24.268  22.437  1.00  0.00     0.208 A 
ATOM      3  C   UNL     1       0.943  23.715  21.206  1.00  0.00     0.238 A 
ATOM      4  O   UNL     1       0.976  22.462  21.092  1.00  0.00    -0.285 OA
ATOM      5  C   UNL     1       1.244  24.564  20.116  1.00  0.00     0.111 A 
ATOM      6  C   UNL     1       1.687  24.114  18.835  1.00  0.00     0.134 A 
ATOM      7  C   UNL     1       1.830  25.035  17.791  1.00  0.00     0.093 A 
ATOM      8  C   UNL     1       1.610  26.399  17.998  1.00  0.00     0.123 A 
ATOM      9  C   UNL     1       1.236  26.856  19.260  1.00  0.00     0.094 A 
ATOM     10  C   UNL     1       1.049  25.957  20.312  1.00  0.00     0.146 A 
ATOM     11  O   UNL     1       0.681  26.432  21.496  1.00  0.00    -0.452 OA
ENDROOT
BRANCH   1  12
ATOM     12  C   UNL     1       0.077  26.324  23.826  1.00  0.00     0.025 A 
ATOM     13  C   UNL     1      -1.270  26.464  24.204  1.00  0.00     0.016 A 
ATOM     14  C   UNL     1      -1.604  27.067  25.420  1.00  0.00     0.051 A 
ATOM     15  C   UNL     1      -0.603  27.526  26.280  1.00  0.00     0.157 A 
ATOM     16  C   UNL     1       1.081  26.767  24.702  1.00  0.00     0.062 A 
ATOM     17  C   UNL     1       0.748  27.374  25.923  1.00  0.00     0.158 A 
BRANCH  15  18
ATOM     18  O   UNL     1      -0.967  28.125  27.486  1.00  0.00    -0.504 OA
ATOM     19  H   UNL     1      -1.101  27.588  28.335  1.00  0.00     0.293 HD
ENDBRANCH  15  18
BRANCH  17  20
ATOM     20  O   UNL     1       1.752  27.823  26.779  1.00  0.00    -0.504 OA
ATOM     21  H   UNL     1       2.337  27.177  27.296  1.00  0.00     0.293 HD
ENDBRANCH  17  20
ENDBRANCH   1  12
BRANCH   2  22
ATOM     22  O   UNL     1       0.230  23.447  23.520  1.00  0.00    -0.502 OA
ATOM     23  H   UNL     1      -0.390  23.745  24.264  1.00  0.00     0.293 HD
ENDBRANCH   2  22
BRANCH   6  24
ATOM     24  O   UNL     1       2.023  22.787  18.548  1.00  0.00    -0.507 OA
ATOM     25  H   UNL     1       2.826  22.502  18.008  1.00  0.00     0.293 HD
ENDBRANCH   6  24
BRANCH   8  26
ATOM     26  O   UNL     1       1.770  27.311  16.956  1.00  0.00    -0.508 OA
ATOM     27  H   UNL     1       2.541  27.240  16.303  1.00  0.00     0.293 HD
ENDBRANCH   8  26
TORSDOF 6
ENDMDL
MODEL 8
REMARK VINA RESULT:    -2.641      4.394      9.855
REMARK INTER + INTRA:          -3.087
REMARK INTER:                  -3.361
REMARK INTRA:                   0.274
REMARK UNBOUND:                 0.094
REMARK SMILES O=c1c(O)c(-c2ccc(O)c(O)c2)oc2cc(O)cc(O)c12
REMARK SMILES IDX 5 1 3 2 2 3 1 4 22 5 20 6 19 7 17 8 16 9 15 10 14 11 6 12
REMARK SMILES IDX 7 13 8 14 9 15 13 16 11 17 10 18 12 20 4 22 21 24 18 26
REMARK H PARENT 10 19 12 21 4 23 21 25 18 27
REMARK Flexibility Score: inf
ROOT
ATOM      1  C   UNL     1       0.731  22.910  19.136  1.00  0.00     0.180 A 
ATOM      2  C   UNL     1       1.418  23.369  20.274  1.00  0.00     0.208 A 
ATOM      3  C   UNL     1       1.413  24.743  20.563  1.00  0.00     0.238 A 
ATOM      4  O   UNL     1       2.074  25.154  21.552  1.00  0.00    -0.285 OA
ATOM      5  C   UNL     1       0.709  25.638  19.722  1.00  0.00     0.111 A 
ATOM      6  C   UNL     1       0.604  27.044  19.942  1.00  0.00     0.134 A 
ATOM      7  C   UNL     1      -0.008  27.850  18.975  1.00  0.00     0.093 A 
ATOM      8  C   UNL     1      -0.575  27.293  17.826  1.00  0.00     0.123 A 
ATOM      9  C   UNL     1      -0.530  25.915  17.631  1.00  0.00     0.094 A 
ATOM     10  C   UNL     1       0.105  25.088  18.560  1.00  0.00     0.146 A 
ATOM     11  O   UNL     1       0.136  23.781  18.331  1.00  0.00    -0.452 OA
ENDROOT
BRANCH   1  12
ATOM     12  C   UNL     1       0.670  21.474  18.779  1.00  0.00     0.025 A 
ATOM     13  C   UNL     1       0.670  21.053  17.438  1.00  0.00     0.016 A 
ATOM     14  C   UNL     1       0.638  19.691  17.125  1.00  0.00     0.051 A 
ATOM     15  C   UNL     1       0.617  18.732  18.141  1.00  0.00     0.157 A 
ATOM     16  C   UNL     1       0.671  20.507  19.798  1.00  0.00     0.062 A 
ATOM     17  C   UNL     1       0.637  19.140  19.486  1.00  0.00     0.158 A 
BRANCH  15  18
ATOM     18  O   UNL     1       0.582  17.381  17.798  1.00  0.00    -0.504 OA
ATOM     19  H   UNL     1      -0.087  16.739  18.205  1.00  0.00     0.293 HD
ENDBRANCH  15  18
BRANCH  17  20
ATOM     20  O   UNL     1       0.624  18.188  20.505  1.00  0.00    -0.504 OA
ATOM     21  H   UNL     1       1.361  17.499  20.596  1.00  0.00     0.293 HD
ENDBRANCH  17  20
ENDBRANCH   1  12
BRANCH   2  22
ATOM     22  O   UNL     1       2.125  22.471  21.078  1.00  0.00    -0.502 OA
ATOM     23  H   UNL     1       1.820  22.220  22.012  1.00  0.00     0.293 HD
ENDBRANCH   2  22
BRANCH   6  24
ATOM     24  O   UNL     1       1.054  27.689  21.098  1.00  0.00    -0.507 OA
ATOM     25  H   UNL     1       1.399  28.637  21.130  1.00  0.00     0.293 HD
ENDBRANCH   6  24
BRANCH   8  26
ATOM     26  O   UNL     1      -1.195  28.102  16.876  1.00  0.00    -0.508 OA
ATOM     27  H   UNL     1      -1.410  27.759  15.947  1.00  0.00     0.293 HD
ENDBRANCH   8  26
TORSDOF 6
ENDMDL
MODEL 9
REMARK VINA RESULT:    -2.513      7.664     10.694
REMARK INTER + INTRA:          -2.933
REMARK INTER:                  -2.759
REMARK INTRA:                  -0.174
REMARK UNBOUND:                 0.094
REMARK SMILES O=c1c(O)c(-c2ccc(O)c(O)c2)oc2cc(O)cc(O)c12
REMARK SMILES IDX 5 1 3 2 2 3 1 4 22 5 20 6 19 7 17 8 16 9 15 10 14 11 6 12
REMARK SMILES IDX 7 13 8 14 9 15 13 16 11 17 10 18 12 20 4 22 21 24 18 26
REMARK H PARENT 10 19 12 21 4 23 21 25 18 27
REMARK Flexibility Score: inf
ROOT
ATOM      1  C   UNL     1       0.309  25.187  22.564  1.00  0.00     0.180 A 
ATOM      2  C   UNL     1       0.242  23.784  22.498  1.00  0.00     0.208 A 
ATOM      3  C   UNL     1       0.628  23.140  21.312  1.00  0.00     0.238 A 
ATOM      4  O   UNL     1       0.515  21.888  21.240  1.00  0.00    -0.285 OA
ATOM      5  C   UNL     1       1.092  23.902  20.214  1.00  0.00     0.111 A 
ATOM      6  C   UNL     1       1.547  23.352  18.978  1.00  0.00     0.134 A 
ATOM      7  C   UNL     1       1.860  24.207  17.915  1.00  0.00     0.093 A 
ATOM      8  C   UNL     1       1.797  25.595  18.063  1.00  0.00     0.123 A 
ATOM      9  C   UNL     1       1.411  26.143  19.284  1.00  0.00     0.094 A 
ATOM     10  C   UNL     1       1.058  25.316  20.353  1.00  0.00     0.146 A 
ATOM     11  O   UNL     1       0.685  25.878  21.495  1.00  0.00    -0.452 OA
ENDROOT
BRANCH   1  12
ATOM     12  C   UNL     1      -0.058  25.936  23.788  1.00  0.00     0.025 A 
ATOM     13  C   UNL     1       0.898  26.672  24.509  1.00  0.00     0.016 A 
ATOM     14  C   UNL     1       0.523  27.392  25.647  1.00  0.00     0.051 A 
ATOM     15  C   UNL     1      -0.807  27.399  26.074  1.00  0.00     0.157 A 
ATOM     16  C   UNL     1      -1.398  25.962  24.207  1.00  0.00     0.062 A 
ATOM     17  C   UNL     1      -1.776  26.683  25.350  1.00  0.00     0.158 A 
BRANCH  15  18
ATOM     18  O   UNL     1      -1.150  28.125  27.214  1.00  0.00    -0.504 OA
ATOM     19  H   UNL     1      -1.776  27.755  27.920  1.00  0.00     0.293 HD
ENDBRANCH  15  18
BRANCH  17  20
ATOM     20  O   UNL     1      -3.106  26.692  25.765  1.00  0.00    -0.504 OA
ATOM     21  H   UNL     1      -3.356  26.664  26.747  1.00  0.00     0.293 HD
ENDBRANCH  17  20
ENDBRANCH   1  12
BRANCH   2  22
ATOM     22  O   UNL     1      -0.240  23.051  23.586  1.00  0.00    -0.502 OA
ATOM     23  H   UNL     1       0.003  23.275  24.544  1.00  0.00     0.293 HD
ENDBRANCH   2  22
BRANCH   6  24
ATOM     24  O   UNL     1       1.734  21.984  18.755  1.00  0.00    -0.507 OA
ATOM     25  H   UNL     1       1.121  21.258  19.095  1.00  0.00     0.293 HD
ENDBRANCH   6  24
BRANCH   8  26
ATOM     26  O   UNL     1       2.125  26.439  17.004  1.00  0.00    -0.508 OA
ATOM     27  H   UNL     1       3.082  26.545  16.688  1.00  0.00     0.293 HD
ENDBRANCH   8  26
TORSDOF 6
ENDMDL
