MODEL 1
REMARK VINA RESULT:     1.864      0.000      0.000
REMARK INTER + INTRA:           3.878
REMARK INTER:                   2.027
REMARK INTRA:                   1.851
REMARK UNBOUND:                 1.851
REMARK SMILES CC1(C)CC[C@]2(C(=O)[O-])CC[C@@]3(C)C(=CC[C@H]4[C@]5(C)CC[C@@H](O)C(C)(C)[C@H]5CC[C@]43C)[C@@H]2C1
REMARK SMILES IDX 6 1 5 2 10 3 32 4 4 5 11 6 14 7 33 8 2 9 12 10 15 11 1 12
REMARK SMILES IDX 3 13 13 14 30 15 16 16 17 17 29 18 31 19 18 20 28 21 27 22
REMARK SMILES IDX 20 23 19 24 24 25 21 26 22 27 25 28 26 29 7 30 8 31 9 32
REMARK SMILES IDX 23 33
REMARK H PARENT 23 34
REMARK Flexibility Score: inf
ROOT
ATOM      1  C   UNL     1      -8.862   2.876  23.696  1.00  0.00     0.017 C 
ATOM      2  C   UNL     1      -7.720   3.921  23.544  1.00  0.00     0.014 C 
ATOM      3  C   UNL     1      -9.300   2.353  22.312  1.00  0.00     0.014 C 
ATOM      4  C   UNL     1     -10.116   3.493  24.393  1.00  0.00     0.028 C 
ATOM      5  C   UNL     1      -8.164   5.258  22.941  1.00  0.00     0.007 C 
ATOM      6  C   UNL     1     -10.313   1.202  22.396  1.00  0.00     0.013 C 
ATOM      7  C   UNL     1     -11.354   2.583  24.332  1.00  0.00    -0.064 C 
ATOM      8  C   UNL     1     -10.503   4.885  23.806  1.00  0.00     0.015 C 
ATOM      9  C   UNL     1      -9.337   5.896  23.715  1.00  0.00    -0.035 C 
ATOM     10  C   UNL     1     -11.457   1.303  23.492  1.00  0.00    -0.006 C 
ATOM     11  C   UNL     1     -12.382   2.915  25.125  1.00  0.00    -0.027 C 
ATOM     12  C   UNL     1      -9.818   7.140  22.936  1.00  0.00     0.011 C 
ATOM     13  C   UNL     1      -8.895   6.359  25.123  1.00  0.00     0.011 C 
ATOM     14  C   UNL     1     -11.246   0.131  24.507  1.00  0.00     0.017 C 
ATOM     15  C   UNL     1     -12.915   1.183  22.812  1.00  0.00    -0.020 C 
ATOM     16  C   UNL     1     -13.793   2.485  24.886  1.00  0.00     0.032 C 
ATOM     17  C   UNL     1     -14.075   1.296  23.900  1.00  0.00     0.006 C 
ATOM     18  C   UNL     1     -13.107   2.335  21.744  1.00  0.00     0.008 C 
ATOM     19  C   UNL     1     -12.982  -0.234  22.112  1.00  0.00     0.012 C 
ATOM     20  C   UNL     1     -15.595   1.323  23.309  1.00  0.00    -0.025 C 
ATOM     21  C   UNL     1     -14.554   2.876  21.568  1.00  0.00     0.005 C 
ATOM     22  C   UNL     1     -15.581   1.754  21.800  1.00  0.00     0.003 C 
ATOM     23  C   UNL     1     -16.247  -0.094  23.350  1.00  0.00     0.010 C 
ATOM     24  C   UNL     1     -16.504   2.251  24.192  1.00  0.00     0.012 C 
ATOM     25  C   UNL     1     -16.969   1.823  21.055  1.00  0.00    -0.006 C 
ATOM     26  C   UNL     1     -17.642  -0.158  22.678  1.00  0.00     0.033 C 
ATOM     27  C   UNL     1     -17.671   0.424  21.239  1.00  0.00     0.120 C 
ATOM     28  C   UNL     1     -16.732   2.006  19.527  1.00  0.00     0.014 C 
ATOM     29  C   UNL     1     -17.861   3.008  21.508  1.00  0.00     0.014 C 
ENDROOT
BRANCH   1  30
ATOM     30  C   UNL     1      -8.259   1.748  24.523  1.00  0.00     0.048 C 
ATOM     31  O   UNL     1      -8.999   0.915  25.112  1.00  0.00    -0.550 OA
ATOM     32  O   UNL     1      -6.887   1.697  24.744  1.00  0.00    -0.550 OA
ENDBRANCH   1  30
BRANCH  27  33
ATOM     33  O   UNL     1     -18.981   0.423  20.722  1.00  0.00    -0.393 OA
ATOM     34  H   UNL     1     -18.938   0.136  19.773  1.00  0.00     0.210 HD
ENDBRANCH  27  33
TORSDOF 2
ENDMDL
MODEL 2
REMARK VINA RESULT:     2.736      2.227      4.257
REMARK INTER + INTRA:           4.827
REMARK INTER:                   4.978
REMARK INTRA:                  -0.151
REMARK UNBOUND:                 1.851
REMARK SMILES CC1(C)CC[C@]2(C(=O)[O-])CC[C@@]3(C)C(=CC[C@H]4[C@]5(C)CC[C@@H](O)C(C)(C)[C@H]5CC[C@]43C)[C@@H]2C1
REMARK SMILES IDX 6 1 5 2 10 3 32 4 4 5 11 6 14 7 33 8 2 9 12 10 15 11 1 12
REMARK SMILES IDX 3 13 13 14 30 15 16 16 17 17 29 18 31 19 18 20 28 21 27 22
REMARK SMILES IDX 20 23 19 24 24 25 21 26 22 27 25 28 26 29 7 30 8 31 9 32
REMARK SMILES IDX 23 33
REMARK H PARENT 23 34
REMARK Flexibility Score: inf
ROOT
ATOM      1  C   UNL     1     -10.082   2.801  22.293  1.00  0.00     0.017 C 
ATOM      2  C   UNL     1      -8.742   2.173  21.817  1.00  0.00     0.014 C 
ATOM      3  C   UNL     1     -10.543   2.151  23.613  1.00  0.00     0.014 C 
ATOM      4  C   UNL     1     -11.217   2.601  21.239  1.00  0.00     0.028 C 
ATOM      5  C   UNL     1      -8.865   0.731  21.313  1.00  0.00     0.007 C 
ATOM      6  C   UNL     1     -11.776   2.833  24.223  1.00  0.00     0.013 C 
ATOM      7  C   UNL     1     -12.611   2.972  21.770  1.00  0.00    -0.064 C 
ATOM      8  C   UNL     1     -11.274   1.142  20.691  1.00  0.00     0.015 C 
ATOM      9  C   UNL     1      -9.920   0.583  20.197  1.00  0.00    -0.035 C 
ATOM     10  C   UNL     1     -12.932   3.290  23.236  1.00  0.00    -0.006 C 
ATOM     11  C   UNL     1     -13.590   3.081  20.860  1.00  0.00    -0.027 C 
ATOM     12  C   UNL     1     -10.089  -0.920  19.879  1.00  0.00     0.011 C 
ATOM     13  C   UNL     1      -9.468   1.294  18.899  1.00  0.00     0.011 C 
ATOM     14  C   UNL     1     -13.024   4.851  23.304  1.00  0.00     0.017 C 
ATOM     15  C   UNL     1     -14.344   2.638  23.666  1.00  0.00    -0.020 C 
ATOM     16  C   UNL     1     -15.044   2.957  21.180  1.00  0.00     0.032 C 
ATOM     17  C   UNL     1     -15.513   3.078  22.674  1.00  0.00     0.006 C 
ATOM     18  C   UNL     1     -14.234   1.060  23.652  1.00  0.00     0.008 C 
ATOM     19  C   UNL     1     -14.665   3.156  25.125  1.00  0.00     0.012 C 
ATOM     20  C   UNL     1     -16.960   2.372  22.933  1.00  0.00    -0.025 C 
ATOM     21  C   UNL     1     -15.526   0.284  23.269  1.00  0.00     0.005 C 
ATOM     22  C   UNL     1     -16.774   1.043  23.749  1.00  0.00     0.003 C 
ATOM     23  C   UNL     1     -17.893   3.282  23.790  1.00  0.00     0.010 C 
ATOM     24  C   UNL     1     -17.703   2.141  21.569  1.00  0.00     0.012 C 
ATOM     25  C   UNL     1     -18.076   0.227  24.105  1.00  0.00    -0.006 C 
ATOM     26  C   UNL     1     -19.232   2.607  24.183  1.00  0.00     0.033 C 
ATOM     27  C   UNL     1     -19.061   1.212  24.841  1.00  0.00     0.120 C 
ATOM     28  C   UNL     1     -17.723  -0.896  25.125  1.00  0.00     0.014 C 
ATOM     29  C   UNL     1     -18.725  -0.475  22.884  1.00  0.00     0.014 C 
ENDROOT
BRANCH   1  30
ATOM     30  C   UNL     1      -9.773   4.277  22.509  1.00  0.00     0.048 C 
ATOM     31  O   UNL     1     -10.082   5.134  21.639  1.00  0.00    -0.550 OA
ATOM     32  O   UNL     1      -9.030   4.684  23.613  1.00  0.00    -0.550 OA
ENDBRANCH   1  30
BRANCH  27  33
ATOM     33  O   UNL     1     -20.312   0.614  25.086  1.00  0.00    -0.393 OA
ATOM     34  H   UNL     1     -20.914   1.303  25.472  1.00  0.00     0.210 HD
ENDBRANCH  27  33
TORSDOF 2
ENDMDL
MODEL 3
REMARK VINA RESULT:     3.722      0.829      1.024
REMARK INTER + INTRA:           5.900
REMARK INTER:                   3.541
REMARK INTRA:                   2.359
REMARK UNBOUND:                 1.851
REMARK SMILES CC1(C)CC[C@]2(C(=O)[O-])CC[C@@]3(C)C(=CC[C@H]4[C@]5(C)CC[C@@H](O)C(C)(C)[C@H]5CC[C@]43C)[C@@H]2C1
REMARK SMILES IDX 6 1 5 2 10 3 32 4 4 5 11 6 14 7 33 8 2 9 12 10 15 11 1 12
REMARK SMILES IDX 3 13 13 14 30 15 16 16 17 17 29 18 31 19 18 20 28 21 27 22
REMARK SMILES IDX 20 23 19 24 24 25 21 26 22 27 25 28 26 29 7 30 8 31 9 32
REMARK SMILES IDX 23 33
REMARK H PARENT 23 34
REMARK Flexibility Score: inf
ROOT
ATOM      1  C   UNL     1      -9.242   2.352  23.618  1.00  0.00     0.017 C 
ATOM      2  C   UNL     1      -8.055   3.260  23.190  1.00  0.00     0.014 C 
ATOM      3  C   UNL     1      -9.775   1.557  22.409  1.00  0.00     0.014 C 
ATOM      4  C   UNL     1     -10.425   3.190  24.199  1.00  0.00     0.028 C 
ATOM      5  C   UNL     1      -8.455   4.450  22.311  1.00  0.00     0.007 C 
ATOM      6  C   UNL     1     -10.843   0.522  22.792  1.00  0.00     0.013 C 
ATOM      7  C   UNL     1     -11.712   2.371  24.394  1.00  0.00    -0.064 C 
ATOM      8  C   UNL     1     -10.766   4.434  23.322  1.00  0.00     0.015 C 
ATOM      9  C   UNL     1      -9.552   5.321  22.958  1.00  0.00    -0.035 C 
ATOM     10  C   UNL     1     -11.925   0.943  23.876  1.00  0.00    -0.006 C 
ATOM     11  C   UNL     1     -12.680   2.940  25.125  1.00  0.00    -0.027 C 
ATOM     12  C   UNL     1     -10.003   6.383  21.931  1.00  0.00     0.011 C 
ATOM     13  C   UNL     1      -9.017   6.064  24.206  1.00  0.00     0.011 C 
ATOM     14  C   UNL     1     -11.727   0.022  25.125  1.00  0.00     0.017 C 
ATOM     15  C   UNL     1     -13.419   0.764  23.293  1.00  0.00    -0.020 C 
ATOM     16  C   UNL     1     -14.122   2.558  25.041  1.00  0.00     0.032 C 
ATOM     17  C   UNL     1     -14.516   1.196  24.367  1.00  0.00     0.006 C 
ATOM     18  C   UNL     1     -13.601   1.652  21.997  1.00  0.00     0.008 C 
ATOM     19  C   UNL     1     -13.596  -0.768  22.942  1.00  0.00     0.012 C 
ATOM     20  C   UNL     1     -16.060   1.184  23.841  1.00  0.00    -0.025 C 
ATOM     21  C   UNL     1     -15.024   2.229  21.752  1.00  0.00     0.005 C 
ATOM     22  C   UNL     1     -16.097   1.258  22.273  1.00  0.00     0.003 C 
ATOM     23  C   UNL     1     -16.784  -0.142  24.230  1.00  0.00     0.010 C 
ATOM     24  C   UNL     1     -16.873   2.344  24.517  1.00  0.00     0.012 C 
ATOM     25  C   UNL     1     -17.515   1.243  21.582  1.00  0.00    -0.006 C 
ATOM     26  C   UNL     1     -18.213  -0.269  23.640  1.00  0.00     0.033 C 
ATOM     27  C   UNL     1     -18.280  -0.029  22.109  1.00  0.00     0.120 C 
ATOM     28  C   UNL     1     -17.344   1.058  20.045  1.00  0.00     0.014 C 
ATOM     29  C   UNL     1     -18.318   2.555  21.781  1.00  0.00     0.014 C 
ENDROOT
BRANCH   1  30
ATOM     30  C   UNL     1      -8.661   1.406  24.661  1.00  0.00     0.048 C 
ATOM     31  O   UNL     1      -7.470   1.533  25.053  1.00  0.00    -0.550 OA
ATOM     32  O   UNL     1      -9.397   0.311  25.102  1.00  0.00    -0.550 OA
ENDBRANCH   1  30
BRANCH  27  33
ATOM     33  O   UNL     1     -19.612  -0.064  21.652  1.00  0.00    -0.393 OA
ATOM     34  H   UNL     1     -20.107  -0.734  22.193  1.00  0.00     0.210 HD
ENDBRANCH  27  33
TORSDOF 2
ENDMDL
