MODEL 1
REMARK VINA RESULT:    -2.901      0.000      0.000
REMARK INTER + INTRA:          -3.250
REMARK INTER:                  -3.241
REMARK INTRA:                  -0.010
REMARK UNBOUND:                -0.010
REMARK SMILES CCCC(=O)[O-]
REMARK SMILES IDX 3 1 4 2 5 3 6 4 2 5 1 6
REMARK H PARENT
REMARK Flexibility Score: inf
ROOT
ATOM      1  C   UNL     1       2.406  43.632  11.638  1.00  0.00     0.052 C 
ENDROOT
BRANCH   1   2
ATOM      2  C   UNL     1       3.721  44.307  11.413  1.00  0.00     0.041 C 
ATOM      3  O   UNL     1       3.888  45.056  10.417  1.00  0.00    -0.550 OA
ATOM      4  O   UNL     1       4.781  44.068  12.280  1.00  0.00    -0.550 OA
ENDBRANCH   1   2
BRANCH   1   5
ATOM      5  C   UNL     1       1.919  42.963  10.349  1.00  0.00     0.003 C 
ATOM      6  C   UNL     1       0.482  42.471  10.492  1.00  0.00     0.004 C 
ENDBRANCH   1   5
TORSDOF 2
ENDMDL
MODEL 2
REMARK VINA RESULT:    -2.826      1.535      2.015
REMARK INTER + INTRA:          -3.166
REMARK INTER:                  -3.153
REMARK INTRA:                  -0.013
REMARK UNBOUND:                -0.010
REMARK SMILES CCCC(=O)[O-]
REMARK SMILES IDX 3 1 4 2 5 3 6 4 2 5 1 6
REMARK H PARENT
REMARK Flexibility Score: inf
ROOT
ATOM      1  C   UNL     1       4.140  44.630  11.287  1.00  0.00     0.052 C 
ENDROOT
BRANCH   1   2
ATOM      2  C   UNL     1       5.353  44.494  12.150  1.00  0.00     0.041 C 
ATOM      3  O   UNL     1       6.405  45.125  11.869  1.00  0.00    -0.550 OA
ATOM      4  O   UNL     1       5.338  43.632  13.240  1.00  0.00    -0.550 OA
ENDBRANCH   1   2
BRANCH   1   5
ATOM      5  C   UNL     1       3.028  43.697  11.775  1.00  0.00     0.003 C 
ATOM      6  C   UNL     1       2.111  43.285  10.627  1.00  0.00     0.004 C 
ENDBRANCH   1   5
TORSDOF 2
ENDMDL
MODEL 3
REMARK VINA RESULT:    -2.625      3.741      4.749
REMARK INTER + INTRA:          -2.941
REMARK INTER:                  -2.873
REMARK INTRA:                  -0.068
REMARK UNBOUND:                -0.010
REMARK SMILES CCCC(=O)[O-]
REMARK SMILES IDX 3 1 4 2 5 3 6 4 2 5 1 6
REMARK H PARENT
REMARK Flexibility Score: inf
ROOT
ATOM      1  C   UNL     1       7.620  44.163  11.344  1.00  0.00     0.052 C 
ENDROOT
BRANCH   1   2
ATOM      2  C   UNL     1       7.406  42.774  11.857  1.00  0.00     0.041 C 
ATOM      3  O   UNL     1       7.177  42.577  13.078  1.00  0.00    -0.550 OA
ATOM      4  O   UNL     1       7.507  41.691  10.992  1.00  0.00    -0.550 OA
ENDBRANCH   1   2
BRANCH   1   5
ATOM      5  C   UNL     1       6.415  45.048  11.673  1.00  0.00     0.003 C 
ATOM      6  C   UNL     1       5.164  44.570  10.943  1.00  0.00     0.004 C 
ENDBRANCH   1   5
TORSDOF 2
ENDMDL
MODEL 4
REMARK VINA RESULT:    -2.618     23.668     24.298
REMARK INTER + INTRA:          -2.933
REMARK INTER:                  -2.909
REMARK INTRA:                  -0.024
REMARK UNBOUND:                -0.010
REMARK SMILES CCCC(=O)[O-]
REMARK SMILES IDX 3 1 4 2 5 3 6 4 2 5 1 6
REMARK H PARENT
REMARK Flexibility Score: inf
ROOT
ATOM      1  C   UNL     1       5.742  28.488  30.125  1.00  0.00     0.052 C 
ENDROOT
BRANCH   1   2
ATOM      2  C   UNL     1       7.222  28.280  30.097  1.00  0.00     0.041 C 
ATOM      3  O   UNL     1       8.000  29.265  30.013  1.00  0.00    -0.550 OA
ATOM      4  O   UNL     1       7.743  26.991  30.115  1.00  0.00    -0.550 OA
ENDBRANCH   1   2
BRANCH   1   5
ATOM      5  C   UNL     1       5.406  29.975  29.984  1.00  0.00     0.003 C 
ATOM      6  C   UNL     1       4.286  30.194  28.972  1.00  0.00     0.004 C 
ENDBRANCH   1   5
TORSDOF 2
ENDMDL
MODEL 5
REMARK VINA RESULT:    -2.593      3.537      4.650
REMARK INTER + INTRA:          -2.906
REMARK INTER:                  -2.896
REMARK INTRA:                  -0.010
REMARK UNBOUND:                -0.010
REMARK SMILES CCCC(=O)[O-]
REMARK SMILES IDX 3 1 4 2 5 3 6 4 2 5 1 6
REMARK H PARENT
REMARK Flexibility Score: inf
ROOT
ATOM      1  C   UNL     1       7.307  44.622  11.081  1.00  0.00     0.052 C 
ENDROOT
BRANCH   1   2
ATOM      2  C   UNL     1       5.854  44.581  11.432  1.00  0.00     0.041 C 
ATOM      3  O   UNL     1       5.441  45.125  12.489  1.00  0.00    -0.550 OA
ATOM      4  O   UNL     1       4.961  43.899  10.615  1.00  0.00    -0.550 OA
ENDBRANCH   1   2
BRANCH   1   5
ATOM      5  C   UNL     1       7.903  43.212  11.099  1.00  0.00     0.003 C 
ATOM      6  C   UNL     1       7.568  42.488  12.399  1.00  0.00     0.004 C 
ENDBRANCH   1   5
TORSDOF 2
ENDMDL
MODEL 6
REMARK VINA RESULT:    -2.586     13.987     14.397
REMARK INTER + INTRA:          -2.898
REMARK INTER:                  -2.869
REMARK INTRA:                  -0.029
REMARK UNBOUND:                -0.010
REMARK SMILES CCCC(=O)[O-]
REMARK SMILES IDX 3 1 4 2 5 3 6 4 2 5 1 6
REMARK H PARENT
REMARK Flexibility Score: inf
ROOT
ATOM      1  C   UNL     1       9.125  31.161  11.899  1.00  0.00     0.052 C 
ENDROOT
BRANCH   1   2
ATOM      2  C   UNL     1       8.394  29.881  11.646  1.00  0.00     0.041 C 
ATOM      3  O   UNL     1       7.151  29.889  11.449  1.00  0.00    -0.550 OA
ATOM      4  O   UNL     1       9.078  28.672  11.675  1.00  0.00    -0.550 OA
ENDBRANCH   1   2
BRANCH   1   5
ATOM      5  C   UNL     1       8.303  32.355  11.406  1.00  0.00     0.003 C 
ATOM      6  C   UNL     1       9.014  33.083  10.270  1.00  0.00     0.004 C 
ENDBRANCH   1   5
TORSDOF 2
ENDMDL
MODEL 7
REMARK VINA RESULT:    -2.553      2.478      3.937
REMARK INTER + INTRA:          -2.861
REMARK INTER:                  -2.854
REMARK INTRA:                  -0.007
REMARK UNBOUND:                -0.010
REMARK SMILES CCCC(=O)[O-]
REMARK SMILES IDX 3 1 4 2 5 3 6 4 2 5 1 6
REMARK H PARENT
REMARK Flexibility Score: inf
ROOT
ATOM      1  C   UNL     1       5.441  44.025  12.644  1.00  0.00     0.052 C 
ENDROOT
BRANCH   1   2
ATOM      2  C   UNL     1       4.317  44.282  11.692  1.00  0.00     0.041 C 
ATOM      3  O   UNL     1       4.449  45.125  10.768  1.00  0.00    -0.550 OA
ATOM      4  O   UNL     1       3.104  43.624  11.856  1.00  0.00    -0.550 OA
ENDBRANCH   1   2
BRANCH   1   5
ATOM      5  C   UNL     1       6.709  43.629  11.883  1.00  0.00     0.003 C 
ATOM      6  C   UNL     1       7.443  42.492  12.588  1.00  0.00     0.004 C 
ENDBRANCH   1   5
TORSDOF 2
ENDMDL
MODEL 8
REMARK VINA RESULT:    -2.444      2.328      3.454
REMARK INTER + INTRA:          -2.740
REMARK INTER:                  -2.714
REMARK INTRA:                  -0.026
REMARK UNBOUND:                -0.010
REMARK SMILES CCCC(=O)[O-]
REMARK SMILES IDX 3 1 4 2 5 3 6 4 2 5 1 6
REMARK H PARENT
REMARK Flexibility Score: inf
ROOT
ATOM      1  C   UNL     1       2.942  43.333   9.875  1.00  0.00     0.052 C 
ENDROOT
BRANCH   1   2
ATOM      2  C   UNL     1       1.789  43.231  10.822  1.00  0.00     0.041 C 
ATOM      3  O   UNL     1       1.868  43.733  11.973  1.00  0.00    -0.550 OA
ATOM      4  O   UNL     1       0.643  42.539  10.451  1.00  0.00    -0.550 OA
ENDBRANCH   1   2
BRANCH   1   5
ATOM      5  C   UNL     1       4.033  44.237  10.453  1.00  0.00     0.003 C 
ATOM      6  C   UNL     1       5.416  43.620  10.268  1.00  0.00     0.004 C 
ENDBRANCH   1   5
TORSDOF 2
ENDMDL
MODEL 9
REMARK VINA RESULT:    -2.294      2.958      3.607
REMARK INTER + INTRA:          -2.572
REMARK INTER:                  -2.510
REMARK INTRA:                  -0.061
REMARK UNBOUND:                -0.010
REMARK SMILES CCCC(=O)[O-]
REMARK SMILES IDX 3 1 4 2 5 3 6 4 2 5 1 6
REMARK H PARENT
REMARK Flexibility Score: inf
ROOT
ATOM      1  C   UNL     1       5.975  45.123  12.102  1.00  0.00     0.052 C 
ENDROOT
BRANCH   1   2
ATOM      2  C   UNL     1       7.084  44.464  11.345  1.00  0.00     0.041 C 
ATOM      3  O   UNL     1       7.607  45.041  10.356  1.00  0.00    -0.550 OA
ATOM      4  O   UNL     1       7.508  43.190  11.702  1.00  0.00    -0.550 OA
ENDBRANCH   1   2
BRANCH   1   5
ATOM      5  C   UNL     1       4.671  44.338  11.933  1.00  0.00     0.003 C 
ATOM      6  C   UNL     1       4.045  44.595  10.566  1.00  0.00     0.004 C 
ENDBRANCH   1   5
TORSDOF 2
ENDMDL
