MODEL 1
REMARK VINA RESULT:    -3.486      0.000      0.000
REMARK INTER + INTRA:          -4.046
REMARK INTER:                  -3.792
REMARK INTRA:                  -0.254
REMARK UNBOUND:                -0.254
REMARK SMILES O=C([O-])c1ccccc1O
REMARK SMILES IDX 4 1 9 2 5 3 8 4 6 5 7 6 2 7 1 8 3 9 10 10
REMARK H PARENT 10 11
REMARK Flexibility Score: inf
ROOT
ATOM      1  C   UNL     1      63.717  42.987  16.719  1.00  0.00     0.039 A 
ATOM      2  C   UNL     1      63.902  41.866  15.875  1.00  0.00     0.124 A 
ATOM      3  C   UNL     1      63.599  42.777  18.108  1.00  0.00     0.014 A 
ATOM      4  C   UNL     1      63.965  40.577  16.428  1.00  0.00     0.047 A 
ATOM      5  C   UNL     1      63.662  41.489  18.644  1.00  0.00     0.001 A 
ATOM      6  C   UNL     1      63.845  40.390  17.805  1.00  0.00     0.004 A 
ENDROOT
BRANCH   1   7
ATOM      7  C   UNL     1      63.646  44.368  16.179  1.00  0.00     0.075 C 
ATOM      8  O   UNL     1      62.783  45.178  16.612  1.00  0.00    -0.545 OA
ATOM      9  O   UNL     1      64.521  44.798  15.188  1.00  0.00    -0.545 OA
ENDBRANCH   1   7
BRANCH   2  10
ATOM     10  O   UNL     1      64.025  42.023  14.495  1.00  0.00    -0.507 OA
ATOM     11  H   UNL     1      64.556  42.785  14.090  1.00  0.00     0.293 HD
ENDBRANCH   2  10
TORSDOF 2
ENDMDL
MODEL 2
REMARK VINA RESULT:    -3.469     20.057     21.031
REMARK INTER + INTRA:          -4.027
REMARK INTER:                  -3.772
REMARK INTRA:                  -0.255
REMARK UNBOUND:                -0.254
REMARK SMILES O=C([O-])c1ccccc1O
REMARK SMILES IDX 4 1 9 2 5 3 8 4 6 5 7 6 2 7 1 8 3 9 10 10
REMARK H PARENT 10 11
REMARK Flexibility Score: inf
ROOT
ATOM      1  C   UNL     1      47.834  32.787   7.563  1.00  0.00     0.039 A 
ATOM      2  C   UNL     1      47.581  34.171   7.407  1.00  0.00     0.124 A 
ATOM      3  C   UNL     1      46.785  31.951   7.998  1.00  0.00     0.014 A 
ATOM      4  C   UNL     1      46.305  34.684   7.685  1.00  0.00     0.047 A 
ATOM      5  C   UNL     1      45.520  32.477   8.272  1.00  0.00     0.001 A 
ATOM      6  C   UNL     1      45.281  33.841   8.115  1.00  0.00     0.004 A 
ENDROOT
BRANCH   1   7
ATOM      7  C   UNL     1      49.168  32.200   7.279  1.00  0.00     0.075 C 
ATOM      8  O   UNL     1      49.270  31.158   6.578  1.00  0.00    -0.545 OA
ATOM      9  O   UNL     1      50.329  32.780   7.778  1.00  0.00    -0.545 OA
ENDBRANCH   1   7
BRANCH   2  10
ATOM     10  O   UNL     1      48.586  35.037   6.979  1.00  0.00    -0.507 OA
ATOM     11  H   UNL     1      48.390  35.998   6.724  1.00  0.00     0.293 HD
ENDBRANCH   2  10
TORSDOF 2
ENDMDL
MODEL 3
REMARK VINA RESULT:    -3.407     16.710     17.246
REMARK INTER + INTRA:          -3.959
REMARK INTER:                  -3.805
REMARK INTRA:                  -0.154
REMARK UNBOUND:                -0.254
REMARK SMILES O=C([O-])c1ccccc1O
REMARK SMILES IDX 4 1 9 2 5 3 8 4 6 5 7 6 2 7 1 8 3 9 10 10
REMARK H PARENT 10 11
REMARK Flexibility Score: inf
ROOT
ATOM      1  C   UNL     1      47.192  44.247  15.238  1.00  0.00     0.039 A 
ATOM      2  C   UNL     1      45.846  44.543  15.563  1.00  0.00     0.124 A 
ATOM      3  C   UNL     1      47.534  42.921  14.908  1.00  0.00     0.014 A 
ATOM      4  C   UNL     1      44.884  43.521  15.552  1.00  0.00     0.047 A 
ATOM      5  C   UNL     1      46.566  41.914  14.903  1.00  0.00     0.001 A 
ATOM      6  C   UNL     1      45.243  42.213  15.224  1.00  0.00     0.004 A 
ENDROOT
BRANCH   1   7
ATOM      7  C   UNL     1      48.243  45.297  15.236  1.00  0.00     0.075 C 
ATOM      8  O   UNL     1      49.367  45.071  14.714  1.00  0.00    -0.545 OA
ATOM      9  O   UNL     1      48.015  46.543  15.808  1.00  0.00    -0.545 OA
ENDBRANCH   1   7
BRANCH   2  10
ATOM     10  O   UNL     1      45.459  45.840  15.895  1.00  0.00    -0.507 OA
ATOM     11  H   UNL     1      46.135  46.546  16.163  1.00  0.00     0.293 HD
ENDBRANCH   2  10
TORSDOF 2
ENDMDL
MODEL 4
REMARK VINA RESULT:    -3.399     17.633     18.104
REMARK INTER + INTRA:          -3.950
REMARK INTER:                  -3.696
REMARK INTRA:                  -0.255
REMARK UNBOUND:                -0.254
REMARK SMILES O=C([O-])c1ccccc1O
REMARK SMILES IDX 4 1 9 2 5 3 8 4 6 5 7 6 2 7 1 8 3 9 10 10
REMARK H PARENT 10 11
REMARK Flexibility Score: inf
ROOT
ATOM      1  C   UNL     1      45.610  44.160  16.100  1.00  0.00     0.039 A 
ATOM      2  C   UNL     1      46.714  44.271  15.221  1.00  0.00     0.124 A 
ATOM      3  C   UNL     1      44.961  42.915  16.219  1.00  0.00     0.014 A 
ATOM      4  C   UNL     1      47.140  43.152  14.489  1.00  0.00     0.047 A 
ATOM      5  C   UNL     1      45.395  41.810  15.483  1.00  0.00     0.001 A 
ATOM      6  C   UNL     1      46.483  41.928  14.620  1.00  0.00     0.004 A 
ENDROOT
BRANCH   1   7
ATOM      7  C   UNL     1      45.126  45.317  16.896  1.00  0.00     0.075 C 
ATOM      8  O   UNL     1      44.879  45.187  18.124  1.00  0.00    -0.545 OA
ATOM      9  O   UNL     1      44.933  46.562  16.308  1.00  0.00    -0.545 OA
ENDBRANCH   1   7
BRANCH   2  10
ATOM     10  O   UNL     1      47.389  45.481  15.071  1.00  0.00    -0.507 OA
ATOM     11  H   UNL     1      47.155  46.135  14.332  1.00  0.00     0.293 HD
ENDBRANCH   2  10
TORSDOF 2
ENDMDL
MODEL 5
REMARK VINA RESULT:    -3.389     10.438     10.748
REMARK INTER + INTRA:          -3.940
REMARK INTER:                  -3.686
REMARK INTRA:                  -0.254
REMARK UNBOUND:                -0.254
REMARK SMILES O=C([O-])c1ccccc1O
REMARK SMILES IDX 4 1 9 2 5 3 8 4 6 5 7 6 2 7 1 8 3 9 10 10
REMARK H PARENT 10 11
REMARK Flexibility Score: inf
ROOT
ATOM      1  C   UNL     1      56.532  35.476  13.348  1.00  0.00     0.039 A 
ATOM      2  C   UNL     1      57.547  34.565  12.969  1.00  0.00     0.124 A 
ATOM      3  C   UNL     1      56.251  35.646  14.719  1.00  0.00     0.014 A 
ATOM      4  C   UNL     1      58.249  33.851  13.953  1.00  0.00     0.047 A 
ATOM      5  C   UNL     1      56.957  34.927  15.687  1.00  0.00     0.001 A 
ATOM      6  C   UNL     1      57.954  34.032  15.304  1.00  0.00     0.004 A 
ENDROOT
BRANCH   1   7
ATOM      7  C   UNL     1      55.765  36.253  12.341  1.00  0.00     0.075 C 
ATOM      8  O   UNL     1      54.516  36.380  12.451  1.00  0.00    -0.545 OA
ATOM      9  O   UNL     1      56.401  36.854  11.261  1.00  0.00    -0.545 OA
ENDBRANCH   1   7
BRANCH   2  10
ATOM     10  O   UNL     1      57.862  34.364  11.626  1.00  0.00    -0.507 OA
ATOM     11  H   UNL     1      57.408  34.889  10.887  1.00  0.00     0.293 HD
ENDBRANCH   2  10
TORSDOF 2
ENDMDL
MODEL 6
REMARK VINA RESULT:    -3.348     13.521     14.898
REMARK INTER + INTRA:          -3.895
REMARK INTER:                  -3.660
REMARK INTRA:                  -0.235
REMARK UNBOUND:                -0.254
REMARK SMILES O=C([O-])c1ccccc1O
REMARK SMILES IDX 4 1 9 2 5 3 8 4 6 5 7 6 2 7 1 8 3 9 10 10
REMARK H PARENT 10 11
REMARK Flexibility Score: inf
ROOT
ATOM      1  C   UNL     1      51.473  48.891  12.740  1.00  0.00     0.039 A 
ATOM      2  C   UNL     1      51.892  49.850  11.786  1.00  0.00     0.124 A 
ATOM      3  C   UNL     1      50.235  49.077  13.390  1.00  0.00     0.014 A 
ATOM      4  C   UNL     1      51.078  50.958  11.505  1.00  0.00     0.047 A 
ATOM      5  C   UNL     1      49.437  50.186  13.101  1.00  0.00     0.001 A 
ATOM      6  C   UNL     1      49.857  51.125  12.159  1.00  0.00     0.004 A 
ENDROOT
BRANCH   1   7
ATOM      7  C   UNL     1      52.301  47.703  13.069  1.00  0.00     0.075 C 
ATOM      8  O   UNL     1      51.754  46.619  13.406  1.00  0.00    -0.545 OA
ATOM      9  O   UNL     1      53.688  47.757  13.014  1.00  0.00    -0.545 OA
ENDBRANCH   1   7
BRANCH   2  10
ATOM     10  O   UNL     1      53.106  49.708  11.118  1.00  0.00    -0.507 OA
ATOM     11  H   UNL     1      53.993  49.768  11.604  1.00  0.00     0.293 HD
ENDBRANCH   2  10
TORSDOF 2
ENDMDL
MODEL 7
REMARK VINA RESULT:    -3.337     13.975     15.512
REMARK INTER + INTRA:          -3.883
REMARK INTER:                  -3.635
REMARK INTRA:                  -0.249
REMARK UNBOUND:                -0.254
REMARK SMILES O=C([O-])c1ccccc1O
REMARK SMILES IDX 4 1 9 2 5 3 8 4 6 5 7 6 2 7 1 8 3 9 10 10
REMARK H PARENT 10 11
REMARK Flexibility Score: inf
ROOT
ATOM      1  C   UNL     1      51.436  49.282  12.140  1.00  0.00     0.039 A 
ATOM      2  C   UNL     1      50.308  50.132  12.040  1.00  0.00     0.124 A 
ATOM      3  C   UNL     1      52.446  49.378  11.161  1.00  0.00     0.014 A 
ATOM      4  C   UNL     1      50.214  51.046  10.979  1.00  0.00     0.047 A 
ATOM      5  C   UNL     1      52.338  50.292  10.110  1.00  0.00     0.001 A 
ATOM      6  C   UNL     1      51.224  51.125  10.020  1.00  0.00     0.004 A 
ENDROOT
BRANCH   1   7
ATOM      7  C   UNL     1      51.579  48.300  13.245  1.00  0.00     0.075 C 
ATOM      8  O   UNL     1      51.327  48.637  14.433  1.00  0.00    -0.545 OA
ATOM      9  O   UNL     1      51.992  46.996  12.999  1.00  0.00    -0.545 OA
ENDBRANCH   1   7
BRANCH   2  10
ATOM     10  O   UNL     1      49.285  50.074  12.984  1.00  0.00    -0.507 OA
ATOM     11  H   UNL     1      49.453  49.767  13.935  1.00  0.00     0.293 HD
ENDBRANCH   2  10
TORSDOF 2
ENDMDL
MODEL 8
REMARK VINA RESULT:    -3.236     14.140     15.491
REMARK INTER + INTRA:          -3.774
REMARK INTER:                  -3.522
REMARK INTRA:                  -0.252
REMARK UNBOUND:                -0.254
REMARK SMILES O=C([O-])c1ccccc1O
REMARK SMILES IDX 4 1 9 2 5 3 8 4 6 5 7 6 2 7 1 8 3 9 10 10
REMARK H PARENT 10 11
REMARK Flexibility Score: inf
ROOT
ATOM      1  C   UNL     1      51.415  50.459  11.386  1.00  0.00     0.039 A 
ATOM      2  C   UNL     1      52.489  50.351  12.302  1.00  0.00     0.124 A 
ATOM      3  C   UNL     1      50.139  50.806  11.875  1.00  0.00     0.014 A 
ATOM      4  C   UNL     1      52.270  50.587  13.668  1.00  0.00     0.047 A 
ATOM      5  C   UNL     1      49.935  51.037  13.238  1.00  0.00     0.001 A 
ATOM      6  C   UNL     1      50.999  50.928  14.133  1.00  0.00     0.004 A 
ENDROOT
BRANCH   1   7
ATOM      7  C   UNL     1      51.601  50.220   9.932  1.00  0.00     0.075 C 
ATOM      8  O   UNL     1      50.735  49.582   9.276  1.00  0.00    -0.545 OA
ATOM      9  O   UNL     1      52.727  50.687   9.265  1.00  0.00    -0.545 OA
ENDBRANCH   1   7
BRANCH   2  10
ATOM     10  O   UNL     1      53.768  50.012  11.865  1.00  0.00    -0.507 OA
ATOM     11  H   UNL     1      53.918  49.333  11.128  1.00  0.00     0.293 HD
ENDBRANCH   2  10
TORSDOF 2
ENDMDL
MODEL 9
REMARK VINA RESULT:    -2.367     13.791     14.936
REMARK INTER + INTRA:          -2.828
REMARK INTER:                  -2.584
REMARK INTRA:                  -0.244
REMARK UNBOUND:                -0.254
REMARK SMILES O=C([O-])c1ccccc1O
REMARK SMILES IDX 4 1 9 2 5 3 8 4 6 5 7 6 2 7 1 8 3 9 10 10
REMARK H PARENT 10 11
REMARK Flexibility Score: inf
ROOT
ATOM      1  C   UNL     1      51.294  48.926  12.276  1.00  0.00     0.039 A 
ATOM      2  C   UNL     1      50.136  49.247  13.024  1.00  0.00     0.124 A 
ATOM      3  C   UNL     1      52.032  47.778  12.629  1.00  0.00     0.014 A 
ATOM      4  C   UNL     1      49.745  48.427  14.094  1.00  0.00     0.047 A 
ATOM      5  C   UNL     1      51.631  46.971  13.697  1.00  0.00     0.001 A 
ATOM      6  C   UNL     1      50.489  47.295  14.428  1.00  0.00     0.004 A 
ENDROOT
BRANCH   1   7
ATOM      7  C   UNL     1      51.744  49.764  11.136  1.00  0.00     0.075 C 
ATOM      8  O   UNL     1      51.922  49.251   9.999  1.00  0.00    -0.545 OA
ATOM      9  O   UNL     1      51.981  51.125  11.295  1.00  0.00    -0.545 OA
ENDBRANCH   1   7
BRANCH   2  10
ATOM     10  O   UNL     1      49.373  50.371  12.713  1.00  0.00    -0.507 OA
ATOM     11  H   UNL     1      49.156  50.620  11.755  1.00  0.00     0.293 HD
ENDBRANCH   2  10
TORSDOF 2
ENDMDL
