MODEL 1
REMARK VINA RESULT:    -6.949      0.000      0.000
REMARK INTER + INTRA:          -9.363
REMARK INTER:                  -8.777
REMARK INTRA:                  -0.586
REMARK UNBOUND:                -0.586
REMARK SMILES Oc1cc(O)cc(CCc2ccccc2O)c1
REMARK SMILES IDX 9 1 10 2 12 3 13 4 11 5 14 6 15 7 16 8 8 10 7 11 6 12 17 13
REMARK SMILES IDX 4 14 2 15 3 16 5 17 1 19
REMARK H PARENT 16 9 5 18 1 20
REMARK Flexibility Score: inf
ROOT
ATOM      1  C   UNL     1      25.299  -0.391  26.903  1.00  0.00     0.044 C 
ENDROOT
BRANCH   1   2
ATOM      2  C   UNL     1      25.688  -0.351  25.447  1.00  0.00    -0.006 A 
ATOM      3  C   UNL     1      27.275   0.297  23.721  1.00  0.00     0.001 A 
ATOM      4  C   UNL     1      26.415  -0.194  22.738  1.00  0.00     0.004 A 
ATOM      5  C   UNL     1      26.914   0.224  25.069  1.00  0.00     0.007 A 
ATOM      6  C   UNL     1      25.187  -0.755  23.100  1.00  0.00     0.046 A 
ATOM      7  C   UNL     1      24.814  -0.831  24.450  1.00  0.00     0.118 A 
BRANCH   7   8
ATOM      8  O   UNL     1      23.581  -1.379  24.803  1.00  0.00    -0.508 OA
ATOM      9  H   UNL     1      22.752  -1.229  24.237  1.00  0.00     0.293 HD
ENDBRANCH   7   8
ENDBRANCH   1   2
BRANCH   1  10
ATOM     10  C   UNL     1      26.416   0.190  27.775  1.00  0.00     0.040 C 
BRANCH  10  11
ATOM     11  C   UNL     1      26.041   1.563  28.268  1.00  0.00    -0.040 A 
ATOM     12  C   UNL     1      26.977   2.609  28.228  1.00  0.00     0.050 A 
ATOM     13  C   UNL     1      24.736   1.821  28.719  1.00  0.00     0.050 A 
ATOM     14  C   UNL     1      26.618   3.895  28.657  1.00  0.00     0.119 A 
ATOM     15  C   UNL     1      24.378   3.107  29.147  1.00  0.00     0.119 A 
ATOM     16  C   UNL     1      25.321   4.139  29.117  1.00  0.00     0.092 A 
BRANCH  14  17
ATOM     17  O   UNL     1      27.543   4.936  28.625  1.00  0.00    -0.508 OA
ATOM     18  H   UNL     1      28.160   5.120  29.408  1.00  0.00     0.293 HD
ENDBRANCH  14  17
BRANCH  15  19
ATOM     19  O   UNL     1      23.087   3.369  29.602  1.00  0.00    -0.508 OA
ATOM     20  H   UNL     1      22.279   3.250  29.002  1.00  0.00     0.293 HD
ENDBRANCH  15  19
ENDBRANCH  10  11
ENDBRANCH   1  10
TORSDOF 6
ENDMDL
MODEL 2
REMARK VINA RESULT:    -6.909      0.063      2.031
REMARK INTER + INTRA:          -9.313
REMARK INTER:                  -8.751
REMARK INTRA:                  -0.562
REMARK UNBOUND:                -0.586
REMARK SMILES Oc1cc(O)cc(CCc2ccccc2O)c1
REMARK SMILES IDX 9 1 10 2 12 3 13 4 11 5 14 6 15 7 16 8 8 10 7 11 6 12 17 13
REMARK SMILES IDX 4 14 2 15 3 16 5 17 1 19
REMARK H PARENT 16 9 5 18 1 20
REMARK Flexibility Score: inf
ROOT
ATOM      1  C   UNL     1      25.324  -0.454  26.911  1.00  0.00     0.044 C 
ENDROOT
BRANCH   1   2
ATOM      2  C   UNL     1      25.705  -0.382  25.455  1.00  0.00    -0.006 A 
ATOM      3  C   UNL     1      27.273   0.322  23.733  1.00  0.00     0.001 A 
ATOM      4  C   UNL     1      26.416  -0.166  22.746  1.00  0.00     0.004 A 
ATOM      5  C   UNL     1      26.919   0.219  25.081  1.00  0.00     0.007 A 
ATOM      6  C   UNL     1      25.199  -0.753  23.103  1.00  0.00     0.046 A 
ATOM      7  C   UNL     1      24.834  -0.858  24.453  1.00  0.00     0.118 A 
BRANCH   7   8
ATOM      8  O   UNL     1      23.611  -1.432  24.802  1.00  0.00    -0.508 OA
ATOM      9  H   UNL     1      22.766  -0.876  24.878  1.00  0.00     0.293 HD
ENDBRANCH   7   8
ENDBRANCH   1   2
BRANCH   1  10
ATOM     10  C   UNL     1      26.429   0.144  27.788  1.00  0.00     0.040 C 
BRANCH  10  11
ATOM     11  C   UNL     1      26.063   1.538  28.222  1.00  0.00    -0.040 A 
ATOM     12  C   UNL     1      24.767   1.817  28.686  1.00  0.00     0.050 A 
ATOM     13  C   UNL     1      27.030   2.557  28.222  1.00  0.00     0.050 A 
ATOM     14  C   UNL     1      24.435   3.107  29.121  1.00  0.00     0.119 A 
ATOM     15  C   UNL     1      26.697   3.847  28.657  1.00  0.00     0.119 A 
ATOM     16  C   UNL     1      25.400   4.119  29.103  1.00  0.00     0.092 A 
BRANCH  14  17
ATOM     17  O   UNL     1      23.150   3.393  29.577  1.00  0.00    -0.508 OA
ATOM     18  H   UNL     1      22.472   3.864  28.989  1.00  0.00     0.293 HD
ENDBRANCH  14  17
BRANCH  15  19
ATOM     19  O   UNL     1      27.649   4.864  28.653  1.00  0.00    -0.508 OA
ATOM     20  H   UNL     1      28.192   5.087  29.480  1.00  0.00     0.293 HD
ENDBRANCH  15  19
ENDBRANCH  10  11
ENDBRANCH   1  10
TORSDOF 6
ENDMDL
MODEL 3
REMARK VINA RESULT:    -6.853      1.373      2.722
REMARK INTER + INTRA:          -9.242
REMARK INTER:                  -8.654
REMARK INTRA:                  -0.588
REMARK UNBOUND:                -0.586
REMARK SMILES Oc1cc(O)cc(CCc2ccccc2O)c1
REMARK SMILES IDX 9 1 10 2 12 3 13 4 11 5 14 6 15 7 16 8 8 10 7 11 6 12 17 13
REMARK SMILES IDX 4 14 2 15 3 16 5 17 1 19
REMARK H PARENT 16 9 5 18 1 20
REMARK Flexibility Score: inf
ROOT
ATOM      1  C   UNL     1      26.692   0.073  27.235  1.00  0.00     0.044 C 
ENDROOT
BRANCH   1   2
ATOM      2  C   UNL     1      26.096  -0.192  25.876  1.00  0.00    -0.006 A 
ATOM      3  C   UNL     1      24.212  -0.932  24.525  1.00  0.00     0.001 A 
ATOM      4  C   UNL     1      24.972  -0.766  23.366  1.00  0.00     0.004 A 
ATOM      5  C   UNL     1      24.770  -0.651  25.775  1.00  0.00     0.007 A 
ATOM      6  C   UNL     1      26.295  -0.325  23.454  1.00  0.00     0.046 A 
ATOM      7  C   UNL     1      26.865  -0.043  24.705  1.00  0.00     0.118 A 
BRANCH   7   8
ATOM      8  O   UNL     1      28.191   0.383  24.786  1.00  0.00    -0.508 OA
ATOM      9  H   UNL     1      28.820   0.030  25.498  1.00  0.00     0.293 HD
ENDBRANCH   7   8
ENDBRANCH   1   2
BRANCH   1  10
ATOM     10  C   UNL     1      25.589   0.297  28.274  1.00  0.00     0.040 C 
BRANCH  10  11
ATOM     11  C   UNL     1      25.421   1.766  28.558  1.00  0.00    -0.040 A 
ATOM     12  C   UNL     1      24.237   2.242  29.144  1.00  0.00     0.050 A 
ATOM     13  C   UNL     1      26.468   2.664  28.291  1.00  0.00     0.050 A 
ATOM     14  C   UNL     1      24.092   3.604  29.439  1.00  0.00     0.119 A 
ATOM     15  C   UNL     1      26.323   4.026  28.586  1.00  0.00     0.119 A 
ATOM     16  C   UNL     1      25.135   4.493  29.157  1.00  0.00     0.092 A 
BRANCH  14  17
ATOM     17  O   UNL     1      22.918   4.084  30.016  1.00  0.00    -0.508 OA
ATOM     18  H   UNL     1      22.731   3.973  31.005  1.00  0.00     0.293 HD
ENDBRANCH  14  17
BRANCH  15  19
ATOM     19  O   UNL     1      27.354   4.923  28.318  1.00  0.00    -0.508 OA
ATOM     20  H   UNL     1      27.470   5.341  27.401  1.00  0.00     0.293 HD
ENDBRANCH  15  19
ENDBRANCH  10  11
ENDBRANCH   1  10
TORSDOF 6
ENDMDL
MODEL 4
REMARK VINA RESULT:    -6.844      1.359      1.826
REMARK INTER + INTRA:          -9.230
REMARK INTER:                  -8.643
REMARK INTRA:                  -0.587
REMARK UNBOUND:                -0.586
REMARK SMILES Oc1cc(O)cc(CCc2ccccc2O)c1
REMARK SMILES IDX 9 1 10 2 12 3 13 4 11 5 14 6 15 7 16 8 8 10 7 11 6 12 17 13
REMARK SMILES IDX 4 14 2 15 3 16 5 17 1 19
REMARK H PARENT 16 9 5 18 1 20
REMARK Flexibility Score: inf
ROOT
ATOM      1  C   UNL     1      26.706   0.128  27.146  1.00  0.00     0.044 C 
ENDROOT
BRANCH   1   2
ATOM      2  C   UNL     1      26.071  -0.168  25.811  1.00  0.00    -0.006 A 
ATOM      3  C   UNL     1      24.153  -0.945  24.532  1.00  0.00     0.001 A 
ATOM      4  C   UNL     1      24.878  -0.799  23.348  1.00  0.00     0.004 A 
ATOM      5  C   UNL     1      24.746  -0.636  25.759  1.00  0.00     0.007 A 
ATOM      6  C   UNL     1      26.201  -0.351  23.387  1.00  0.00     0.046 A 
ATOM      7  C   UNL     1      26.805  -0.040  24.615  1.00  0.00     0.118 A 
BRANCH   7   8
ATOM      8  O   UNL     1      28.131   0.394  24.648  1.00  0.00    -0.508 OA
ATOM      9  H   UNL     1      28.411   1.205  25.188  1.00  0.00     0.293 HD
ENDBRANCH   7   8
ENDBRANCH   1   2
BRANCH   1  10
ATOM     10  C   UNL     1      25.634   0.311  28.224  1.00  0.00     0.040 C 
BRANCH  10  11
ATOM     11  C   UNL     1      25.481   1.767  28.575  1.00  0.00    -0.040 A 
ATOM     12  C   UNL     1      26.531   2.667  28.333  1.00  0.00     0.050 A 
ATOM     13  C   UNL     1      24.267   2.247  29.094  1.00  0.00     0.050 A 
ATOM     14  C   UNL     1      26.378   4.029  28.630  1.00  0.00     0.119 A 
ATOM     15  C   UNL     1      24.114   3.609  29.391  1.00  0.00     0.119 A 
ATOM     16  C   UNL     1      25.171   4.494  29.160  1.00  0.00     0.092 A 
BRANCH  14  17
ATOM     17  O   UNL     1      27.418   4.926  28.398  1.00  0.00    -0.508 OA
ATOM     18  H   UNL     1      27.884   4.976  27.499  1.00  0.00     0.293 HD
ENDBRANCH  14  17
BRANCH  15  19
ATOM     19  O   UNL     1      22.915   4.090  29.912  1.00  0.00    -0.508 OA
ATOM     20  H   UNL     1      22.129   3.476  30.089  1.00  0.00     0.293 HD
ENDBRANCH  15  19
ENDBRANCH  10  11
ENDBRANCH   1  10
TORSDOF 6
ENDMDL
MODEL 5
REMARK VINA RESULT:    -6.705      1.419      6.209
REMARK INTER + INTRA:          -9.056
REMARK INTER:                  -8.542
REMARK INTRA:                  -0.514
REMARK UNBOUND:                -0.586
REMARK SMILES Oc1cc(O)cc(CCc2ccccc2O)c1
REMARK SMILES IDX 9 1 10 2 12 3 13 4 11 5 14 6 15 7 16 8 8 10 7 11 6 12 17 13
REMARK SMILES IDX 4 14 2 15 3 16 5 17 1 19
REMARK H PARENT 16 9 5 18 1 20
REMARK Flexibility Score: inf
ROOT
ATOM      1  C   UNL     1      25.444   1.082  28.320  1.00  0.00     0.044 C 
ENDROOT
BRANCH   1   2
ATOM      2  C   UNL     1      25.561   2.537  28.696  1.00  0.00    -0.006 A 
ATOM      3  C   UNL     1      26.948   4.510  29.019  1.00  0.00     0.001 A 
ATOM      4  C   UNL     1      25.833   5.227  29.456  1.00  0.00     0.004 A 
ATOM      5  C   UNL     1      26.816   3.170  28.644  1.00  0.00     0.007 A 
ATOM      6  C   UNL     1      24.584   4.605  29.527  1.00  0.00     0.046 A 
ATOM      7  C   UNL     1      24.442   3.259  29.155  1.00  0.00     0.118 A 
BRANCH   7   8
ATOM      8  O   UNL     1      23.194   2.641  29.242  1.00  0.00    -0.508 OA
ATOM      9  H   UNL     1      22.578   2.574  28.440  1.00  0.00     0.293 HD
ENDBRANCH   7   8
ENDBRANCH   1   2
BRANCH   1  10
ATOM     10  C   UNL     1      26.623   0.655  27.440  1.00  0.00     0.040 C 
BRANCH  10  11
ATOM     11  C   UNL     1      26.132   0.120  26.121  1.00  0.00    -0.040 A 
ATOM     12  C   UNL     1      24.828  -0.389  26.005  1.00  0.00     0.050 A 
ATOM     13  C   UNL     1      26.953   0.179  24.983  1.00  0.00     0.050 A 
ATOM     14  C   UNL     1      24.359  -0.857  24.770  1.00  0.00     0.119 A 
ATOM     15  C   UNL     1      26.484  -0.289  23.748  1.00  0.00     0.119 A 
ATOM     16  C   UNL     1      25.189  -0.807  23.646  1.00  0.00     0.092 A 
BRANCH  14  17
ATOM     17  O   UNL     1      23.069  -1.368  24.649  1.00  0.00    -0.508 OA
ATOM     18  H   UNL     1      22.768  -2.176  25.182  1.00  0.00     0.293 HD
ENDBRANCH  14  17
BRANCH  15  19
ATOM     19  O   UNL     1      27.296  -0.241  22.617  1.00  0.00    -0.508 OA
ATOM     20  H   UNL     1      27.529   0.638  22.168  1.00  0.00     0.293 HD
ENDBRANCH  15  19
ENDBRANCH  10  11
ENDBRANCH   1  10
TORSDOF 6
ENDMDL
MODEL 6
REMARK VINA RESULT:    -6.699      1.689      2.155
REMARK INTER + INTRA:          -9.048
REMARK INTER:                  -8.540
REMARK INTRA:                  -0.508
REMARK UNBOUND:                -0.586
REMARK SMILES Oc1cc(O)cc(CCc2ccccc2O)c1
REMARK SMILES IDX 9 1 10 2 12 3 13 4 11 5 14 6 15 7 16 8 8 10 7 11 6 12 17 13
REMARK SMILES IDX 4 14 2 15 3 16 5 17 1 19
REMARK H PARENT 16 9 5 18 1 20
REMARK Flexibility Score: inf
ROOT
ATOM      1  C   UNL     1      26.324   0.054  26.582  1.00  0.00     0.044 C 
ENDROOT
BRANCH   1   2
ATOM      2  C   UNL     1      25.373  -0.898  25.903  1.00  0.00    -0.006 A 
ATOM      3  C   UNL     1      23.299  -1.274  24.688  1.00  0.00     0.001 A 
ATOM      4  C   UNL     1      23.542  -2.649  24.690  1.00  0.00     0.004 A 
ATOM      5  C   UNL     1      24.207  -0.402  25.294  1.00  0.00     0.007 A 
ATOM      6  C   UNL     1      24.690  -3.156  25.304  1.00  0.00     0.046 A 
ATOM      7  C   UNL     1      25.605  -2.288  25.918  1.00  0.00     0.118 A 
BRANCH   7   8
ATOM      8  O   UNL     1      26.742  -2.803  26.542  1.00  0.00    -0.508 OA
ATOM      9  H   UNL     1      27.076  -2.434  27.425  1.00  0.00     0.293 HD
ENDBRANCH   7   8
ENDBRANCH   1   2
BRANCH   1  10
ATOM     10  C   UNL     1      25.992   0.177  28.072  1.00  0.00     0.040 C 
BRANCH  10  11
ATOM     11  C   UNL     1      25.738   1.614  28.441  1.00  0.00    -0.040 A 
ATOM     12  C   UNL     1      26.715   2.591  28.193  1.00  0.00     0.050 A 
ATOM     13  C   UNL     1      24.500   1.999  28.983  1.00  0.00     0.050 A 
ATOM     14  C   UNL     1      26.467   3.935  28.506  1.00  0.00     0.119 A 
ATOM     15  C   UNL     1      24.252   3.342  29.296  1.00  0.00     0.119 A 
ATOM     16  C   UNL     1      25.237   4.306  29.058  1.00  0.00     0.092 A 
BRANCH  14  17
ATOM     17  O   UNL     1      27.434   4.909  28.268  1.00  0.00    -0.508 OA
ATOM     18  H   UNL     1      28.398   4.662  28.075  1.00  0.00     0.293 HD
ENDBRANCH  14  17
BRANCH  15  19
ATOM     19  O   UNL     1      23.029   3.729  29.840  1.00  0.00    -0.508 OA
ATOM     20  H   UNL     1      22.237   3.963  29.252  1.00  0.00     0.293 HD
ENDBRANCH  15  19
ENDBRANCH  10  11
ENDBRANCH   1  10
TORSDOF 6
ENDMDL
MODEL 7
REMARK VINA RESULT:    -6.686      1.455      5.896
REMARK INTER + INTRA:          -9.031
REMARK INTER:                  -8.523
REMARK INTRA:                  -0.508
REMARK UNBOUND:                -0.586
REMARK SMILES Oc1cc(O)cc(CCc2ccccc2O)c1
REMARK SMILES IDX 9 1 10 2 12 3 13 4 11 5 14 6 15 7 16 8 8 10 7 11 6 12 17 13
REMARK SMILES IDX 4 14 2 15 3 16 5 17 1 19
REMARK H PARENT 16 9 5 18 1 20
REMARK Flexibility Score: inf
ROOT
ATOM      1  C   UNL     1      25.282   1.100  28.356  1.00  0.00     0.044 C 
ENDROOT
BRANCH   1   2
ATOM      2  C   UNL     1      25.415   2.549  28.749  1.00  0.00    -0.006 A 
ATOM      3  C   UNL     1      26.828   4.492  29.131  1.00  0.00     0.001 A 
ATOM      4  C   UNL     1      25.714   5.227  29.542  1.00  0.00     0.004 A 
ATOM      5  C   UNL     1      26.682   3.159  28.740  1.00  0.00     0.007 A 
ATOM      6  C   UNL     1      24.452   4.628  29.570  1.00  0.00     0.046 A 
ATOM      7  C   UNL     1      24.296   3.289  29.181  1.00  0.00     0.118 A 
BRANCH   7   8
ATOM      8  O   UNL     1      23.035   2.693  29.225  1.00  0.00    -0.508 OA
ATOM      9  H   UNL     1      22.576   2.359  28.386  1.00  0.00     0.293 HD
ENDBRANCH   7   8
ENDBRANCH   1   2
BRANCH   1  10
ATOM     10  C   UNL     1      26.485   0.654  27.519  1.00  0.00     0.040 C 
BRANCH  10  11
ATOM     11  C   UNL     1      26.036   0.166  26.168  1.00  0.00    -0.040 A 
ATOM     12  C   UNL     1      26.926   0.174  25.082  1.00  0.00     0.050 A 
ATOM     13  C   UNL     1      24.743  -0.354  25.996  1.00  0.00     0.050 A 
ATOM     14  C   UNL     1      26.520  -0.311  23.831  1.00  0.00     0.119 A 
ATOM     15  C   UNL     1      24.337  -0.839  24.745  1.00  0.00     0.119 A 
ATOM     16  C   UNL     1      25.226  -0.813  23.666  1.00  0.00     0.092 A 
BRANCH  14  17
ATOM     17  O   UNL     1      27.396  -0.300  22.747  1.00  0.00    -0.508 OA
ATOM     18  H   UNL     1      27.060  -0.198  21.797  1.00  0.00     0.293 HD
ENDBRANCH  14  17
BRANCH  15  19
ATOM     19  O   UNL     1      23.053  -1.350  24.565  1.00  0.00    -0.508 OA
ATOM     20  H   UNL     1      22.229  -0.806  24.793  1.00  0.00     0.293 HD
ENDBRANCH  15  19
ENDBRANCH  10  11
ENDBRANCH   1  10
TORSDOF 6
ENDMDL
MODEL 8
REMARK VINA RESULT:    -6.652      1.734      2.948
REMARK INTER + INTRA:          -8.988
REMARK INTER:                  -8.449
REMARK INTRA:                  -0.539
REMARK UNBOUND:                -0.586
REMARK SMILES Oc1cc(O)cc(CCc2ccccc2O)c1
REMARK SMILES IDX 9 1 10 2 12 3 13 4 11 5 14 6 15 7 16 8 8 10 7 11 6 12 17 13
REMARK SMILES IDX 4 14 2 15 3 16 5 17 1 19
REMARK H PARENT 16 9 5 18 1 20
REMARK Flexibility Score: inf
ROOT
ATOM      1  C   UNL     1      26.561  -0.104  26.931  1.00  0.00     0.044 C 
ENDROOT
BRANCH   1   2
ATOM      2  C   UNL     1      25.617  -0.990  26.160  1.00  0.00    -0.006 A 
ATOM      3  C   UNL     1      23.704  -1.219  24.674  1.00  0.00     0.001 A 
ATOM      4  C   UNL     1      23.793  -2.609  24.766  1.00  0.00     0.004 A 
ATOM      5  C   UNL     1      24.608  -0.412  25.370  1.00  0.00     0.007 A 
ATOM      6  C   UNL     1      24.782  -3.196  25.560  1.00  0.00     0.046 A 
ATOM      7  C   UNL     1      25.692  -2.394  26.265  1.00  0.00     0.118 A 
BRANCH   7   8
ATOM      8  O   UNL     1      26.667  -2.986  27.067  1.00  0.00    -0.508 OA
ATOM      9  H   UNL     1      26.446  -3.751  27.695  1.00  0.00     0.293 HD
ENDBRANCH   7   8
ENDBRANCH   1   2
BRANCH   1  10
ATOM     10  C   UNL     1      26.026   0.156  28.343  1.00  0.00     0.040 C 
BRANCH  10  11
ATOM     11  C   UNL     1      25.740   1.622  28.538  1.00  0.00    -0.040 A 
ATOM     12  C   UNL     1      24.513   2.037  29.079  1.00  0.00     0.050 A 
ATOM     13  C   UNL     1      26.720   2.581  28.235  1.00  0.00     0.050 A 
ATOM     14  C   UNL     1      24.258   3.399  29.292  1.00  0.00     0.119 A 
ATOM     15  C   UNL     1      26.466   3.943  28.448  1.00  0.00     0.119 A 
ATOM     16  C   UNL     1      25.235   4.348  28.973  1.00  0.00     0.092 A 
BRANCH  14  17
ATOM     17  O   UNL     1      23.041   3.819  29.822  1.00  0.00    -0.508 OA
ATOM     18  H   UNL     1      22.751   4.789  29.779  1.00  0.00     0.293 HD
ENDBRANCH  14  17
BRANCH  15  19
ATOM     19  O   UNL     1      27.431   4.900  28.143  1.00  0.00    -0.508 OA
ATOM     20  H   UNL     1      27.177   5.852  27.903  1.00  0.00     0.293 HD
ENDBRANCH  15  19
ENDBRANCH  10  11
ENDBRANCH   1  10
TORSDOF 6
ENDMDL
MODEL 9
REMARK VINA RESULT:    -6.590     13.424     15.437
REMARK INTER + INTRA:          -8.909
REMARK INTER:                  -8.364
REMARK INTRA:                  -0.546
REMARK UNBOUND:                -0.586
REMARK SMILES Oc1cc(O)cc(CCc2ccccc2O)c1
REMARK SMILES IDX 9 1 10 2 12 3 13 4 11 5 14 6 15 7 16 8 8 10 7 11 6 12 17 13
REMARK SMILES IDX 4 14 2 15 3 16 5 17 1 19
REMARK H PARENT 16 9 5 18 1 20
REMARK Flexibility Score: inf
ROOT
ATOM      1  C   UNL     1      13.691  -2.603  35.673  1.00  0.00     0.044 C 
ENDROOT
BRANCH   1   2
ATOM      2  C   UNL     1      12.372  -2.697  34.950  1.00  0.00    -0.006 A 
ATOM      3  C   UNL     1      10.294  -1.649  34.240  1.00  0.00     0.001 A 
ATOM      4  C   UNL     1       9.875  -2.853  33.672  1.00  0.00     0.004 A 
ATOM      5  C   UNL     1      11.534  -1.570  34.880  1.00  0.00     0.007 A 
ATOM      6  C   UNL     1      10.692  -3.984  33.747  1.00  0.00     0.046 A 
ATOM      7  C   UNL     1      11.937  -3.915  34.390  1.00  0.00     0.118 A 
BRANCH   7   8
ATOM      8  O   UNL     1      12.741  -5.053  34.474  1.00  0.00    -0.508 OA
ATOM      9  H   UNL     1      13.636  -5.107  34.000  1.00  0.00     0.293 HD
ENDBRANCH   7   8
ENDBRANCH   1   2
BRANCH   1  10
ATOM     10  C   UNL     1      14.817  -2.247  34.699  1.00  0.00     0.040 C 
BRANCH  10  11
ATOM     11  C   UNL     1      15.797  -3.384  34.585  1.00  0.00    -0.040 A 
ATOM     12  C   UNL     1      16.319  -3.745  33.332  1.00  0.00     0.050 A 
ATOM     13  C   UNL     1      16.240  -4.055  35.736  1.00  0.00     0.050 A 
ATOM     14  C   UNL     1      17.256  -4.782  33.229  1.00  0.00     0.119 A 
ATOM     15  C   UNL     1      17.178  -5.092  35.633  1.00  0.00     0.119 A 
ATOM     16  C   UNL     1      17.681  -5.454  34.380  1.00  0.00     0.092 A 
BRANCH  14  17
ATOM     17  O   UNL     1      17.774  -5.149  31.989  1.00  0.00    -0.508 OA
ATOM     18  H   UNL     1      17.272  -5.775  31.370  1.00  0.00     0.293 HD
ENDBRANCH  14  17
BRANCH  15  19
ATOM     19  O   UNL     1      17.617  -5.767  36.770  1.00  0.00    -0.508 OA
ATOM     20  H   UNL     1      18.481  -5.515  37.237  1.00  0.00     0.293 HD
ENDBRANCH  15  19
ENDBRANCH  10  11
ENDBRANCH   1  10
TORSDOF 6
ENDMDL
