MODEL 1
REMARK VINA RESULT:    -3.031      0.000      0.000
REMARK INTER + INTRA:          -3.718
REMARK INTER:                  -3.652
REMARK INTRA:                  -0.066
REMARK UNBOUND:                -0.066
REMARK SMILES CC[C@@H](C)[C@@H]([NH3+])C(=O)[O-]
REMARK SMILES IDX 3 1 4 2 5 3 6 4 7 8 8 9 9 10 2 11 1 12
REMARK H PARENT 6 5 6 6 6 7
REMARK Flexibility Score: inf
ROOT
ATOM      1  C   UNL     1       5.854  -3.225  17.664  1.00  0.00     0.050 C 
ATOM      2  C   UNL     1       5.593  -4.307  16.599  1.00  0.00     0.014 C 
ENDROOT
BRANCH   1   3
ATOM      3  C   UNL     1       6.673  -3.760  18.883  1.00  0.00     0.230 C 
BRANCH   3   4
ATOM      4  N   UNL     1       7.876  -2.951  19.132  1.00  0.00    -0.350 N 
ATOM      5  H   UNL     1       7.671  -1.928  19.076  1.00  0.00     0.345 HD
ATOM      6  H   UNL     1       8.245  -3.161  20.089  1.00  0.00     0.345 HD
ATOM      7  H   UNL     1       8.621  -3.192  18.439  1.00  0.00     0.345 HD
ENDBRANCH   3   4
BRANCH   3   8
ATOM      8  C   UNL     1       5.843  -3.874  20.141  1.00  0.00     0.099 C 
ATOM      9  O   UNL     1       5.955  -3.008  21.048  1.00  0.00    -0.544 OA
ATOM     10  O   UNL     1       4.972  -4.942  20.321  1.00  0.00    -0.544 OA
ENDBRANCH   3   8
ENDBRANCH   1   3
BRANCH   1  11
ATOM     11  C   UNL     1       6.505  -1.989  16.993  1.00  0.00     0.006 C 
ATOM     12  C   UNL     1       5.755  -1.508  15.750  1.00  0.00     0.004 C 
ENDBRANCH   1  11
TORSDOF 4
ENDMDL
MODEL 2
REMARK VINA RESULT:    -3.006      9.665     10.428
REMARK INTER + INTRA:          -3.687
REMARK INTER:                  -3.539
REMARK INTRA:                  -0.148
REMARK UNBOUND:                -0.066
REMARK SMILES CC[C@@H](C)[C@@H]([NH3+])C(=O)[O-]
REMARK SMILES IDX 3 1 4 2 5 3 6 4 7 8 8 9 9 10 2 11 1 12
REMARK H PARENT 6 5 6 6 6 7
REMARK Flexibility Score: inf
ROOT
ATOM      1  C   UNL     1      11.812  -9.377  24.100  1.00  0.00     0.050 C 
ATOM      2  C   UNL     1      10.927  -9.915  25.240  1.00  0.00     0.014 C 
ENDROOT
BRANCH   1   3
ATOM      3  C   UNL     1      11.719 -10.242  22.801  1.00  0.00     0.230 C 
BRANCH   3   4
ATOM      4  N   UNL     1      10.937  -9.572  21.750  1.00  0.00    -0.350 N 
ATOM      5  H   UNL     1      10.453 -10.262  21.132  1.00  0.00     0.345 HD
ATOM      6  H   UNL     1      10.212  -8.961  22.193  1.00  0.00     0.345 HD
ATOM      7  H   UNL     1      11.561  -8.966  21.169  1.00  0.00     0.345 HD
ENDBRANCH   3   4
BRANCH   3   8
ATOM      8  C   UNL     1      13.075 -10.649  22.272  1.00  0.00     0.099 C 
ATOM      9  O   UNL     1      13.932  -9.768  21.994  1.00  0.00    -0.544 OA
ATOM     10  O   UNL     1      13.382 -11.988  22.062  1.00  0.00    -0.544 OA
ENDBRANCH   3   8
ENDBRANCH   1   3
BRANCH   1  11
ATOM     11  C   UNL     1      11.483  -7.882  23.855  1.00  0.00     0.006 C 
ATOM     12  C   UNL     1      12.723  -6.988  23.811  1.00  0.00     0.004 C 
ENDBRANCH   1  11
TORSDOF 4
ENDMDL
MODEL 3
REMARK VINA RESULT:    -2.917      1.323      1.740
REMARK INTER + INTRA:          -3.580
REMARK INTER:                  -3.515
REMARK INTRA:                  -0.065
REMARK UNBOUND:                -0.066
REMARK SMILES CC[C@@H](C)[C@@H]([NH3+])C(=O)[O-]
REMARK SMILES IDX 3 1 4 2 5 3 6 4 7 8 8 9 9 10 2 11 1 12
REMARK H PARENT 6 5 6 6 6 7
REMARK Flexibility Score: inf
ROOT
ATOM      1  C   UNL     1       5.434  -3.465  18.463  1.00  0.00     0.050 C 
ATOM      2  C   UNL     1       4.399  -4.599  18.583  1.00  0.00     0.014 C 
ENDROOT
BRANCH   1   3
ATOM      3  C   UNL     1       6.546  -3.541  19.560  1.00  0.00     0.230 C 
BRANCH   3   4
ATOM      4  N   UNL     1       7.849  -3.086  19.052  1.00  0.00    -0.350 N 
ATOM      5  H   UNL     1       8.233  -3.741  18.333  1.00  0.00     0.345 HD
ATOM      6  H   UNL     1       7.741  -2.142  18.613  1.00  0.00     0.345 HD
ATOM      7  H   UNL     1       8.532  -3.000  19.840  1.00  0.00     0.345 HD
ENDBRANCH   3   4
BRANCH   3   8
ATOM      8  C   UNL     1       6.177  -2.791  20.818  1.00  0.00     0.099 C 
ATOM      9  O   UNL     1       6.724  -1.685  21.073  1.00  0.00    -0.544 OA
ATOM     10  O   UNL     1       5.257  -3.319  21.715  1.00  0.00    -0.544 OA
ENDBRANCH   3   8
ENDBRANCH   1   3
BRANCH   1  11
ATOM     11  C   UNL     1       6.006  -3.442  17.022  1.00  0.00     0.006 C 
ATOM     12  C   UNL     1       5.401  -4.510  16.111  1.00  0.00     0.004 C 
ENDBRANCH   1  11
TORSDOF 4
ENDMDL
MODEL 4
REMARK VINA RESULT:    -2.903      9.218     10.228
REMARK INTER + INTRA:          -3.563
REMARK INTER:                  -3.443
REMARK INTRA:                  -0.120
REMARK UNBOUND:                -0.066
REMARK SMILES CC[C@@H](C)[C@@H]([NH3+])C(=O)[O-]
REMARK SMILES IDX 3 1 4 2 5 3 6 4 7 8 8 9 9 10 2 11 1 12
REMARK H PARENT 6 5 6 6 6 7
REMARK Flexibility Score: inf
ROOT
ATOM      1  C   UNL     1      11.129  -8.853  23.988  1.00  0.00     0.050 C 
ATOM      2  C   UNL     1      12.025  -7.611  23.819  1.00  0.00     0.014 C 
ENDROOT
BRANCH   1   3
ATOM      3  C   UNL     1      10.869  -9.600  22.639  1.00  0.00     0.230 C 
BRANCH   3   4
ATOM      4  N   UNL     1      12.124  -9.936  21.949  1.00  0.00    -0.350 N 
ATOM      5  H   UNL     1      12.338 -10.957  22.015  1.00  0.00     0.345 HD
ATOM      6  H   UNL     1      12.043  -9.682  20.937  1.00  0.00     0.345 HD
ATOM      7  H   UNL     1      12.916  -9.390  22.358  1.00  0.00     0.345 HD
ENDBRANCH   3   4
BRANCH   3   8
ATOM      8  C   UNL     1      10.013 -10.833  22.810  1.00  0.00     0.099 C 
ATOM      9  O   UNL     1       8.827 -10.723  23.221  1.00  0.00    -0.544 OA
ATOM     10  O   UNL     1      10.527 -12.096  22.543  1.00  0.00    -0.544 OA
ENDBRANCH   3   8
ENDBRANCH   1   3
BRANCH   1  11
ATOM     11  C   UNL     1      11.724  -9.773  25.084  1.00  0.00     0.006 C 
ATOM     12  C   UNL     1      13.009  -9.223  25.705  1.00  0.00     0.004 C 
ENDBRANCH   1  11
TORSDOF 4
ENDMDL
MODEL 5
REMARK VINA RESULT:    -2.843      1.899      2.705
REMARK INTER + INTRA:          -3.491
REMARK INTER:                  -3.408
REMARK INTRA:                  -0.083
REMARK UNBOUND:                -0.066
REMARK SMILES CC[C@@H](C)[C@@H]([NH3+])C(=O)[O-]
REMARK SMILES IDX 3 1 4 2 5 3 6 4 7 8 8 9 9 10 2 11 1 12
REMARK H PARENT 6 5 6 6 6 7
REMARK Flexibility Score: inf
ROOT
ATOM      1  C   UNL     1       6.787  -3.413  19.408  1.00  0.00     0.050 C 
ATOM      2  C   UNL     1       7.580  -2.497  18.457  1.00  0.00     0.014 C 
ENDROOT
BRANCH   1   3
ATOM      3  C   UNL     1       6.235  -2.656  20.659  1.00  0.00     0.230 C 
BRANCH   3   4
ATOM      4  N   UNL     1       7.153  -1.598  21.109  1.00  0.00    -0.350 N 
ATOM      5  H   UNL     1       7.792  -1.291  20.341  1.00  0.00     0.345 HD
ATOM      6  H   UNL     1       6.599  -0.770  21.428  1.00  0.00     0.345 HD
ATOM      7  H   UNL     1       7.723  -1.938  21.918  1.00  0.00     0.345 HD
ENDBRANCH   3   4
BRANCH   3   8
ATOM      8  C   UNL     1       4.849  -2.096  20.439  1.00  0.00     0.099 C 
ATOM      9  O   UNL     1       3.861  -2.614  21.022  1.00  0.00    -0.544 OA
ATOM     10  O   UNL     1       4.646  -1.026  19.575  1.00  0.00    -0.544 OA
ENDBRANCH   3   8
ENDBRANCH   1   3
BRANCH   1  11
ATOM     11  C   UNL     1       5.681  -4.150  18.610  1.00  0.00     0.006 C 
ATOM     12  C   UNL     1       5.770  -3.924  17.100  1.00  0.00     0.004 C 
ENDBRANCH   1  11
TORSDOF 4
ENDMDL
MODEL 6
REMARK VINA RESULT:    -2.840     12.069     12.833
REMARK INTER + INTRA:          -3.488
REMARK INTER:                  -3.450
REMARK INTRA:                  -0.037
REMARK UNBOUND:                -0.066
REMARK SMILES CC[C@@H](C)[C@@H]([NH3+])C(=O)[O-]
REMARK SMILES IDX 3 1 4 2 5 3 6 4 7 8 8 9 9 10 2 11 1 12
REMARK H PARENT 6 5 6 6 6 7
REMARK Flexibility Score: inf
ROOT
ATOM      1  C   UNL     1      10.743 -12.299  12.889  1.00  0.00     0.050 C 
ATOM      2  C   UNL     1      11.954 -13.249  12.942  1.00  0.00     0.014 C 
ENDROOT
BRANCH   1   3
ATOM      3  C   UNL     1      10.686 -11.465  11.567  1.00  0.00     0.230 C 
BRANCH   3   4
ATOM      4  N   UNL     1      11.998 -10.900  11.218  1.00  0.00    -0.350 N 
ATOM      5  H   UNL     1      12.091  -9.912  11.545  1.00  0.00     0.345 HD
ATOM      6  H   UNL     1      12.752 -11.469  11.668  1.00  0.00     0.345 HD
ATOM      7  H   UNL     1      12.140 -10.936  10.182  1.00  0.00     0.345 HD
ENDBRANCH   3   4
BRANCH   3   8
ATOM      8  C   UNL     1      10.121 -12.249  10.406  1.00  0.00     0.099 C 
ATOM      9  O   UNL     1       9.032 -11.897   9.880  1.00  0.00    -0.544 OA
ATOM     10  O   UNL     1      10.778 -13.374   9.923  1.00  0.00    -0.544 OA
ENDBRANCH   3   8
ENDBRANCH   1   3
BRANCH   1  11
ATOM     11  C   UNL     1       9.445 -13.104  13.153  1.00  0.00     0.006 C 
ATOM     12  C   UNL     1       9.701 -14.569  13.507  1.00  0.00     0.004 C 
ENDBRANCH   1  11
TORSDOF 4
ENDMDL
MODEL 7
REMARK VINA RESULT:    -2.836      8.742      9.253
REMARK INTER + INTRA:          -3.483
REMARK INTER:                  -3.351
REMARK INTRA:                  -0.132
REMARK UNBOUND:                -0.066
REMARK SMILES CC[C@@H](C)[C@@H]([NH3+])C(=O)[O-]
REMARK SMILES IDX 3 1 4 2 5 3 6 4 7 8 8 9 9 10 2 11 1 12
REMARK H PARENT 6 5 6 6 6 7
REMARK Flexibility Score: inf
ROOT
ATOM      1  C   UNL     1      14.146  -4.149  14.401  1.00  0.00     0.050 C 
ATOM      2  C   UNL     1      13.091  -4.210  13.280  1.00  0.00     0.014 C 
ENDROOT
BRANCH   1   3
ATOM      3  C   UNL     1      13.571  -3.594  15.745  1.00  0.00     0.230 C 
BRANCH   3   4
ATOM      4  N   UNL     1      13.369  -4.662  16.737  1.00  0.00    -0.350 N 
ATOM      5  H   UNL     1      13.634  -4.349  17.698  1.00  0.00     0.345 HD
ATOM      6  H   UNL     1      12.360  -4.940  16.747  1.00  0.00     0.345 HD
ATOM      7  H   UNL     1      13.935  -5.503  16.479  1.00  0.00     0.345 HD
ENDBRANCH   3   4
BRANCH   3   8
ATOM      8  C   UNL     1      14.414  -2.484  16.327  1.00  0.00     0.099 C 
ATOM      9  O   UNL     1      15.182  -2.720  17.297  1.00  0.00    -0.544 OA
ATOM     10  O   UNL     1      14.333  -1.192  15.821  1.00  0.00    -0.544 OA
ENDBRANCH   3   8
ENDBRANCH   1   3
BRANCH   1  11
ATOM     11  C   UNL     1      14.813  -5.540  14.556  1.00  0.00     0.006 C 
ATOM     12  C   UNL     1      16.312  -5.465  14.848  1.00  0.00     0.004 C 
ENDBRANCH   1  11
TORSDOF 4
ENDMDL
MODEL 8
REMARK VINA RESULT:    -2.803      9.227     10.050
REMARK INTER + INTRA:          -3.442
REMARK INTER:                  -3.359
REMARK INTRA:                  -0.083
REMARK UNBOUND:                -0.066
REMARK SMILES CC[C@@H](C)[C@@H]([NH3+])C(=O)[O-]
REMARK SMILES IDX 3 1 4 2 5 3 6 4 7 8 8 9 9 10 2 11 1 12
REMARK H PARENT 6 5 6 6 6 7
REMARK Flexibility Score: inf
ROOT
ATOM      1  C   UNL     1      12.472  -8.786  23.704  1.00  0.00     0.050 C 
ATOM      2  C   UNL     1      12.818  -7.285  23.750  1.00  0.00     0.014 C 
ENDROOT
BRANCH   1   3
ATOM      3  C   UNL     1      10.993  -9.054  23.273  1.00  0.00     0.230 C 
BRANCH   3   4
ATOM      4  N   UNL     1      10.902  -9.501  21.875  1.00  0.00    -0.350 N 
ATOM      5  H   UNL     1       9.911  -9.527  21.543  1.00  0.00     0.345 HD
ATOM      6  H   UNL     1      11.437  -8.842  21.263  1.00  0.00     0.345 HD
ATOM      7  H   UNL     1      11.324 -10.453  21.774  1.00  0.00     0.345 HD
ENDBRANCH   3   4
BRANCH   3   8
ATOM      8  C   UNL     1      10.286 -10.027  24.187  1.00  0.00     0.099 C 
ATOM      9  O   UNL     1       9.250 -10.623  23.790  1.00  0.00    -0.544 OA
ATOM     10  O   UNL     1      10.752 -10.256  25.476  1.00  0.00    -0.544 OA
ENDBRANCH   3   8
ENDBRANCH   1   3
BRANCH   1  11
ATOM     11  C   UNL     1      13.505  -9.524  22.814  1.00  0.00     0.006 C 
ATOM     12  C   UNL     1      14.810  -8.750  22.629  1.00  0.00     0.004 C 
ENDBRANCH   1  11
TORSDOF 4
ENDMDL
MODEL 9
REMARK VINA RESULT:    -2.793      9.649     10.770
REMARK INTER + INTRA:          -3.430
REMARK INTER:                  -3.333
REMARK INTRA:                  -0.097
REMARK UNBOUND:                -0.066
REMARK SMILES CC[C@@H](C)[C@@H]([NH3+])C(=O)[O-]
REMARK SMILES IDX 3 1 4 2 5 3 6 4 7 8 8 9 9 10 2 11 1 12
REMARK H PARENT 6 5 6 6 6 7
REMARK Flexibility Score: inf
ROOT
ATOM      1  C   UNL     1      11.428  -9.105  24.154  1.00  0.00     0.050 C 
ATOM      2  C   UNL     1      11.841  -7.670  23.775  1.00  0.00     0.014 C 
ENDROOT
BRANCH   1   3
ATOM      3  C   UNL     1      11.393 -10.070  22.924  1.00  0.00     0.230 C 
BRANCH   3   4
ATOM      4  N   UNL     1      10.813  -9.424  21.737  1.00  0.00    -0.350 N 
ATOM      5  H   UNL     1      10.895 -10.031  20.890  1.00  0.00     0.345 HD
ATOM      6  H   UNL     1       9.799  -9.230  21.907  1.00  0.00     0.345 HD
ATOM      7  H   UNL     1      11.291  -8.511  21.555  1.00  0.00     0.345 HD
ENDBRANCH   3   4
BRANCH   3   8
ATOM      8  C   UNL     1      12.749 -10.652  22.600  1.00  0.00     0.099 C 
ATOM      9  O   UNL     1      13.607  -9.951  22.002  1.00  0.00    -0.544 OA
ATOM     10  O   UNL     1      13.054 -11.967  22.932  1.00  0.00    -0.544 OA
ENDBRANCH   3   8
ENDBRANCH   1   3
BRANCH   1  11
ATOM     11  C   UNL     1      12.337  -9.617  25.300  1.00  0.00     0.006 C 
ATOM     12  C   UNL     1      13.443  -8.634  25.683  1.00  0.00     0.004 C 
ENDBRANCH   1  11
TORSDOF 4
ENDMDL
