MODEL 1
REMARK VINA RESULT:    -3.641      0.000      0.000
REMARK INTER + INTRA:          -5.553
REMARK INTER:                  -5.130
REMARK INTRA:                  -0.423
REMARK UNBOUND:                -0.423
REMARK SMILES CCCCCCCCC(=O)[O-]
REMARK SMILES IDX 6 1 7 2 8 3 9 4 10 5 11 6 5 7 4 8 3 9 2 10 1 11
REMARK H PARENT
REMARK Flexibility Score: inf
ROOT
ATOM      1  C   UNL     1      21.149  13.615 -16.482  1.00  0.00     0.000 C 
ENDROOT
BRANCH   1   2
ATOM      2  C   UNL     1      21.776  15.016 -16.371  1.00  0.00     0.006 C 
BRANCH   2   3
ATOM      3  C   UNL     1      20.727  16.132 -16.279  1.00  0.00     0.053 C 
BRANCH   3   4
ATOM      4  C   UNL     1      20.584  16.824 -17.597  1.00  0.00     0.041 C 
ATOM      5  O   UNL     1      21.501  17.575 -18.022  1.00  0.00    -0.550 OA
ATOM      6  O   UNL     1      19.417  16.678 -18.336  1.00  0.00    -0.550 OA
ENDBRANCH   3   4
ENDBRANCH   2   3
ENDBRANCH   1   2
BRANCH   1   7
ATOM      7  C   UNL     1      19.722  13.493 -15.908  1.00  0.00     0.000 C 
BRANCH   7   8
ATOM      8  C   UNL     1      18.645  13.052 -16.919  1.00  0.00    -0.000 C 
BRANCH   8   9
ATOM      9  C   UNL     1      18.000  11.686 -16.626  1.00  0.00    -0.000 C 
BRANCH   9  10
ATOM     10  C   UNL     1      18.602  10.551 -17.469  1.00  0.00    -0.003 C 
ATOM     11  C   UNL     1      19.277   9.508 -16.583  1.00  0.00     0.004 C 
ENDBRANCH   9  10
ENDBRANCH   8   9
ENDBRANCH   7   8
ENDBRANCH   1   7
TORSDOF 7
ENDMDL
MODEL 2
REMARK VINA RESULT:    -3.546      3.034      5.141
REMARK INTER + INTRA:          -5.419
REMARK INTER:                  -4.727
REMARK INTRA:                  -0.692
REMARK UNBOUND:                -0.423
REMARK SMILES CCCCCCCCC(=O)[O-]
REMARK SMILES IDX 6 1 7 2 8 3 9 4 10 5 11 6 5 7 4 8 3 9 2 10 1 11
REMARK H PARENT
REMARK Flexibility Score: inf
ROOT
ATOM      1  C   UNL     1      20.911  13.446 -16.427  1.00  0.00     0.000 C 
ENDROOT
BRANCH   1   2
ATOM      2  C   UNL     1      19.396  13.539 -16.176  1.00  0.00     0.006 C 
BRANCH   2   3
ATOM      3  C   UNL     1      18.567  13.309 -17.446  1.00  0.00     0.053 C 
BRANCH   3   4
ATOM      4  C   UNL     1      17.822  12.015 -17.355  1.00  0.00     0.041 C 
ATOM      5  O   UNL     1      17.450  11.574 -16.235  1.00  0.00    -0.550 OA
ATOM      6  O   UNL     1      17.581  11.269 -18.502  1.00  0.00    -0.550 OA
ENDBRANCH   3   4
ENDBRANCH   2   3
ENDBRANCH   1   2
BRANCH   1   7
ATOM      7  C   UNL     1      21.658  14.796 -16.410  1.00  0.00     0.000 C 
BRANCH   7   8
ATOM      8  C   UNL     1      20.758  16.041 -16.280  1.00  0.00    -0.000 C 
BRANCH   8   9
ATOM      9  C   UNL     1      20.826  17.019 -17.465  1.00  0.00    -0.000 C 
BRANCH   9  10
ATOM     10  C   UNL     1      19.773  16.723 -18.544  1.00  0.00    -0.003 C 
ATOM     11  C   UNL     1      20.383  15.948 -19.708  1.00  0.00     0.004 C 
ENDBRANCH   9  10
ENDBRANCH   8   9
ENDBRANCH   7   8
ENDBRANCH   1   7
TORSDOF 7
ENDMDL
MODEL 3
REMARK VINA RESULT:    -3.540      2.922      5.549
REMARK INTER + INTRA:          -5.411
REMARK INTER:                  -4.890
REMARK INTRA:                  -0.521
REMARK UNBOUND:                -0.423
REMARK SMILES CCCCCCCCC(=O)[O-]
REMARK SMILES IDX 6 1 7 2 8 3 9 4 10 5 11 6 5 7 4 8 3 9 2 10 1 11
REMARK H PARENT
REMARK Flexibility Score: inf
ROOT
ATOM      1  C   UNL     1      19.977  13.595 -15.862  1.00  0.00     0.000 C 
ENDROOT
BRANCH   1   2
ATOM      2  C   UNL     1      18.920  13.071 -16.851  1.00  0.00     0.006 C 
BRANCH   2   3
ATOM      3  C   UNL     1      18.383  11.685 -16.469  1.00  0.00     0.053 C 
BRANCH   3   4
ATOM      4  C   UNL     1      19.292  10.614 -16.980  1.00  0.00     0.041 C 
ATOM      5  O   UNL     1      19.349   9.498 -16.399  1.00  0.00    -0.550 OA
ATOM      6  O   UNL     1      20.116  10.863 -18.072  1.00  0.00    -0.550 OA
ENDBRANCH   3   4
ENDBRANCH   2   3
ENDBRANCH   1   2
BRANCH   1   7
ATOM      7  C   UNL     1      21.357  13.894 -16.483  1.00  0.00     0.000 C 
BRANCH   7   8
ATOM      8  C   UNL     1      21.821  15.360 -16.371  1.00  0.00    -0.000 C 
BRANCH   8   9
ATOM      9  C   UNL     1      20.718  16.410 -16.598  1.00  0.00    -0.000 C 
BRANCH   9  10
ATOM     10  C   UNL     1      20.840  17.116 -17.957  1.00  0.00    -0.003 C 
ATOM     11  C   UNL     1      19.891  16.502 -18.981  1.00  0.00     0.004 C 
ENDBRANCH   9  10
ENDBRANCH   8   9
ENDBRANCH   7   8
ENDBRANCH   1   7
TORSDOF 7
ENDMDL
MODEL 4
REMARK VINA RESULT:    -3.520      0.532      1.115
REMARK INTER + INTRA:          -5.384
REMARK INTER:                  -4.935
REMARK INTRA:                  -0.448
REMARK UNBOUND:                -0.423
REMARK SMILES CCCCCCCCC(=O)[O-]
REMARK SMILES IDX 6 1 7 2 8 3 9 4 10 5 11 6 5 7 4 8 3 9 2 10 1 11
REMARK H PARENT
REMARK Flexibility Score: inf
ROOT
ATOM      1  C   UNL     1      20.995  13.514 -16.387  1.00  0.00     0.000 C 
ENDROOT
BRANCH   1   2
ATOM      2  C   UNL     1      21.663  14.898 -16.453  1.00  0.00     0.006 C 
BRANCH   2   3
ATOM      3  C   UNL     1      20.662  16.051 -16.300  1.00  0.00     0.053 C 
BRANCH   3   4
ATOM      4  C   UNL     1      20.513  16.787 -17.593  1.00  0.00     0.041 C 
ATOM      5  O   UNL     1      19.431  16.730 -18.235  1.00  0.00    -0.550 OA
ATOM      6  O   UNL     1      21.586  17.499 -18.116  1.00  0.00    -0.550 OA
ENDBRANCH   3   4
ENDBRANCH   2   3
ENDBRANCH   1   2
BRANCH   1   7
ATOM      7  C   UNL     1      19.650  13.476 -15.632  1.00  0.00     0.000 C 
BRANCH   7   8
ATOM      8  C   UNL     1      18.734  12.288 -15.986  1.00  0.00    -0.000 C 
BRANCH   8   9
ATOM      9  C   UNL     1      18.533  12.048 -17.492  1.00  0.00    -0.000 C 
BRANCH   9  10
ATOM     10  C   UNL     1      18.916  10.624 -17.924  1.00  0.00    -0.003 C 
ATOM     11  C   UNL     1      19.219   9.747 -16.714  1.00  0.00     0.004 C 
ENDBRANCH   9  10
ENDBRANCH   8   9
ENDBRANCH   7   8
ENDBRANCH   1   7
TORSDOF 7
ENDMDL
MODEL 5
REMARK VINA RESULT:    -3.512      4.222      6.607
REMARK INTER + INTRA:          -5.372
REMARK INTER:                  -5.137
REMARK INTRA:                  -0.235
REMARK UNBOUND:                -0.423
REMARK SMILES CCCCCCCCC(=O)[O-]
REMARK SMILES IDX 6 1 7 2 8 3 9 4 10 5 11 6 5 7 4 8 3 9 2 10 1 11
REMARK H PARENT
REMARK Flexibility Score: inf
ROOT
ATOM      1  C   UNL     1      18.279  10.901 -17.011  1.00  0.00     0.000 C 
ENDROOT
BRANCH   1   2
ATOM      2  C   UNL     1      19.576  10.075 -16.954  1.00  0.00     0.006 C 
BRANCH   2   3
ATOM      3  C   UNL     1      19.370   8.684 -16.343  1.00  0.00     0.053 C 
BRANCH   3   4
ATOM      4  C   UNL     1      20.139   7.657 -17.111  1.00  0.00     0.041 C 
ATOM      5  O   UNL     1      21.130   7.999 -17.810  1.00  0.00    -0.550 OA
ATOM      6  O   UNL     1      19.733   6.328 -17.096  1.00  0.00    -0.550 OA
ENDBRANCH   3   4
ENDBRANCH   2   3
ENDBRANCH   1   2
BRANCH   1   7
ATOM      7  C   UNL     1      18.445  12.398 -16.679  1.00  0.00     0.000 C 
BRANCH   7   8
ATOM      8  C   UNL     1      19.720  12.757 -15.891  1.00  0.00    -0.000 C 
BRANCH   8   9
ATOM      9  C   UNL     1      19.857  14.243 -15.517  1.00  0.00    -0.000 C 
BRANCH   9  10
ATOM     10  C   UNL     1      21.021  14.935 -16.244  1.00  0.00    -0.003 C 
ATOM     11  C   UNL     1      20.650  16.360 -16.642  1.00  0.00     0.004 C 
ENDBRANCH   9  10
ENDBRANCH   8   9
ENDBRANCH   7   8
ENDBRANCH   1   7
TORSDOF 7
ENDMDL
MODEL 6
REMARK VINA RESULT:    -3.477      1.965      3.159
REMARK INTER + INTRA:          -5.322
REMARK INTER:                  -4.956
REMARK INTRA:                  -0.366
REMARK UNBOUND:                -0.423
REMARK SMILES CCCCCCCCC(=O)[O-]
REMARK SMILES IDX 6 1 7 2 8 3 9 4 10 5 11 6 5 7 4 8 3 9 2 10 1 11
REMARK H PARENT
REMARK Flexibility Score: inf
ROOT
ATOM      1  C   UNL     1      18.374  12.589 -16.812  1.00  0.00     0.000 C 
ENDROOT
BRANCH   1   2
ATOM      2  C   UNL     1      19.385  12.892 -15.692  1.00  0.00     0.006 C 
BRANCH   2   3
ATOM      3  C   UNL     1      19.989  14.298 -15.801  1.00  0.00     0.053 C 
BRANCH   3   4
ATOM      4  C   UNL     1      21.369  14.230 -16.374  1.00  0.00     0.041 C 
ATOM      5  O   UNL     1      21.848  13.126 -16.746  1.00  0.00    -0.550 OA
ATOM      6  O   UNL     1      22.147  15.379 -16.453  1.00  0.00    -0.550 OA
ENDBRANCH   3   4
ENDBRANCH   2   3
ENDBRANCH   1   2
BRANCH   1   7
ATOM      7  C   UNL     1      18.380  11.131 -17.317  1.00  0.00     0.000 C 
BRANCH   7   8
ATOM      8  C   UNL     1      19.537  10.259 -16.788  1.00  0.00    -0.000 C 
BRANCH   8   9
ATOM      9  C   UNL     1      19.129   8.851 -16.323  1.00  0.00    -0.000 C 
BRANCH   9  10
ATOM     10  C   UNL     1      19.719   7.739 -17.203  1.00  0.00    -0.003 C 
ATOM     11  C   UNL     1      21.009   8.199 -17.876  1.00  0.00     0.004 C 
ENDBRANCH   9  10
ENDBRANCH   8   9
ENDBRANCH   7   8
ENDBRANCH   1   7
TORSDOF 7
ENDMDL
MODEL 7
REMARK VINA RESULT:    -3.442      3.796      6.146
REMARK INTER + INTRA:          -5.273
REMARK INTER:                  -4.918
REMARK INTRA:                  -0.354
REMARK UNBOUND:                -0.423
REMARK SMILES CCCCCCCCC(=O)[O-]
REMARK SMILES IDX 6 1 7 2 8 3 9 4 10 5 11 6 5 7 4 8 3 9 2 10 1 11
REMARK H PARENT
REMARK Flexibility Score: inf
ROOT
ATOM      1  C   UNL     1      18.450  12.683 -16.823  1.00  0.00     0.000 C 
ENDROOT
BRANCH   1   2
ATOM      2  C   UNL     1      18.370  11.231 -17.326  1.00  0.00     0.006 C 
BRANCH   2   3
ATOM      3  C   UNL     1      19.526  10.360 -16.818  1.00  0.00     0.053 C 
BRANCH   3   4
ATOM      4  C   UNL     1      19.326   8.937 -17.230  1.00  0.00     0.041 C 
ATOM      5  O   UNL     1      18.634   8.661 -18.245  1.00  0.00    -0.550 OA
ATOM      6  O   UNL     1      19.864   7.909 -16.464  1.00  0.00    -0.550 OA
ENDBRANCH   3   4
ENDBRANCH   2   3
ENDBRANCH   1   2
BRANCH   1   7
ATOM      7  C   UNL     1      19.377  12.901 -15.609  1.00  0.00     0.000 C 
BRANCH   7   8
ATOM      8  C   UNL     1      19.843  14.355 -15.394  1.00  0.00    -0.000 C 
BRANCH   8   9
ATOM      9  C   UNL     1      21.038  14.789 -16.261  1.00  0.00    -0.000 C 
BRANCH   9  10
ATOM     10  C   UNL     1      20.940  16.252 -16.719  1.00  0.00    -0.003 C 
ATOM     11  C   UNL     1      19.887  16.416 -17.811  1.00  0.00     0.004 C 
ENDBRANCH   9  10
ENDBRANCH   8   9
ENDBRANCH   7   8
ENDBRANCH   1   7
TORSDOF 7
ENDMDL
MODEL 8
REMARK VINA RESULT:    -3.425      2.016      4.655
REMARK INTER + INTRA:          -5.250
REMARK INTER:                  -4.611
REMARK INTRA:                  -0.639
REMARK UNBOUND:                -0.423
REMARK SMILES CCCCCCCCC(=O)[O-]
REMARK SMILES IDX 6 1 7 2 8 3 9 4 10 5 11 6 5 7 4 8 3 9 2 10 1 11
REMARK H PARENT
REMARK Flexibility Score: inf
ROOT
ATOM      1  C   UNL     1      19.515  11.977 -16.337  1.00  0.00     0.000 C 
ENDROOT
BRANCH   1   2
ATOM      2  C   UNL     1      18.281  11.470 -17.103  1.00  0.00     0.006 C 
BRANCH   2   3
ATOM      3  C   UNL     1      17.706  12.518 -18.065  1.00  0.00     0.053 C 
BRANCH   3   4
ATOM      4  C   UNL     1      18.714  12.877 -19.108  1.00  0.00     0.041 C 
ATOM      5  O   UNL     1      19.100  12.016 -19.942  1.00  0.00    -0.550 OA
ATOM      6  O   UNL     1      19.268  14.152 -19.131  1.00  0.00    -0.550 OA
ENDBRANCH   3   4
ENDBRANCH   2   3
ENDBRANCH   1   2
BRANCH   1   7
ATOM      7  C   UNL     1      19.233  13.103 -15.322  1.00  0.00     0.000 C 
BRANCH   7   8
ATOM      8  C   UNL     1      19.978  14.426 -15.588  1.00  0.00    -0.000 C 
BRANCH   8   9
ATOM      9  C   UNL     1      21.330  14.278 -16.308  1.00  0.00    -0.000 C 
BRANCH   9  10
ATOM     10  C   UNL     1      21.844  15.603 -16.889  1.00  0.00    -0.003 C 
ATOM     11  C   UNL     1      20.725  16.638 -16.967  1.00  0.00     0.004 C 
ENDBRANCH   9  10
ENDBRANCH   8   9
ENDBRANCH   7   8
ENDBRANCH   1   7
TORSDOF 7
ENDMDL
MODEL 9
REMARK VINA RESULT:    -3.413      1.415      1.975
REMARK INTER + INTRA:          -5.233
REMARK INTER:                  -4.755
REMARK INTRA:                  -0.477
REMARK UNBOUND:                -0.423
REMARK SMILES CCCCCCCCC(=O)[O-]
REMARK SMILES IDX 6 1 7 2 8 3 9 4 10 5 11 6 5 7 4 8 3 9 2 10 1 11
REMARK H PARENT
REMARK Flexibility Score: inf
ROOT
ATOM      1  C   UNL     1      21.617  14.871 -16.360  1.00  0.00     0.000 C 
ENDROOT
BRANCH   1   2
ATOM      2  C   UNL     1      21.802  15.940 -17.451  1.00  0.00     0.006 C 
BRANCH   2   3
ATOM      3  C   UNL     1      20.510  16.707 -17.759  1.00  0.00     0.053 C 
BRANCH   3   4
ATOM      4  C   UNL     1      19.974  16.310 -19.097  1.00  0.00     0.041 C 
ATOM      5  O   UNL     1      19.625  15.119 -19.313  1.00  0.00    -0.550 OA
ATOM      6  O   UNL     1      19.904  17.244 -20.124  1.00  0.00    -0.550 OA
ENDBRANCH   3   4
ENDBRANCH   2   3
ENDBRANCH   1   2
BRANCH   1   7
ATOM      7  C   UNL     1      20.255  14.906 -15.639  1.00  0.00     0.000 C 
BRANCH   7   8
ATOM      8  C   UNL     1      19.499  13.563 -15.599  1.00  0.00    -0.000 C 
BRANCH   8   9
ATOM      9  C   UNL     1      20.149  12.427 -16.408  1.00  0.00    -0.000 C 
BRANCH   9  10
ATOM     10  C   UNL     1      19.237  11.200 -16.549  1.00  0.00    -0.003 C 
ATOM     11  C   UNL     1      17.769  11.610 -16.593  1.00  0.00     0.004 C 
ENDBRANCH   9  10
ENDBRANCH   8   9
ENDBRANCH   7   8
ENDBRANCH   1   7
TORSDOF 7
ENDMDL
