MODEL 1
REMARK VINA RESULT:    -4.246      0.000      0.000
REMARK INTER + INTRA:          -9.856
REMARK INTER:                  -7.721
REMARK INTRA:                  -2.135
REMARK UNBOUND:                -2.135
REMARK SMILES CCCCCCCCCCCCCC[C@@H](C)C(=O)[O-]
REMARK SMILES IDX 9 1 10 2 11 3 12 4 13 5 14 6 15 7 16 8 17 9 18 10 19 11 8 12
REMARK SMILES IDX 7 13 6 14 5 15 4 16 3 17 2 18 1 19
REMARK H PARENT
REMARK Flexibility Score: inf
ROOT
ATOM      1  C   UNL     1      17.114 -21.051  23.463  1.00  0.00     0.000 C 
ENDROOT
BRANCH   1   2
ATOM      2  C   UNL     1      16.071 -20.690  24.527  1.00  0.00     0.000 C 
BRANCH   2   3
ATOM      3  C   UNL     1      14.674 -21.184  24.120  1.00  0.00     0.000 C 
BRANCH   3   4
ATOM      4  C   UNL     1      13.631 -20.054  24.058  1.00  0.00     0.000 C 
BRANCH   4   5
ATOM      5  C   UNL     1      12.534 -20.243  22.994  1.00  0.00     0.001 C 
BRANCH   5   6
ATOM      6  C   UNL     1      12.276 -18.969  22.168  1.00  0.00     0.009 C 
BRANCH   6   7
ATOM      7  C   UNL     1      11.122 -19.140  21.158  1.00  0.00     0.032 C 
ATOM      8  C   UNL     1      10.091 -20.177  21.626  1.00  0.00     0.014 C 
BRANCH   7   9
ATOM      9  C   UNL     1      10.440 -17.818  20.938  1.00  0.00     0.044 C 
ATOM     10  O   UNL     1      10.350 -17.338  19.778  1.00  0.00    -0.550 OA
ATOM     11  O   UNL     1       9.907 -17.115  22.012  1.00  0.00    -0.550 OA
ENDBRANCH   7   9
ENDBRANCH   6   7
ENDBRANCH   5   6
ENDBRANCH   4   5
ENDBRANCH   3   4
ENDBRANCH   2   3
ENDBRANCH   1   2
BRANCH   1  12
ATOM     12  C   UNL     1      16.444 -21.353  22.115  1.00  0.00     0.000 C 
BRANCH  12  13
ATOM     13  C   UNL     1      16.249 -20.095  21.253  1.00  0.00    -0.000 C 
BRANCH  13  14
ATOM     14  C   UNL     1      15.886 -20.426  19.795  1.00  0.00    -0.000 C 
BRANCH  14  15
ATOM     15  C   UNL     1      14.398 -20.187  19.489  1.00  0.00    -0.000 C 
BRANCH  15  16
ATOM     16  C   UNL     1      13.545 -21.452  19.687  1.00  0.00    -0.000 C 
BRANCH  16  17
ATOM     17  C   UNL     1      14.338 -22.751  19.453  1.00  0.00    -0.000 C 
BRANCH  17  18
ATOM     18  C   UNL     1      14.361 -23.722  20.646  1.00  0.00    -0.003 C 
ATOM     19  C   UNL     1      13.334 -23.372  21.723  1.00  0.00     0.004 C 
ENDBRANCH  17  18
ENDBRANCH  16  17
ENDBRANCH  15  16
ENDBRANCH  14  15
ENDBRANCH  13  14
ENDBRANCH  12  13
ENDBRANCH   1  12
TORSDOF 14
ENDMDL
MODEL 2
REMARK VINA RESULT:    -4.132      2.843      6.090
REMARK INTER + INTRA:          -9.648
REMARK INTER:                  -7.417
REMARK INTRA:                  -2.231
REMARK UNBOUND:                -2.135
REMARK SMILES CCCCCCCCCCCCCC[C@@H](C)C(=O)[O-]
REMARK SMILES IDX 9 1 10 2 11 3 12 4 13 5 14 6 15 7 16 8 17 9 18 10 19 11 8 12
REMARK SMILES IDX 7 13 6 14 5 15 4 16 3 17 2 18 1 19
REMARK H PARENT
REMARK Flexibility Score: inf
ROOT
ATOM      1  C   UNL     1      15.196 -18.732  20.155  1.00  0.00     0.000 C 
ENDROOT
BRANCH   1   2
ATOM      2  C   UNL     1      14.602 -19.558  19.007  1.00  0.00     0.000 C 
BRANCH   2   3
ATOM      3  C   UNL     1      15.116 -21.005  19.045  1.00  0.00     0.000 C 
BRANCH   3   4
ATOM      4  C   UNL     1      14.077 -21.998  19.595  1.00  0.00     0.000 C 
BRANCH   4   5
ATOM      5  C   UNL     1      14.490 -22.714  20.895  1.00  0.00     0.001 C 
BRANCH   5   6
ATOM      6  C   UNL     1      14.333 -21.827  22.143  1.00  0.00     0.009 C 
BRANCH   6   7
ATOM      7  C   UNL     1      15.598 -21.817  23.028  1.00  0.00     0.032 C 
ATOM      8  C   UNL     1      16.781 -21.121  22.341  1.00  0.00     0.014 C 
BRANCH   7   9
ATOM      9  C   UNL     1      15.299 -21.130  24.332  1.00  0.00     0.044 C 
ATOM     10  O   UNL     1      15.860 -21.514  25.392  1.00  0.00    -0.550 OA
ATOM     11  O   UNL     1      14.402 -20.070  24.378  1.00  0.00    -0.550 OA
ENDBRANCH   7   9
ENDBRANCH   6   7
ENDBRANCH   5   6
ENDBRANCH   4   5
ENDBRANCH   3   4
ENDBRANCH   2   3
ENDBRANCH   1   2
BRANCH   1  12
ATOM     12  C   UNL     1      14.097 -18.255  21.115  1.00  0.00     0.000 C 
BRANCH  12  13
ATOM     13  C   UNL     1      12.688 -18.668  20.659  1.00  0.00    -0.000 C 
BRANCH  13  14
ATOM     14  C   UNL     1      11.850 -19.273  21.798  1.00  0.00    -0.000 C 
BRANCH  14  15
ATOM     15  C   UNL     1      10.722 -18.336  22.261  1.00  0.00    -0.000 C 
BRANCH  15  16
ATOM     16  C   UNL     1      10.431 -17.217  21.246  1.00  0.00    -0.000 C 
BRANCH  16  17
ATOM     17  C   UNL     1      10.765 -15.815  21.787  1.00  0.00    -0.000 C 
BRANCH  17  18
ATOM     18  C   UNL     1      11.302 -14.825  20.739  1.00  0.00    -0.003 C 
ATOM     19  C   UNL     1      12.830 -14.781  20.684  1.00  0.00     0.004 C 
ENDBRANCH  17  18
ENDBRANCH  16  17
ENDBRANCH  15  16
ENDBRANCH  14  15
ENDBRANCH  13  14
ENDBRANCH  12  13
ENDBRANCH   1  12
TORSDOF 14
ENDMDL
MODEL 3
REMARK VINA RESULT:    -4.129      3.033      5.191
REMARK INTER + INTRA:          -9.643
REMARK INTER:                  -7.600
REMARK INTRA:                  -2.043
REMARK UNBOUND:                -2.135
REMARK SMILES CCCCCCCCCCCCCC[C@@H](C)C(=O)[O-]
REMARK SMILES IDX 9 1 10 2 11 3 12 4 13 5 14 6 15 7 16 8 17 9 18 10 19 11 8 12
REMARK SMILES IDX 7 13 6 14 5 15 4 16 3 17 2 18 1 19
REMARK H PARENT
REMARK Flexibility Score: inf
ROOT
ATOM      1  C   UNL     1      16.181 -19.665  20.140  1.00  0.00     0.000 C 
ENDROOT
BRANCH   1   2
ATOM      2  C   UNL     1      15.563 -20.353  18.917  1.00  0.00     0.000 C 
BRANCH   2   3
ATOM      3  C   UNL     1      14.204 -20.980  19.264  1.00  0.00     0.000 C 
BRANCH   3   4
ATOM      4  C   UNL     1      14.328 -22.233  20.148  1.00  0.00     0.000 C 
BRANCH   4   5
ATOM      5  C   UNL     1      13.361 -22.279  21.346  1.00  0.00     0.001 C 
BRANCH   5   6
ATOM      6  C   UNL     1      14.089 -22.320  22.702  1.00  0.00     0.009 C 
BRANCH   6   7
ATOM      7  C   UNL     1      14.718 -20.962  23.080  1.00  0.00     0.032 C 
ATOM      8  C   UNL     1      13.831 -20.161  24.043  1.00  0.00     0.014 C 
BRANCH   7   9
ATOM      9  C   UNL     1      16.067 -21.185  23.706  1.00  0.00     0.044 C 
ATOM     10  O   UNL     1      17.064 -21.449  22.984  1.00  0.00    -0.550 OA
ATOM     11  O   UNL     1      16.223 -21.104  25.085  1.00  0.00    -0.550 OA
ENDBRANCH   7   9
ENDBRANCH   6   7
ENDBRANCH   5   6
ENDBRANCH   4   5
ENDBRANCH   3   4
ENDBRANCH   2   3
ENDBRANCH   1   2
BRANCH   1  12
ATOM     12  C   UNL     1      16.328 -18.154  19.905  1.00  0.00     0.000 C 
BRANCH  12  13
ATOM     13  C   UNL     1      15.003 -17.483  19.507  1.00  0.00    -0.000 C 
BRANCH  13  14
ATOM     14  C   UNL     1      14.005 -17.402  20.675  1.00  0.00    -0.000 C 
BRANCH  14  15
ATOM     15  C   UNL     1      12.575 -17.779  20.255  1.00  0.00    -0.000 C 
BRANCH  15  16
ATOM     16  C   UNL     1      11.506 -17.004  21.046  1.00  0.00    -0.000 C 
BRANCH  16  17
ATOM     17  C   UNL     1      10.736 -17.893  22.040  1.00  0.00    -0.000 C 
BRANCH  17  18
ATOM     18  C   UNL     1      11.076 -19.392  21.969  1.00  0.00    -0.003 C 
ATOM     19  C   UNL     1       9.881 -20.259  21.573  1.00  0.00     0.004 C 
ENDBRANCH  17  18
ENDBRANCH  16  17
ENDBRANCH  15  16
ENDBRANCH  14  15
ENDBRANCH  13  14
ENDBRANCH  12  13
ENDBRANCH   1  12
TORSDOF 14
ENDMDL
MODEL 4
REMARK VINA RESULT:    -4.126      2.502      4.671
REMARK INTER + INTRA:          -9.638
REMARK INTER:                  -7.477
REMARK INTRA:                  -2.162
REMARK UNBOUND:                -2.135
REMARK SMILES CCCCCCCCCCCCCC[C@@H](C)C(=O)[O-]
REMARK SMILES IDX 9 1 10 2 11 3 12 4 13 5 14 6 15 7 16 8 17 9 18 10 19 11 8 12
REMARK SMILES IDX 7 13 6 14 5 15 4 16 3 17 2 18 1 19
REMARK H PARENT
REMARK Flexibility Score: inf
ROOT
ATOM      1  C   UNL     1      11.989 -20.503  21.327  1.00  0.00     0.000 C 
ENDROOT
BRANCH   1   2
ATOM      2  C   UNL     1      10.722 -19.663  21.527  1.00  0.00     0.000 C 
BRANCH   2   3
ATOM      3  C   UNL     1      11.003 -18.443  22.417  1.00  0.00     0.000 C 
BRANCH   3   4
ATOM      4  C   UNL     1      11.018 -17.118  21.635  1.00  0.00     0.000 C 
BRANCH   4   5
ATOM      5  C   UNL     1      11.548 -17.223  20.193  1.00  0.00     0.001 C 
BRANCH   5   6
ATOM      6  C   UNL     1      12.941 -16.590  20.019  1.00  0.00     0.009 C 
BRANCH   6   7
ATOM      7  C   UNL     1      14.083 -17.553  20.409  1.00  0.00     0.032 C 
ATOM      8  C   UNL     1      14.312 -18.641  19.351  1.00  0.00     0.014 C 
BRANCH   7   9
ATOM      9  C   UNL     1      15.354 -16.775  20.613  1.00  0.00     0.044 C 
ATOM     10  O   UNL     1      15.379 -15.802  21.412  1.00  0.00    -0.550 OA
ATOM     11  O   UNL     1      16.508 -17.122  19.921  1.00  0.00    -0.550 OA
ENDBRANCH   7   9
ENDBRANCH   6   7
ENDBRANCH   5   6
ENDBRANCH   4   5
ENDBRANCH   3   4
ENDBRANCH   2   3
ENDBRANCH   1   2
BRANCH   1  12
ATOM     12  C   UNL     1      11.868 -21.859  22.039  1.00  0.00     0.000 C 
BRANCH  12  13
ATOM     13  C   UNL     1      13.144 -22.708  21.919  1.00  0.00    -0.000 C 
BRANCH  13  14
ATOM     14  C   UNL     1      14.032 -22.280  20.739  1.00  0.00    -0.000 C 
BRANCH  14  15
ATOM     15  C   UNL     1      15.511 -22.140  21.135  1.00  0.00    -0.000 C 
BRANCH  15  16
ATOM     16  C   UNL     1      15.779 -20.880  21.978  1.00  0.00    -0.000 C 
BRANCH  16  17
ATOM     17  C   UNL     1      16.431 -21.197  23.336  1.00  0.00    -0.000 C 
BRANCH  17  18
ATOM     18  C   UNL     1      15.594 -20.804  24.566  1.00  0.00    -0.003 C 
ATOM     19  C   UNL     1      14.345 -19.999  24.208  1.00  0.00     0.004 C 
ENDBRANCH  17  18
ENDBRANCH  16  17
ENDBRANCH  15  16
ENDBRANCH  14  15
ENDBRANCH  13  14
ENDBRANCH  12  13
ENDBRANCH   1  12
TORSDOF 14
ENDMDL
MODEL 5
REMARK VINA RESULT:    -4.014      3.122      5.567
REMARK INTER + INTRA:          -9.434
REMARK INTER:                  -7.046
REMARK INTRA:                  -2.388
REMARK UNBOUND:                -2.135
REMARK SMILES CCCCCCCCCCCCCC[C@@H](C)C(=O)[O-]
REMARK SMILES IDX 9 1 10 2 11 3 12 4 13 5 14 6 15 7 16 8 17 9 18 10 19 11 8 12
REMARK SMILES IDX 7 13 6 14 5 15 4 16 3 17 2 18 1 19
REMARK H PARENT
REMARK Flexibility Score: inf
ROOT
ATOM      1  C   UNL     1      11.151 -18.621  22.286  1.00  0.00     0.000 C 
ENDROOT
BRANCH   1   2
ATOM      2  C   UNL     1      10.470 -19.750  21.502  1.00  0.00     0.000 C 
BRANCH   2   3
ATOM      3  C   UNL     1      11.326 -21.024  21.512  1.00  0.00     0.000 C 
BRANCH   3   4
ATOM      4  C   UNL     1      12.662 -20.858  20.767  1.00  0.00     0.000 C 
BRANCH   4   5
ATOM      5  C   UNL     1      13.689 -21.977  21.020  1.00  0.00     0.001 C 
BRANCH   5   6
ATOM      6  C   UNL     1      14.069 -22.116  22.506  1.00  0.00     0.009 C 
BRANCH   6   7
ATOM      7  C   UNL     1      14.715 -20.834  23.075  1.00  0.00     0.032 C 
ATOM      8  C   UNL     1      13.894 -20.233  24.225  1.00  0.00     0.014 C 
BRANCH   7   9
ATOM      9  C   UNL     1      16.107 -21.138  23.557  1.00  0.00     0.044 C 
ATOM     10  O   UNL     1      16.974 -21.568  22.752  1.00  0.00    -0.550 OA
ATOM     11  O   UNL     1      16.445 -20.951  24.891  1.00  0.00    -0.550 OA
ENDBRANCH   7   9
ENDBRANCH   6   7
ENDBRANCH   5   6
ENDBRANCH   4   5
ENDBRANCH   3   4
ENDBRANCH   2   3
ENDBRANCH   1   2
BRANCH   1  12
ATOM     12  C   UNL     1      10.612 -17.249  21.856  1.00  0.00     0.000 C 
BRANCH  12  13
ATOM     13  C   UNL     1      10.806 -16.979  20.355  1.00  0.00    -0.000 C 
BRANCH  13  14
ATOM     14  C   UNL     1      12.128 -16.255  20.050  1.00  0.00    -0.000 C 
BRANCH  14  15
ATOM     15  C   UNL     1      13.231 -17.216  19.577  1.00  0.00    -0.000 C 
BRANCH  15  16
ATOM     16  C   UNL     1      14.211 -17.588  20.703  1.00  0.00    -0.000 C 
BRANCH  16  17
ATOM     17  C   UNL     1      15.650 -17.801  20.198  1.00  0.00    -0.000 C 
BRANCH  17  18
ATOM     18  C   UNL     1      16.137 -19.261  20.220  1.00  0.00    -0.003 C 
ATOM     19  C   UNL     1      15.939 -19.978  18.884  1.00  0.00     0.004 C 
ENDBRANCH  17  18
ENDBRANCH  16  17
ENDBRANCH  15  16
ENDBRANCH  14  15
ENDBRANCH  13  14
ENDBRANCH  12  13
ENDBRANCH   1  12
TORSDOF 14
ENDMDL
MODEL 6
REMARK VINA RESULT:    -3.788      2.930      4.715
REMARK INTER + INTRA:          -9.023
REMARK INTER:                  -6.679
REMARK INTRA:                  -2.344
REMARK UNBOUND:                -2.135
REMARK SMILES CCCCCCCCCCCCCC[C@@H](C)C(=O)[O-]
REMARK SMILES IDX 9 1 10 2 11 3 12 4 13 5 14 6 15 7 16 8 17 9 18 10 19 11 8 12
REMARK SMILES IDX 7 13 6 14 5 15 4 16 3 17 2 18 1 19
REMARK H PARENT
REMARK Flexibility Score: inf
ROOT
ATOM      1  C   UNL     1      13.451 -17.689  20.992  1.00  0.00     0.000 C 
ENDROOT
BRANCH   1   2
ATOM      2  C   UNL     1      12.178 -18.538  20.903  1.00  0.00     0.000 C 
BRANCH   2   3
ATOM      3  C   UNL     1      12.332 -19.849  21.688  1.00  0.00     0.000 C 
BRANCH   3   4
ATOM      4  C   UNL     1      12.481 -19.629  23.203  1.00  0.00     0.000 C 
BRANCH   4   5
ATOM      5  C   UNL     1      13.680 -20.350  23.848  1.00  0.00     0.001 C 
BRANCH   5   6
ATOM      6  C   UNL     1      14.907 -20.415  22.920  1.00  0.00     0.009 C 
BRANCH   6   7
ATOM      7  C   UNL     1      16.038 -21.295  23.494  1.00  0.00     0.032 C 
ATOM      8  C   UNL     1      17.379 -21.050  22.787  1.00  0.00     0.014 C 
BRANCH   7   9
ATOM      9  C   UNL     1      16.191 -21.030  24.966  1.00  0.00     0.044 C 
ATOM     10  O   UNL     1      16.491 -19.877  25.373  1.00  0.00    -0.550 OA
ATOM     11  O   UNL     1      16.004 -22.053  25.887  1.00  0.00    -0.550 OA
ENDBRANCH   7   9
ENDBRANCH   6   7
ENDBRANCH   5   6
ENDBRANCH   4   5
ENDBRANCH   3   4
ENDBRANCH   2   3
ENDBRANCH   1   2
BRANCH   1  12
ATOM     12  C   UNL     1      14.311 -17.853  19.730  1.00  0.00     0.000 C 
BRANCH  12  13
ATOM     13  C   UNL     1      15.701 -18.440  20.030  1.00  0.00    -0.000 C 
BRANCH  13  14
ATOM     14  C   UNL     1      15.813 -19.924  19.644  1.00  0.00    -0.000 C 
BRANCH  14  15
ATOM     15  C   UNL     1      14.572 -20.432  18.890  1.00  0.00    -0.000 C 
BRANCH  15  16
ATOM     16  C   UNL     1      14.349 -21.944  19.074  1.00  0.00    -0.000 C 
BRANCH  16  17
ATOM     17  C   UNL     1      14.955 -22.483  20.383  1.00  0.00    -0.000 C 
BRANCH  17  18
ATOM     18  C   UNL     1      14.293 -23.762  20.926  1.00  0.00    -0.003 C 
ATOM     19  C   UNL     1      13.199 -23.478  21.956  1.00  0.00     0.004 C 
ENDBRANCH  17  18
ENDBRANCH  16  17
ENDBRANCH  15  16
ENDBRANCH  14  15
ENDBRANCH  13  14
ENDBRANCH  12  13
ENDBRANCH   1  12
TORSDOF 14
ENDMDL
MODEL 7
REMARK VINA RESULT:    -3.622     14.088     16.236
REMARK INTER + INTRA:          -8.721
REMARK INTER:                  -6.238
REMARK INTRA:                  -2.483
REMARK UNBOUND:                -2.135
REMARK SMILES CCCCCCCCCCCCCC[C@@H](C)C(=O)[O-]
REMARK SMILES IDX 9 1 10 2 11 3 12 4 13 5 14 6 15 7 16 8 17 9 18 10 19 11 8 12
REMARK SMILES IDX 7 13 6 14 5 15 4 16 3 17 2 18 1 19
REMARK H PARENT
REMARK Flexibility Score: inf
ROOT
ATOM      1  C   UNL     1      17.765  -5.910  30.317  1.00  0.00     0.000 C 
ENDROOT
BRANCH   1   2
ATOM      2  C   UNL     1      18.300  -7.087  31.141  1.00  0.00     0.000 C 
BRANCH   2   3
ATOM      3  C   UNL     1      17.634  -8.405  30.719  1.00  0.00     0.000 C 
BRANCH   3   4
ATOM      4  C   UNL     1      18.362  -9.648  31.260  1.00  0.00     0.000 C 
BRANCH   4   5
ATOM      5  C   UNL     1      19.757  -9.374  31.853  1.00  0.00     0.001 C 
BRANCH   5   6
ATOM      6  C   UNL     1      20.378 -10.616  32.519  1.00  0.00     0.009 C 
BRANCH   6   7
ATOM      7  C   UNL     1      20.123 -11.910  31.716  1.00  0.00     0.032 C 
ATOM      8  C   UNL     1      21.425 -12.533  31.193  1.00  0.00     0.014 C 
BRANCH   7   9
ATOM      9  C   UNL     1      19.400 -12.907  32.578  1.00  0.00     0.044 C 
ATOM     10  O   UNL     1      18.172 -13.123  32.401  1.00  0.00    -0.550 OA
ATOM     11  O   UNL     1      20.078 -13.595  33.577  1.00  0.00    -0.550 OA
ENDBRANCH   7   9
ENDBRANCH   6   7
ENDBRANCH   5   6
ENDBRANCH   4   5
ENDBRANCH   3   4
ENDBRANCH   2   3
ENDBRANCH   1   2
BRANCH   1  12
ATOM     12  C   UNL     1      18.916  -5.086  29.721  1.00  0.00     0.000 C 
BRANCH  12  13
ATOM     13  C   UNL     1      20.300  -5.627  30.116  1.00  0.00    -0.000 C 
BRANCH  13  14
ATOM     14  C   UNL     1      21.157  -6.008  28.897  1.00  0.00    -0.000 C 
BRANCH  14  15
ATOM     15  C   UNL     1      20.307  -6.452  27.695  1.00  0.00    -0.000 C 
BRANCH  15  16
ATOM     16  C   UNL     1      19.824  -7.908  27.822  1.00  0.00    -0.000 C 
BRANCH  16  17
ATOM     17  C   UNL     1      20.881  -8.836  28.447  1.00  0.00    -0.000 C 
BRANCH  17  18
ATOM     18  C   UNL     1      20.587 -10.341  28.308  1.00  0.00    -0.003 C 
ATOM     19  C   UNL     1      19.241 -10.629  27.644  1.00  0.00     0.004 C 
ENDBRANCH  17  18
ENDBRANCH  16  17
ENDBRANCH  15  16
ENDBRANCH  14  15
ENDBRANCH  13  14
ENDBRANCH  12  13
ENDBRANCH   1  12
TORSDOF 14
ENDMDL
MODEL 8
REMARK VINA RESULT:    -3.595     14.512     16.670
REMARK INTER + INTRA:          -8.672
REMARK INTER:                  -6.381
REMARK INTRA:                  -2.291
REMARK UNBOUND:                -2.135
REMARK SMILES CCCCCCCCCCCCCC[C@@H](C)C(=O)[O-]
REMARK SMILES IDX 9 1 10 2 11 3 12 4 13 5 14 6 15 7 16 8 17 9 18 10 19 11 8 12
REMARK SMILES IDX 7 13 6 14 5 15 4 16 3 17 2 18 1 19
REMARK H PARENT
REMARK Flexibility Score: inf
ROOT
ATOM      1  C   UNL     1      20.864 -11.183  30.948  1.00  0.00     0.000 C 
ENDROOT
BRANCH   1   2
ATOM      2  C   UNL     1      20.735 -10.959  29.436  1.00  0.00     0.000 C 
BRANCH   2   3
ATOM      3  C   UNL     1      19.501 -10.106  29.108  1.00  0.00     0.000 C 
BRANCH   3   4
ATOM      4  C   UNL     1      18.864  -9.464  30.353  1.00  0.00     0.000 C 
BRANCH   4   5
ATOM      5  C   UNL     1      19.045  -7.938  30.459  1.00  0.00     0.001 C 
BRANCH   5   6
ATOM      6  C   UNL     1      20.519  -7.521  30.621  1.00  0.00     0.009 C 
BRANCH   6   7
ATOM      7  C   UNL     1      20.922  -6.382  29.661  1.00  0.00     0.032 C 
ATOM      8  C   UNL     1      20.797  -6.794  28.188  1.00  0.00     0.014 C 
BRANCH   7   9
ATOM      9  C   UNL     1      20.064  -5.174  29.920  1.00  0.00     0.044 C 
ATOM     10  O   UNL     1      19.239  -4.786  29.051  1.00  0.00    -0.550 OA
ATOM     11  O   UNL     1      20.178  -4.475  31.115  1.00  0.00    -0.550 OA
ENDBRANCH   7   9
ENDBRANCH   6   7
ENDBRANCH   5   6
ENDBRANCH   4   5
ENDBRANCH   3   4
ENDBRANCH   2   3
ENDBRANCH   1   2
BRANCH   1  12
ATOM     12  C   UNL     1      21.422 -12.581  31.252  1.00  0.00     0.000 C 
BRANCH  12  13
ATOM     13  C   UNL     1      20.418 -13.472  32.000  1.00  0.00    -0.000 C 
BRANCH  13  14
ATOM     14  C   UNL     1      18.991 -12.899  31.983  1.00  0.00    -0.000 C 
BRANCH  14  15
ATOM     15  C   UNL     1      18.454 -12.613  33.396  1.00  0.00    -0.000 C 
BRANCH  15  16
ATOM     16  C   UNL     1      18.173 -11.118  33.627  1.00  0.00    -0.000 C 
BRANCH  16  17
ATOM     17  C   UNL     1      19.319 -10.402  34.365  1.00  0.00    -0.000 C 
BRANCH  17  18
ATOM     18  C   UNL     1      19.517  -8.925  33.980  1.00  0.00    -0.003 C 
ATOM     19  C   UNL     1      20.904  -8.393  34.339  1.00  0.00     0.004 C 
ENDBRANCH  17  18
ENDBRANCH  16  17
ENDBRANCH  15  16
ENDBRANCH  14  15
ENDBRANCH  13  14
ENDBRANCH  12  13
ENDBRANCH   1  12
TORSDOF 14
ENDMDL
MODEL 9
REMARK VINA RESULT:    -3.586     15.054     17.237
REMARK INTER + INTRA:          -8.656
REMARK INTER:                  -6.189
REMARK INTRA:                  -2.468
REMARK UNBOUND:                -2.135
REMARK SMILES CCCCCCCCCCCCCC[C@@H](C)C(=O)[O-]
REMARK SMILES IDX 9 1 10 2 11 3 12 4 13 5 14 6 15 7 16 8 17 9 18 10 19 11 8 12
REMARK SMILES IDX 7 13 6 14 5 15 4 16 3 17 2 18 1 19
REMARK H PARENT
REMARK Flexibility Score: inf
ROOT
ATOM      1  C   UNL     1      20.742  -5.452  29.742  1.00  0.00     0.000 C 
ENDROOT
BRANCH   1   2
ATOM      2  C   UNL     1      20.748  -6.985  29.699  1.00  0.00     0.000 C 
BRANCH   2   3
ATOM      3  C   UNL     1      20.721  -7.497  28.252  1.00  0.00     0.000 C 
BRANCH   3   4
ATOM      4  C   UNL     1      19.943  -8.816  28.094  1.00  0.00     0.000 C 
BRANCH   4   5
ATOM      5  C   UNL     1      19.487  -9.460  29.417  1.00  0.00     0.001 C 
BRANCH   5   6
ATOM      6  C   UNL     1      20.270 -10.741  29.759  1.00  0.00     0.009 C 
BRANCH   6   7
ATOM      7  C   UNL     1      20.741 -10.773  31.229  1.00  0.00     0.032 C 
ATOM      8  C   UNL     1      20.016  -9.732  32.094  1.00  0.00     0.014 C 
BRANCH   7   9
ATOM      9  C   UNL     1      20.520 -12.145  31.803  1.00  0.00     0.044 C 
ATOM     10  O   UNL     1      19.440 -12.755  31.585  1.00  0.00    -0.550 OA
ATOM     11  O   UNL     1      21.502 -12.749  32.579  1.00  0.00    -0.550 OA
ENDBRANCH   7   9
ENDBRANCH   6   7
ENDBRANCH   5   6
ENDBRANCH   4   5
ENDBRANCH   3   4
ENDBRANCH   2   3
ENDBRANCH   1   2
BRANCH   1  12
ATOM     12  C   UNL     1      19.980  -4.939  30.973  1.00  0.00     0.000 C 
BRANCH  12  13
ATOM     13  C   UNL     1      19.453  -6.077  31.862  1.00  0.00    -0.000 C 
BRANCH  13  14
ATOM     14  C   UNL     1      17.928  -6.016  32.059  1.00  0.00    -0.000 C 
BRANCH  14  15
ATOM     15  C   UNL     1      17.244  -5.060  31.068  1.00  0.00    -0.000 C 
BRANCH  15  16
ATOM     16  C   UNL     1      16.384  -5.803  30.031  1.00  0.00    -0.000 C 
BRANCH  16  17
ATOM     17  C   UNL     1      17.205  -6.328  28.839  1.00  0.00    -0.000 C 
BRANCH  17  18
ATOM     18  C   UNL     1      17.144  -5.455  27.573  1.00  0.00    -0.003 C 
ATOM     19  C   UNL     1      18.005  -4.196  27.672  1.00  0.00     0.004 C 
ENDBRANCH  17  18
ENDBRANCH  16  17
ENDBRANCH  15  16
ENDBRANCH  14  15
ENDBRANCH  13  14
ENDBRANCH  12  13
ENDBRANCH   1  12
TORSDOF 14
ENDMDL
