MODEL 1
REMARK VINA RESULT:    -6.767      0.000      0.000
REMARK INTER + INTRA:         -11.016
REMARK INTER:                 -10.328
REMARK INTRA:                  -0.688
REMARK UNBOUND:                -0.688
REMARK SMILES OC[C@@H]1O[C@H](O[C@@]2(CO)O[C@H](CO)[C@@H](O)[C@@H]2O)[C@H](O)[C@@H](O)[C@H]1O
REMARK SMILES IDX 6 1 5 2 3 3 22 4 4 5 20 6 18 7 2 8 1 9 23 11 21 13 19 15
REMARK SMILES IDX 7 17 16 18 10 19 14 20 11 21 8 22 9 23 17 25 15 27 12 29
REMARK SMILES IDX 13 30
REMARK H PARENT 1 10 23 12 21 14 19 16 9 24 17 26 15 28 13 31
REMARK Flexibility Score: inf
ROOT
ATOM      1  O   UNL     1     118.732 156.264 153.727  1.00  0.00    -0.313 OA
ENDROOT
BRANCH   1   2
ATOM      2  C   UNL     1     118.849 156.938 152.481  1.00  0.00     0.285 C 
ATOM      3  C   UNL     1     118.218 156.784 150.235  1.00  0.00     0.178 C 
ATOM      4  C   UNL     1     117.654 158.229 150.201  1.00  0.00     0.177 C 
ATOM      5  O   UNL     1     118.072 156.226 151.532  1.00  0.00    -0.341 OA
ATOM      6  C   UNL     1     118.338 159.100 151.275  1.00  0.00     0.179 C 
ATOM      7  C   UNL     1     118.303 158.375 152.637  1.00  0.00     0.202 C 
BRANCH   3   8
ATOM      8  C   UNL     1     117.496 155.877 149.230  1.00  0.00     0.191 C 
BRANCH   8   9
ATOM      9  O   UNL     1     116.394 155.256 149.835  1.00  0.00    -0.394 OA
ATOM     10  H   UNL     1     116.210 154.441 149.299  1.00  0.00     0.210 HD
ENDBRANCH   8   9
ENDBRANCH   3   8
BRANCH   4  11
ATOM     11  O   UNL     1     117.781 158.814 148.928  1.00  0.00    -0.387 OA
ATOM     12  H   UNL     1     116.868 158.985 148.577  1.00  0.00     0.211 HD
ENDBRANCH   4  11
BRANCH   6  13
ATOM     13  O   UNL     1     119.668 159.363 150.907  1.00  0.00    -0.387 OA
ATOM     14  H   UNL     1     120.231 158.674 151.349  1.00  0.00     0.211 HD
ENDBRANCH   6  13
BRANCH   7  15
ATOM     15  O   UNL     1     116.987 158.324 153.126  1.00  0.00    -0.385 OA
ATOM     16  H   UNL     1     116.563 157.522 152.723  1.00  0.00     0.211 HD
ENDBRANCH   7  15
ENDBRANCH   1   2
BRANCH   1  17
ATOM     17  C   UNL     1     119.968 156.010 154.395  1.00  0.00     0.224 C 
ATOM     18  C   UNL     1     119.780 154.732 155.230  1.00  0.00     0.208 C 
ATOM     19  O   UNL     1     120.322 157.046 155.303  1.00  0.00    -0.337 OA
ATOM     20  C   UNL     1     120.693 154.951 156.410  1.00  0.00     0.180 C 
ATOM     21  C   UNL     1     120.641 156.470 156.554  1.00  0.00     0.179 C 
BRANCH  17  22
ATOM     22  C   UNL     1     121.097 155.856 153.348  1.00  0.00     0.225 C 
BRANCH  22  23
ATOM     23  O   UNL     1     122.147 155.084 153.861  1.00  0.00    -0.391 OA
ATOM     24  H   UNL     1     122.210 154.280 153.282  1.00  0.00     0.210 HD
ENDBRANCH  22  23
ENDBRANCH  17  22
BRANCH  18  25
ATOM     25  O   UNL     1     120.025 153.534 154.527  1.00  0.00    -0.385 OA
ATOM     26  H   UNL     1     120.964 153.255 154.679  1.00  0.00     0.211 HD
ENDBRANCH  18  25
BRANCH  20  27
ATOM     27  O   UNL     1     120.193 154.305 157.551  1.00  0.00    -0.387 OA
ATOM     28  H   UNL     1     119.250 154.070 157.350  1.00  0.00     0.211 HD
ENDBRANCH  20  27
BRANCH  21  29
ATOM     29  C   UNL     1     121.968 157.043 157.066  1.00  0.00     0.191 C 
BRANCH  29  30
ATOM     30  O   UNL     1     122.787 156.017 157.558  1.00  0.00    -0.394 OA
ATOM     31  H   UNL     1     123.520 155.898 156.899  1.00  0.00     0.210 HD
ENDBRANCH  29  30
ENDBRANCH  21  29
ENDBRANCH   1  17
TORSDOF 13
ENDMDL
MODEL 2
REMARK VINA RESULT:    -6.538      1.363      3.011
REMARK INTER + INTRA:         -10.665
REMARK INTER:                  -9.643
REMARK INTRA:                  -1.022
REMARK UNBOUND:                -0.688
REMARK SMILES OC[C@@H]1O[C@H](O[C@@]2(CO)O[C@H](CO)[C@@H](O)[C@@H]2O)[C@H](O)[C@@H](O)[C@H]1O
REMARK SMILES IDX 6 1 5 2 3 3 22 4 4 5 20 6 18 7 2 8 1 9 23 11 21 13 19 15
REMARK SMILES IDX 7 17 16 18 10 19 14 20 11 21 8 22 9 23 17 25 15 27 12 29
REMARK SMILES IDX 13 30
REMARK H PARENT 1 10 23 12 21 14 19 16 9 24 17 26 15 28 13 31
REMARK Flexibility Score: inf
ROOT
ATOM      1  O   UNL     1     118.711 156.474 153.585  1.00  0.00    -0.313 OA
ENDROOT
BRANCH   1   2
ATOM      2  C   UNL     1     118.814 157.113 152.320  1.00  0.00     0.285 C 
ATOM      3  C   UNL     1     118.133 156.914 150.092  1.00  0.00     0.178 C 
ATOM      4  C   UNL     1     117.594 158.368 150.033  1.00  0.00     0.177 C 
ATOM      5  O   UNL     1     118.004 156.392 151.406  1.00  0.00    -0.341 OA
ATOM      6  C   UNL     1     118.315 159.253 151.070  1.00  0.00     0.179 C 
ATOM      7  C   UNL     1     118.297 158.564 152.450  1.00  0.00     0.202 C 
BRANCH   3   8
ATOM      8  C   UNL     1     117.374 155.995 149.126  1.00  0.00     0.191 C 
BRANCH   8   9
ATOM      9  O   UNL     1     116.323 155.347 149.790  1.00  0.00    -0.394 OA
ATOM     10  H   UNL     1     115.747 156.065 150.160  1.00  0.00     0.210 HD
ENDBRANCH   8   9
ENDBRANCH   3   8
BRANCH   4  11
ATOM     11  O   UNL     1     117.704 158.918 148.743  1.00  0.00    -0.387 OA
ATOM     12  H   UNL     1     117.187 158.344 148.120  1.00  0.00     0.211 HD
ENDBRANCH   4  11
BRANCH   6  13
ATOM     13  O   UNL     1     119.642 159.482 150.668  1.00  0.00    -0.387 OA
ATOM     14  H   UNL     1     120.034 160.122 151.318  1.00  0.00     0.211 HD
ENDBRANCH   6  13
BRANCH   7  15
ATOM     15  O   UNL     1     116.991 158.549 152.967  1.00  0.00    -0.385 OA
ATOM     16  H   UNL     1     116.622 159.462 152.841  1.00  0.00     0.211 HD
ENDBRANCH   7  15
ENDBRANCH   1   2
BRANCH   1  17
ATOM     17  C   UNL     1     119.707 155.484 153.844  1.00  0.00     0.224 C 
ATOM     18  C   UNL     1     120.870 155.741 152.871  1.00  0.00     0.208 C 
ATOM     19  O   UNL     1     119.244 154.163 153.591  1.00  0.00    -0.337 OA
ATOM     20  C   UNL     1     121.432 154.363 152.630  1.00  0.00     0.180 C 
ATOM     21  C   UNL     1     120.180 153.499 152.766  1.00  0.00     0.179 C 
BRANCH  17  22
ATOM     22  C   UNL     1     120.156 155.581 155.322  1.00  0.00     0.225 C 
BRANCH  22  23
ATOM     23  O   UNL     1     120.108 156.907 155.769  1.00  0.00    -0.391 OA
ATOM     24  H   UNL     1     121.013 157.115 156.118  1.00  0.00     0.210 HD
ENDBRANCH  22  23
ENDBRANCH  17  22
BRANCH  18  25
ATOM     25  O   UNL     1     121.819 156.677 153.332  1.00  0.00    -0.385 OA
ATOM     26  H   UNL     1     122.141 157.216 152.566  1.00  0.00     0.211 HD
ENDBRANCH  18  25
BRANCH  20  27
ATOM     27  O   UNL     1     121.987 154.272 151.344  1.00  0.00    -0.387 OA
ATOM     28  H   UNL     1     122.250 153.324 151.220  1.00  0.00     0.211 HD
ENDBRANCH  20  27
BRANCH  21  29
ATOM     29  C   UNL     1     120.499 152.117 153.352  1.00  0.00     0.191 C 
BRANCH  29  30
ATOM     30  O   UNL     1     121.880 151.877 153.316  1.00  0.00    -0.394 OA
ATOM     31  H   UNL     1     122.005 150.911 153.512  1.00  0.00     0.210 HD
ENDBRANCH  29  30
ENDBRANCH  21  29
ENDBRANCH   1  17
TORSDOF 13
ENDMDL
MODEL 3
REMARK VINA RESULT:    -6.470      1.918      5.900
REMARK INTER + INTRA:         -10.562
REMARK INTER:                  -9.741
REMARK INTRA:                  -0.821
REMARK UNBOUND:                -0.688
REMARK SMILES OC[C@@H]1O[C@H](O[C@@]2(CO)O[C@H](CO)[C@@H](O)[C@@H]2O)[C@H](O)[C@@H](O)[C@H]1O
REMARK SMILES IDX 6 1 5 2 3 3 22 4 4 5 20 6 18 7 2 8 1 9 23 11 21 13 19 15
REMARK SMILES IDX 7 17 16 18 10 19 14 20 11 21 8 22 9 23 17 25 15 27 12 29
REMARK SMILES IDX 13 30
REMARK H PARENT 1 10 23 12 21 14 19 16 9 24 17 26 15 28 13 31
REMARK Flexibility Score: inf
ROOT
ATOM      1  O   UNL     1     120.399 156.277 152.004  1.00  0.00    -0.313 OA
ENDROOT
BRANCH   1   2
ATOM      2  C   UNL     1     119.968 155.637 153.197  1.00  0.00     0.285 C 
ATOM      3  C   UNL     1     118.685 153.839 153.963  1.00  0.00     0.178 C 
ATOM      4  C   UNL     1     119.816 153.307 154.883  1.00  0.00     0.177 C 
ATOM      5  O   UNL     1     119.235 154.481 152.824  1.00  0.00    -0.341 OA
ATOM      6  C   UNL     1     120.771 154.451 155.281  1.00  0.00     0.179 C 
ATOM      7  C   UNL     1     121.209 155.228 154.022  1.00  0.00     0.202 C 
BRANCH   3   8
ATOM      8  C   UNL     1     117.768 152.703 153.489  1.00  0.00     0.191 C 
BRANCH   8   9
ATOM      9  O   UNL     1     116.815 152.401 154.471  1.00  0.00    -0.394 OA
ATOM     10  H   UNL     1     117.191 151.648 154.997  1.00  0.00     0.210 HD
ENDBRANCH   8   9
ENDBRANCH   3   8
BRANCH   4  11
ATOM     11  O   UNL     1     119.307 152.661 156.025  1.00  0.00    -0.387 OA
ATOM     12  H   UNL     1     118.394 153.013 156.194  1.00  0.00     0.211 HD
ENDBRANCH   4  11
BRANCH   6  13
ATOM     13  O   UNL     1     120.132 155.321 156.180  1.00  0.00    -0.387 OA
ATOM     14  H   UNL     1     120.841 155.877 156.597  1.00  0.00     0.211 HD
ENDBRANCH   6  13
BRANCH   7  15
ATOM     15  O   UNL     1     122.054 154.432 153.230  1.00  0.00    -0.385 OA
ATOM     16  H   UNL     1     121.472 153.790 152.746  1.00  0.00     0.211 HD
ENDBRANCH   7  15
ENDBRANCH   1   2
BRANCH   1  17
ATOM     17  C   UNL     1     119.916 157.608 151.824  1.00  0.00     0.224 C 
ATOM     18  C   UNL     1     119.030 157.940 153.037  1.00  0.00     0.208 C 
ATOM     19  O   UNL     1     119.096 157.741 150.670  1.00  0.00    -0.337 OA
ATOM     20  C   UNL     1     118.006 158.889 152.471  1.00  0.00     0.180 C 
ATOM     21  C   UNL     1     117.892 158.387 151.033  1.00  0.00     0.179 C 
BRANCH  17  22
ATOM     22  C   UNL     1     121.114 158.579 151.700  1.00  0.00     0.225 C 
BRANCH  22  23
ATOM     23  O   UNL     1     122.063 158.327 152.699  1.00  0.00    -0.391 OA
ATOM     24  H   UNL     1     122.295 159.209 153.090  1.00  0.00     0.210 HD
ENDBRANCH  22  23
ENDBRANCH  17  22
BRANCH  18  25
ATOM     25  O   UNL     1     119.733 158.449 154.150  1.00  0.00    -0.385 OA
ATOM     26  H   UNL     1     119.387 159.352 154.367  1.00  0.00     0.211 HD
ENDBRANCH  18  25
BRANCH  20  27
ATOM     27  O   UNL     1     116.787 158.772 153.158  1.00  0.00    -0.387 OA
ATOM     28  H   UNL     1     116.706 159.582 153.724  1.00  0.00     0.211 HD
ENDBRANCH  20  27
BRANCH  21  29
ATOM     29  C   UNL     1     117.597 159.527 150.050  1.00  0.00     0.191 C 
BRANCH  29  30
ATOM     30  O   UNL     1     117.583 159.046 148.733  1.00  0.00    -0.394 OA
ATOM     31  H   UNL     1     117.259 158.108 148.777  1.00  0.00     0.210 HD
ENDBRANCH  29  30
ENDBRANCH  21  29
ENDBRANCH   1  17
TORSDOF 13
ENDMDL
MODEL 4
REMARK VINA RESULT:    -6.457      2.089      6.403
REMARK INTER + INTRA:         -10.543
REMARK INTER:                  -9.317
REMARK INTRA:                  -1.226
REMARK UNBOUND:                -0.688
REMARK SMILES OC[C@@H]1O[C@H](O[C@@]2(CO)O[C@H](CO)[C@@H](O)[C@@H]2O)[C@H](O)[C@@H](O)[C@H]1O
REMARK SMILES IDX 6 1 5 2 3 3 22 4 4 5 20 6 18 7 2 8 1 9 23 11 21 13 19 15
REMARK SMILES IDX 7 17 16 18 10 19 14 20 11 21 8 22 9 23 17 25 15 27 12 29
REMARK SMILES IDX 13 30
REMARK H PARENT 1 10 23 12 21 14 19 16 9 24 17 26 15 28 13 31
REMARK Flexibility Score: inf
ROOT
ATOM      1  O   UNL     1     119.097 156.667 152.740  1.00  0.00    -0.313 OA
ENDROOT
BRANCH   1   2
ATOM      2  C   UNL     1     119.284 155.259 152.711  1.00  0.00     0.285 C 
ATOM      3  C   UNL     1     120.823 153.617 152.077  1.00  0.00     0.178 C 
ATOM      4  C   UNL     1     120.768 152.906 153.455  1.00  0.00     0.177 C 
ATOM      5  O   UNL     1     120.595 155.009 152.229  1.00  0.00    -0.341 OA
ATOM      6  C   UNL     1     119.423 153.188 154.155  1.00  0.00     0.179 C 
ATOM      7  C   UNL     1     119.137 154.704 154.146  1.00  0.00     0.202 C 
BRANCH   3   8
ATOM      8  C   UNL     1     122.184 153.416 151.397  1.00  0.00     0.191 C 
BRANCH   8   9
ATOM      9  O   UNL     1     123.211 153.406 152.351  1.00  0.00    -0.394 OA
ATOM     10  H   UNL     1     123.005 152.657 152.969  1.00  0.00     0.210 HD
ENDBRANCH   8   9
ENDBRANCH   3   8
BRANCH   4  11
ATOM     11  O   UNL     1     120.992 151.521 153.343  1.00  0.00    -0.387 OA
ATOM     12  H   UNL     1     120.171 151.053 153.644  1.00  0.00     0.211 HD
ENDBRANCH   4  11
BRANCH   6  13
ATOM     13  O   UNL     1     118.386 152.503 153.500  1.00  0.00    -0.387 OA
ATOM     14  H   UNL     1     118.292 151.623 153.952  1.00  0.00     0.211 HD
ENDBRANCH   6  13
BRANCH   7  15
ATOM     15  O   UNL     1     120.032 155.373 154.998  1.00  0.00    -0.385 OA
ATOM     16  H   UNL     1     119.710 156.309 155.075  1.00  0.00     0.211 HD
ENDBRANCH   7  15
ENDBRANCH   1   2
BRANCH   1  17
ATOM     17  C   UNL     1     118.519 157.225 151.560  1.00  0.00     0.224 C 
ATOM     18  C   UNL     1     117.543 156.181 150.993  1.00  0.00     0.208 C 
ATOM     19  O   UNL     1     119.484 157.479 150.546  1.00  0.00    -0.337 OA
ATOM     20  C   UNL     1     117.596 156.427 149.507  1.00  0.00     0.180 C 
ATOM     21  C   UNL     1     119.034 156.911 149.332  1.00  0.00     0.179 C 
BRANCH  17  22
ATOM     22  C   UNL     1     117.806 158.552 151.914  1.00  0.00     0.225 C 
BRANCH  22  23
ATOM     23  O   UNL     1     117.121 158.438 153.131  1.00  0.00    -0.391 OA
ATOM     24  H   UNL     1     117.721 157.935 153.741  1.00  0.00     0.210 HD
ENDBRANCH  22  23
ENDBRANCH  17  22
BRANCH  18  25
ATOM     25  O   UNL     1     116.244 156.239 151.539  1.00  0.00    -0.385 OA
ATOM     26  H   UNL     1     115.824 157.100 151.286  1.00  0.00     0.211 HD
ENDBRANCH  18  25
BRANCH  20  27
ATOM     27  O   UNL     1     117.361 155.238 148.798  1.00  0.00    -0.387 OA
ATOM     28  H   UNL     1     118.183 155.057 148.274  1.00  0.00     0.211 HD
ENDBRANCH  20  27
BRANCH  21  29
ATOM     29  C   UNL     1     119.159 157.939 148.201  1.00  0.00     0.191 C 
BRANCH  29  30
ATOM     30  O   UNL     1     118.099 158.855 148.253  1.00  0.00    -0.394 OA
ATOM     31  H   UNL     1     118.059 159.294 147.363  1.00  0.00     0.210 HD
ENDBRANCH  29  30
ENDBRANCH  21  29
ENDBRANCH   1  17
TORSDOF 13
ENDMDL
MODEL 5
REMARK VINA RESULT:    -6.410      3.224      4.624
REMARK INTER + INTRA:         -10.471
REMARK INTER:                  -9.253
REMARK INTRA:                  -1.218
REMARK UNBOUND:                -0.688
REMARK SMILES OC[C@@H]1O[C@H](O[C@@]2(CO)O[C@H](CO)[C@@H](O)[C@@H]2O)[C@H](O)[C@@H](O)[C@H]1O
REMARK SMILES IDX 6 1 5 2 3 3 22 4 4 5 20 6 18 7 2 8 1 9 23 11 21 13 19 15
REMARK SMILES IDX 7 17 16 18 10 19 14 20 11 21 8 22 9 23 17 25 15 27 12 29
REMARK SMILES IDX 13 30
REMARK H PARENT 1 10 23 12 21 14 19 16 9 24 17 26 15 28 13 31
REMARK Flexibility Score: inf
ROOT
ATOM      1  O   UNL     1     121.317 156.107 149.852  1.00  0.00    -0.313 OA
ENDROOT
BRANCH   1   2
ATOM      2  C   UNL     1     120.077 156.799 149.881  1.00  0.00     0.285 C 
ATOM      3  C   UNL     1     118.648 157.961 151.321  1.00  0.00     0.178 C 
ATOM      4  C   UNL     1     118.544 159.187 150.375  1.00  0.00     0.177 C 
ATOM      5  O   UNL     1     119.915 157.336 151.183  1.00  0.00    -0.341 OA
ATOM      6  C   UNL     1     118.816 158.767 148.916  1.00  0.00     0.179 C 
ATOM      7  C   UNL     1     120.118 157.943 148.842  1.00  0.00     0.202 C 
BRANCH   3   8
ATOM      8  C   UNL     1     118.462 158.369 152.788  1.00  0.00     0.191 C 
BRANCH   8   9
ATOM      9  O   UNL     1     117.103 158.350 153.133  1.00  0.00    -0.394 OA
ATOM     10  H   UNL     1     116.607 158.593 152.308  1.00  0.00     0.210 HD
ENDBRANCH   8   9
ENDBRANCH   3   8
BRANCH   4  11
ATOM     11  O   UNL     1     117.300 159.834 150.485  1.00  0.00    -0.387 OA
ATOM     12  H   UNL     1     116.731 159.301 151.100  1.00  0.00     0.211 HD
ENDBRANCH   4  11
BRANCH   6  13
ATOM     13  O   UNL     1     117.741 158.005 148.426  1.00  0.00    -0.387 OA
ATOM     14  H   UNL     1     117.803 157.111 148.853  1.00  0.00     0.211 HD
ENDBRANCH   6  13
BRANCH   7  15
ATOM     15  O   UNL     1     121.228 158.766 149.099  1.00  0.00    -0.385 OA
ATOM     16  H   UNL     1     121.863 158.633 148.347  1.00  0.00     0.211 HD
ENDBRANCH   7  15
ENDBRANCH   1   2
BRANCH   1  17
ATOM     17  C   UNL     1     121.242 154.719 150.175  1.00  0.00     0.224 C 
ATOM     18  C   UNL     1     119.864 154.216 149.713  1.00  0.00     0.208 C 
ATOM     19  O   UNL     1     121.317 154.479 151.576  1.00  0.00    -0.337 OA
ATOM     20  C   UNL     1     119.543 153.124 150.700  1.00  0.00     0.180 C 
ATOM     21  C   UNL     1     120.249 153.634 151.955  1.00  0.00     0.179 C 
BRANCH  17  22
ATOM     22  C   UNL     1     122.398 153.964 149.477  1.00  0.00     0.225 C 
BRANCH  22  23
ATOM     23  O   UNL     1     123.327 153.499 150.418  1.00  0.00    -0.391 OA
ATOM     24  H   UNL     1     122.996 152.614 150.721  1.00  0.00     0.210 HD
ENDBRANCH  22  23
ENDBRANCH  17  22
BRANCH  18  25
ATOM     25  O   UNL     1     119.817 153.804 148.364  1.00  0.00    -0.385 OA
ATOM     26  H   UNL     1     119.021 153.229 148.229  1.00  0.00     0.211 HD
ENDBRANCH  18  25
BRANCH  20  27
ATOM     27  O   UNL     1     118.156 153.021 150.893  1.00  0.00    -0.387 OA
ATOM     28  H   UNL     1     118.010 153.000 151.874  1.00  0.00     0.211 HD
ENDBRANCH  20  27
BRANCH  21  29
ATOM     29  C   UNL     1     120.779 152.485 152.821  1.00  0.00     0.191 C 
BRANCH  29  30
ATOM     30  O   UNL     1     122.175 152.558 152.931  1.00  0.00    -0.394 OA
ATOM     31  H   UNL     1     122.452 151.819 153.534  1.00  0.00     0.210 HD
ENDBRANCH  29  30
ENDBRANCH  21  29
ENDBRANCH   1  17
TORSDOF 13
ENDMDL
MODEL 6
REMARK VINA RESULT:    -6.390      3.157      5.849
REMARK INTER + INTRA:         -10.440
REMARK INTER:                  -9.464
REMARK INTRA:                  -0.975
REMARK UNBOUND:                -0.688
REMARK SMILES OC[C@@H]1O[C@H](O[C@@]2(CO)O[C@H](CO)[C@@H](O)[C@@H]2O)[C@H](O)[C@@H](O)[C@H]1O
REMARK SMILES IDX 6 1 5 2 3 3 22 4 4 5 20 6 18 7 2 8 1 9 23 11 21 13 19 15
REMARK SMILES IDX 7 17 16 18 10 19 14 20 11 21 8 22 9 23 17 25 15 27 12 29
REMARK SMILES IDX 13 30
REMARK H PARENT 1 10 23 12 21 14 19 16 9 24 17 26 15 28 13 31
REMARK Flexibility Score: inf
ROOT
ATOM      1  O   UNL     1     120.762 156.186 152.335  1.00  0.00    -0.313 OA
ENDROOT
BRANCH   1   2
ATOM      2  C   UNL     1     120.708 155.159 151.356  1.00  0.00     0.285 C 
ATOM      3  C   UNL     1     121.551 154.566 149.256  1.00  0.00     0.178 C 
ATOM      4  C   UNL     1     122.004 153.161 149.735  1.00  0.00     0.177 C 
ATOM      5  O   UNL     1     121.621 155.499 150.324  1.00  0.00    -0.341 OA
ATOM      6  C   UNL     1     121.162 152.705 150.944  1.00  0.00     0.179 C 
ATOM      7  C   UNL     1     121.127 153.822 152.008  1.00  0.00     0.202 C 
BRANCH   3   8
ATOM      8  C   UNL     1     122.428 155.076 148.106  1.00  0.00     0.191 C 
BRANCH   8   9
ATOM      9  O   UNL     1     123.776 154.773 148.346  1.00  0.00    -0.394 OA
ATOM     10  H   UNL     1     123.817 154.422 149.274  1.00  0.00     0.210 HD
ENDBRANCH   8   9
ENDBRANCH   3   8
BRANCH   4  11
ATOM     11  O   UNL     1     121.950 152.209 148.700  1.00  0.00    -0.387 OA
ATOM     12  H   UNL     1     122.434 152.580 147.917  1.00  0.00     0.211 HD
ENDBRANCH   4  11
BRANCH   6  13
ATOM     13  O   UNL     1     119.854 152.398 150.531  1.00  0.00    -0.387 OA
ATOM     14  H   UNL     1     119.870 152.341 149.540  1.00  0.00     0.211 HD
ENDBRANCH   6  13
BRANCH   7  15
ATOM     15  O   UNL     1     122.393 153.968 152.599  1.00  0.00    -0.385 OA
ATOM     16  H   UNL     1     122.469 153.261 153.293  1.00  0.00     0.211 HD
ENDBRANCH   7  15
ENDBRANCH   1   2
BRANCH   1  17
ATOM     17  C   UNL     1     120.073 157.387 151.990  1.00  0.00     0.224 C 
ATOM     18  C   UNL     1     119.119 157.715 153.150  1.00  0.00     0.208 C 
ATOM     19  O   UNL     1     119.269 157.242 150.826  1.00  0.00    -0.337 OA
ATOM     20  C   UNL     1     117.966 158.406 152.468  1.00  0.00     0.180 C 
ATOM     21  C   UNL     1     117.968 157.721 151.103  1.00  0.00     0.179 C 
BRANCH  17  22
ATOM     22  C   UNL     1     121.101 158.519 151.748  1.00  0.00     0.225 C 
BRANCH  22  23
ATOM     23  O   UNL     1     122.019 158.588 152.804  1.00  0.00    -0.391 OA
ATOM     24  H   UNL     1     122.239 159.549 152.918  1.00  0.00     0.210 HD
ENDBRANCH  22  23
ENDBRANCH  17  22
BRANCH  18  25
ATOM     25  O   UNL     1     119.703 158.465 154.192  1.00  0.00    -0.385 OA
ATOM     26  H   UNL     1     119.511 159.426 154.048  1.00  0.00     0.211 HD
ENDBRANCH  18  25
BRANCH  20  27
ATOM     27  O   UNL     1     116.768 158.176 153.161  1.00  0.00    -0.387 OA
ATOM     28  H   UNL     1     116.518 157.233 152.983  1.00  0.00     0.211 HD
ENDBRANCH  20  27
BRANCH  21  29
ATOM     29  C   UNL     1     117.515 158.667 149.985  1.00  0.00     0.191 C 
BRANCH  29  30
ATOM     30  O   UNL     1     117.387 159.975 150.473  1.00  0.00    -0.394 OA
ATOM     31  H   UNL     1     117.794 160.573 149.793  1.00  0.00     0.210 HD
ENDBRANCH  29  30
ENDBRANCH  21  29
ENDBRANCH   1  17
TORSDOF 13
ENDMDL
MODEL 7
REMARK VINA RESULT:    -6.350      2.160      6.403
REMARK INTER + INTRA:         -10.379
REMARK INTER:                  -9.123
REMARK INTRA:                  -1.256
REMARK UNBOUND:                -0.688
REMARK SMILES OC[C@@H]1O[C@H](O[C@@]2(CO)O[C@H](CO)[C@@H](O)[C@@H]2O)[C@H](O)[C@@H](O)[C@H]1O
REMARK SMILES IDX 6 1 5 2 3 3 22 4 4 5 20 6 18 7 2 8 1 9 23 11 21 13 19 15
REMARK SMILES IDX 7 17 16 18 10 19 14 20 11 21 8 22 9 23 17 25 15 27 12 29
REMARK SMILES IDX 13 30
REMARK H PARENT 1 10 23 12 21 14 19 16 9 24 17 26 15 28 13 31
REMARK Flexibility Score: inf
ROOT
ATOM      1  O   UNL     1     119.567 157.127 150.129  1.00  0.00    -0.313 OA
ENDROOT
BRANCH   1   2
ATOM      2  C   UNL     1     119.702 156.776 151.499  1.00  0.00     0.285 C 
ATOM      3  C   UNL     1     120.726 155.220 152.912  1.00  0.00     0.178 C 
ATOM      4  C   UNL     1     121.337 156.316 153.825  1.00  0.00     0.177 C 
ATOM      5  O   UNL     1     120.614 155.693 151.579  1.00  0.00    -0.341 OA
ATOM      6  C   UNL     1     120.500 157.609 153.749  1.00  0.00     0.179 C 
ATOM      7  C   UNL     1     120.261 157.992 152.273  1.00  0.00     0.202 C 
BRANCH   3   8
ATOM      8  C   UNL     1     121.587 153.950 152.909  1.00  0.00     0.191 C 
BRANCH   8   9
ATOM      9  O   UNL     1     122.933 154.271 153.132  1.00  0.00    -0.394 OA
ATOM     10  H   UNL     1     123.462 153.550 152.702  1.00  0.00     0.210 HD
ENDBRANCH   8   9
ENDBRANCH   3   8
BRANCH   4  11
ATOM     11  O   UNL     1     121.464 155.881 155.157  1.00  0.00    -0.387 OA
ATOM     12  H   UNL     1     122.432 155.789 155.358  1.00  0.00     0.211 HD
ENDBRANCH   4  11
BRANCH   6  13
ATOM     13  O   UNL     1     119.268 157.426 154.401  1.00  0.00    -0.387 OA
ATOM     14  H   UNL     1     119.473 157.218 155.350  1.00  0.00     0.211 HD
ENDBRANCH   6  13
BRANCH   7  15
ATOM     15  O   UNL     1     121.463 158.410 151.679  1.00  0.00    -0.385 OA
ATOM     16  H   UNL     1     121.309 158.423 150.699  1.00  0.00     0.211 HD
ENDBRANCH   7  15
ENDBRANCH   1   2
BRANCH   1  17
ATOM     17  C   UNL     1     118.597 156.371 149.405  1.00  0.00     0.224 C 
ATOM     18  C   UNL     1     117.339 156.281 150.285  1.00  0.00     0.208 C 
ATOM     19  O   UNL     1     119.018 155.036 149.154  1.00  0.00    -0.337 OA
ATOM     20  C   UNL     1     116.742 154.950 149.904  1.00  0.00     0.180 C 
ATOM     21  C   UNL     1     117.993 154.148 149.554  1.00  0.00     0.179 C 
BRANCH  17  22
ATOM     22  C   UNL     1     118.309 157.065 148.052  1.00  0.00     0.225 C 
BRANCH  22  23
ATOM     23  O   UNL     1     118.210 158.452 148.217  1.00  0.00    -0.391 OA
ATOM     24  H   UNL     1     119.125 158.771 148.435  1.00  0.00     0.210 HD
ENDBRANCH  22  23
ENDBRANCH  17  22
BRANCH  18  25
ATOM     25  O   UNL     1     116.452 157.369 150.147  1.00  0.00    -0.385 OA
ATOM     26  H   UNL     1     116.471 157.911 150.977  1.00  0.00     0.211 HD
ENDBRANCH  18  25
BRANCH  20  27
ATOM     27  O   UNL     1     116.053 154.387 150.989  1.00  0.00    -0.387 OA
ATOM     28  H   UNL     1     116.529 153.548 151.218  1.00  0.00     0.211 HD
ENDBRANCH  20  27
BRANCH  21  29
ATOM     29  C   UNL     1     117.727 153.128 148.440  1.00  0.00     0.191 C 
BRANCH  29  30
ATOM     30  O   UNL     1     116.365 152.800 148.392  1.00  0.00    -0.394 OA
ATOM     31  H   UNL     1     116.209 152.366 147.512  1.00  0.00     0.210 HD
ENDBRANCH  29  30
ENDBRANCH  21  29
ENDBRANCH   1  17
TORSDOF 13
ENDMDL
MODEL 8
REMARK VINA RESULT:    -6.346      2.386      5.678
REMARK INTER + INTRA:         -10.373
REMARK INTER:                  -9.239
REMARK INTRA:                  -1.134
REMARK UNBOUND:                -0.688
REMARK SMILES OC[C@@H]1O[C@H](O[C@@]2(CO)O[C@H](CO)[C@@H](O)[C@@H]2O)[C@H](O)[C@@H](O)[C@H]1O
REMARK SMILES IDX 6 1 5 2 3 3 22 4 4 5 20 6 18 7 2 8 1 9 23 11 21 13 19 15
REMARK SMILES IDX 7 17 16 18 10 19 14 20 11 21 8 22 9 23 17 25 15 27 12 29
REMARK SMILES IDX 13 30
REMARK H PARENT 1 10 23 12 21 14 19 16 9 24 17 26 15 28 13 31
REMARK Flexibility Score: inf
ROOT
ATOM      1  O   UNL     1     120.878 156.483 151.826  1.00  0.00    -0.313 OA
ENDROOT
BRANCH   1   2
ATOM      2  C   UNL     1     120.154 155.412 152.415  1.00  0.00     0.285 C 
ATOM      3  C   UNL     1     118.920 153.502 151.871  1.00  0.00     0.178 C 
ATOM      4  C   UNL     1     119.733 152.593 152.832  1.00  0.00     0.177 C 
ATOM      5  O   UNL     1     119.737 154.548 151.370  1.00  0.00    -0.341 OA
ATOM      6  C   UNL     1     120.349 153.430 153.972  1.00  0.00     0.179 C 
ATOM      7  C   UNL     1     121.086 154.652 153.385  1.00  0.00     0.202 C 
BRANCH   3   8
ATOM      8  C   UNL     1     118.364 152.705 150.684  1.00  0.00     0.191 C 
BRANCH   8   9
ATOM      9  O   UNL     1     119.182 151.600 150.410  1.00  0.00    -0.394 OA
ATOM     10  H   UNL     1     119.598 151.778 149.527  1.00  0.00     0.210 HD
ENDBRANCH   8   9
ENDBRANCH   3   8
BRANCH   4  11
ATOM     11  O   UNL     1     118.953 151.542 153.348  1.00  0.00    -0.387 OA
ATOM     12  H   UNL     1     118.228 151.939 153.897  1.00  0.00     0.211 HD
ENDBRANCH   4  11
BRANCH   6  13
ATOM     13  O   UNL     1     119.342 153.857 154.855  1.00  0.00    -0.387 OA
ATOM     14  H   UNL     1     118.677 154.356 154.313  1.00  0.00     0.211 HD
ENDBRANCH   6  13
BRANCH   7  15
ATOM     15  O   UNL     1     122.239 154.239 152.697  1.00  0.00    -0.385 OA
ATOM     16  H   UNL     1     122.876 155.001 152.722  1.00  0.00     0.211 HD
ENDBRANCH   7  15
ENDBRANCH   1   2
BRANCH   1  17
ATOM     17  C   UNL     1     120.181 157.728 151.774  1.00  0.00     0.224 C 
ATOM     18  C   UNL     1     119.237 157.773 152.988  1.00  0.00     0.208 C 
ATOM     19  O   UNL     1     119.364 157.850 150.616  1.00  0.00    -0.337 OA
ATOM     20  C   UNL     1     118.075 158.596 152.495  1.00  0.00     0.180 C 
ATOM     21  C   UNL     1     118.065 158.244 151.009  1.00  0.00     0.179 C 
BRANCH  17  22
ATOM     22  C   UNL     1     121.201 158.891 151.791  1.00  0.00     0.225 C 
BRANCH  22  23
ATOM     23  O   UNL     1     122.132 158.719 152.824  1.00  0.00    -0.391 OA
ATOM     24  H   UNL     1     121.762 158.015 153.417  1.00  0.00     0.210 HD
ENDBRANCH  22  23
ENDBRANCH  17  22
BRANCH  18  25
ATOM     25  O   UNL     1     119.830 158.266 154.169  1.00  0.00    -0.385 OA
ATOM     26  H   UNL     1     120.480 158.976 153.934  1.00  0.00     0.211 HD
ENDBRANCH  18  25
BRANCH  20  27
ATOM     27  O   UNL     1     116.885 158.204 153.128  1.00  0.00    -0.387 OA
ATOM     28  H   UNL     1     117.152 157.703 153.940  1.00  0.00     0.211 HD
ENDBRANCH  20  27
BRANCH  21  29
ATOM     29  C   UNL     1     117.596 159.420 150.144  1.00  0.00     0.191 C 
BRANCH  29  30
ATOM     30  O   UNL     1     117.818 159.149 148.787  1.00  0.00    -0.394 OA
ATOM     31  H   UNL     1     116.924 159.095 148.358  1.00  0.00     0.210 HD
ENDBRANCH  29  30
ENDBRANCH  21  29
ENDBRANCH   1  17
TORSDOF 13
ENDMDL
MODEL 9
REMARK VINA RESULT:    -6.242      2.207      6.643
REMARK INTER + INTRA:         -10.215
REMARK INTER:                  -9.237
REMARK INTRA:                  -0.977
REMARK UNBOUND:                -0.688
REMARK SMILES OC[C@@H]1O[C@H](O[C@@]2(CO)O[C@H](CO)[C@@H](O)[C@@H]2O)[C@H](O)[C@@H](O)[C@H]1O
REMARK SMILES IDX 6 1 5 2 3 3 22 4 4 5 20 6 18 7 2 8 1 9 23 11 21 13 19 15
REMARK SMILES IDX 7 17 16 18 10 19 14 20 11 21 8 22 9 23 17 25 15 27 12 29
REMARK SMILES IDX 13 30
REMARK H PARENT 1 10 23 12 21 14 19 16 9 24 17 26 15 28 13 31
REMARK Flexibility Score: inf
ROOT
ATOM      1  O   UNL     1     119.895 157.143 151.906  1.00  0.00    -0.313 OA
ENDROOT
BRANCH   1   2
ATOM      2  C   UNL     1     120.025 155.757 152.190  1.00  0.00     0.285 C 
ATOM      3  C   UNL     1     121.233 153.853 151.569  1.00  0.00     0.178 C 
ATOM      4  C   UNL     1     121.607 153.503 153.033  1.00  0.00     0.177 C 
ATOM      5  O   UNL     1     121.103 155.258 151.414  1.00  0.00    -0.341 OA
ATOM      6  C   UNL     1     120.568 154.089 154.011  1.00  0.00     0.179 C 
ATOM      7  C   UNL     1     120.335 155.581 153.694  1.00  0.00     0.202 C 
BRANCH   3   8
ATOM      8  C   UNL     1     122.295 153.350 150.583  1.00  0.00     0.191 C 
BRANCH   8   9
ATOM      9  O   UNL     1     123.555 153.320 151.196  1.00  0.00    -0.394 OA
ATOM     10  H   UNL     1     124.198 153.659 150.520  1.00  0.00     0.210 HD
ENDBRANCH   8   9
ENDBRANCH   3   8
BRANCH   4  11
ATOM     11  O   UNL     1     121.746 152.116 153.224  1.00  0.00    -0.387 OA
ATOM     12  H   UNL     1     122.587 151.829 152.782  1.00  0.00     0.211 HD
ENDBRANCH   4  11
BRANCH   6  13
ATOM     13  O   UNL     1     119.357 153.384 153.907  1.00  0.00    -0.387 OA
ATOM     14  H   UNL     1     119.171 152.997 154.803  1.00  0.00     0.211 HD
ENDBRANCH   6  13
BRANCH   7  15
ATOM     15  O   UNL     1     121.475 156.332 154.026  1.00  0.00    -0.385 OA
ATOM     16  H   UNL     1     121.291 157.268 153.752  1.00  0.00     0.211 HD
ENDBRANCH   7  15
ENDBRANCH   1   2
BRANCH   1  17
ATOM     17  C   UNL     1     118.985 157.462 150.854  1.00  0.00     0.224 C 
ATOM     18  C   UNL     1     119.802 157.550 149.554  1.00  0.00     0.208 C 
ATOM     19  O   UNL     1     118.363 158.729 151.034  1.00  0.00    -0.337 OA
ATOM     20  C   UNL     1     119.056 158.578 148.744  1.00  0.00     0.180 C 
ATOM     21  C   UNL     1     118.492 159.477 149.842  1.00  0.00     0.179 C 
BRANCH  17  22
ATOM     22  C   UNL     1     117.887 156.374 150.776  1.00  0.00     0.225 C 
BRANCH  22  23
ATOM     23  O   UNL     1     116.750 156.765 151.494  1.00  0.00    -0.391 OA
ATOM     24  H   UNL     1     117.003 156.736 152.453  1.00  0.00     0.210 HD
ENDBRANCH  22  23
ENDBRANCH  17  22
BRANCH  18  25
ATOM     25  O   UNL     1     119.981 156.316 148.894  1.00  0.00    -0.385 OA
ATOM     26  H   UNL     1     120.314 156.485 147.976  1.00  0.00     0.211 HD
ENDBRANCH  18  25
BRANCH  20  27
ATOM     27  O   UNL     1     119.934 159.279 147.902  1.00  0.00    -0.387 OA
ATOM     28  H   UNL     1     120.827 159.237 148.331  1.00  0.00     0.211 HD
ENDBRANCH  20  27
BRANCH  21  29
ATOM     29  C   UNL     1     117.133 160.072 149.453  1.00  0.00     0.191 C 
BRANCH  29  30
ATOM     30  O   UNL     1     117.198 161.472 149.436  1.00  0.00    -0.394 OA
ATOM     31  H   UNL     1     116.629 161.792 150.184  1.00  0.00     0.210 HD
ENDBRANCH  29  30
ENDBRANCH  21  29
ENDBRANCH   1  17
TORSDOF 13
ENDMDL
