MODEL 1
REMARK VINA RESULT:    -7.555      0.000      0.000
REMARK INTER + INTRA:         -10.002
REMARK INTER:                  -9.543
REMARK INTRA:                  -0.459
REMARK UNBOUND:                -0.459
REMARK SMILES Oc1ccc(CCc2cc(O)cc(O)c2)cc1
REMARK SMILES IDX 6 1 5 2 4 3 3 4 2 5 16 6 17 7 1 8 7 10 8 11 15 12 9 13 13 14
REMARK SMILES IDX 10 15 12 16 14 17 11 19
REMARK H PARENT 1 9 14 18 11 20
REMARK Flexibility Score: inf
ROOT
ATOM      1  C   UNL     1     -11.996  -0.286 -10.319  1.00  0.00     0.040 C 
ENDROOT
BRANCH   1   2
ATOM      2  C   UNL     1     -12.475   1.014  -9.731  1.00  0.00    -0.047 A 
ATOM      3  C   UNL     1     -13.849   1.288  -9.644  1.00  0.00     0.007 A 
ATOM      4  C   UNL     1     -14.293   2.510  -9.128  1.00  0.00     0.046 A 
ATOM      5  C   UNL     1     -13.367   3.473  -8.703  1.00  0.00     0.115 A 
ATOM      6  C   UNL     1     -11.551   1.988  -9.317  1.00  0.00     0.007 A 
ATOM      7  C   UNL     1     -11.997   3.208  -8.801  1.00  0.00     0.046 A 
BRANCH   5   8
ATOM      8  O   UNL     1     -13.797   4.693  -8.188  1.00  0.00    -0.508 OA
ATOM      9  H   UNL     1     -14.287   5.368  -8.763  1.00  0.00     0.293 HD
ENDBRANCH   5   8
ENDBRANCH   1   2
BRANCH   1  10
ATOM     10  C   UNL     1     -10.644  -0.683  -9.718  1.00  0.00     0.040 C 
BRANCH  10  11
ATOM     11  C   UNL     1     -10.660  -2.124  -9.285  1.00  0.00    -0.040 A 
ATOM     12  C   UNL     1      -9.621  -2.636  -8.490  1.00  0.00     0.050 A 
ATOM     13  C   UNL     1     -11.683  -2.983  -9.719  1.00  0.00     0.050 A 
ATOM     14  C   UNL     1      -9.618  -3.986  -8.114  1.00  0.00     0.119 A 
ATOM     15  C   UNL     1     -11.681  -4.332  -9.343  1.00  0.00     0.119 A 
ATOM     16  C   UNL     1     -10.650  -4.829  -8.539  1.00  0.00     0.092 A 
BRANCH  14  17
ATOM     17  O   UNL     1      -8.595  -4.499  -7.319  1.00  0.00    -0.508 OA
ATOM     18  H   UNL     1      -7.642  -4.565  -7.660  1.00  0.00     0.293 HD
ENDBRANCH  14  17
BRANCH  15  19
ATOM     19  O   UNL     1     -12.696  -5.189  -9.765  1.00  0.00    -0.508 OA
ATOM     20  H   UNL     1     -13.658  -5.050  -9.479  1.00  0.00     0.293 HD
ENDBRANCH  15  19
ENDBRANCH  10  11
ENDBRANCH   1  10
TORSDOF 6
ENDMDL
MODEL 2
REMARK VINA RESULT:    -7.513      0.167      2.349
REMARK INTER + INTRA:          -9.949
REMARK INTER:                  -9.492
REMARK INTRA:                  -0.457
REMARK UNBOUND:                -0.459
REMARK SMILES Oc1ccc(CCc2cc(O)cc(O)c2)cc1
REMARK SMILES IDX 6 1 5 2 4 3 3 4 2 5 16 6 17 7 1 8 7 10 8 11 15 12 9 13 13 14
REMARK SMILES IDX 10 15 12 16 14 17 11 19
REMARK H PARENT 1 9 14 18 11 20
REMARK Flexibility Score: inf
ROOT
ATOM      1  C   UNL     1     -12.220  -0.412 -10.312  1.00  0.00     0.040 C 
ENDROOT
BRANCH   1   2
ATOM      2  C   UNL     1     -12.637   0.929  -9.772  1.00  0.00    -0.047 A 
ATOM      3  C   UNL     1     -11.668   1.865  -9.375  1.00  0.00     0.007 A 
ATOM      4  C   UNL     1     -12.056   3.098  -8.842  1.00  0.00     0.046 A 
ATOM      5  C   UNL     1     -13.416   3.404  -8.691  1.00  0.00     0.115 A 
ATOM      6  C   UNL     1     -13.998   1.236  -9.607  1.00  0.00     0.007 A 
ATOM      7  C   UNL     1     -14.382   2.469  -9.074  1.00  0.00     0.046 A 
BRANCH   5   8
ATOM      8  O   UNL     1     -13.814   4.629  -8.162  1.00  0.00    -0.508 OA
ATOM      9  H   UNL     1     -14.296   4.690  -7.273  1.00  0.00     0.293 HD
ENDBRANCH   5   8
ENDBRANCH   1   2
BRANCH   1  10
ATOM     10  C   UNL     1     -10.784  -0.739  -9.893  1.00  0.00     0.040 C 
BRANCH  10  11
ATOM     11  C   UNL     1     -10.680  -2.168  -9.432  1.00  0.00    -0.040 A 
ATOM     12  C   UNL     1     -11.685  -3.093  -9.760  1.00  0.00     0.050 A 
ATOM     13  C   UNL     1      -9.607  -2.574  -8.622  1.00  0.00     0.050 A 
ATOM     14  C   UNL     1     -11.605  -4.415  -9.302  1.00  0.00     0.119 A 
ATOM     15  C   UNL     1      -9.526  -3.896  -8.165  1.00  0.00     0.119 A 
ATOM     16  C   UNL     1     -10.524  -4.814  -8.509  1.00  0.00     0.092 A 
BRANCH  14  17
ATOM     17  O   UNL     1     -12.595  -5.340  -9.630  1.00  0.00    -0.508 OA
ATOM     18  H   UNL     1     -12.368  -6.303  -9.851  1.00  0.00     0.293 HD
ENDBRANCH  14  17
BRANCH  15  19
ATOM     19  O   UNL     1      -8.461  -4.308  -7.366  1.00  0.00    -0.508 OA
ATOM     20  H   UNL     1      -8.024  -3.680  -6.703  1.00  0.00     0.293 HD
ENDBRANCH  15  19
ENDBRANCH  10  11
ENDBRANCH   1  10
TORSDOF 6
ENDMDL
MODEL 3
REMARK VINA RESULT:    -7.239      1.422      2.224
REMARK INTER + INTRA:          -9.603
REMARK INTER:                  -9.080
REMARK INTRA:                  -0.522
REMARK UNBOUND:                -0.459
REMARK SMILES Oc1ccc(CCc2cc(O)cc(O)c2)cc1
REMARK SMILES IDX 6 1 5 2 4 3 3 4 2 5 16 6 17 7 1 8 7 10 8 11 15 12 9 13 13 14
REMARK SMILES IDX 10 15 12 16 14 17 11 19
REMARK H PARENT 1 9 14 18 11 20
REMARK Flexibility Score: inf
ROOT
ATOM      1  C   UNL     1     -10.613  -1.536 -10.067  1.00  0.00     0.040 C 
ENDROOT
BRANCH   1   2
ATOM      2  C   UNL     1     -11.704  -0.504  -9.979  1.00  0.00    -0.047 A 
ATOM      3  C   UNL     1     -11.432   0.773  -9.463  1.00  0.00     0.007 A 
ATOM      4  C   UNL     1     -12.454   1.721  -9.351  1.00  0.00     0.046 A 
ATOM      5  C   UNL     1     -13.760   1.398  -9.745  1.00  0.00     0.115 A 
ATOM      6  C   UNL     1     -13.017  -0.827 -10.360  1.00  0.00     0.007 A 
ATOM      7  C   UNL     1     -14.037   0.123 -10.248  1.00  0.00     0.046 A 
BRANCH   5   8
ATOM      8  O   UNL     1     -14.785   2.335  -9.639  1.00  0.00    -0.508 OA
ATOM      9  H   UNL     1     -15.187   2.579  -8.742  1.00  0.00     0.293 HD
ENDBRANCH   5   8
ENDBRANCH   1   2
BRANCH   1  10
ATOM     10  C   UNL     1     -10.153  -1.954  -8.667  1.00  0.00     0.040 C 
BRANCH  10  11
ATOM     11  C   UNL     1     -10.300  -3.440  -8.482  1.00  0.00    -0.040 A 
ATOM     12  C   UNL     1      -9.797  -4.064  -7.329  1.00  0.00     0.050 A 
ATOM     13  C   UNL     1     -10.890  -4.223  -9.488  1.00  0.00     0.050 A 
ATOM     14  C   UNL     1      -9.904  -5.453  -7.173  1.00  0.00     0.119 A 
ATOM     15  C   UNL     1     -10.998  -5.611  -9.332  1.00  0.00     0.119 A 
ATOM     16  C   UNL     1     -10.508  -6.222  -8.174  1.00  0.00     0.092 A 
BRANCH  14  17
ATOM     17  O   UNL     1      -9.414  -6.078  -6.028  1.00  0.00    -0.508 OA
ATOM     18  H   UNL     1      -8.676  -6.771  -6.077  1.00  0.00     0.293 HD
ENDBRANCH  14  17
BRANCH  15  19
ATOM     19  O   UNL     1     -11.588  -6.394 -10.323  1.00  0.00    -0.508 OA
ATOM     20  H   UNL     1     -11.029  -6.936 -10.972  1.00  0.00     0.293 HD
ENDBRANCH  15  19
ENDBRANCH  10  11
ENDBRANCH   1  10
TORSDOF 6
ENDMDL
MODEL 4
REMARK VINA RESULT:    -7.198      1.392      2.636
REMARK INTER + INTRA:          -9.551
REMARK INTER:                  -9.020
REMARK INTRA:                  -0.531
REMARK UNBOUND:                -0.459
REMARK SMILES Oc1ccc(CCc2cc(O)cc(O)c2)cc1
REMARK SMILES IDX 6 1 5 2 4 3 3 4 2 5 16 6 17 7 1 8 7 10 8 11 15 12 9 13 13 14
REMARK SMILES IDX 10 15 12 16 14 17 11 19
REMARK H PARENT 1 9 14 18 11 20
REMARK Flexibility Score: inf
ROOT
ATOM      1  C   UNL     1     -10.546  -1.361 -10.075  1.00  0.00     0.040 C 
ENDROOT
BRANCH   1   2
ATOM      2  C   UNL     1     -11.695  -0.397  -9.949  1.00  0.00    -0.047 A 
ATOM      3  C   UNL     1     -12.977  -0.763 -10.389  1.00  0.00     0.007 A 
ATOM      4  C   UNL     1     -14.038   0.144 -10.301  1.00  0.00     0.046 A 
ATOM      5  C   UNL     1     -13.824   1.429  -9.783  1.00  0.00     0.115 A 
ATOM      6  C   UNL     1     -11.484   0.896  -9.442  1.00  0.00     0.007 A 
ATOM      7  C   UNL     1     -12.546   1.801  -9.356  1.00  0.00     0.046 A 
BRANCH   5   8
ATOM      8  O   UNL     1     -14.873   2.341  -9.691  1.00  0.00    -0.508 OA
ATOM      9  H   UNL     1     -15.149   2.743  -8.802  1.00  0.00     0.293 HD
ENDBRANCH   5   8
ENDBRANCH   1   2
BRANCH   1  10
ATOM     10  C   UNL     1     -10.030  -1.768  -8.692  1.00  0.00     0.040 C 
BRANCH  10  11
ATOM     11  C   UNL     1     -10.188  -3.250  -8.483  1.00  0.00    -0.040 A 
ATOM     12  C   UNL     1     -10.821  -4.039  -9.458  1.00  0.00     0.050 A 
ATOM     13  C   UNL     1      -9.756  -3.846  -7.287  1.00  0.00     0.050 A 
ATOM     14  C   UNL     1     -10.998  -5.413  -9.249  1.00  0.00     0.119 A 
ATOM     15  C   UNL     1      -9.933  -5.220  -7.078  1.00  0.00     0.119 A 
ATOM     16  C   UNL     1     -10.551  -6.000  -8.061  1.00  0.00     0.092 A 
BRANCH  14  17
ATOM     17  O   UNL     1     -11.619  -6.203 -10.215  1.00  0.00    -0.508 OA
ATOM     18  H   UNL     1     -11.348  -7.168 -10.364  1.00  0.00     0.293 HD
ENDBRANCH  14  17
BRANCH  15  19
ATOM     19  O   UNL     1      -9.501  -5.820  -5.897  1.00  0.00    -0.508 OA
ATOM     20  H   UNL     1      -9.191  -6.785  -5.876  1.00  0.00     0.293 HD
ENDBRANCH  15  19
ENDBRANCH  10  11
ENDBRANCH   1  10
TORSDOF 6
ENDMDL
MODEL 5
REMARK VINA RESULT:    -7.145      1.290      2.307
REMARK INTER + INTRA:          -9.484
REMARK INTER:                  -8.964
REMARK INTRA:                  -0.519
REMARK UNBOUND:                -0.459
REMARK SMILES Oc1ccc(CCc2cc(O)cc(O)c2)cc1
REMARK SMILES IDX 6 1 5 2 4 3 3 4 2 5 16 6 17 7 1 8 7 10 8 11 15 12 9 13 13 14
REMARK SMILES IDX 10 15 12 16 14 17 11 19
REMARK H PARENT 1 9 14 18 11 20
REMARK Flexibility Score: inf
ROOT
ATOM      1  C   UNL     1     -11.948  -1.429 -10.759  1.00  0.00     0.040 C 
ENDROOT
BRANCH   1   2
ATOM      2  C   UNL     1     -12.509  -0.151 -10.199  1.00  0.00    -0.047 A 
ATOM      3  C   UNL     1     -13.895   0.076 -10.203  1.00  0.00     0.007 A 
ATOM      4  C   UNL     1     -14.414   1.279  -9.713  1.00  0.00     0.046 A 
ATOM      5  C   UNL     1     -13.552   2.269  -9.222  1.00  0.00     0.115 A 
ATOM      6  C   UNL     1     -11.649   0.851  -9.717  1.00  0.00     0.007 A 
ATOM      7  C   UNL     1     -12.171   2.051  -9.228  1.00  0.00     0.046 A 
BRANCH   5   8
ATOM      8  O   UNL     1     -14.057   3.471  -8.730  1.00  0.00    -0.508 OA
ATOM      9  H   UNL     1     -13.980   4.333  -9.257  1.00  0.00     0.293 HD
ENDBRANCH   5   8
ENDBRANCH   1   2
BRANCH   1  10
ATOM     10  C   UNL     1     -12.432  -2.633  -9.944  1.00  0.00     0.040 C 
BRANCH  10  11
ATOM     11  C   UNL     1     -11.264  -3.422  -9.420  1.00  0.00    -0.040 A 
ATOM     12  C   UNL     1     -11.372  -4.811  -9.237  1.00  0.00     0.050 A 
ATOM     13  C   UNL     1     -10.074  -2.770  -9.056  1.00  0.00     0.050 A 
ATOM     14  C   UNL     1     -10.294  -5.542  -8.717  1.00  0.00     0.119 A 
ATOM     15  C   UNL     1      -8.997  -3.500  -8.537  1.00  0.00     0.119 A 
ATOM     16  C   UNL     1      -9.109  -4.884  -8.372  1.00  0.00     0.092 A 
BRANCH  14  17
ATOM     17  O   UNL     1     -10.393  -6.920  -8.539  1.00  0.00    -0.508 OA
ATOM     18  H   UNL     1      -9.621  -7.463  -8.169  1.00  0.00     0.293 HD
ENDBRANCH  14  17
BRANCH  15  19
ATOM     19  O   UNL     1      -7.812  -2.860  -8.179  1.00  0.00    -0.508 OA
ATOM     20  H   UNL     1      -6.953  -3.012  -8.695  1.00  0.00     0.293 HD
ENDBRANCH  15  19
ENDBRANCH  10  11
ENDBRANCH   1  10
TORSDOF 6
ENDMDL
MODEL 6
REMARK VINA RESULT:    -6.754      2.228      6.957
REMARK INTER + INTRA:          -8.990
REMARK INTER:                  -8.476
REMARK INTRA:                  -0.514
REMARK UNBOUND:                -0.459
REMARK SMILES Oc1ccc(CCc2cc(O)cc(O)c2)cc1
REMARK SMILES IDX 6 1 5 2 4 3 3 4 2 5 16 6 17 7 1 8 7 10 8 11 15 12 9 13 13 14
REMARK SMILES IDX 10 15 12 16 14 17 11 19
REMARK H PARENT 1 9 14 18 11 20
REMARK Flexibility Score: inf
ROOT
ATOM      1  C   UNL     1      -9.829  -2.657  -8.206  1.00  0.00     0.040 C 
ENDROOT
BRANCH   1   2
ATOM      2  C   UNL     1      -9.978  -4.102  -7.813  1.00  0.00    -0.047 A 
ATOM      3  C   UNL     1      -9.973  -5.106  -8.795  1.00  0.00     0.007 A 
ATOM      4  C   UNL     1     -10.145  -6.446  -8.432  1.00  0.00     0.046 A 
ATOM      5  C   UNL     1     -10.333  -6.793  -7.087  1.00  0.00     0.115 A 
ATOM      6  C   UNL     1     -10.180  -4.454  -6.469  1.00  0.00     0.007 A 
ATOM      7  C   UNL     1     -10.352  -5.794  -6.110  1.00  0.00     0.046 A 
BRANCH   5   8
ATOM      8  O   UNL     1     -10.506  -8.125  -6.715  1.00  0.00    -0.508 OA
ATOM      9  H   UNL     1     -11.228  -8.701  -7.130  1.00  0.00     0.293 HD
ENDBRANCH   5   8
ENDBRANCH   1   2
BRANCH   1  10
ATOM     10  C   UNL     1     -10.149  -2.466  -9.692  1.00  0.00     0.040 C 
BRANCH  10  11
ATOM     11  C   UNL     1     -11.264  -1.472  -9.869  1.00  0.00    -0.040 A 
ATOM     12  C   UNL     1     -11.074  -0.125  -9.521  1.00  0.00     0.050 A 
ATOM     13  C   UNL     1     -12.523  -1.894 -10.330  1.00  0.00     0.050 A 
ATOM     14  C   UNL     1     -12.124   0.795  -9.655  1.00  0.00     0.119 A 
ATOM     15  C   UNL     1     -13.571  -0.975 -10.464  1.00  0.00     0.119 A 
ATOM     16  C   UNL     1     -13.368   0.367 -10.129  1.00  0.00     0.092 A 
BRANCH  14  17
ATOM     17  O   UNL     1     -11.940   2.135  -9.318  1.00  0.00    -0.508 OA
ATOM     18  H   UNL     1     -12.041   2.873 -10.006  1.00  0.00     0.293 HD
ENDBRANCH  14  17
BRANCH  15  19
ATOM     19  O   UNL     1     -14.820  -1.385 -10.927  1.00  0.00    -0.508 OA
ATOM     20  H   UNL     1     -15.667  -0.888 -10.676  1.00  0.00     0.293 HD
ENDBRANCH  15  19
ENDBRANCH  10  11
ENDBRANCH   1  10
TORSDOF 6
ENDMDL
MODEL 7
REMARK VINA RESULT:    -6.745      2.667      7.026
REMARK INTER + INTRA:          -8.978
REMARK INTER:                  -8.437
REMARK INTRA:                  -0.541
REMARK UNBOUND:                -0.459
REMARK SMILES Oc1ccc(CCc2cc(O)cc(O)c2)cc1
REMARK SMILES IDX 6 1 5 2 4 3 3 4 2 5 16 6 17 7 1 8 7 10 8 11 15 12 9 13 13 14
REMARK SMILES IDX 10 15 12 16 14 17 11 19
REMARK H PARENT 1 9 14 18 11 20
REMARK Flexibility Score: inf
ROOT
ATOM      1  C   UNL     1      -9.490  -4.584  -8.868  1.00  0.00     0.040 C 
ENDROOT
BRANCH   1   2
ATOM      2  C   UNL     1     -10.031  -5.428  -7.746  1.00  0.00    -0.047 A 
ATOM      3  C   UNL     1     -10.211  -6.810  -7.922  1.00  0.00     0.007 A 
ATOM      4  C   UNL     1     -10.744  -7.589  -6.890  1.00  0.00     0.046 A 
ATOM      5  C   UNL     1     -11.112  -6.992  -5.676  1.00  0.00     0.115 A 
ATOM      6  C   UNL     1     -10.414  -4.834  -6.532  1.00  0.00     0.007 A 
ATOM      7  C   UNL     1     -10.947  -5.615  -5.503  1.00  0.00     0.046 A 
BRANCH   5   8
ATOM      8  O   UNL     1     -11.645  -7.758  -4.642  1.00  0.00    -0.508 OA
ATOM      9  H   UNL     1     -12.584  -8.134  -4.690  1.00  0.00     0.293 HD
ENDBRANCH   5   8
ENDBRANCH   1   2
BRANCH   1  10
ATOM     10  C   UNL     1      -9.408  -3.114  -8.445  1.00  0.00     0.040 C 
BRANCH  10  11
ATOM     11  C   UNL     1     -10.462  -2.302  -9.147  1.00  0.00    -0.040 A 
ATOM     12  C   UNL     1     -10.422  -0.899  -9.101  1.00  0.00     0.050 A 
ATOM     13  C   UNL     1     -11.527  -2.940  -9.805  1.00  0.00     0.050 A 
ATOM     14  C   UNL     1     -11.423  -0.142  -9.727  1.00  0.00     0.119 A 
ATOM     15  C   UNL     1     -12.526  -2.184 -10.431  1.00  0.00     0.119 A 
ATOM     16  C   UNL     1     -12.470  -0.787 -10.393  1.00  0.00     0.092 A 
BRANCH  14  17
ATOM     17  O   UNL     1     -11.385   1.251  -9.692  1.00  0.00    -0.508 OA
ATOM     18  H   UNL     1     -10.808   1.782 -10.333  1.00  0.00     0.293 HD
ENDBRANCH  14  17
BRANCH  15  19
ATOM     19  O   UNL     1     -13.582  -2.810 -11.091  1.00  0.00    -0.508 OA
ATOM     20  H   UNL     1     -14.358  -3.216 -10.582  1.00  0.00     0.293 HD
ENDBRANCH  15  19
ENDBRANCH  10  11
ENDBRANCH   1  10
TORSDOF 6
ENDMDL
MODEL 8
REMARK VINA RESULT:    -6.538      2.413      7.157
REMARK INTER + INTRA:          -8.717
REMARK INTER:                  -8.176
REMARK INTRA:                  -0.541
REMARK UNBOUND:                -0.459
REMARK SMILES Oc1ccc(CCc2cc(O)cc(O)c2)cc1
REMARK SMILES IDX 6 1 5 2 4 3 3 4 2 5 16 6 17 7 1 8 7 10 8 11 15 12 9 13 13 14
REMARK SMILES IDX 10 15 12 16 14 17 11 19
REMARK H PARENT 1 9 14 18 11 20
REMARK Flexibility Score: inf
ROOT
ATOM      1  C   UNL     1      -9.496  -3.111  -8.589  1.00  0.00     0.040 C 
ENDROOT
BRANCH   1   2
ATOM      2  C   UNL     1      -9.854  -4.384  -7.870  1.00  0.00    -0.047 A 
ATOM      3  C   UNL     1      -9.846  -5.610  -8.555  1.00  0.00     0.007 A 
ATOM      4  C   UNL     1     -10.211  -6.788  -7.895  1.00  0.00     0.046 A 
ATOM      5  C   UNL     1     -10.595  -6.751  -6.548  1.00  0.00     0.115 A 
ATOM      6  C   UNL     1     -10.252  -4.350  -6.523  1.00  0.00     0.007 A 
ATOM      7  C   UNL     1     -10.616  -5.530  -5.867  1.00  0.00     0.046 A 
BRANCH   5   8
ATOM      8  O   UNL     1     -10.960  -7.918  -5.881  1.00  0.00    -0.508 OA
ATOM      9  H   UNL     1     -10.271  -8.607  -5.604  1.00  0.00     0.293 HD
ENDBRANCH   5   8
ENDBRANCH   1   2
BRANCH   1  10
ATOM     10  C   UNL     1     -10.199  -3.044  -9.947  1.00  0.00     0.040 C 
BRANCH  10  11
ATOM     11  C   UNL     1     -11.217  -1.935  -9.961  1.00  0.00    -0.040 A 
ATOM     12  C   UNL     1     -12.533  -2.187 -10.385  1.00  0.00     0.050 A 
ATOM     13  C   UNL     1     -10.846  -0.628  -9.605  1.00  0.00     0.050 A 
ATOM     14  C   UNL     1     -13.472  -1.147 -10.430  1.00  0.00     0.119 A 
ATOM     15  C   UNL     1     -11.785   0.411  -9.649  1.00  0.00     0.119 A 
ATOM     16  C   UNL     1     -13.096   0.148 -10.058  1.00  0.00     0.092 A 
BRANCH  14  17
ATOM     17  O   UNL     1     -14.781  -1.392 -10.842  1.00  0.00    -0.508 OA
ATOM     18  H   UNL     1     -15.566  -0.895 -10.437  1.00  0.00     0.293 HD
ENDBRANCH  14  17
BRANCH  15  19
ATOM     19  O   UNL     1     -11.425   1.709  -9.291  1.00  0.00    -0.508 OA
ATOM     20  H   UNL     1     -11.947   2.512  -9.621  1.00  0.00     0.293 HD
ENDBRANCH  15  19
ENDBRANCH  10  11
ENDBRANCH   1  10
TORSDOF 6
ENDMDL
MODEL 9
REMARK VINA RESULT:    -6.288     16.150     17.939
REMARK INTER + INTRA:          -8.401
REMARK INTER:                  -7.975
REMARK INTRA:                  -0.426
REMARK UNBOUND:                -0.459
REMARK SMILES Oc1ccc(CCc2cc(O)cc(O)c2)cc1
REMARK SMILES IDX 6 1 5 2 4 3 3 4 2 5 16 6 17 7 1 8 7 10 8 11 15 12 9 13 13 14
REMARK SMILES IDX 10 15 12 16 14 17 11 19
REMARK H PARENT 1 9 14 18 11 20
REMARK Flexibility Score: inf
ROOT
ATOM      1  C   UNL     1      -8.886   7.604   5.361  1.00  0.00     0.040 C 
ENDROOT
BRANCH   1   2
ATOM      2  C   UNL     1      -8.043   8.811   5.672  1.00  0.00    -0.047 A 
ATOM      3  C   UNL     1      -7.659   9.690   4.646  1.00  0.00     0.007 A 
ATOM      4  C   UNL     1      -6.849  10.794   4.930  1.00  0.00     0.046 A 
ATOM      5  C   UNL     1      -6.408  11.025   6.240  1.00  0.00     0.115 A 
ATOM      6  C   UNL     1      -7.587   9.040   6.981  1.00  0.00     0.007 A 
ATOM      7  C   UNL     1      -6.778  10.144   7.262  1.00  0.00     0.046 A 
BRANCH   5   8
ATOM      8  O   UNL     1      -5.600  12.121   6.535  1.00  0.00    -0.508 OA
ATOM      9  H   UNL     1      -5.419  12.404   7.491  1.00  0.00     0.293 HD
ENDBRANCH   5   8
ENDBRANCH   1   2
BRANCH   1  10
ATOM     10  C   UNL     1      -8.881   6.626   6.540  1.00  0.00     0.040 C 
BRANCH  10  11
ATOM     11  C   UNL     1     -10.115   5.764   6.517  1.00  0.00    -0.040 A 
ATOM     12  C   UNL     1     -10.974   5.787   5.407  1.00  0.00     0.050 A 
ATOM     13  C   UNL     1     -10.447   4.975   7.631  1.00  0.00     0.050 A 
ATOM     14  C   UNL     1     -12.141   5.010   5.400  1.00  0.00     0.119 A 
ATOM     15  C   UNL     1     -11.613   4.197   7.624  1.00  0.00     0.119 A 
ATOM     16  C   UNL     1     -12.455   4.215   6.507  1.00  0.00     0.092 A 
BRANCH  14  17
ATOM     17  O   UNL     1     -12.994   5.022   4.298  1.00  0.00    -0.508 OA
ATOM     18  H   UNL     1     -13.574   4.223   4.068  1.00  0.00     0.293 HD
ENDBRANCH  14  17
BRANCH  15  19
ATOM     19  O   UNL     1     -11.945   3.406   8.722  1.00  0.00    -0.508 OA
ATOM     20  H   UNL     1     -11.342   2.655   9.035  1.00  0.00     0.293 HD
ENDBRANCH  15  19
ENDBRANCH  10  11
ENDBRANCH   1  10
TORSDOF 6
ENDMDL
