MODEL 1
REMARK VINA RESULT:    -3.663      0.000      0.000
REMARK INTER + INTRA:          -5.022
REMARK INTER:                  -4.734
REMARK INTRA:                  -0.288
REMARK UNBOUND:                -0.288
REMARK SMILES CCCCCCC(=O)[O-]
REMARK SMILES IDX 5 1 6 2 7 3 8 4 9 5 4 6 3 7 2 8 1 9
REMARK H PARENT
REMARK Flexibility Score: inf
ROOT
ATOM      1  C   UNL     1      -7.812   3.703 -34.208  1.00  0.00     0.006 C 
ENDROOT
BRANCH   1   2
ATOM      2  C   UNL     1      -6.728   3.244 -35.191  1.00  0.00     0.053 C 
BRANCH   2   3
ATOM      3  C   UNL     1      -6.912   3.857 -36.546  1.00  0.00     0.041 C 
ATOM      4  O   UNL     1      -7.899   3.536 -37.258  1.00  0.00    -0.550 OA
ATOM      5  O   UNL     1      -5.974   4.759 -37.036  1.00  0.00    -0.550 OA
ENDBRANCH   2   3
ENDBRANCH   1   2
BRANCH   1   6
ATOM      6  C   UNL     1      -7.889   5.233 -34.097  1.00  0.00     0.000 C 
BRANCH   6   7
ATOM      7  C   UNL     1      -7.907   5.678 -32.630  1.00  0.00    -0.000 C 
BRANCH   7   8
ATOM      8  C   UNL     1      -6.750   6.639 -32.331  1.00  0.00    -0.003 C 
ATOM      9  C   UNL     1      -5.990   6.998 -33.604  1.00  0.00     0.004 C 
ENDBRANCH   7   8
ENDBRANCH   6   7
ENDBRANCH   1   6
TORSDOF 5
ENDMDL
MODEL 2
REMARK VINA RESULT:    -3.618      2.420      4.119
REMARK INTER + INTRA:          -4.963
REMARK INTER:                  -4.672
REMARK INTRA:                  -0.291
REMARK UNBOUND:                -0.288
REMARK SMILES CCCCCCC(=O)[O-]
REMARK SMILES IDX 5 1 6 2 7 3 8 4 9 5 4 6 3 7 2 8 1 9
REMARK H PARENT
REMARK Flexibility Score: inf
ROOT
ATOM      1  C   UNL     1      -8.790   5.586 -33.936  1.00  0.00     0.006 C 
ENDROOT
BRANCH   1   2
ATOM      2  C   UNL     1      -7.775   5.519 -32.787  1.00  0.00     0.053 C 
BRANCH   2   3
ATOM      3  C   UNL     1      -6.829   6.680 -32.813  1.00  0.00     0.041 C 
ATOM      4  O   UNL     1      -6.950   7.615 -31.979  1.00  0.00    -0.550 OA
ATOM      5  O   UNL     1      -5.832   6.744 -33.779  1.00  0.00    -0.550 OA
ENDBRANCH   2   3
ENDBRANCH   1   2
BRANCH   1   6
ATOM      6  C   UNL     1      -8.788   4.310 -34.791  1.00  0.00     0.000 C 
BRANCH   6   7
ATOM      7  C   UNL     1      -7.621   3.393 -34.406  1.00  0.00    -0.000 C 
BRANCH   7   8
ATOM      8  C   UNL     1      -6.509   3.446 -35.461  1.00  0.00    -0.003 C 
ATOM      9  C   UNL     1      -7.088   3.581 -36.866  1.00  0.00     0.004 C 
ENDBRANCH   7   8
ENDBRANCH   6   7
ENDBRANCH   1   6
TORSDOF 5
ENDMDL
MODEL 3
REMARK VINA RESULT:    -3.602     13.147     14.465
REMARK INTER + INTRA:          -4.942
REMARK INTER:                  -4.590
REMARK INTRA:                  -0.353
REMARK UNBOUND:                -0.288
REMARK SMILES CCCCCCC(=O)[O-]
REMARK SMILES IDX 5 1 6 2 7 3 8 4 9 5 4 6 3 7 2 8 1 9
REMARK H PARENT
REMARK Flexibility Score: inf
ROOT
ATOM      1  C   UNL     1     -13.778   5.458 -23.341  1.00  0.00     0.006 C 
ENDROOT
BRANCH   1   2
ATOM      2  C   UNL     1     -14.758   5.391 -24.520  1.00  0.00     0.053 C 
BRANCH   2   3
ATOM      3  C   UNL     1     -15.879   6.375 -24.368  1.00  0.00     0.041 C 
ATOM      4  O   UNL     1     -15.861   7.459 -25.006  1.00  0.00    -0.550 OA
ATOM      5  O   UNL     1     -16.926   6.106 -23.495  1.00  0.00    -0.550 OA
ENDBRANCH   2   3
ENDBRANCH   1   2
BRANCH   1   6
ATOM      6  C   UNL     1     -13.727   4.142 -22.551  1.00  0.00     0.000 C 
BRANCH   6   7
ATOM      7  C   UNL     1     -14.620   3.077 -23.199  1.00  0.00    -0.000 C 
BRANCH   7   8
ATOM      8  C   UNL     1     -15.714   2.613 -22.230  1.00  0.00    -0.003 C 
ATOM      9  C   UNL     1     -15.885   3.600 -21.079  1.00  0.00     0.004 C 
ENDBRANCH   7   8
ENDBRANCH   6   7
ENDBRANCH   1   6
TORSDOF 5
ENDMDL
MODEL 4
REMARK VINA RESULT:    -3.602      1.066      1.322
REMARK INTER + INTRA:          -4.942
REMARK INTER:                  -4.708
REMARK INTRA:                  -0.234
REMARK UNBOUND:                -0.288
REMARK SMILES CCCCCCC(=O)[O-]
REMARK SMILES IDX 5 1 6 2 7 3 8 4 9 5 4 6 3 7 2 8 1 9
REMARK H PARENT
REMARK Flexibility Score: inf
ROOT
ATOM      1  C   UNL     1      -7.945   3.899 -33.883  1.00  0.00     0.006 C 
ENDROOT
BRANCH   1   2
ATOM      2  C   UNL     1      -7.356   3.460 -35.229  1.00  0.00     0.053 C 
BRANCH   2   3
ATOM      3  C   UNL     1      -8.423   3.231 -36.255  1.00  0.00     0.041 C 
ATOM      4  O   UNL     1      -9.472   2.606 -35.950  1.00  0.00    -0.550 OA
ATOM      5  O   UNL     1      -8.245   3.681 -37.558  1.00  0.00    -0.550 OA
ENDBRANCH   2   3
ENDBRANCH   1   2
BRANCH   1   6
ATOM      6  C   UNL     1      -8.100   5.424 -33.783  1.00  0.00     0.000 C 
BRANCH   6   7
ATOM      7  C   UNL     1      -7.656   5.933 -32.407  1.00  0.00    -0.000 C 
BRANCH   7   8
ATOM      8  C   UNL     1      -6.745   7.159 -32.541  1.00  0.00    -0.003 C 
ATOM      9  C   UNL     1      -5.848   7.047 -33.770  1.00  0.00     0.004 C 
ENDBRANCH   7   8
ENDBRANCH   6   7
ENDBRANCH   1   6
TORSDOF 5
ENDMDL
MODEL 5
REMARK VINA RESULT:    -3.551      2.550      4.560
REMARK INTER + INTRA:          -4.876
REMARK INTER:                  -4.679
REMARK INTRA:                  -0.197
REMARK UNBOUND:                -0.288
REMARK SMILES CCCCCCC(=O)[O-]
REMARK SMILES IDX 5 1 6 2 7 3 8 4 9 5 4 6 3 7 2 8 1 9
REMARK H PARENT
REMARK Flexibility Score: inf
ROOT
ATOM      1  C   UNL     1      -6.667   3.666 -35.444  1.00  0.00     0.006 C 
ENDROOT
BRANCH   1   2
ATOM      2  C   UNL     1      -7.741   3.498 -34.360  1.00  0.00     0.053 C 
BRANCH   2   3
ATOM      3  C   UNL     1      -8.225   4.820 -33.848  1.00  0.00     0.041 C 
ATOM      4  O   UNL     1      -9.144   5.435 -34.450  1.00  0.00    -0.550 OA
ATOM      5  O   UNL     1      -7.638   5.388 -32.723  1.00  0.00    -0.550 OA
ENDBRANCH   2   3
ENDBRANCH   1   2
BRANCH   1   6
ATOM      6  C   UNL     1      -7.251   3.569 -36.862  1.00  0.00     0.000 C 
BRANCH   6   7
ATOM      7  C   UNL     1      -6.151   3.284 -37.891  1.00  0.00    -0.000 C 
BRANCH   7   8
ATOM      8  C   UNL     1      -4.839   2.894 -37.199  1.00  0.00    -0.003 C 
ATOM      9  C   UNL     1      -3.979   2.016 -38.103  1.00  0.00     0.004 C 
ENDBRANCH   7   8
ENDBRANCH   6   7
ENDBRANCH   1   6
TORSDOF 5
ENDMDL
MODEL 6
REMARK VINA RESULT:    -3.524     14.051     15.310
REMARK INTER + INTRA:          -4.842
REMARK INTER:                  -4.429
REMARK INTRA:                  -0.413
REMARK UNBOUND:                -0.288
REMARK SMILES CCCCCCC(=O)[O-]
REMARK SMILES IDX 5 1 6 2 7 3 8 4 9 5 4 6 3 7 2 8 1 9
REMARK H PARENT
REMARK Flexibility Score: inf
ROOT
ATOM      1  C   UNL     1     -15.117   3.672 -22.638  1.00  0.00     0.006 C 
ENDROOT
BRANCH   1   2
ATOM      2  C   UNL     1     -15.891   3.696 -21.313  1.00  0.00     0.053 C 
BRANCH   2   3
ATOM      3  C   UNL     1     -16.141   5.096 -20.840  1.00  0.00     0.041 C 
ATOM      4  O   UNL     1     -16.868   5.871 -21.514  1.00  0.00    -0.550 OA
ATOM      5  O   UNL     1     -15.544   5.552 -19.671  1.00  0.00    -0.550 OA
ENDBRANCH   2   3
ENDBRANCH   1   2
BRANCH   1   6
ATOM      6  C   UNL     1     -13.829   4.508 -22.575  1.00  0.00     0.000 C 
BRANCH   6   7
ATOM      7  C   UNL     1     -13.813   5.575 -23.675  1.00  0.00    -0.000 C 
BRANCH   7   8
ATOM      8  C   UNL     1     -14.996   5.396 -24.634  1.00  0.00    -0.003 C 
ATOM      9  C   UNL     1     -15.748   6.708 -24.832  1.00  0.00     0.004 C 
ENDBRANCH   7   8
ENDBRANCH   6   7
ENDBRANCH   1   6
TORSDOF 5
ENDMDL
MODEL 7
REMARK VINA RESULT:    -3.504      2.665      4.225
REMARK INTER + INTRA:          -4.816
REMARK INTER:                  -4.564
REMARK INTRA:                  -0.252
REMARK UNBOUND:                -0.288
REMARK SMILES CCCCCCC(=O)[O-]
REMARK SMILES IDX 5 1 6 2 7 3 8 4 9 5 4 6 3 7 2 8 1 9
REMARK H PARENT
REMARK Flexibility Score: inf
ROOT
ATOM      1  C   UNL     1      -6.586   6.620 -32.588  1.00  0.00     0.006 C 
ENDROOT
BRANCH   1   2
ATOM      2  C   UNL     1      -6.097   6.825 -34.028  1.00  0.00     0.053 C 
BRANCH   2   3
ATOM      3  C   UNL     1      -5.304   8.088 -34.171  1.00  0.00     0.041 C 
ATOM      4  O   UNL     1      -4.159   8.061 -34.693  1.00  0.00    -0.550 OA
ATOM      5  O   UNL     1      -5.817   9.290 -33.698  1.00  0.00    -0.550 OA
ENDBRANCH   2   3
ENDBRANCH   1   2
BRANCH   1   6
ATOM      6  C   UNL     1      -7.780   5.657 -32.510  1.00  0.00     0.000 C 
BRANCH   6   7
ATOM      7  C   UNL     1      -8.234   5.229 -33.910  1.00  0.00    -0.000 C 
BRANCH   7   8
ATOM      8  C   UNL     1      -8.113   3.710 -34.088  1.00  0.00    -0.003 C 
ATOM      9  C   UNL     1      -6.993   3.358 -35.061  1.00  0.00     0.004 C 
ENDBRANCH   7   8
ENDBRANCH   6   7
ENDBRANCH   1   6
TORSDOF 5
ENDMDL
MODEL 8
REMARK VINA RESULT:    -3.418     13.497     14.466
REMARK INTER + INTRA:          -4.705
REMARK INTER:                  -4.427
REMARK INTRA:                  -0.278
REMARK UNBOUND:                -0.288
REMARK SMILES CCCCCCC(=O)[O-]
REMARK SMILES IDX 5 1 6 2 7 3 8 4 9 5 4 6 3 7 2 8 1 9
REMARK H PARENT
REMARK Flexibility Score: inf
ROOT
ATOM      1  C   UNL     1     -15.348   4.770 -21.791  1.00  0.00     0.006 C 
ENDROOT
BRANCH   1   2
ATOM      2  C   UNL     1     -16.074   5.590 -22.865  1.00  0.00     0.053 C 
BRANCH   2   3
ATOM      3  C   UNL     1     -15.211   5.818 -24.068  1.00  0.00     0.041 C 
ATOM      4  O   UNL     1     -13.957   5.787 -23.963  1.00  0.00    -0.550 OA
ATOM      5  O   UNL     1     -15.793   6.097 -25.299  1.00  0.00    -0.550 OA
ENDBRANCH   2   3
ENDBRANCH   1   2
BRANCH   1   6
ATOM      6  C   UNL     1     -15.696   3.275 -21.865  1.00  0.00     0.000 C 
BRANCH   6   7
ATOM      7  C   UNL     1     -14.654   2.508 -22.687  1.00  0.00    -0.000 C 
BRANCH   7   8
ATOM      8  C   UNL     1     -13.232   2.835 -22.215  1.00  0.00    -0.003 C 
ATOM      9  C   UNL     1     -12.557   1.608 -21.611  1.00  0.00     0.004 C 
ENDBRANCH   7   8
ENDBRANCH   6   7
ENDBRANCH   1   6
TORSDOF 5
ENDMDL
MODEL 9
REMARK VINA RESULT:    -3.389     13.652     14.987
REMARK INTER + INTRA:          -4.667
REMARK INTER:                  -4.275
REMARK INTRA:                  -0.392
REMARK UNBOUND:                -0.288
REMARK SMILES CCCCCCC(=O)[O-]
REMARK SMILES IDX 5 1 6 2 7 3 8 4 9 5 4 6 3 7 2 8 1 9
REMARK H PARENT
REMARK Flexibility Score: inf
ROOT
ATOM      1  C   UNL     1     -16.103   4.707 -20.997  1.00  0.00     0.006 C 
ENDROOT
BRANCH   1   2
ATOM      2  C   UNL     1     -16.102   3.261 -21.508  1.00  0.00     0.053 C 
BRANCH   2   3
ATOM      3  C   UNL     1     -14.779   2.881 -22.100  1.00  0.00     0.041 C 
ATOM      4  O   UNL     1     -14.687   2.616 -23.326  1.00  0.00    -0.550 OA
ATOM      5  O   UNL     1     -13.655   2.789 -21.288  1.00  0.00    -0.550 OA
ENDBRANCH   2   3
ENDBRANCH   1   2
BRANCH   1   6
ATOM      6  C   UNL     1     -15.504   5.686 -22.019  1.00  0.00     0.000 C 
BRANCH   6   7
ATOM      7  C   UNL     1     -16.568   6.157 -23.017  1.00  0.00    -0.000 C 
BRANCH   7   8
ATOM      8  C   UNL     1     -16.089   5.967 -24.462  1.00  0.00    -0.003 C 
ATOM      9  C   UNL     1     -14.569   5.858 -24.528  1.00  0.00     0.004 C 
ENDBRANCH   7   8
ENDBRANCH   6   7
ENDBRANCH   1   6
TORSDOF 5
ENDMDL
