MODEL 1
REMARK VINA RESULT:    -3.978      0.000      0.000
REMARK INTER + INTRA:          -5.068
REMARK INTER:                  -4.675
REMARK INTRA:                  -0.392
REMARK UNBOUND:                -0.392
REMARK SMILES [NH3+][C@H](CO)C(=O)[O-]
REMARK SMILES IDX 3 1 2 2 1 3 5 7 6 8 7 9 4 10
REMARK H PARENT 1 4 1 5 1 6 4 11
REMARK Flexibility Score: inf
ROOT
ATOM      1  C   UNL     1       9.475  15.441  21.259  1.00  0.00     0.227 C 
ENDROOT
BRANCH   1   2
ATOM      2  C   UNL     1      10.925  15.084  20.883  1.00  0.00     0.253 C 
BRANCH   2   3
ATOM      3  N   UNL     1      11.424  13.992  21.728  1.00  0.00    -0.348 N 
ATOM      4  H   UNL     1      11.183  14.180  22.728  1.00  0.00     0.345 HD
ATOM      5  H   UNL     1      12.466  13.929  21.649  1.00  0.00     0.345 HD
ATOM      6  H   UNL     1      11.001  13.078  21.439  1.00  0.00     0.345 HD
ENDBRANCH   2   3
BRANCH   2   7
ATOM      7  C   UNL     1      11.026  14.709  19.428  1.00  0.00     0.102 C 
ATOM      8  O   UNL     1      10.839  13.519  19.060  1.00  0.00    -0.544 OA
ATOM      9  O   UNL     1      11.312  15.683  18.480  1.00  0.00    -0.544 OA
ENDBRANCH   2   7
ENDBRANCH   1   2
BRANCH   1  10
ATOM     10  O   UNL     1       8.648  15.409  20.125  1.00  0.00    -0.390 OA
ATOM     11  H   UNL     1       9.242  15.490  19.334  1.00  0.00     0.210 HD
ENDBRANCH   1  10
TORSDOF 4
ENDMDL
MODEL 2
REMARK VINA RESULT:    -3.736      1.689      1.789
REMARK INTER + INTRA:          -4.783
REMARK INTER:                  -4.557
REMARK INTRA:                  -0.226
REMARK UNBOUND:                -0.392
REMARK SMILES [NH3+][C@H](CO)C(=O)[O-]
REMARK SMILES IDX 3 1 2 2 1 3 5 7 6 8 7 9 4 10
REMARK H PARENT 1 4 1 5 1 6 4 11
REMARK Flexibility Score: inf
ROOT
ATOM      1  C   UNL     1      10.240  14.003  21.699  1.00  0.00     0.227 C 
ENDROOT
BRANCH   1   2
ATOM      2  C   UNL     1       9.888  14.923  20.516  1.00  0.00     0.253 C 
BRANCH   2   3
ATOM      3  N   UNL     1      10.076  16.332  20.883  1.00  0.00    -0.348 N 
ATOM      4  H   UNL     1       9.779  16.946  20.090  1.00  0.00     0.345 HD
ATOM      5  H   UNL     1      11.087  16.517  21.079  1.00  0.00     0.345 HD
ATOM      6  H   UNL     1       9.511  16.572  21.731  1.00  0.00     0.345 HD
ENDBRANCH   2   3
BRANCH   2   7
ATOM      7  C   UNL     1      10.719  14.582  19.306  1.00  0.00     0.102 C 
ATOM      8  O   UNL     1      10.873  13.382  18.954  1.00  0.00    -0.544 OA
ATOM      9  O   UNL     1      11.309  15.596  18.563  1.00  0.00    -0.544 OA
ENDBRANCH   2   7
ENDBRANCH   1   2
BRANCH   1  10
ATOM     10  O   UNL     1       9.665  12.734  21.527  1.00  0.00    -0.390 OA
ATOM     11  H   UNL     1      10.412  12.081  21.508  1.00  0.00     0.210 HD
ENDBRANCH   1  10
TORSDOF 4
ENDMDL
MODEL 3
REMARK VINA RESULT:    -3.552      1.319      1.697
REMARK INTER + INTRA:          -4.567
REMARK INTER:                  -4.356
REMARK INTRA:                  -0.211
REMARK UNBOUND:                -0.392
REMARK SMILES [NH3+][C@H](CO)C(=O)[O-]
REMARK SMILES IDX 3 1 2 2 1 3 5 7 6 8 7 9 4 10
REMARK H PARENT 1 4 1 5 1 6 4 11
REMARK Flexibility Score: inf
ROOT
ATOM      1  C   UNL     1       9.717  15.171  22.186  1.00  0.00     0.227 C 
ENDROOT
BRANCH   1   2
ATOM      2  C   UNL     1      10.360  14.419  21.007  1.00  0.00     0.253 C 
BRANCH   2   3
ATOM      3  N   UNL     1       9.896  13.026  20.967  1.00  0.00    -0.348 N 
ATOM      4  H   UNL     1       9.034  12.924  21.550  1.00  0.00     0.345 HD
ATOM      5  H   UNL     1      10.633  12.395  21.360  1.00  0.00     0.345 HD
ATOM      6  H   UNL     1       9.681  12.735  19.985  1.00  0.00     0.345 HD
ENDBRANCH   2   3
BRANCH   2   7
ATOM      7  C   UNL     1      10.058  15.109  19.702  1.00  0.00     0.102 C 
ATOM      8  O   UNL     1       8.957  15.697  19.530  1.00  0.00    -0.544 OA
ATOM      9  O   UNL     1      11.003  15.110  18.684  1.00  0.00    -0.544 OA
ENDBRANCH   2   7
ENDBRANCH   1   2
BRANCH   1  10
ATOM     10  O   UNL     1       8.322  15.029  22.162  1.00  0.00    -0.390 OA
ATOM     11  H   UNL     1       8.127  14.182  21.683  1.00  0.00     0.210 HD
ENDBRANCH   1  10
TORSDOF 4
ENDMDL
MODEL 4
REMARK VINA RESULT:    -3.430      1.589      2.173
REMARK INTER + INTRA:          -4.424
REMARK INTER:                  -4.027
REMARK INTRA:                  -0.397
REMARK UNBOUND:                -0.392
REMARK SMILES [NH3+][C@H](CO)C(=O)[O-]
REMARK SMILES IDX 3 1 2 2 1 3 5 7 6 8 7 9 4 10
REMARK H PARENT 1 4 1 5 1 6 4 11
REMARK Flexibility Score: inf
ROOT
ATOM      1  C   UNL     1      10.018  12.872  21.957  1.00  0.00     0.227 C 
ENDROOT
BRANCH   1   2
ATOM      2  C   UNL     1      10.496  14.335  21.973  1.00  0.00     0.253 C 
BRANCH   2   3
ATOM      3  N   UNL     1      11.906  14.415  22.374  1.00  0.00    -0.348 N 
ATOM      4  H   UNL     1      12.381  13.504  22.179  1.00  0.00     0.345 HD
ATOM      5  H   UNL     1      11.973  14.605  23.401  1.00  0.00     0.345 HD
ATOM      6  H   UNL     1      12.398  15.176  21.850  1.00  0.00     0.345 HD
ENDBRANCH   2   3
BRANCH   2   7
ATOM      7  C   UNL     1      10.298  14.979  20.625  1.00  0.00     0.102 C 
ATOM      8  O   UNL     1      11.236  15.005  19.785  1.00  0.00    -0.544 OA
ATOM      9  O   UNL     1       9.068  15.536  20.298  1.00  0.00    -0.544 OA
ENDBRANCH   2   7
ENDBRANCH   1   2
BRANCH   1  10
ATOM     10  O   UNL     1       9.595  12.503  20.671  1.00  0.00    -0.390 OA
ATOM     11  H   UNL     1       8.821  11.893  20.788  1.00  0.00     0.210 HD
ENDBRANCH   1  10
TORSDOF 4
ENDMDL
MODEL 5
REMARK VINA RESULT:    -3.421      1.593      3.154
REMARK INTER + INTRA:          -4.413
REMARK INTER:                  -4.385
REMARK INTRA:                  -0.028
REMARK UNBOUND:                -0.392
REMARK SMILES [NH3+][C@H](CO)C(=O)[O-]
REMARK SMILES IDX 3 1 2 2 1 3 5 7 6 8 7 9 4 10
REMARK H PARENT 1 4 1 5 1 6 4 11
REMARK Flexibility Score: inf
ROOT
ATOM      1  C   UNL     1      11.232  15.155  19.728  1.00  0.00     0.227 C 
ENDROOT
BRANCH   1   2
ATOM      2  C   UNL     1       9.829  14.681  20.149  1.00  0.00     0.253 C 
BRANCH   2   3
ATOM      3  N   UNL     1       9.807  13.223  20.324  1.00  0.00    -0.348 N 
ATOM      4  H   UNL     1      10.482  12.946  21.074  1.00  0.00     0.345 HD
ATOM      5  H   UNL     1      10.096  12.754  19.434  1.00  0.00     0.345 HD
ATOM      6  H   UNL     1       8.848  12.897  20.589  1.00  0.00     0.345 HD
ENDBRANCH   2   3
BRANCH   2   7
ATOM      7  C   UNL     1       9.388  15.367  21.415  1.00  0.00     0.102 C 
ATOM      8  O   UNL     1       9.331  16.624  21.475  1.00  0.00    -0.544 OA
ATOM      9  O   UNL     1       9.028  14.611  22.523  1.00  0.00    -0.544 OA
ENDBRANCH   2   7
ENDBRANCH   1   2
BRANCH   1  10
ATOM     10  O   UNL     1      11.208  15.677  18.426  1.00  0.00    -0.390 OA
ATOM     11  H   UNL     1      10.766  14.998  17.853  1.00  0.00     0.210 HD
ENDBRANCH   1  10
TORSDOF 4
ENDMDL
MODEL 6
REMARK VINA RESULT:    -3.339      1.867      3.017
REMARK INTER + INTRA:          -4.317
REMARK INTER:                  -4.312
REMARK INTRA:                  -0.005
REMARK UNBOUND:                -0.392
REMARK SMILES [NH3+][C@H](CO)C(=O)[O-]
REMARK SMILES IDX 3 1 2 2 1 3 5 7 6 8 7 9 4 10
REMARK H PARENT 1 4 1 5 1 6 4 11
REMARK Flexibility Score: inf
ROOT
ATOM      1  C   UNL     1      10.521  14.868  19.452  1.00  0.00     0.227 C 
ENDROOT
BRANCH   1   2
ATOM      2  C   UNL     1      10.700  15.389  20.889  1.00  0.00     0.253 C 
BRANCH   2   3
ATOM      3  N   UNL     1      10.588  16.852  20.927  1.00  0.00    -0.348 N 
ATOM      4  H   UNL     1      11.486  17.283  20.606  1.00  0.00     0.345 HD
ATOM      5  H   UNL     1      10.405  17.170  21.907  1.00  0.00     0.345 HD
ATOM      6  H   UNL     1       9.811  17.180  20.307  1.00  0.00     0.345 HD
ENDBRANCH   2   3
BRANCH   2   7
ATOM      7  C   UNL     1       9.691  14.763  21.816  1.00  0.00     0.102 C 
ATOM      8  O   UNL     1       9.872  13.601  22.267  1.00  0.00    -0.544 OA
ATOM      9  O   UNL     1       8.559  15.475  22.190  1.00  0.00    -0.544 OA
ENDBRANCH   2   7
ENDBRANCH   1   2
BRANCH   1  10
ATOM     10  O   UNL     1      11.239  15.662  18.545  1.00  0.00    -0.390 OA
ATOM     11  H   UNL     1      11.730  16.337  19.080  1.00  0.00     0.210 HD
ENDBRANCH   1  10
TORSDOF 4
ENDMDL
MODEL 7
REMARK VINA RESULT:    -3.298      1.978      2.670
REMARK INTER + INTRA:          -4.269
REMARK INTER:                  -4.048
REMARK INTRA:                  -0.221
REMARK UNBOUND:                -0.392
REMARK SMILES [NH3+][C@H](CO)C(=O)[O-]
REMARK SMILES IDX 3 1 2 2 1 3 5 7 6 8 7 9 4 10
REMARK H PARENT 1 4 1 5 1 6 4 11
REMARK Flexibility Score: inf
ROOT
ATOM      1  C   UNL     1       9.693  15.166  19.548  1.00  0.00     0.227 C 
ENDROOT
BRANCH   1   2
ATOM      2  C   UNL     1      10.020  14.601  20.942  1.00  0.00     0.253 C 
BRANCH   2   3
ATOM      3  N   UNL     1       8.964  14.950  21.902  1.00  0.00    -0.348 N 
ATOM      4  H   UNL     1       9.265  14.689  22.869  1.00  0.00     0.345 HD
ATOM      5  H   UNL     1       8.090  14.421  21.677  1.00  0.00     0.345 HD
ATOM      6  H   UNL     1       8.763  15.977  21.872  1.00  0.00     0.345 HD
ENDBRANCH   2   3
BRANCH   2   7
ATOM      7  C   UNL     1      10.203  13.107  20.886  1.00  0.00     0.102 C 
ATOM      8  O   UNL     1      10.325  12.519  19.779  1.00  0.00    -0.544 OA
ATOM      9  O   UNL     1      10.253  12.371  22.063  1.00  0.00    -0.544 OA
ENDBRANCH   2   7
ENDBRANCH   1   2
BRANCH   1  10
ATOM     10  O   UNL     1      10.864  15.315  18.788  1.00  0.00    -0.390 OA
ATOM     11  H   UNL     1      10.920  16.272  18.533  1.00  0.00     0.210 HD
ENDBRANCH   1  10
TORSDOF 4
ENDMDL
MODEL 8
REMARK VINA RESULT:    -3.296      2.087      2.923
REMARK INTER + INTRA:          -4.266
REMARK INTER:                  -4.050
REMARK INTRA:                  -0.216
REMARK UNBOUND:                -0.392
REMARK SMILES [NH3+][C@H](CO)C(=O)[O-]
REMARK SMILES IDX 3 1 2 2 1 3 5 7 6 8 7 9 4 10
REMARK H PARENT 1 4 1 5 1 6 4 11
REMARK Flexibility Score: inf
ROOT
ATOM      1  C   UNL     1      10.180  12.601  22.754  1.00  0.00     0.227 C 
ENDROOT
BRANCH   1   2
ATOM      2  C   UNL     1      10.476  14.060  22.364  1.00  0.00     0.253 C 
BRANCH   2   3
ATOM      3  N   UNL     1      11.922  14.314  22.367  1.00  0.00    -0.348 N 
ATOM      4  H   UNL     1      12.257  14.440  23.350  1.00  0.00     0.345 HD
ATOM      5  H   UNL     1      12.131  15.190  21.836  1.00  0.00     0.345 HD
ATOM      6  H   UNL     1      12.439  13.514  21.930  1.00  0.00     0.345 HD
ENDBRANCH   2   3
BRANCH   2   7
ATOM      7  C   UNL     1       9.890  14.385  21.015  1.00  0.00     0.102 C 
ATOM      8  O   UNL     1       9.114  15.367  20.874  1.00  0.00    -0.544 OA
ATOM      9  O   UNL     1      10.218  13.606  19.912  1.00  0.00    -0.544 OA
ENDBRANCH   2   7
ENDBRANCH   1   2
BRANCH   1  10
ATOM     10  O   UNL     1      11.100  11.731  22.149  1.00  0.00    -0.390 OA
ATOM     11  H   UNL     1      11.875  11.660  22.765  1.00  0.00     0.210 HD
ENDBRANCH   1  10
TORSDOF 4
ENDMDL
MODEL 9
REMARK VINA RESULT:    -3.278      1.842      2.305
REMARK INTER + INTRA:          -4.246
REMARK INTER:                  -3.880
REMARK INTRA:                  -0.366
REMARK UNBOUND:                -0.392
REMARK SMILES [NH3+][C@H](CO)C(=O)[O-]
REMARK SMILES IDX 3 1 2 2 1 3 5 7 6 8 7 9 4 10
REMARK H PARENT 1 4 1 5 1 6 4 11
REMARK Flexibility Score: inf
ROOT
ATOM      1  C   UNL     1       9.841  15.635  21.372  1.00  0.00     0.227 C 
ENDROOT
BRANCH   1   2
ATOM      2  C   UNL     1      10.845  14.502  21.648  1.00  0.00     0.253 C 
BRANCH   2   3
ATOM      3  N   UNL     1      11.358  14.588  23.021  1.00  0.00    -0.348 N 
ATOM      4  H   UNL     1      11.289  15.574  23.363  1.00  0.00     0.345 HD
ATOM      5  H   UNL     1      12.366  14.305  23.043  1.00  0.00     0.345 HD
ATOM      6  H   UNL     1      10.812  13.965  23.661  1.00  0.00     0.345 HD
ENDBRANCH   2   3
BRANCH   2   7
ATOM      7  C   UNL     1      10.213  13.155  21.409  1.00  0.00     0.102 C 
ATOM      8  O   UNL     1       9.712  12.506  22.365  1.00  0.00    -0.544 OA
ATOM      9  O   UNL     1      10.169  12.629  20.125  1.00  0.00    -0.544 OA
ENDBRANCH   2   7
ENDBRANCH   1   2
BRANCH   1  10
ATOM     10  O   UNL     1       8.679  15.131  20.768  1.00  0.00    -0.390 OA
ATOM     11  H   UNL     1       7.958  15.176  21.448  1.00  0.00     0.210 HD
ENDBRANCH   1  10
TORSDOF 4
ENDMDL
