MODEL 1
REMARK VINA RESULT:    -6.315      0.000      0.000
REMARK INTER + INTRA:          -7.520
REMARK INTER:                  -7.423
REMARK INTRA:                  -0.097
REMARK UNBOUND:                -0.097
REMARK SMILES O=c1c(O)c(-c2ccc(O)cc2)oc2cc(O)cc(O)c12
REMARK SMILES IDX 5 1 3 2 2 3 1 4 21 5 19 6 18 7 16 8 15 9 14 10 13 11 6 12
REMARK SMILES IDX 7 13 8 14 9 15 12 16 11 17 10 18 4 20 20 22 17 24
REMARK H PARENT 10 19 4 21 20 23 17 25
REMARK Flexibility Score: inf
ROOT
ATOM      1  C   UNL     1      -3.455  38.614  19.189  1.00  0.00     0.180 A 
ATOM      2  C   UNL     1      -2.470  39.594  18.971  1.00  0.00     0.208 A 
ATOM      3  C   UNL     1      -1.275  39.227  18.331  1.00  0.00     0.238 A 
ATOM      4  O   UNL     1      -0.368  40.091  18.206  1.00  0.00    -0.285 OA
ATOM      5  C   UNL     1      -1.103  37.901  17.865  1.00  0.00     0.111 A 
ATOM      6  C   UNL     1       0.048  37.429  17.163  1.00  0.00     0.134 A 
ATOM      7  C   UNL     1       0.154  36.070  16.845  1.00  0.00     0.093 A 
ATOM      8  C   UNL     1      -0.877  35.176  17.146  1.00  0.00     0.123 A 
ATOM      9  C   UNL     1      -2.027  35.637  17.781  1.00  0.00     0.094 A 
ATOM     10  C   UNL     1      -2.146  36.980  18.147  1.00  0.00     0.146 A 
ATOM     11  O   UNL     1      -3.250  37.371  18.770  1.00  0.00    -0.452 OA
ENDROOT
BRANCH   1  12
ATOM     12  C   UNL     1      -4.733  38.920  19.870  1.00  0.00     0.021 A 
ATOM     13  C   UNL     1      -5.946  38.642  19.218  1.00  0.00     0.016 A 
ATOM     14  C   UNL     1      -7.166  38.902  19.851  1.00  0.00     0.047 A 
ATOM     15  C   UNL     1      -7.187  39.427  21.150  1.00  0.00     0.115 A 
ATOM     16  C   UNL     1      -4.763  39.428  21.182  1.00  0.00     0.016 A 
ATOM     17  C   UNL     1      -5.984  39.685  21.812  1.00  0.00     0.047 A 
BRANCH  15  18
ATOM     18  O   UNL     1      -8.396  39.690  21.791  1.00  0.00    -0.508 OA
ATOM     19  H   UNL     1      -8.796  40.621  21.804  1.00  0.00     0.293 HD
ENDBRANCH  15  18
ENDBRANCH   1  12
BRANCH   2  20
ATOM     20  O   UNL     1      -2.691  40.915  19.370  1.00  0.00    -0.502 OA
ATOM     21  H   UNL     1      -3.211  41.151  20.206  1.00  0.00     0.293 HD
ENDBRANCH   2  20
BRANCH   6  22
ATOM     22  O   UNL     1       1.095  38.251  16.734  1.00  0.00    -0.507 OA
ATOM     23  H   UNL     1       0.981  39.125  16.245  1.00  0.00     0.293 HD
ENDBRANCH   6  22
BRANCH   8  24
ATOM     24  O   UNL     1      -0.770  33.829  16.810  1.00  0.00    -0.508 OA
ATOM     25  H   UNL     1      -0.662  33.529  15.849  1.00  0.00     0.293 HD
ENDBRANCH   8  24
TORSDOF 5
ENDMDL
MODEL 2
REMARK VINA RESULT:    -6.268      1.739      6.958
REMARK INTER + INTRA:          -7.465
REMARK INTER:                  -7.295
REMARK INTRA:                  -0.169
REMARK UNBOUND:                -0.097
REMARK SMILES O=c1c(O)c(-c2ccc(O)cc2)oc2cc(O)cc(O)c12
REMARK SMILES IDX 5 1 3 2 2 3 1 4 21 5 19 6 18 7 16 8 15 9 14 10 13 11 6 12
REMARK SMILES IDX 7 13 8 14 9 15 12 16 11 17 10 18 4 20 20 22 17 24
REMARK H PARENT 10 19 4 21 20 23 17 25
REMARK Flexibility Score: inf
ROOT
ATOM      1  C   UNL     1      -3.373  37.549  18.903  1.00  0.00     0.180 A 
ATOM      2  C   UNL     1      -4.614  37.679  18.254  1.00  0.00     0.208 A 
ATOM      3  C   UNL     1      -5.722  38.134  18.988  1.00  0.00     0.238 A 
ATOM      4  O   UNL     1      -6.845  38.177  18.420  1.00  0.00    -0.285 OA
ATOM      5  C   UNL     1      -5.565  38.508  20.344  1.00  0.00     0.111 A 
ATOM      6  C   UNL     1      -6.608  39.024  21.171  1.00  0.00     0.134 A 
ATOM      7  C   UNL     1      -6.360  39.259  22.529  1.00  0.00     0.093 A 
ATOM      8  C   UNL     1      -5.090  39.058  23.076  1.00  0.00     0.123 A 
ATOM      9  C   UNL     1      -4.053  38.606  22.266  1.00  0.00     0.094 A 
ATOM     10  C   UNL     1      -4.278  38.325  20.916  1.00  0.00     0.146 A 
ATOM     11  O   UNL     1      -3.265  37.876  20.185  1.00  0.00    -0.452 OA
ENDROOT
BRANCH   1  12
ATOM     12  C   UNL     1      -2.165  37.063  18.202  1.00  0.00     0.021 A 
ATOM     13  C   UNL     1      -1.058  37.917  18.061  1.00  0.00     0.016 A 
ATOM     14  C   UNL     1       0.104  37.470  17.422  1.00  0.00     0.047 A 
ATOM     15  C   UNL     1       0.178  36.161  16.931  1.00  0.00     0.115 A 
ATOM     16  C   UNL     1      -2.074  35.742  17.724  1.00  0.00     0.016 A 
ATOM     17  C   UNL     1      -0.911  35.299  17.087  1.00  0.00     0.047 A 
BRANCH  15  18
ATOM     18  O   UNL     1       1.330  35.705  16.292  1.00  0.00    -0.508 OA
ATOM     19  H   UNL     1       1.645  34.748  16.389  1.00  0.00     0.293 HD
ENDBRANCH  15  18
ENDBRANCH   1  12
BRANCH   2  20
ATOM     20  O   UNL     1      -4.732  37.378  16.894  1.00  0.00    -0.502 OA
ATOM     21  H   UNL     1      -4.011  37.609  16.222  1.00  0.00     0.293 HD
ENDBRANCH   2  20
BRANCH   6  22
ATOM     22  O   UNL     1      -7.887  39.347  20.708  1.00  0.00    -0.507 OA
ATOM     23  H   UNL     1      -8.098  40.099  20.070  1.00  0.00     0.293 HD
ENDBRANCH   6  22
BRANCH   8  24
ATOM     24  O   UNL     1      -4.850  39.311  24.424  1.00  0.00    -0.508 OA
ATOM     25  H   UNL     1      -5.235  38.722  25.153  1.00  0.00     0.293 HD
ENDBRANCH   8  24
TORSDOF 5
ENDMDL
MODEL 3
REMARK VINA RESULT:    -6.201     18.733     20.182
REMARK INTER + INTRA:          -7.386
REMARK INTER:                  -7.543
REMARK INTRA:                   0.157
REMARK UNBOUND:                -0.097
REMARK SMILES O=c1c(O)c(-c2ccc(O)cc2)oc2cc(O)cc(O)c12
REMARK SMILES IDX 5 1 3 2 2 3 1 4 21 5 19 6 18 7 16 8 15 9 14 10 13 11 6 12
REMARK SMILES IDX 7 13 8 14 9 15 12 16 11 17 10 18 4 20 20 22 17 24
REMARK H PARENT 10 19 4 21 20 23 17 25
REMARK Flexibility Score: inf
ROOT
ATOM      1  C   UNL     1      -6.291  25.845  33.948  1.00  0.00     0.180 A 
ATOM      2  C   UNL     1      -6.917  24.898  34.779  1.00  0.00     0.208 A 
ATOM      3  C   UNL     1      -7.197  23.622  34.266  1.00  0.00     0.238 A 
ATOM      4  O   UNL     1      -7.824  22.805  34.991  1.00  0.00    -0.285 OA
ATOM      5  C   UNL     1      -6.798  23.287  32.949  1.00  0.00     0.111 A 
ATOM      6  C   UNL     1      -6.991  22.009  32.342  1.00  0.00     0.134 A 
ATOM      7  C   UNL     1      -6.652  21.826  30.996  1.00  0.00     0.093 A 
ATOM      8  C   UNL     1      -6.067  22.856  30.253  1.00  0.00     0.123 A 
ATOM      9  C   UNL     1      -5.825  24.088  30.852  1.00  0.00     0.094 A 
ATOM     10  C   UNL     1      -6.189  24.314  32.182  1.00  0.00     0.146 A 
ATOM     11  O   UNL     1      -5.959  25.512  32.706  1.00  0.00    -0.452 OA
ENDROOT
BRANCH   1  12
ATOM     12  C   UNL     1      -5.977  27.214  34.411  1.00  0.00     0.021 A 
ATOM     13  C   UNL     1      -6.247  28.307  33.571  1.00  0.00     0.016 A 
ATOM     14  C   UNL     1      -5.979  29.612  33.997  1.00  0.00     0.047 A 
ATOM     15  C   UNL     1      -5.454  29.841  35.275  1.00  0.00     0.115 A 
ATOM     16  C   UNL     1      -5.467  27.454  35.702  1.00  0.00     0.016 A 
ATOM     17  C   UNL     1      -5.202  28.760  36.125  1.00  0.00     0.047 A 
BRANCH  15  18
ATOM     18  O   UNL     1      -5.182  31.136  35.710  1.00  0.00    -0.508 OA
ATOM     19  H   UNL     1      -5.927  31.785  35.937  1.00  0.00     0.293 HD
ENDBRANCH  15  18
ENDBRANCH   1  12
BRANCH   2  20
ATOM     20  O   UNL     1      -7.233  25.223  36.101  1.00  0.00    -0.502 OA
ATOM     21  H   UNL     1      -7.516  26.154  36.379  1.00  0.00     0.293 HD
ENDBRANCH   2  20
BRANCH   6  22
ATOM     22  O   UNL     1      -7.483  20.888  33.017  1.00  0.00    -0.507 OA
ATOM     23  H   UNL     1      -7.336  19.931  32.733  1.00  0.00     0.293 HD
ENDBRANCH   6  22
BRANCH   8  24
ATOM     24  O   UNL     1      -5.717  22.658  28.919  1.00  0.00    -0.508 OA
ATOM     25  H   UNL     1      -5.403  21.757  28.581  1.00  0.00     0.293 HD
ENDBRANCH   8  24
TORSDOF 5
ENDMDL
MODEL 4
REMARK VINA RESULT:    -5.907      1.654      6.547
REMARK INTER + INTRA:          -7.040
REMARK INTER:                  -7.150
REMARK INTRA:                   0.110
REMARK UNBOUND:                -0.097
REMARK SMILES O=c1c(O)c(-c2ccc(O)cc2)oc2cc(O)cc(O)c12
REMARK SMILES IDX 5 1 3 2 2 3 1 4 21 5 19 6 18 7 16 8 15 9 14 10 13 11 6 12
REMARK SMILES IDX 7 13 8 14 9 15 12 16 11 17 10 18 4 20 20 22 17 24
REMARK H PARENT 10 19 4 21 20 23 17 25
REMARK Flexibility Score: inf
ROOT
ATOM      1  C   UNL     1      -2.587  37.887  18.933  1.00  0.00     0.180 A 
ATOM      2  C   UNL     1      -2.766  39.279  18.848  1.00  0.00     0.208 A 
ATOM      3  C   UNL     1      -3.748  39.889  19.645  1.00  0.00     0.238 A 
ATOM      4  O   UNL     1      -3.952  41.124  19.508  1.00  0.00    -0.285 OA
ATOM      5  C   UNL     1      -4.499  39.111  20.558  1.00  0.00     0.111 A 
ATOM      6  C   UNL     1      -5.489  39.631  21.446  1.00  0.00     0.134 A 
ATOM      7  C   UNL     1      -6.245  38.750  22.230  1.00  0.00     0.093 A 
ATOM      8  C   UNL     1      -6.004  37.374  22.204  1.00  0.00     0.123 A 
ATOM      9  C   UNL     1      -5.004  36.863  21.382  1.00  0.00     0.094 A 
ATOM     10  C   UNL     1      -4.259  37.712  20.560  1.00  0.00     0.146 A 
ATOM     11  O   UNL     1      -3.330  37.179  19.775  1.00  0.00    -0.452 OA
ENDROOT
BRANCH   1  12
ATOM     12  C   UNL     1      -1.583  37.170  18.116  1.00  0.00     0.021 A 
ATOM     13  C   UNL     1      -0.271  37.665  18.043  1.00  0.00     0.016 A 
ATOM     14  C   UNL     1       0.700  36.992  17.295  1.00  0.00     0.047 A 
ATOM     15  C   UNL     1       0.375  35.806  16.624  1.00  0.00     0.115 A 
ATOM     16  C   UNL     1      -1.897  35.967  17.455  1.00  0.00     0.016 A 
ATOM     17  C   UNL     1      -0.924  35.295  16.710  1.00  0.00     0.047 A 
BRANCH  15  18
ATOM     18  O   UNL     1       1.333  35.126  15.875  1.00  0.00    -0.508 OA
ATOM     19  H   UNL     1       2.147  34.709  16.311  1.00  0.00     0.293 HD
ENDBRANCH  15  18
ENDBRANCH   1  12
BRANCH   2  20
ATOM     20  O   UNL     1      -1.960  40.041  17.996  1.00  0.00    -0.502 OA
ATOM     21  H   UNL     1      -1.580  40.939  18.267  1.00  0.00     0.293 HD
ENDBRANCH   2  20
BRANCH   6  22
ATOM     22  O   UNL     1      -5.749  40.994  21.617  1.00  0.00    -0.507 OA
ATOM     23  H   UNL     1      -5.400  41.729  21.021  1.00  0.00     0.293 HD
ENDBRANCH   6  22
BRANCH   8  24
ATOM     24  O   UNL     1      -6.749  36.508  23.000  1.00  0.00    -0.508 OA
ATOM     25  H   UNL     1      -7.466  36.849  23.629  1.00  0.00     0.293 HD
ENDBRANCH   8  24
TORSDOF 5
ENDMDL
MODEL 5
REMARK VINA RESULT:    -5.883      2.163      6.946
REMARK INTER + INTRA:          -7.012
REMARK INTER:                  -6.714
REMARK INTRA:                  -0.298
REMARK UNBOUND:                -0.097
REMARK SMILES O=c1c(O)c(-c2ccc(O)cc2)oc2cc(O)cc(O)c12
REMARK SMILES IDX 5 1 3 2 2 3 1 4 21 5 19 6 18 7 16 8 15 9 14 10 13 11 6 12
REMARK SMILES IDX 7 13 8 14 9 15 12 16 11 17 10 18 4 20 20 22 17 24
REMARK H PARENT 10 19 4 21 20 23 17 25
REMARK Flexibility Score: inf
ROOT
ATOM      1  C   UNL     1      -2.598  39.196  20.522  1.00  0.00     0.180 A 
ATOM      2  C   UNL     1      -2.105  39.297  21.835  1.00  0.00     0.208 A 
ATOM      3  C   UNL     1      -3.015  39.440  22.895  1.00  0.00     0.238 A 
ATOM      4  O   UNL     1      -2.563  39.604  24.058  1.00  0.00    -0.285 OA
ATOM      5  C   UNL     1      -4.407  39.424  22.637  1.00  0.00     0.111 A 
ATOM      6  C   UNL     1      -5.420  39.517  23.638  1.00  0.00     0.134 A 
ATOM      7  C   UNL     1      -6.765  39.598  23.255  1.00  0.00     0.093 A 
ATOM      8  C   UNL     1      -7.137  39.526  21.910  1.00  0.00     0.123 A 
ATOM      9  C   UNL     1      -6.160  39.380  20.930  1.00  0.00     0.094 A 
ATOM     10  C   UNL     1      -4.807  39.336  21.277  1.00  0.00     0.146 A 
ATOM     11  O   UNL     1      -3.908  39.218  20.308  1.00  0.00    -0.452 OA
ENDROOT
BRANCH   1  12
ATOM     12  C   UNL     1      -1.702  39.058  19.352  1.00  0.00     0.021 A 
ATOM     13  C   UNL     1      -1.425  37.779  18.841  1.00  0.00     0.016 A 
ATOM     14  C   UNL     1      -0.600  37.626  17.723  1.00  0.00     0.047 A 
ATOM     15  C   UNL     1      -0.054  38.751  17.092  1.00  0.00     0.115 A 
ATOM     16  C   UNL     1      -1.166  40.185  18.700  1.00  0.00     0.016 A 
ATOM     17  C   UNL     1      -0.343  40.028  17.582  1.00  0.00     0.047 A 
BRANCH  15  18
ATOM     18  O   UNL     1       0.770  38.611  15.977  1.00  0.00    -0.508 OA
ATOM     19  H   UNL     1       1.383  39.359  15.675  1.00  0.00     0.293 HD
ENDBRANCH  15  18
ENDBRANCH   1  12
BRANCH   2  20
ATOM     20  O   UNL     1      -0.729  39.233  22.077  1.00  0.00    -0.502 OA
ATOM     21  H   UNL     1      -0.042  39.395  21.352  1.00  0.00     0.293 HD
ENDBRANCH   2  20
BRANCH   6  22
ATOM     22  O   UNL     1      -5.165  39.505  25.013  1.00  0.00    -0.507 OA
ATOM     23  H   UNL     1      -5.796  39.149  25.715  1.00  0.00     0.293 HD
ENDBRANCH   6  22
BRANCH   8  24
ATOM     24  O   UNL     1      -8.478  39.590  21.540  1.00  0.00    -0.508 OA
ATOM     25  H   UNL     1      -9.149  40.134  22.069  1.00  0.00     0.293 HD
ENDBRANCH   8  24
TORSDOF 5
ENDMDL
MODEL 6
REMARK VINA RESULT:    -5.828     12.708     15.079
REMARK INTER + INTRA:          -6.947
REMARK INTER:                  -6.802
REMARK INTRA:                  -0.145
REMARK UNBOUND:                -0.097
REMARK SMILES O=c1c(O)c(-c2ccc(O)cc2)oc2cc(O)cc(O)c12
REMARK SMILES IDX 5 1 3 2 2 3 1 4 21 5 19 6 18 7 16 8 15 9 14 10 13 11 6 12
REMARK SMILES IDX 7 13 8 14 9 15 12 16 11 17 10 18 4 20 20 22 17 24
REMARK H PARENT 10 19 4 21 20 23 17 25
REMARK Flexibility Score: inf
ROOT
ATOM      1  C   UNL     1      -4.150  36.912  33.876  1.00  0.00     0.180 A 
ATOM      2  C   UNL     1      -3.465  37.787  34.738  1.00  0.00     0.208 A 
ATOM      3  C   UNL     1      -2.703  38.829  34.184  1.00  0.00     0.238 A 
ATOM      4  O   UNL     1      -2.033  39.562  34.958  1.00  0.00    -0.285 OA
ATOM      5  C   UNL     1      -2.679  39.017  32.781  1.00  0.00     0.111 A 
ATOM      6  C   UNL     1      -1.977  40.066  32.114  1.00  0.00     0.134 A 
ATOM      7  C   UNL     1      -1.938  40.090  30.714  1.00  0.00     0.093 A 
ATOM      8  C   UNL     1      -2.630  39.140  29.957  1.00  0.00     0.123 A 
ATOM      9  C   UNL     1      -3.362  38.146  30.599  1.00  0.00     0.094 A 
ATOM     10  C   UNL     1      -3.388  38.072  31.994  1.00  0.00     0.146 A 
ATOM     11  O   UNL     1      -4.082  37.094  32.563  1.00  0.00    -0.452 OA
ENDROOT
BRANCH   1  12
ATOM     12  C   UNL     1      -4.961  35.783  34.383  1.00  0.00     0.021 A 
ATOM     13  C   UNL     1      -6.146  36.047  35.091  1.00  0.00     0.016 A 
ATOM     14  C   UNL     1      -6.940  34.996  35.559  1.00  0.00     0.047 A 
ATOM     15  C   UNL     1      -6.569  33.668  35.312  1.00  0.00     0.115 A 
ATOM     16  C   UNL     1      -4.605  34.446  34.121  1.00  0.00     0.016 A 
ATOM     17  C   UNL     1      -5.403  33.398  34.590  1.00  0.00     0.047 A 
BRANCH  15  18
ATOM     18  O   UNL     1      -7.352  32.612  35.774  1.00  0.00    -0.508 OA
ATOM     19  H   UNL     1      -7.227  32.228  36.703  1.00  0.00     0.293 HD
ENDBRANCH  15  18
ENDBRANCH   1  12
BRANCH   2  20
ATOM     20  O   UNL     1      -3.563  37.631  36.123  1.00  0.00    -0.502 OA
ATOM     21  H   UNL     1      -4.443  37.706  36.618  1.00  0.00     0.293 HD
ENDBRANCH   2  20
BRANCH   6  22
ATOM     22  O   UNL     1      -1.329  41.116  32.771  1.00  0.00    -0.507 OA
ATOM     23  H   UNL     1      -0.451  41.037  33.262  1.00  0.00     0.293 HD
ENDBRANCH   6  22
BRANCH   8  24
ATOM     24  O   UNL     1      -2.600  39.183  28.566  1.00  0.00    -0.508 OA
ATOM     25  H   UNL     1      -3.386  38.873  28.008  1.00  0.00     0.293 HD
ENDBRANCH   8  24
TORSDOF 5
ENDMDL
MODEL 7
REMARK VINA RESULT:    -5.631     18.528     19.885
REMARK INTER + INTRA:          -6.716
REMARK INTER:                  -6.753
REMARK INTRA:                   0.038
REMARK UNBOUND:                -0.097
REMARK SMILES O=c1c(O)c(-c2ccc(O)cc2)oc2cc(O)cc(O)c12
REMARK SMILES IDX 5 1 3 2 2 3 1 4 21 5 19 6 18 7 16 8 15 9 14 10 13 11 6 12
REMARK SMILES IDX 7 13 8 14 9 15 12 16 11 17 10 18 4 20 20 22 17 24
REMARK H PARENT 10 19 4 21 20 23 17 25
REMARK Flexibility Score: inf
ROOT
ATOM      1  C   UNL     1      -5.936  26.230  33.400  1.00  0.00     0.180 A 
ATOM      2  C   UNL     1      -5.512  26.025  32.075  1.00  0.00     0.208 A 
ATOM      3  C   UNL     1      -5.746  24.779  31.471  1.00  0.00     0.238 A 
ATOM      4  O   UNL     1      -5.298  24.579  30.311  1.00  0.00    -0.285 OA
ATOM      5  C   UNL     1      -6.450  23.773  32.176  1.00  0.00     0.111 A 
ATOM      6  C   UNL     1      -6.782  22.490  31.646  1.00  0.00     0.134 A 
ATOM      7  C   UNL     1      -7.388  21.536  32.473  1.00  0.00     0.093 A 
ATOM      8  C   UNL     1      -7.731  21.841  33.793  1.00  0.00     0.123 A 
ATOM      9  C   UNL     1      -7.461  23.108  34.302  1.00  0.00     0.094 A 
ATOM     10  C   UNL     1      -6.823  24.068  33.514  1.00  0.00     0.146 A 
ATOM     11  O   UNL     1      -6.565  25.256  34.048  1.00  0.00    -0.452 OA
ENDROOT
BRANCH   1  12
ATOM     12  C   UNL     1      -5.713  27.509  34.109  1.00  0.00     0.021 A 
ATOM     13  C   UNL     1      -6.138  28.711  33.517  1.00  0.00     0.016 A 
ATOM     14  C   UNL     1      -5.958  29.929  34.180  1.00  0.00     0.047 A 
ATOM     15  C   UNL     1      -5.367  29.960  35.449  1.00  0.00     0.115 A 
ATOM     16  C   UNL     1      -5.138  27.547  35.394  1.00  0.00     0.016 A 
ATOM     17  C   UNL     1      -4.962  28.766  36.054  1.00  0.00     0.047 A 
BRANCH  15  18
ATOM     18  O   UNL     1      -5.182  31.168  36.118  1.00  0.00    -0.508 OA
ATOM     19  H   UNL     1      -5.816  31.471  36.848  1.00  0.00     0.293 HD
ENDBRANCH  15  18
ENDBRANCH   1  12
BRANCH   2  20
ATOM     20  O   UNL     1      -4.887  27.057  31.369  1.00  0.00    -0.502 OA
ATOM     21  H   UNL     1      -4.085  26.899  30.772  1.00  0.00     0.293 HD
ENDBRANCH   2  20
BRANCH   6  22
ATOM     22  O   UNL     1      -6.566  22.112  30.317  1.00  0.00    -0.507 OA
ATOM     23  H   UNL     1      -6.946  21.286  29.882  1.00  0.00     0.293 HD
ENDBRANCH   6  22
BRANCH   8  24
ATOM     24  O   UNL     1      -8.349  20.892  34.603  1.00  0.00    -0.508 OA
ATOM     25  H   UNL     1      -7.814  20.198  35.112  1.00  0.00     0.293 HD
ENDBRANCH   8  24
TORSDOF 5
ENDMDL
MODEL 8
REMARK VINA RESULT:    -5.531      1.367      2.982
REMARK INTER + INTRA:          -6.598
REMARK INTER:                  -6.593
REMARK INTRA:                  -0.005
REMARK UNBOUND:                -0.097
REMARK SMILES O=c1c(O)c(-c2ccc(O)cc2)oc2cc(O)cc(O)c12
REMARK SMILES IDX 5 1 3 2 2 3 1 4 21 5 19 6 18 7 16 8 15 9 14 10 13 11 6 12
REMARK SMILES IDX 7 13 8 14 9 15 12 16 11 17 10 18 4 20 20 22 17 24
REMARK H PARENT 10 19 4 21 20 23 17 25
REMARK Flexibility Score: inf
ROOT
ATOM      1  C   UNL     1      -3.520  38.669  18.939  1.00  0.00     0.180 A 
ATOM      2  C   UNL     1      -3.166  37.310  18.868  1.00  0.00     0.208 A 
ATOM      3  C   UNL     1      -1.993  36.947  18.187  1.00  0.00     0.238 A 
ATOM      4  O   UNL     1      -1.722  35.724  18.064  1.00  0.00    -0.285 OA
ATOM      5  C   UNL     1      -1.158  37.949  17.636  1.00  0.00     0.111 A 
ATOM      6  C   UNL     1       0.076  37.698  16.964  1.00  0.00     0.134 A 
ATOM      7  C   UNL     1       0.765  38.760  16.365  1.00  0.00     0.093 A 
ATOM      8  C   UNL     1       0.296  40.073  16.468  1.00  0.00     0.123 A 
ATOM      9  C   UNL     1      -0.878  40.334  17.168  1.00  0.00     0.094 A 
ATOM     10  C   UNL     1      -1.608  39.291  17.743  1.00  0.00     0.146 A 
ATOM     11  O   UNL     1      -2.734  39.583  18.383  1.00  0.00    -0.452 OA
ENDROOT
BRANCH   1  12
ATOM     12  C   UNL     1      -4.748  39.129  19.625  1.00  0.00     0.021 A 
ATOM     13  C   UNL     1      -5.990  38.584  19.257  1.00  0.00     0.016 A 
ATOM     14  C   UNL     1      -7.160  38.987  19.908  1.00  0.00     0.047 A 
ATOM     15  C   UNL     1      -7.102  39.926  20.946  1.00  0.00     0.115 A 
ATOM     16  C   UNL     1      -4.695  40.057  20.683  1.00  0.00     0.016 A 
ATOM     17  C   UNL     1      -5.867  40.455  21.332  1.00  0.00     0.047 A 
BRANCH  15  18
ATOM     18  O   UNL     1      -8.262  40.334  21.601  1.00  0.00    -0.508 OA
ATOM     19  H   UNL     1      -8.788  41.143  21.291  1.00  0.00     0.293 HD
ENDBRANCH  15  18
ENDBRANCH   1  12
BRANCH   2  20
ATOM     20  O   UNL     1      -3.964  36.342  19.486  1.00  0.00    -0.502 OA
ATOM     21  H   UNL     1      -4.962  36.458  19.609  1.00  0.00     0.293 HD
ENDBRANCH   2  20
BRANCH   6  22
ATOM     22  O   UNL     1       0.681  36.440  16.879  1.00  0.00    -0.507 OA
ATOM     23  H   UNL     1       0.904  35.962  16.020  1.00  0.00     0.293 HD
ENDBRANCH   6  22
BRANCH   8  24
ATOM     24  O   UNL     1       0.997  41.125  15.884  1.00  0.00    -0.508 OA
ATOM     25  H   UNL     1       2.009  41.169  15.910  1.00  0.00     0.293 HD
ENDBRANCH   8  24
TORSDOF 5
ENDMDL
MODEL 9
REMARK VINA RESULT:    -5.488      2.670      4.723
REMARK INTER + INTRA:          -6.547
REMARK INTER:                  -6.277
REMARK INTRA:                  -0.270
REMARK UNBOUND:                -0.097
REMARK SMILES O=c1c(O)c(-c2ccc(O)cc2)oc2cc(O)cc(O)c12
REMARK SMILES IDX 5 1 3 2 2 3 1 4 21 5 19 6 18 7 16 8 15 9 14 10 13 11 6 12
REMARK SMILES IDX 7 13 8 14 9 15 12 16 11 17 10 18 4 20 20 22 17 24
REMARK H PARENT 10 19 4 21 20 23 17 25
REMARK Flexibility Score: inf
ROOT
ATOM      1  C   UNL     1      -4.767  39.236  21.367  1.00  0.00     0.180 A 
ATOM      2  C   UNL     1      -5.720  38.343  20.847  1.00  0.00     0.208 A 
ATOM      3  C   UNL     1      -5.636  37.968  19.496  1.00  0.00     0.238 A 
ATOM      4  O   UNL     1      -6.535  37.227  19.019  1.00  0.00    -0.285 OA
ATOM      5  C   UNL     1      -4.569  38.445  18.697  1.00  0.00     0.111 A 
ATOM      6  C   UNL     1      -4.360  38.096  17.329  1.00  0.00     0.134 A 
ATOM      7  C   UNL     1      -3.331  38.713  16.607  1.00  0.00     0.093 A 
ATOM      8  C   UNL     1      -2.463  39.620  17.223  1.00  0.00     0.123 A 
ATOM      9  C   UNL     1      -2.625  39.926  18.570  1.00  0.00     0.094 A 
ATOM     10  C   UNL     1      -3.667  39.356  19.307  1.00  0.00     0.146 A 
ATOM     11  O   UNL     1      -3.797  39.693  20.584  1.00  0.00    -0.452 OA
ENDROOT
BRANCH   1  12
ATOM     12  C   UNL     1      -4.798  39.689  22.776  1.00  0.00     0.021 A 
ATOM     13  C   UNL     1      -3.886  39.145  23.696  1.00  0.00     0.016 A 
ATOM     14  C   UNL     1      -3.882  39.574  25.027  1.00  0.00     0.047 A 
ATOM     15  C   UNL     1      -4.778  40.564  25.450  1.00  0.00     0.115 A 
ATOM     16  C   UNL     1      -5.682  40.697  23.204  1.00  0.00     0.016 A 
ATOM     17  C   UNL     1      -5.674  41.125  24.535  1.00  0.00     0.047 A 
BRANCH  15  18
ATOM     18  O   UNL     1      -4.784  40.999  26.774  1.00  0.00    -0.508 OA
ATOM     19  H   UNL     1      -5.582  41.482  27.169  1.00  0.00     0.293 HD
ENDBRANCH  15  18
ENDBRANCH   1  12
BRANCH   2  20
ATOM     20  O   UNL     1      -6.721  37.822  21.672  1.00  0.00    -0.502 OA
ATOM     21  H   UNL     1      -6.844  38.121  22.632  1.00  0.00     0.293 HD
ENDBRANCH   2  20
BRANCH   6  22
ATOM     22  O   UNL     1      -5.110  37.136  16.642  1.00  0.00    -0.507 OA
ATOM     23  H   UNL     1      -6.087  36.943  16.802  1.00  0.00     0.293 HD
ENDBRANCH   6  22
BRANCH   8  24
ATOM     24  O   UNL     1      -1.431  40.216  16.501  1.00  0.00    -0.508 OA
ATOM     25  H   UNL     1      -0.724  39.664  16.031  1.00  0.00     0.293 HD
ENDBRANCH   8  24
TORSDOF 5
ENDMDL
