MODEL 1
REMARK VINA RESULT:    -3.656      0.000      0.000
REMARK INTER + INTRA:          -5.631
REMARK INTER:                  -5.153
REMARK INTRA:                  -0.478
REMARK UNBOUND:                -0.478
REMARK SMILES C=CCCCCCCC(=O)[O-]
REMARK SMILES IDX 6 1 7 2 8 3 9 4 10 5 11 6 5 7 4 8 3 9 2 10 1 11
REMARK H PARENT
REMARK Flexibility Score: inf
ROOT
ATOM      1  C   UNL     1      28.640  12.324 -16.148  1.00  0.00     0.000 C 
ENDROOT
BRANCH   1   2
ATOM      2  C   UNL     1      28.970  12.844 -14.736  1.00  0.00     0.006 C 
BRANCH   2   3
ATOM      3  C   UNL     1      29.997  13.984 -14.743  1.00  0.00     0.053 C 
BRANCH   3   4
ATOM      4  C   UNL     1      29.361  15.262 -14.293  1.00  0.00     0.041 C 
ATOM      5  O   UNL     1      29.611  16.340 -14.893  1.00  0.00    -0.550 OA
ATOM      6  O   UNL     1      28.453  15.253 -13.242  1.00  0.00    -0.550 OA
ENDBRANCH   3   4
ENDBRANCH   2   3
ENDBRANCH   1   2
BRANCH   1   7
ATOM      7  C   UNL     1      28.638  13.397 -17.251  1.00  0.00     0.000 C 
BRANCH   7   8
ATOM      8  C   UNL     1      29.682  13.130 -18.349  1.00  0.00     0.004 C 
BRANCH   8   9
ATOM      9  C   UNL     1      30.714  12.075 -17.922  1.00  0.00     0.027 C 
BRANCH   9  10
ATOM     10  C   UNL     1      30.759  10.901 -18.864  1.00  0.00    -0.035 C 
ATOM     11  C   UNL     1      30.711   9.642 -18.422  1.00  0.00     0.004 C 
ENDBRANCH   9  10
ENDBRANCH   8   9
ENDBRANCH   7   8
ENDBRANCH   1   7
TORSDOF 7
ENDMDL
MODEL 2
REMARK VINA RESULT:    -3.595      2.331      3.263
REMARK INTER + INTRA:          -5.544
REMARK INTER:                  -4.921
REMARK INTRA:                  -0.624
REMARK UNBOUND:                -0.478
REMARK SMILES C=CCCCCCCC(=O)[O-]
REMARK SMILES IDX 6 1 7 2 8 3 9 4 10 5 11 6 5 7 4 8 3 9 2 10 1 11
REMARK H PARENT
REMARK Flexibility Score: inf
ROOT
ATOM      1  C   UNL     1      28.536  12.872 -14.442  1.00  0.00     0.000 C 
ENDROOT
BRANCH   1   2
ATOM      2  C   UNL     1      28.980  13.823 -13.314  1.00  0.00     0.006 C 
BRANCH   2   3
ATOM      3  C   UNL     1      28.658  15.294 -13.610  1.00  0.00     0.053 C 
BRANCH   3   4
ATOM      4  C   UNL     1      27.746  15.850 -12.562  1.00  0.00     0.041 C 
ATOM      5  O   UNL     1      27.368  17.049 -12.622  1.00  0.00    -0.550 OA
ATOM      6  O   UNL     1      27.272  15.028 -11.547  1.00  0.00    -0.550 OA
ENDBRANCH   3   4
ENDBRANCH   2   3
ENDBRANCH   1   2
BRANCH   1   7
ATOM      7  C   UNL     1      29.436  12.882 -15.690  1.00  0.00     0.000 C 
BRANCH   7   8
ATOM      8  C   UNL     1      28.659  13.162 -16.988  1.00  0.00     0.004 C 
BRANCH   8   9
ATOM      9  C   UNL     1      29.289  14.300 -17.804  1.00  0.00     0.027 C 
BRANCH   9  10
ATOM     10  C   UNL     1      30.193  15.171 -16.972  1.00  0.00    -0.035 C 
ATOM     11  C   UNL     1      30.000  16.488 -16.868  1.00  0.00     0.004 C 
ENDBRANCH   9  10
ENDBRANCH   8   9
ENDBRANCH   7   8
ENDBRANCH   1   7
TORSDOF 7
ENDMDL
MODEL 3
REMARK VINA RESULT:    -3.493      2.642      4.020
REMARK INTER + INTRA:          -5.400
REMARK INTER:                  -5.014
REMARK INTRA:                  -0.386
REMARK UNBOUND:                -0.478
REMARK SMILES C=CCCCCCCC(=O)[O-]
REMARK SMILES IDX 6 1 7 2 8 3 9 4 10 5 11 6 5 7 4 8 3 9 2 10 1 11
REMARK H PARENT
REMARK Flexibility Score: inf
ROOT
ATOM      1  C   UNL     1      28.776  15.197 -13.689  1.00  0.00     0.000 C 
ENDROOT
BRANCH   1   2
ATOM      2  C   UNL     1      28.133  14.476 -12.490  1.00  0.00     0.006 C 
BRANCH   2   3
ATOM      3  C   UNL     1      26.661  14.855 -12.282  1.00  0.00     0.053 C 
BRANCH   3   4
ATOM      4  C   UNL     1      26.046  14.001 -11.219  1.00  0.00     0.041 C 
ATOM      5  O   UNL     1      26.617  12.941 -10.848  1.00  0.00    -0.550 OA
ATOM      6  O   UNL     1      24.868  14.401 -10.601  1.00  0.00    -0.550 OA
ENDBRANCH   3   4
ENDBRANCH   2   3
ENDBRANCH   1   2
BRANCH   1   7
ATOM      7  C   UNL     1      29.507  14.277 -14.683  1.00  0.00     0.000 C 
BRANCH   7   8
ATOM      8  C   UNL     1      28.896  12.867 -14.757  1.00  0.00     0.004 C 
BRANCH   8   9
ATOM      9  C   UNL     1      28.464  12.498 -16.184  1.00  0.00     0.027 C 
BRANCH   9  10
ATOM     10  C   UNL     1      28.858  13.547 -17.192  1.00  0.00    -0.035 C 
ATOM     11  C   UNL     1      29.606  13.252 -18.258  1.00  0.00     0.004 C 
ENDBRANCH   9  10
ENDBRANCH   8   9
ENDBRANCH   7   8
ENDBRANCH   1   7
TORSDOF 7
ENDMDL
MODEL 4
REMARK VINA RESULT:    -3.483      1.723      2.605
REMARK INTER + INTRA:          -5.387
REMARK INTER:                  -5.071
REMARK INTRA:                  -0.316
REMARK UNBOUND:                -0.478
REMARK SMILES C=CCCCCCCC(=O)[O-]
REMARK SMILES IDX 6 1 7 2 8 3 9 4 10 5 11 6 5 7 4 8 3 9 2 10 1 11
REMARK H PARENT
REMARK Flexibility Score: inf
ROOT
ATOM      1  C   UNL     1      29.582  14.057 -15.046  1.00  0.00     0.000 C 
ENDROOT
BRANCH   1   2
ATOM      2  C   UNL     1      28.962  14.539 -13.721  1.00  0.00     0.006 C 
BRANCH   2   3
ATOM      3  C   UNL     1      27.930  13.558 -13.150  1.00  0.00     0.053 C 
BRANCH   3   4
ATOM      4  C   UNL     1      27.374  14.077 -11.861  1.00  0.00     0.041 C 
ATOM      5  O   UNL     1      26.811  13.293 -11.053  1.00  0.00    -0.550 OA
ATOM      6  O   UNL     1      27.523  15.418 -11.530  1.00  0.00    -0.550 OA
ENDBRANCH   3   4
ENDBRANCH   2   3
ENDBRANCH   1   2
BRANCH   1   7
ATOM      7  C   UNL     1      28.824  12.911 -15.737  1.00  0.00     0.000 C 
BRANCH   7   8
ATOM      8  C   UNL     1      28.593  13.163 -17.237  1.00  0.00     0.004 C 
BRANCH   8   9
ATOM      9  C   UNL     1      29.913  13.309 -18.009  1.00  0.00     0.027 C 
BRANCH   9  10
ATOM     10  C   UNL     1      30.772  12.075 -17.915  1.00  0.00    -0.035 C 
ATOM     11  C   UNL     1      30.695  11.094 -18.818  1.00  0.00     0.004 C 
ENDBRANCH   9  10
ENDBRANCH   8   9
ENDBRANCH   7   8
ENDBRANCH   1   7
TORSDOF 7
ENDMDL
MODEL 5
REMARK VINA RESULT:    -3.479      2.754      4.602
REMARK INTER + INTRA:          -5.381
REMARK INTER:                  -4.766
REMARK INTRA:                  -0.615
REMARK UNBOUND:                -0.478
REMARK SMILES C=CCCCCCCC(=O)[O-]
REMARK SMILES IDX 6 1 7 2 8 3 9 4 10 5 11 6 5 7 4 8 3 9 2 10 1 11
REMARK H PARENT
REMARK Flexibility Score: inf
ROOT
ATOM      1  C   UNL     1      28.604  12.935 -14.526  1.00  0.00     0.000 C 
ENDROOT
BRANCH   1   2
ATOM      2  C   UNL     1      29.068  12.386 -15.888  1.00  0.00     0.006 C 
BRANCH   2   3
ATOM      3  C   UNL     1      28.386  13.077 -17.076  1.00  0.00     0.053 C 
BRANCH   3   4
ATOM      4  C   UNL     1      29.409  13.597 -18.035  1.00  0.00     0.041 C 
ATOM      5  O   UNL     1      29.127  14.548 -18.812  1.00  0.00    -0.550 OA
ATOM      6  O   UNL     1      30.693  13.064 -18.038  1.00  0.00    -0.550 OA
ENDBRANCH   3   4
ENDBRANCH   2   3
ENDBRANCH   1   2
BRANCH   1   7
ATOM      7  C   UNL     1      29.563  13.947 -13.874  1.00  0.00     0.000 C 
BRANCH   7   8
ATOM      8  C   UNL     1      29.665  15.268 -14.658  1.00  0.00     0.004 C 
BRANCH   8   9
ATOM      9  C   UNL     1      31.066  15.482 -15.250  1.00  0.00     0.027 C 
BRANCH   9  10
ATOM     10  C   UNL     1      31.124  16.672 -16.171  1.00  0.00    -0.035 C 
ATOM     11  C   UNL     1      30.020  17.212 -16.693  1.00  0.00     0.004 C 
ENDBRANCH   9  10
ENDBRANCH   8   9
ENDBRANCH   7   8
ENDBRANCH   1   7
TORSDOF 7
ENDMDL
MODEL 6
REMARK VINA RESULT:    -3.467      3.228      5.927
REMARK INTER + INTRA:          -5.364
REMARK INTER:                  -5.020
REMARK INTRA:                  -0.344
REMARK UNBOUND:                -0.478
REMARK SMILES C=CCCCCCCC(=O)[O-]
REMARK SMILES IDX 6 1 7 2 8 3 9 4 10 5 11 6 5 7 4 8 3 9 2 10 1 11
REMARK H PARENT
REMARK Flexibility Score: inf
ROOT
ATOM      1  C   UNL     1      28.850  14.693 -13.606  1.00  0.00     0.000 C 
ENDROOT
BRANCH   1   2
ATOM      2  C   UNL     1      29.806  14.452 -14.788  1.00  0.00     0.006 C 
BRANCH   2   3
ATOM      3  C   UNL     1      29.196  13.566 -15.882  1.00  0.00     0.053 C 
BRANCH   3   4
ATOM      4  C   UNL     1      29.349  14.211 -17.222  1.00  0.00     0.041 C 
ATOM      5  O   UNL     1      29.663  15.428 -17.309  1.00  0.00    -0.550 OA
ATOM      6  O   UNL     1      29.195  13.456 -18.378  1.00  0.00    -0.550 OA
ENDBRANCH   3   4
ENDBRANCH   2   3
ENDBRANCH   1   2
BRANCH   1   7
ATOM      7  C   UNL     1      27.981  13.484 -13.216  1.00  0.00     0.000 C 
BRANCH   7   8
ATOM      8  C   UNL     1      28.327  12.919 -11.827  1.00  0.00     0.004 C 
BRANCH   8   9
ATOM      9  C   UNL     1      27.074  12.487 -11.051  1.00  0.00     0.027 C 
BRANCH   9  10
ATOM     10  C   UNL     1      25.901  13.398 -11.301  1.00  0.00    -0.035 C 
ATOM     11  C   UNL     1      25.469  14.259 -10.376  1.00  0.00     0.004 C 
ENDBRANCH   9  10
ENDBRANCH   8   9
ENDBRANCH   7   8
ENDBRANCH   1   7
TORSDOF 7
ENDMDL
MODEL 7
REMARK VINA RESULT:    -3.464     19.405     20.479
REMARK INTER + INTRA:          -5.360
REMARK INTER:                  -4.662
REMARK INTRA:                  -0.698
REMARK UNBOUND:                -0.478
REMARK SMILES C=CCCCCCCC(=O)[O-]
REMARK SMILES IDX 6 1 7 2 8 3 9 4 10 5 11 6 5 7 4 8 3 9 2 10 1 11
REMARK H PARENT
REMARK Flexibility Score: inf
ROOT
ATOM      1  C   UNL     1      15.699   0.102 -11.703  1.00  0.00     0.000 C 
ENDROOT
BRANCH   1   2
ATOM      2  C   UNL     1      14.181   0.006 -11.943  1.00  0.00     0.006 C 
BRANCH   2   3
ATOM      3  C   UNL     1      13.807  -1.027 -13.014  1.00  0.00     0.053 C 
BRANCH   3   4
ATOM      4  C   UNL     1      12.431  -0.762 -13.538  1.00  0.00     0.041 C 
ATOM      5  O   UNL     1      12.176  -0.923 -14.760  1.00  0.00    -0.550 OA
ATOM      6  O   UNL     1      11.417  -0.385 -12.666  1.00  0.00    -0.550 OA
ENDBRANCH   3   4
ENDBRANCH   2   3
ENDBRANCH   1   2
BRANCH   1   7
ATOM      7  C   UNL     1      16.516  -1.089 -12.234  1.00  0.00     0.000 C 
BRANCH   7   8
ATOM      8  C   UNL     1      17.557  -0.678 -13.291  1.00  0.00     0.004 C 
BRANCH   8   9
ATOM      9  C   UNL     1      17.153   0.606 -14.031  1.00  0.00     0.027 C 
BRANCH   9  10
ATOM     10  C   UNL     1      16.863   0.362 -15.488  1.00  0.00    -0.035 C 
ATOM     11  C   UNL     1      15.615   0.235 -15.946  1.00  0.00     0.004 C 
ENDBRANCH   9  10
ENDBRANCH   8   9
ENDBRANCH   7   8
ENDBRANCH   1   7
TORSDOF 7
ENDMDL
MODEL 8
REMARK VINA RESULT:    -3.430      3.435      5.359
REMARK INTER + INTRA:          -5.311
REMARK INTER:                  -4.776
REMARK INTRA:                  -0.536
REMARK UNBOUND:                -0.478
REMARK SMILES C=CCCCCCCC(=O)[O-]
REMARK SMILES IDX 6 1 7 2 8 3 9 4 10 5 11 6 5 7 4 8 3 9 2 10 1 11
REMARK H PARENT
REMARK Flexibility Score: inf
ROOT
ATOM      1  C   UNL     1      29.607  13.092 -18.410  1.00  0.00     0.000 C 
ENDROOT
BRANCH   1   2
ATOM      2  C   UNL     1      30.911  12.350 -18.063  1.00  0.00     0.006 C 
BRANCH   2   3
ATOM      3  C   UNL     1      31.000  10.961 -18.709  1.00  0.00     0.053 C 
BRANCH   3   4
ATOM      4  C   UNL     1      30.447   9.920 -17.787  1.00  0.00     0.041 C 
ATOM      5  O   UNL     1      30.135   8.783 -18.229  1.00  0.00    -0.550 OA
ATOM      6  O   UNL     1      30.323  10.190 -16.430  1.00  0.00    -0.550 OA
ENDBRANCH   3   4
ENDBRANCH   2   3
ENDBRANCH   1   2
BRANCH   1   7
ATOM      7  C   UNL     1      28.810  13.604 -17.198  1.00  0.00     0.000 C 
BRANCH   7   8
ATOM      8  C   UNL     1      29.678  13.779 -15.940  1.00  0.00     0.004 C 
BRANCH   8   9
ATOM      9  C   UNL     1      29.765  15.248 -15.498  1.00  0.00     0.027 C 
BRANCH   9  10
ATOM     10  C   UNL     1      30.419  16.121 -16.536  1.00  0.00    -0.035 C 
ATOM     11  C   UNL     1      29.978  17.355 -16.796  1.00  0.00     0.004 C 
ENDBRANCH   9  10
ENDBRANCH   8   9
ENDBRANCH   7   8
ENDBRANCH   1   7
TORSDOF 7
ENDMDL
MODEL 9
REMARK VINA RESULT:    -3.386      2.476      3.195
REMARK INTER + INTRA:          -5.251
REMARK INTER:                  -4.438
REMARK INTRA:                  -0.813
REMARK UNBOUND:                -0.478
REMARK SMILES C=CCCCCCCC(=O)[O-]
REMARK SMILES IDX 6 1 7 2 8 3 9 4 10 5 11 6 5 7 4 8 3 9 2 10 1 11
REMARK H PARENT
REMARK Flexibility Score: inf
ROOT
ATOM      1  C   UNL     1      29.707  14.970 -14.710  1.00  0.00     0.000 C 
ENDROOT
BRANCH   1   2
ATOM      2  C   UNL     1      29.288  13.650 -14.038  1.00  0.00     0.006 C 
BRANCH   2   3
ATOM      3  C   UNL     1      30.385  12.578 -14.085  1.00  0.00     0.053 C 
BRANCH   3   4
ATOM      4  C   UNL     1      29.878  11.340 -14.754  1.00  0.00     0.041 C 
ATOM      5  O   UNL     1      28.793  11.363 -15.392  1.00  0.00    -0.550 OA
ATOM      6  O   UNL     1      30.630  10.172 -14.715  1.00  0.00    -0.550 OA
ENDBRANCH   3   4
ENDBRANCH   2   3
ENDBRANCH   1   2
BRANCH   1   7
ATOM      7  C   UNL     1      30.500  14.808 -16.019  1.00  0.00     0.000 C 
BRANCH   7   8
ATOM      8  C   UNL     1      29.631  15.005 -17.274  1.00  0.00     0.004 C 
BRANCH   8   9
ATOM      9  C   UNL     1      29.422  13.692 -18.044  1.00  0.00     0.027 C 
BRANCH   9  10
ATOM     10  C   UNL     1      30.647  12.816 -18.027  1.00  0.00    -0.035 C 
ATOM     11  C   UNL     1      30.610  11.548 -18.445  1.00  0.00     0.004 C 
ENDBRANCH   9  10
ENDBRANCH   8   9
ENDBRANCH   7   8
ENDBRANCH   1   7
TORSDOF 7
ENDMDL
