MODEL 1
REMARK VINA RESULT:    -3.727      0.000      0.000
REMARK INTER + INTRA:          -3.836
REMARK INTER:                  -3.836
REMARK INTRA:                   0.000
REMARK UNBOUND:                 0.000
REMARK SMILES Oc1ccc2[nH]ccc2c1
REMARK SMILES IDX 3 1 4 2 5 3 9 4 8 5 7 6 6 7 10 8 2 9 1 11
REMARK H PARENT 6 10 1 12
REMARK Flexibility Score: inf
ROOT
ATOM      1  C   UNL     1     134.645 145.406 143.252  1.00  0.00     0.048 A 
ATOM      2  C   UNL     1     135.420 145.675 142.109  1.00  0.00     0.030 A 
ATOM      3  C   UNL     1     136.556 144.896 141.894  1.00  0.00     0.046 A 
ATOM      4  C   UNL     1     136.916 143.897 142.759  1.00  0.00     0.003 A 
ATOM      5  C   UNL     1     138.069 143.324 142.269  1.00  0.00     0.028 A 
ATOM      6  C   UNL     1     138.355 144.025 141.101  1.00  0.00     0.083 A 
ATOM      7  N   UNL     1     137.427 144.984 140.877  1.00  0.00    -0.361 N 
ATOM      8  C   UNL     1     136.171 143.605 143.899  1.00  0.00     0.056 A 
ATOM      9  C   UNL     1     135.016 144.373 144.147  1.00  0.00     0.116 A 
ATOM     10  H   UNL     1     137.399 145.653 140.076  1.00  0.00     0.166 HD
ENDROOT
BRANCH   9  11
ATOM     11  O   UNL     1     134.248 144.107 145.277  1.00  0.00    -0.508 OA
ATOM     12  H   UNL     1     133.236 144.125 145.245  1.00  0.00     0.293 HD
ENDBRANCH   9  11
TORSDOF 1
ENDMDL
MODEL 2
REMARK VINA RESULT:    -3.662      9.912     10.647
REMARK INTER + INTRA:          -3.769
REMARK INTER:                  -3.769
REMARK INTRA:                   0.000
REMARK UNBOUND:                 0.000
REMARK SMILES Oc1ccc2[nH]ccc2c1
REMARK SMILES IDX 3 1 4 2 5 3 9 4 8 5 7 6 6 7 10 8 2 9 1 11
REMARK H PARENT 6 10 1 12
REMARK Flexibility Score: inf
ROOT
ATOM      1  C   UNL     1     146.179 139.347 142.467  1.00  0.00     0.048 A 
ATOM      2  C   UNL     1     146.224 140.748 142.339  1.00  0.00     0.030 A 
ATOM      3  C   UNL     1     145.848 141.515 143.440  1.00  0.00     0.046 A 
ATOM      4  C   UNL     1     145.447 140.938 144.615  1.00  0.00     0.003 A 
ATOM      5  C   UNL     1     145.147 141.957 145.493  1.00  0.00     0.028 A 
ATOM      6  C   UNL     1     145.390 143.130 144.784  1.00  0.00     0.083 A 
ATOM      7  N   UNL     1     145.818 142.854 143.531  1.00  0.00    -0.361 N 
ATOM      8  C   UNL     1     145.391 139.556 144.776  1.00  0.00     0.056 A 
ATOM      9  C   UNL     1     145.764 138.749 143.683  1.00  0.00     0.116 A 
ATOM     10  H   UNL     1     146.071 143.545 142.789  1.00  0.00     0.166 HD
ENDROOT
BRANCH   9  11
ATOM     11  O   UNL     1     145.721 137.364 143.810  1.00  0.00    -0.508 OA
ATOM     12  H   UNL     1     145.241 136.918 144.583  1.00  0.00     0.293 HD
ENDBRANCH   9  11
TORSDOF 1
ENDMDL
MODEL 3
REMARK VINA RESULT:    -3.654      1.891      2.479
REMARK INTER + INTRA:          -3.761
REMARK INTER:                  -3.761
REMARK INTRA:                   0.000
REMARK UNBOUND:                 0.000
REMARK SMILES Oc1ccc2[nH]ccc2c1
REMARK SMILES IDX 3 1 4 2 5 3 9 4 8 5 7 6 6 7 10 8 2 9 1 11
REMARK H PARENT 6 10 1 12
REMARK Flexibility Score: inf
ROOT
ATOM      1  C   UNL     1     134.683 145.273 143.582  1.00  0.00     0.048 A 
ATOM      2  C   UNL     1     135.464 144.245 144.140  1.00  0.00     0.030 A 
ATOM      3  C   UNL     1     136.576 143.809 143.422  1.00  0.00     0.046 A 
ATOM      4  C   UNL     1     136.910 144.355 142.211  1.00  0.00     0.003 A 
ATOM      5  C   UNL     1     138.045 143.713 141.768  1.00  0.00     0.028 A 
ATOM      6  C   UNL     1     138.349 142.786 142.761  1.00  0.00     0.083 A 
ATOM      7  N   UNL     1     137.448 142.849 143.768  1.00  0.00    -0.361 N 
ATOM      8  C   UNL     1     136.158 145.374 141.630  1.00  0.00     0.056 A 
ATOM      9  C   UNL     1     135.026 145.839 142.329  1.00  0.00     0.116 A 
ATOM     10  H   UNL     1     137.437 142.268 144.636  1.00  0.00     0.166 HD
ENDROOT
BRANCH   9  11
ATOM     11  O   UNL     1     134.253 146.857 141.777  1.00  0.00    -0.508 OA
ATOM     12  H   UNL     1     133.241 146.823 141.798  1.00  0.00     0.293 HD
ENDBRANCH   9  11
TORSDOF 1
ENDMDL
MODEL 4
REMARK VINA RESULT:    -3.652      2.151      2.774
REMARK INTER + INTRA:          -3.759
REMARK INTER:                  -3.759
REMARK INTRA:                   0.000
REMARK UNBOUND:                 0.000
REMARK SMILES Oc1ccc2[nH]ccc2c1
REMARK SMILES IDX 3 1 4 2 5 3 9 4 8 5 7 6 6 7 10 8 2 9 1 11
REMARK H PARENT 6 10 1 12
REMARK Flexibility Score: inf
ROOT
ATOM      1  C   UNL     1     133.860 146.076 145.380  1.00  0.00     0.048 A 
ATOM      2  C   UNL     1     134.203 147.181 144.580  1.00  0.00     0.030 A 
ATOM      3  C   UNL     1     134.898 146.938 143.396  1.00  0.00     0.046 A 
ATOM      4  C   UNL     1     135.241 145.669 143.012  1.00  0.00     0.003 A 
ATOM      5  C   UNL     1     135.910 145.769 141.812  1.00  0.00     0.028 A 
ATOM      6  C   UNL     1     135.938 147.130 141.524  1.00  0.00     0.083 A 
ATOM      7  N   UNL     1     135.319 147.839 142.495  1.00  0.00    -0.361 N 
ATOM      8  C   UNL     1     134.916 144.553 143.780  1.00  0.00     0.056 A 
ATOM      9  C   UNL     1     134.214 144.762 144.984  1.00  0.00     0.116 A 
ATOM     10  H   UNL     1     135.195 148.876 142.533  1.00  0.00     0.166 HD
ENDROOT
BRANCH   9  11
ATOM     11  O   UNL     1     133.874 143.669 145.775  1.00  0.00    -0.508 OA
ATOM     12  H   UNL     1     132.937 143.553 146.144  1.00  0.00     0.293 HD
ENDBRANCH   9  11
TORSDOF 1
ENDMDL
MODEL 5
REMARK VINA RESULT:    -3.621      2.850      4.164
REMARK INTER + INTRA:          -3.727
REMARK INTER:                  -3.727
REMARK INTRA:                   0.000
REMARK UNBOUND:                 0.000
REMARK SMILES Oc1ccc2[nH]ccc2c1
REMARK SMILES IDX 3 1 4 2 5 3 9 4 8 5 7 6 6 7 10 8 2 9 1 11
REMARK H PARENT 6 10 1 12
REMARK Flexibility Score: inf
ROOT
ATOM      1  C   UNL     1     136.082 146.692 141.598  1.00  0.00     0.048 A 
ATOM      2  C   UNL     1     135.478 147.610 142.476  1.00  0.00     0.030 A 
ATOM      3  C   UNL     1     134.832 147.105 143.603  1.00  0.00     0.046 A 
ATOM      4  C   UNL     1     134.780 145.761 143.861  1.00  0.00     0.003 A 
ATOM      5  C   UNL     1     134.080 145.593 145.035  1.00  0.00     0.028 A 
ATOM      6  C   UNL     1     133.735 146.880 145.439  1.00  0.00     0.083 A 
ATOM      7  N   UNL     1     134.196 147.799 144.561  1.00  0.00    -0.361 N 
ATOM      8  C   UNL     1     135.368 144.825 143.013  1.00  0.00     0.056 A 
ATOM      9  C   UNL     1     136.030 145.301 141.863  1.00  0.00     0.116 A 
ATOM     10  H   UNL     1     134.080 148.836 144.619  1.00  0.00     0.166 HD
ENDROOT
BRANCH   9  11
ATOM     11  O   UNL     1     136.628 144.393 140.995  1.00  0.00    -0.508 OA
ATOM     12  H   UNL     1     137.038 143.529 141.331  1.00  0.00     0.293 HD
ENDBRANCH   9  11
TORSDOF 1
ENDMDL
MODEL 6
REMARK VINA RESULT:    -3.523     10.532     11.264
REMARK INTER + INTRA:          -3.626
REMARK INTER:                  -3.626
REMARK INTRA:                   0.000
REMARK UNBOUND:                 0.000
REMARK SMILES Oc1ccc2[nH]ccc2c1
REMARK SMILES IDX 3 1 4 2 5 3 9 4 8 5 7 6 6 7 10 8 2 9 1 11
REMARK H PARENT 6 10 1 12
REMARK Flexibility Score: inf
ROOT
ATOM      1  C   UNL     1     130.119 136.734 142.126  1.00  0.00     0.048 A 
ATOM      2  C   UNL     1     129.779 135.379 141.957  1.00  0.00     0.030 A 
ATOM      3  C   UNL     1     129.986 134.516 143.032  1.00  0.00     0.046 A 
ATOM      4  C   UNL     1     130.504 134.960 144.220  1.00  0.00     0.003 A 
ATOM      5  C   UNL     1     130.583 133.875 145.065  1.00  0.00     0.028 A 
ATOM      6  C   UNL     1     130.096 132.801 144.325  1.00  0.00     0.083 A 
ATOM      7  N   UNL     1     129.734 133.199 143.084  1.00  0.00    -0.361 N 
ATOM      8  C   UNL     1     130.850 136.294 144.421  1.00  0.00     0.056 A 
ATOM      9  C   UNL     1     130.654 137.194 143.355  1.00  0.00     0.116 A 
ATOM     10  H   UNL     1     129.338 132.600 142.324  1.00  0.00     0.166 HD
ENDROOT
BRANCH   9  11
ATOM     11  O   UNL     1     130.990 138.534 143.522  1.00  0.00    -0.508 OA
ATOM     12  H   UNL     1     130.544 139.263 142.978  1.00  0.00     0.293 HD
ENDBRANCH   9  11
TORSDOF 1
ENDMDL
MODEL 7
REMARK VINA RESULT:    -0.995      3.015      4.481
REMARK INTER + INTRA:          -1.024
REMARK INTER:                  -1.024
REMARK INTRA:                   0.000
REMARK UNBOUND:                 0.000
REMARK SMILES Oc1ccc2[nH]ccc2c1
REMARK SMILES IDX 3 1 4 2 5 3 9 4 8 5 7 6 6 7 10 8 2 9 1 11
REMARK H PARENT 6 10 1 12
REMARK Flexibility Score: inf
ROOT
ATOM      1  C   UNL     1     135.821 145.773 141.797  1.00  0.00     0.048 A 
ATOM      2  C   UNL     1     135.395 144.781 142.698  1.00  0.00     0.030 A 
ATOM      3  C   UNL     1     134.737 145.191 143.857  1.00  0.00     0.046 A 
ATOM      4  C   UNL     1     134.506 146.514 144.122  1.00  0.00     0.003 A 
ATOM      5  C   UNL     1     133.845 146.583 145.328  1.00  0.00     0.028 A 
ATOM      6  C   UNL     1     133.706 145.262 145.742  1.00  0.00     0.083 A 
ATOM      7  N   UNL     1     134.253 144.416 144.840  1.00  0.00    -0.361 N 
ATOM      8  C   UNL     1     134.914 147.522 143.251  1.00  0.00     0.056 A 
ATOM      9  C   UNL     1     135.582 147.143 142.069  1.00  0.00     0.116 A 
ATOM     10  H   UNL     1     134.289 143.373 144.900  1.00  0.00     0.166 HD
ENDROOT
BRANCH   9  11
ATOM     11  O   UNL     1     136.003 148.125 141.177  1.00  0.00    -0.508 OA
ATOM     12  H   UNL     1     135.766 149.101 141.314  1.00  0.00     0.293 HD
ENDBRANCH   9  11
TORSDOF 1
ENDMDL
