MODEL 1
REMARK VINA RESULT:    -2.115      0.000      0.000
REMARK INTER + INTRA:          -2.115
REMARK INTER:                  -2.115
REMARK INTRA:                   0.000
REMARK UNBOUND:                 0.000
REMARK SMILES CC(=O)[O-]
REMARK SMILES IDX 1 1 2 2 3 3 4 4
REMARK H PARENT
REMARK Flexibility Score: inf
ROOT
ATOM      1  C   UNL     1      12.851  13.125  38.537  1.00  0.00     0.063 C 
ATOM      2  C   UNL     1      11.944  12.760  37.411  1.00  0.00     0.038 C 
ATOM      3  O   UNL     1      10.704  12.955  37.510  1.00  0.00    -0.550 OA
ATOM      4  O   UNL     1      12.470  12.255  36.229  1.00  0.00    -0.550 OA
ENDROOT
TORSDOF 0
ENDMDL
MODEL 2
REMARK VINA RESULT:    -2.075      0.089      1.620
REMARK INTER + INTRA:          -2.075
REMARK INTER:                  -2.075
REMARK INTRA:                   0.000
REMARK UNBOUND:                 0.000
REMARK SMILES CC(=O)[O-]
REMARK SMILES IDX 1 1 2 2 3 3 4 4
REMARK H PARENT
REMARK Flexibility Score: inf
ROOT
ATOM      1  C   UNL     1      12.887  13.104  38.565  1.00  0.00     0.063 C 
ATOM      2  C   UNL     1      12.017  12.780  37.398  1.00  0.00     0.038 C 
ATOM      3  O   UNL     1      12.522  12.308  36.345  1.00  0.00    -0.550 OA
ATOM      4  O   UNL     1      10.642  12.947  37.487  1.00  0.00    -0.550 OA
ENDROOT
TORSDOF 0
ENDMDL
MODEL 3
REMARK VINA RESULT:    -2.011      1.289      1.694
REMARK INTER + INTRA:          -2.011
REMARK INTER:                  -2.011
REMARK INTRA:                   0.000
REMARK UNBOUND:                 0.000
REMARK SMILES CC(=O)[O-]
REMARK SMILES IDX 1 1 2 2 3 3 4 4
REMARK H PARENT
REMARK Flexibility Score: inf
ROOT
ATOM      1  C   UNL     1      10.558  13.125  37.235  1.00  0.00     0.063 C 
ATOM      2  C   UNL     1      11.999  12.780  37.404  1.00  0.00     0.038 C 
ATOM      3  O   UNL     1      12.518  12.783  38.551  1.00  0.00    -0.550 OA
ATOM      4  O   UNL     1      12.758  12.404  36.304  1.00  0.00    -0.550 OA
ENDROOT
TORSDOF 0
ENDMDL
MODEL 4
REMARK VINA RESULT:    -2.010      1.467      1.761
REMARK INTER + INTRA:          -2.010
REMARK INTER:                  -2.010
REMARK INTRA:                   0.000
REMARK UNBOUND:                 0.000
REMARK SMILES CC(=O)[O-]
REMARK SMILES IDX 1 1 2 2 3 3 4 4
REMARK H PARENT
REMARK Flexibility Score: inf
ROOT
ATOM      1  C   UNL     1      12.456  12.427  36.222  1.00  0.00     0.063 C 
ATOM      2  C   UNL     1      11.724  12.731  37.484  1.00  0.00     0.038 C 
ATOM      3  O   UNL     1      10.501  13.028  37.450  1.00  0.00    -0.550 OA
ATOM      4  O   UNL     1      12.375  12.634  38.707  1.00  0.00    -0.550 OA
ENDROOT
TORSDOF 0
ENDMDL
MODEL 5
REMARK VINA RESULT:    -1.841      4.318      4.659
REMARK INTER + INTRA:          -1.841
REMARK INTER:                  -1.841
REMARK INTRA:                   0.000
REMARK UNBOUND:                 0.000
REMARK SMILES CC(=O)[O-]
REMARK SMILES IDX 1 1 2 2 3 3 4 4
REMARK H PARENT
REMARK Flexibility Score: inf
ROOT
ATOM      1  C   UNL     1       8.816  13.125  36.120  1.00  0.00     0.063 C 
ATOM      2  C   UNL     1       8.318  12.527  34.849  1.00  0.00     0.038 C 
ATOM      3  O   UNL     1       8.562  13.087  33.748  1.00  0.00    -0.550 OA
ATOM      4  O   UNL     1       7.629  11.321  34.870  1.00  0.00    -0.550 OA
ENDROOT
TORSDOF 0
ENDMDL
MODEL 6
REMARK VINA RESULT:    -1.811      4.166      4.643
REMARK INTER + INTRA:          -1.811
REMARK INTER:                  -1.811
REMARK INTRA:                   0.000
REMARK UNBOUND:                 0.000
REMARK SMILES CC(=O)[O-]
REMARK SMILES IDX 1 1 2 2 3 3 4 4
REMARK H PARENT
REMARK Flexibility Score: inf
ROOT
ATOM      1  C   UNL     1      10.427  13.044  34.612  1.00  0.00     0.063 C 
ATOM      2  C   UNL     1       9.228  12.397  34.006  1.00  0.00     0.038 C 
ATOM      3  O   UNL     1       9.266  11.185  33.670  1.00  0.00    -0.550 OA
ATOM      4  O   UNL     1       8.049  13.117  33.860  1.00  0.00    -0.550 OA
ENDROOT
TORSDOF 0
ENDMDL
MODEL 7
REMARK VINA RESULT:    -1.439      3.805      4.268
REMARK INTER + INTRA:          -1.439
REMARK INTER:                  -1.439
REMARK INTRA:                   0.000
REMARK UNBOUND:                 0.000
REMARK SMILES CC(=O)[O-]
REMARK SMILES IDX 1 1 2 2 3 3 4 4
REMARK H PARENT
REMARK Flexibility Score: inf
ROOT
ATOM      1  C   UNL     1       7.868  11.780  34.567  1.00  0.00     0.063 C 
ATOM      2  C   UNL     1       8.702  12.725  35.364  1.00  0.00     0.038 C 
ATOM      3  O   UNL     1       8.303  13.125  36.489  1.00  0.00    -0.550 OA
ATOM      4  O   UNL     1       9.946  13.123  34.892  1.00  0.00    -0.550 OA
ENDROOT
TORSDOF 0
ENDMDL
MODEL 8
REMARK VINA RESULT:    -1.427      3.560      4.193
REMARK INTER + INTRA:          -1.427
REMARK INTER:                  -1.427
REMARK INTRA:                   0.000
REMARK UNBOUND:                 0.000
REMARK SMILES CC(=O)[O-]
REMARK SMILES IDX 1 1 2 2 3 3 4 4
REMARK H PARENT
REMARK Flexibility Score: inf
ROOT
ATOM      1  C   UNL     1       8.259  12.224  34.835  1.00  0.00     0.063 C 
ATOM      2  C   UNL     1       9.610  12.831  34.666  1.00  0.00     0.038 C 
ATOM      3  O   UNL     1      10.031  13.124  33.516  1.00  0.00    -0.550 OA
ATOM      4  O   UNL     1      10.385  13.125  35.780  1.00  0.00    -0.550 OA
ENDROOT
TORSDOF 0
ENDMDL
MODEL 9
REMARK VINA RESULT:    -0.005     17.698     17.973
REMARK INTER + INTRA:          -0.005
REMARK INTER:                  -0.005
REMARK INTRA:                   0.000
REMARK UNBOUND:                 0.000
REMARK SMILES CC(=O)[O-]
REMARK SMILES IDX 1 1 2 2 3 3 4 4
REMARK H PARENT
REMARK Flexibility Score: inf
ROOT
ATOM      1  C   UNL     1       8.010  -3.527  37.524  1.00  0.00     0.063 C 
ATOM      2  C   UNL     1       8.739  -4.825  37.436  1.00  0.00     0.038 C 
ATOM      3  O   UNL     1       9.409  -5.105  36.407  1.00  0.00    -0.550 OA
ATOM      4  O   UNL     1       8.724  -5.706  38.510  1.00  0.00    -0.550 OA
ENDROOT
TORSDOF 0
ENDMDL
