MODEL 1
REMARK VINA RESULT:    -5.815      0.000      0.000
REMARK INTER + INTRA:          -6.508
REMARK INTER:                  -6.155
REMARK INTRA:                  -0.353
REMARK UNBOUND:                -0.353
REMARK SMILES CC1=CC[C@]23[C@H]([C@@H](C(C)C)CC[C@H]2C)[C@@H]13
REMARK SMILES IDX 14 1 13 2 12 3 11 4 7 5 6 6 5 7 15 8 2 9 3 10 4 11 1 12 8 13
REMARK SMILES IDX 9 14 10 15
REMARK H PARENT
REMARK Flexibility Score: inf
ROOT
ATOM      1  C   UNL     1       4.622  -5.227  19.427  1.00  0.00     0.008 C 
ATOM      2  C   UNL     1       3.909  -3.888  19.679  1.00  0.00    -0.007 C 
ATOM      3  C   UNL     1       2.397  -3.979  19.394  1.00  0.00     0.004 C 
ATOM      4  C   UNL     1       2.055  -3.708  17.930  1.00  0.00     0.004 C 
ATOM      5  C   UNL     1       2.427  -2.256  17.553  1.00  0.00    -0.004 C 
ATOM      6  C   UNL     1       3.891  -1.875  17.885  1.00  0.00     0.007 C 
ATOM      7  C   UNL     1       4.609  -2.691  18.974  1.00  0.00    -0.013 C 
ATOM      8  C   UNL     1       4.981  -2.871  17.496  1.00  0.00     0.025 C 
ATOM      9  C   UNL     1       6.361  -2.317  17.395  1.00  0.00    -0.073 C 
ATOM     10  C   UNL     1       6.826  -1.881  18.558  1.00  0.00    -0.027 C 
ATOM     11  C   UNL     1       5.828  -2.042  19.653  1.00  0.00     0.035 C 
ATOM     12  C   UNL     1       7.139  -2.255  16.118  1.00  0.00     0.039 C 
ENDROOT
BRANCH   5  13
ATOM     13  C   UNL     1       2.054  -1.857  16.092  1.00  0.00    -0.014 C 
ATOM     14  C   UNL     1       2.706  -0.550  15.613  1.00  0.00     0.007 C 
ATOM     15  C   UNL     1       2.350  -2.988  15.095  1.00  0.00     0.007 C 
ENDBRANCH   5  13
TORSDOF 1
ENDMDL
MODEL 2
REMARK VINA RESULT:    -5.577      1.899      4.433
REMARK INTER + INTRA:          -6.255
REMARK INTER:                  -6.309
REMARK INTRA:                   0.053
REMARK UNBOUND:                -0.353
REMARK SMILES CC1=CC[C@]23[C@H]([C@@H](C(C)C)CC[C@H]2C)[C@@H]13
REMARK SMILES IDX 14 1 13 2 12 3 11 4 7 5 6 6 5 7 15 8 2 9 3 10 4 11 1 12 8 13
REMARK SMILES IDX 9 14 10 15
REMARK H PARENT
REMARK Flexibility Score: inf
ROOT
ATOM      1  C   UNL     1       4.379  -1.966  18.253  1.00  0.00     0.008 C 
ATOM      2  C   UNL     1       3.839  -2.851  17.118  1.00  0.00    -0.007 C 
ATOM      3  C   UNL     1       4.114  -2.239  15.730  1.00  0.00     0.004 C 
ATOM      4  C   UNL     1       3.022  -1.269  15.284  1.00  0.00     0.004 C 
ATOM      5  C   UNL     1       1.680  -2.016  15.111  1.00  0.00    -0.004 C 
ATOM      6  C   UNL     1       1.253  -2.840  16.352  1.00  0.00     0.007 C 
ATOM      7  C   UNL     1       2.356  -3.270  17.334  1.00  0.00    -0.013 C 
ATOM      8  C   UNL     1       1.365  -2.162  17.716  1.00  0.00     0.025 C 
ATOM      9  C   UNL     1       0.548  -2.762  18.808  1.00  0.00    -0.073 C 
ATOM     10  C   UNL     1       0.923  -3.997  19.112  1.00  0.00    -0.027 C 
ATOM     11  C   UNL     1       2.052  -4.462  18.258  1.00  0.00     0.035 C 
ATOM     12  C   UNL     1      -0.579  -2.049  19.488  1.00  0.00     0.039 C 
ENDROOT
BRANCH   5  13
ATOM     13  C   UNL     1       0.511  -1.125  14.591  1.00  0.00    -0.014 C 
ATOM     14  C   UNL     1      -0.520  -1.878  13.735  1.00  0.00     0.007 C 
ATOM     15  C   UNL     1      -0.198  -0.385  15.736  1.00  0.00     0.007 C 
ENDBRANCH   5  13
TORSDOF 1
ENDMDL
MODEL 3
REMARK VINA RESULT:    -5.505      1.282      3.584
REMARK INTER + INTRA:          -6.180
REMARK INTER:                  -5.920
REMARK INTRA:                  -0.260
REMARK UNBOUND:                -0.353
REMARK SMILES CC1=CC[C@]23[C@H]([C@@H](C(C)C)CC[C@H]2C)[C@@H]13
REMARK SMILES IDX 14 1 13 2 12 3 11 4 7 5 6 6 5 7 15 8 2 9 3 10 4 11 1 12 8 13
REMARK SMILES IDX 9 14 10 15
REMARK H PARENT
REMARK Flexibility Score: inf
ROOT
ATOM      1  C   UNL     1       5.579  -1.766  19.079  1.00  0.00     0.008 C 
ATOM      2  C   UNL     1       5.233  -2.897  18.095  1.00  0.00    -0.007 C 
ATOM      3  C   UNL     1       5.049  -2.372  16.658  1.00  0.00     0.004 C 
ATOM      4  C   UNL     1       3.623  -1.904  16.378  1.00  0.00     0.004 C 
ATOM      5  C   UNL     1       2.639  -3.092  16.479  1.00  0.00    -0.004 C 
ATOM      6  C   UNL     1       2.740  -3.881  17.808  1.00  0.00     0.007 C 
ATOM      7  C   UNL     1       4.060  -3.790  18.592  1.00  0.00    -0.013 C 
ATOM      8  C   UNL     1       2.803  -3.072  19.101  1.00  0.00     0.025 C 
ATOM      9  C   UNL     1       2.440  -3.807  20.346  1.00  0.00    -0.073 C 
ATOM     10  C   UNL     1       3.284  -4.790  20.626  1.00  0.00    -0.027 C 
ATOM     11  C   UNL     1       4.360  -4.910  19.603  1.00  0.00     0.035 C 
ATOM     12  C   UNL     1       1.249  -3.474  21.188  1.00  0.00     0.039 C 
ENDROOT
BRANCH   5  13
ATOM     13  C   UNL     1       1.160  -2.731  16.143  1.00  0.00    -0.014 C 
ATOM     14  C   UNL     1       0.782  -1.274  16.456  1.00  0.00     0.007 C 
ATOM     15  C   UNL     1       0.806  -3.063  14.684  1.00  0.00     0.007 C 
ENDBRANCH   5  13
TORSDOF 1
ENDMDL
MODEL 4
REMARK VINA RESULT:    -5.417      1.342      4.910
REMARK INTER + INTRA:          -6.087
REMARK INTER:                  -5.805
REMARK INTRA:                  -0.282
REMARK UNBOUND:                -0.353
REMARK SMILES CC1=CC[C@]23[C@H]([C@@H](C(C)C)CC[C@H]2C)[C@@H]13
REMARK SMILES IDX 14 1 13 2 12 3 11 4 7 5 6 6 5 7 15 8 2 9 3 10 4 11 1 12 8 13
REMARK SMILES IDX 9 14 10 15
REMARK H PARENT
REMARK Flexibility Score: inf
ROOT
ATOM      1  C   UNL     1       1.003  -2.983  15.192  1.00  0.00     0.008 C 
ATOM      2  C   UNL     1       1.655  -1.862  16.019  1.00  0.00    -0.007 C 
ATOM      3  C   UNL     1       3.059  -1.502  15.494  1.00  0.00     0.004 C 
ATOM      4  C   UNL     1       4.157  -2.374  16.099  1.00  0.00     0.004 C 
ATOM      5  C   UNL     1       4.248  -2.140  17.624  1.00  0.00    -0.004 C 
ATOM      6  C   UNL     1       2.900  -2.307  18.369  1.00  0.00     0.007 C 
ATOM      7  C   UNL     1       1.609  -2.139  17.549  1.00  0.00    -0.013 C 
ATOM      8  C   UNL     1       2.054  -3.530  18.022  1.00  0.00     0.025 C 
ATOM      9  C   UNL     1       1.030  -3.918  19.032  1.00  0.00    -0.073 C 
ATOM     10  C   UNL     1       0.087  -2.999  19.187  1.00  0.00    -0.027 C 
ATOM     11  C   UNL     1       0.321  -1.809  18.323  1.00  0.00     0.035 C 
ATOM     12  C   UNL     1       1.062  -5.207  19.792  1.00  0.00     0.039 C 
ENDROOT
BRANCH   5  13
ATOM     13  C   UNL     1       5.389  -2.936  18.329  1.00  0.00    -0.014 C 
ATOM     14  C   UNL     1       6.805  -2.479  17.943  1.00  0.00     0.007 C 
ATOM     15  C   UNL     1       5.233  -2.929  19.858  1.00  0.00     0.007 C 
ENDBRANCH   5  13
TORSDOF 1
ENDMDL
MODEL 5
REMARK VINA RESULT:    -5.386      1.742      4.253
REMARK INTER + INTRA:          -6.054
REMARK INTER:                  -5.771
REMARK INTRA:                  -0.283
REMARK UNBOUND:                -0.353
REMARK SMILES CC1=CC[C@]23[C@H]([C@@H](C(C)C)CC[C@H]2C)[C@@H]13
REMARK SMILES IDX 14 1 13 2 12 3 11 4 7 5 6 6 5 7 15 8 2 9 3 10 4 11 1 12 8 13
REMARK SMILES IDX 9 14 10 15
REMARK H PARENT
REMARK Flexibility Score: inf
ROOT
ATOM      1  C   UNL     1       3.921  -3.366  20.460  1.00  0.00     0.008 C 
ATOM      2  C   UNL     1       3.527  -3.927  19.084  1.00  0.00    -0.007 C 
ATOM      3  C   UNL     1       4.423  -3.373  17.959  1.00  0.00     0.004 C 
ATOM      4  C   UNL     1       3.910  -2.050  17.393  1.00  0.00     0.004 C 
ATOM      5  C   UNL     1       2.534  -2.252  16.720  1.00  0.00    -0.004 C 
ATOM      6  C   UNL     1       1.484  -2.940  17.627  1.00  0.00     0.007 C 
ATOM      7  C   UNL     1       2.004  -3.797  18.794  1.00  0.00    -0.013 C 
ATOM      8  C   UNL     1       1.356  -2.431  19.061  1.00  0.00     0.025 C 
ATOM      9  C   UNL     1       0.080  -2.761  19.756  1.00  0.00    -0.073 C 
ATOM     10  C   UNL     1      -0.084  -4.064  19.938  1.00  0.00    -0.027 C 
ATOM     11  C   UNL     1       1.047  -4.852  19.375  1.00  0.00     0.035 C 
ATOM     12  C   UNL     1      -0.914  -1.732  20.198  1.00  0.00     0.039 C 
ENDROOT
BRANCH   5  13
ATOM     13  C   UNL     1       1.953  -0.970  16.048  1.00  0.00    -0.014 C 
ATOM     14  C   UNL     1       2.704  -0.529  14.782  1.00  0.00     0.007 C 
ATOM     15  C   UNL     1       0.452  -1.111  15.748  1.00  0.00     0.007 C 
ENDBRANCH   5  13
TORSDOF 1
ENDMDL
MODEL 6
REMARK VINA RESULT:    -5.376      1.484      4.143
REMARK INTER + INTRA:          -6.043
REMARK INTER:                  -5.661
REMARK INTRA:                  -0.383
REMARK UNBOUND:                -0.353
REMARK SMILES CC1=CC[C@]23[C@H]([C@@H](C(C)C)CC[C@H]2C)[C@@H]13
REMARK SMILES IDX 14 1 13 2 12 3 11 4 7 5 6 6 5 7 15 8 2 9 3 10 4 11 1 12 8 13
REMARK SMILES IDX 9 14 10 15
REMARK H PARENT
REMARK Flexibility Score: inf
ROOT
ATOM      1  C   UNL     1       3.218  -1.618  17.267  1.00  0.00     0.008 C 
ATOM      2  C   UNL     1       3.862  -3.006  17.423  1.00  0.00    -0.007 C 
ATOM      3  C   UNL     1       2.845  -4.061  17.900  1.00  0.00     0.004 C 
ATOM      4  C   UNL     1       2.723  -4.118  19.422  1.00  0.00     0.004 C 
ATOM      5  C   UNL     1       4.062  -4.567  20.050  1.00  0.00    -0.004 C 
ATOM      6  C   UNL     1       5.282  -3.728  19.598  1.00  0.00     0.007 C 
ATOM      7  C   UNL     1       5.171  -2.971  18.263  1.00  0.00    -0.013 C 
ATOM      8  C   UNL     1       5.127  -2.209  19.595  1.00  0.00     0.025 C 
ATOM      9  C   UNL     1       6.395  -1.426  19.610  1.00  0.00    -0.073 C 
ATOM     10  C   UNL     1       7.123  -1.605  18.516  1.00  0.00    -0.027 C 
ATOM     11  C   UNL     1       6.483  -2.563  17.572  1.00  0.00     0.035 C 
ATOM     12  C   UNL     1       6.806  -0.536  20.741  1.00  0.00     0.039 C 
ENDROOT
BRANCH   5  13
ATOM     13  C   UNL     1       4.022  -4.723  21.601  1.00  0.00    -0.014 C 
ATOM     14  C   UNL     1       5.400  -4.630  22.277  1.00  0.00     0.007 C 
ATOM     15  C   UNL     1       3.049  -3.727  22.253  1.00  0.00     0.007 C 
ENDBRANCH   5  13
TORSDOF 1
ENDMDL
MODEL 7
REMARK VINA RESULT:    -5.306      1.669      4.074
REMARK INTER + INTRA:          -5.969
REMARK INTER:                  -5.710
REMARK INTRA:                  -0.258
REMARK UNBOUND:                -0.353
REMARK SMILES CC1=CC[C@]23[C@H]([C@@H](C(C)C)CC[C@H]2C)[C@@H]13
REMARK SMILES IDX 14 1 13 2 12 3 11 4 7 5 6 6 5 7 15 8 2 9 3 10 4 11 1 12 8 13
REMARK SMILES IDX 9 14 10 15
REMARK H PARENT
REMARK Flexibility Score: inf
ROOT
ATOM      1  C   UNL     1       3.883  -3.390  21.263  1.00  0.00     0.008 C 
ATOM      2  C   UNL     1       3.790  -4.190  19.953  1.00  0.00    -0.007 C 
ATOM      3  C   UNL     1       4.982  -3.904  19.019  1.00  0.00     0.004 C 
ATOM      4  C   UNL     1       4.747  -2.695  18.115  1.00  0.00     0.004 C 
ATOM      5  C   UNL     1       3.567  -2.964  17.155  1.00  0.00    -0.004 C 
ATOM      6  C   UNL     1       2.267  -3.417  17.866  1.00  0.00     0.007 C 
ATOM      7  C   UNL     1       2.403  -4.053  19.261  1.00  0.00    -0.013 C 
ATOM      8  C   UNL     1       1.837  -2.634  19.105  1.00  0.00     0.025 C 
ATOM      9  C   UNL     1       0.404  -2.768  19.492  1.00  0.00    -0.073 C 
ATOM     10  C   UNL     1       0.082  -4.002  19.853  1.00  0.00    -0.027 C 
ATOM     11  C   UNL     1       1.241  -4.933  19.751  1.00  0.00     0.035 C 
ATOM     12  C   UNL     1      -0.569  -1.631  19.473  1.00  0.00     0.039 C 
ENDROOT
BRANCH   5  13
ATOM     13  C   UNL     1       3.288  -1.813  16.141  1.00  0.00    -0.014 C 
ATOM     14  C   UNL     1       4.231  -1.804  14.927  1.00  0.00     0.007 C 
ATOM     15  C   UNL     1       1.825  -1.806  15.670  1.00  0.00     0.007 C 
ENDBRANCH   5  13
TORSDOF 1
ENDMDL
MODEL 8
REMARK VINA RESULT:    -5.182      1.107      4.129
REMARK INTER + INTRA:          -5.837
REMARK INTER:                  -5.462
REMARK INTRA:                  -0.375
REMARK UNBOUND:                -0.353
REMARK SMILES CC1=CC[C@]23[C@H]([C@@H](C(C)C)CC[C@H]2C)[C@@H]13
REMARK SMILES IDX 14 1 13 2 12 3 11 4 7 5 6 6 5 7 15 8 2 9 3 10 4 11 1 12 8 13
REMARK SMILES IDX 9 14 10 15
REMARK H PARENT
REMARK Flexibility Score: inf
ROOT
ATOM      1  C   UNL     1       0.339  -2.290  19.137  1.00  0.00     0.008 C 
ATOM      2  C   UNL     1       1.187  -3.472  18.638  1.00  0.00    -0.007 C 
ATOM      3  C   UNL     1       2.093  -4.039  19.748  1.00  0.00     0.004 C 
ATOM      4  C   UNL     1       3.436  -3.317  19.841  1.00  0.00     0.004 C 
ATOM      5  C   UNL     1       4.248  -3.526  18.543  1.00  0.00    -0.004 C 
ATOM      6  C   UNL     1       3.478  -3.153  17.252  1.00  0.00     0.007 C 
ATOM      7  C   UNL     1       1.941  -3.156  17.314  1.00  0.00    -0.013 C 
ATOM      8  C   UNL     1       2.713  -1.831  17.248  1.00  0.00     0.025 C 
ATOM      9  C   UNL     1       2.378  -1.278  15.906  1.00  0.00    -0.073 C 
ATOM     10  C   UNL     1       1.543  -2.051  15.225  1.00  0.00    -0.027 C 
ATOM     11  C   UNL     1       1.181  -3.282  15.982  1.00  0.00     0.035 C 
ATOM     12  C   UNL     1       2.928   0.010  15.379  1.00  0.00     0.039 C 
ENDROOT
BRANCH   5  13
ATOM     13  C   UNL     1       5.668  -2.883  18.563  1.00  0.00    -0.014 C 
ATOM     14  C   UNL     1       6.213  -2.518  17.173  1.00  0.00     0.007 C 
ATOM     15  C   UNL     1       5.729  -1.657  19.489  1.00  0.00     0.007 C 
ENDBRANCH   5  13
TORSDOF 1
ENDMDL
MODEL 9
REMARK VINA RESULT:    -5.169      1.669      4.134
REMARK INTER + INTRA:          -5.824
REMARK INTER:                  -5.456
REMARK INTRA:                  -0.367
REMARK UNBOUND:                -0.353
REMARK SMILES CC1=CC[C@]23[C@H]([C@@H](C(C)C)CC[C@H]2C)[C@@H]13
REMARK SMILES IDX 14 1 13 2 12 3 11 4 7 5 6 6 5 7 15 8 2 9 3 10 4 11 1 12 8 13
REMARK SMILES IDX 9 14 10 15
REMARK H PARENT
REMARK Flexibility Score: inf
ROOT
ATOM      1  C   UNL     1       6.032  -1.665  20.224  1.00  0.00     0.008 C 
ATOM      2  C   UNL     1       5.835  -2.994  19.477  1.00  0.00    -0.007 C 
ATOM      3  C   UNL     1       5.537  -2.774  17.980  1.00  0.00     0.004 C 
ATOM      4  C   UNL     1       4.050  -2.573  17.697  1.00  0.00     0.004 C 
ATOM      5  C   UNL     1       3.258  -3.849  18.059  1.00  0.00    -0.004 C 
ATOM      6  C   UNL     1       3.510  -4.359  19.500  1.00  0.00     0.007 C 
ATOM      7  C   UNL     1       4.821  -3.939  20.185  1.00  0.00    -0.013 C 
ATOM      8  C   UNL     1       3.484  -3.326  20.623  1.00  0.00     0.025 C 
ATOM      9  C   UNL     1       3.268  -3.864  21.996  1.00  0.00    -0.073 C 
ATOM     10  C   UNL     1       4.256  -4.649  22.402  1.00  0.00    -0.027 C 
ATOM     11  C   UNL     1       5.311  -4.801  21.361  1.00  0.00     0.035 C 
ATOM     12  C   UNL     1       2.062  -3.555  22.827  1.00  0.00     0.039 C 
ENDROOT
BRANCH   5  13
ATOM     13  C   UNL     1       1.734  -3.770  17.742  1.00  0.00    -0.014 C 
ATOM     14  C   UNL     1       0.857  -4.650  18.649  1.00  0.00     0.007 C 
ATOM     15  C   UNL     1       1.219  -2.322  17.758  1.00  0.00     0.007 C 
ENDBRANCH   5  13
TORSDOF 1
ENDMDL
