MODEL 1
REMARK VINA RESULT:    -6.576      0.000      0.000
REMARK INTER + INTRA:          -8.002
REMARK INTER:                  -7.729
REMARK INTRA:                  -0.273
REMARK UNBOUND:                -0.273
REMARK SMILES O=c1cc(-c2ccc(O)c(O)c2)oc2cc(O)cc(O)c12
REMARK SMILES IDX 4 1 3 2 2 3 1 4 21 5 19 6 18 7 16 8 15 9 14 10 13 11 5 12
REMARK SMILES IDX 6 13 7 14 8 15 12 16 10 17 9 18 11 20 20 22 17 24
REMARK H PARENT 9 19 11 21 20 23 17 25
REMARK Flexibility Score: inf
ROOT
ATOM      1  C   UNL     1      30.499 -92.161  37.244  1.00  0.00     0.138 A 
ATOM      2  C   UNL     1      29.251 -92.737  36.972  1.00  0.00     0.100 A 
ATOM      3  C   UNL     1      29.079 -94.114  37.126  1.00  0.00     0.197 A 
ATOM      4  O   UNL     1      27.932 -94.594  36.936  1.00  0.00    -0.289 OA
ATOM      5  C   UNL     1      30.173 -94.919  37.525  1.00  0.00     0.107 A 
ATOM      6  C   UNL     1      30.124 -96.338  37.674  1.00  0.00     0.134 A 
ATOM      7  C   UNL     1      31.237 -97.016  38.186  1.00  0.00     0.093 A 
ATOM      8  C   UNL     1      32.415 -96.337  38.496  1.00  0.00     0.123 A 
ATOM      9  C   UNL     1      32.491 -94.956  38.302  1.00  0.00     0.094 A 
ATOM     10  C   UNL     1      31.386 -94.247  37.825  1.00  0.00     0.146 A 
ATOM     11  O   UNL     1      31.495 -92.932  37.669  1.00  0.00    -0.456 OA
ENDROOT
BRANCH   1  12
ATOM     12  C   UNL     1      30.739 -90.703  37.095  1.00  0.00     0.021 A 
ATOM     13  C   UNL     1      31.839 -90.256  36.344  1.00  0.00     0.016 A 
ATOM     14  C   UNL     1      32.082 -88.889  36.183  1.00  0.00     0.051 A 
ATOM     15  C   UNL     1      31.227 -87.947  36.760  1.00  0.00     0.157 A 
ATOM     16  C   UNL     1      29.873 -89.749  37.664  1.00  0.00     0.062 A 
ATOM     17  C   UNL     1      30.115 -88.377  37.502  1.00  0.00     0.158 A 
BRANCH  15  18
ATOM     18  O   UNL     1      31.497 -86.590  36.583  1.00  0.00    -0.504 OA
ATOM     19  H   UNL     1      31.877 -86.015  37.327  1.00  0.00     0.293 HD
ENDBRANCH  15  18
BRANCH  17  20
ATOM     20  O   UNL     1      29.252 -87.440  38.071  1.00  0.00    -0.504 OA
ATOM     21  H   UNL     1      28.561 -87.706  38.762  1.00  0.00     0.293 HD
ENDBRANCH  17  20
ENDBRANCH   1  12
BRANCH   6  22
ATOM     22  O   UNL     1      29.026 -97.125  37.315  1.00  0.00    -0.507 OA
ATOM     23  H   UNL     1      28.887 -97.538  36.405  1.00  0.00     0.293 HD
ENDBRANCH   6  22
BRANCH   8  24
ATOM     24  O   UNL     1      33.508 -97.046  38.990  1.00  0.00    -0.508 OA
ATOM     25  H   UNL     1      34.102 -97.596  38.379  1.00  0.00     0.293 HD
ENDBRANCH   8  24
TORSDOF 5
ENDMDL
MODEL 2
REMARK VINA RESULT:    -6.058      1.235      2.739
REMARK INTER + INTRA:          -7.394
REMARK INTER:                  -7.104
REMARK INTRA:                  -0.290
REMARK UNBOUND:                -0.273
REMARK SMILES O=c1cc(-c2ccc(O)c(O)c2)oc2cc(O)cc(O)c12
REMARK SMILES IDX 4 1 3 2 2 3 1 4 21 5 19 6 18 7 16 8 15 9 14 10 13 11 5 12
REMARK SMILES IDX 6 13 7 14 8 15 12 16 10 17 9 18 11 20 20 22 17 24
REMARK H PARENT 9 19 11 21 20 23 17 25
REMARK Flexibility Score: inf
ROOT
ATOM      1  C   UNL     1      30.689 -92.061  37.306  1.00  0.00     0.138 A 
ATOM      2  C   UNL     1      31.782 -92.824  37.737  1.00  0.00     0.100 A 
ATOM      3  C   UNL     1      31.643 -94.204  37.889  1.00  0.00     0.197 A 
ATOM      4  O   UNL     1      32.658 -94.872  38.217  1.00  0.00    -0.289 OA
ATOM      5  C   UNL     1      30.392 -94.817  37.637  1.00  0.00     0.107 A 
ATOM      6  C   UNL     1      30.122 -96.209  37.798  1.00  0.00     0.134 A 
ATOM      7  C   UNL     1      28.878 -96.721  37.406  1.00  0.00     0.093 A 
ATOM      8  C   UNL     1      27.876 -95.884  36.918  1.00  0.00     0.123 A 
ATOM      9  C   UNL     1      28.111 -94.512  36.808  1.00  0.00     0.094 A 
ATOM     10  C   UNL     1      29.352 -93.976  37.158  1.00  0.00     0.146 A 
ATOM     11  O   UNL     1      29.541 -92.668  37.023  1.00  0.00    -0.456 OA
ENDROOT
BRANCH   1  12
ATOM     12  C   UNL     1      30.781 -90.589  37.129  1.00  0.00     0.021 A 
ATOM     13  C   UNL     1      31.865 -90.044  36.420  1.00  0.00     0.016 A 
ATOM     14  C   UNL     1      31.971 -88.664  36.234  1.00  0.00     0.051 A 
ATOM     15  C   UNL     1      30.994 -87.805  36.744  1.00  0.00     0.157 A 
ATOM     16  C   UNL     1      29.792 -89.721  37.629  1.00  0.00     0.062 A 
ATOM     17  C   UNL     1      29.897 -88.334  37.442  1.00  0.00     0.158 A 
BRANCH  15  18
ATOM     18  O   UNL     1      31.128 -86.431  36.543  1.00  0.00    -0.504 OA
ATOM     19  H   UNL     1      31.928 -85.913  36.888  1.00  0.00     0.293 HD
ENDBRANCH  15  18
BRANCH  17  20
ATOM     20  O   UNL     1      28.913 -87.482  37.943  1.00  0.00    -0.504 OA
ATOM     21  H   UNL     1      28.334 -86.920  37.330  1.00  0.00     0.293 HD
ENDBRANCH  17  20
ENDBRANCH   1  12
BRANCH   6  22
ATOM     22  O   UNL     1      31.023 -97.121  38.355  1.00  0.00    -0.507 OA
ATOM     23  H   UNL     1      30.821 -97.729  39.134  1.00  0.00     0.293 HD
ENDBRANCH   6  22
BRANCH   8  24
ATOM     24  O   UNL     1      26.646 -96.426  36.553  1.00  0.00    -0.508 OA
ATOM     25  H   UNL     1      25.818 -96.291  37.122  1.00  0.00     0.293 HD
ENDBRANCH   8  24
TORSDOF 5
ENDMDL
MODEL 3
REMARK VINA RESULT:    -5.732      9.359     10.944
REMARK INTER + INTRA:          -7.011
REMARK INTER:                  -6.730
REMARK INTRA:                  -0.280
REMARK UNBOUND:                -0.273
REMARK SMILES O=c1cc(-c2ccc(O)c(O)c2)oc2cc(O)cc(O)c12
REMARK SMILES IDX 4 1 3 2 2 3 1 4 21 5 19 6 18 7 16 8 15 9 14 10 13 11 5 12
REMARK SMILES IDX 6 13 7 14 8 15 12 16 10 17 9 18 11 20 20 22 17 24
REMARK H PARENT 9 19 11 21 20 23 17 25
REMARK Flexibility Score: inf
ROOT
ATOM      1  C   UNL     1      37.149 -95.549  30.765  1.00  0.00     0.138 A 
ATOM      2  C   UNL     1      37.818 -96.148  29.690  1.00  0.00     0.100 A 
ATOM      3  C   UNL     1      37.162 -96.299  28.467  1.00  0.00     0.197 A 
ATOM      4  O   UNL     1      37.808 -96.782  27.501  1.00  0.00    -0.289 OA
ATOM      5  C   UNL     1      35.818 -95.875  28.333  1.00  0.00     0.107 A 
ATOM      6  C   UNL     1      35.037 -96.016  27.146  1.00  0.00     0.134 A 
ATOM      7  C   UNL     1      33.755 -95.454  27.094  1.00  0.00     0.093 A 
ATOM      8  C   UNL     1      33.204 -94.812  28.202  1.00  0.00     0.123 A 
ATOM      9  C   UNL     1      33.939 -94.716  29.385  1.00  0.00     0.094 A 
ATOM     10  C   UNL     1      35.233 -95.236  29.458  1.00  0.00     0.146 A 
ATOM     11  O   UNL     1      35.905 -95.111  30.597  1.00  0.00    -0.456 OA
ENDROOT
BRANCH   1  12
ATOM     12  C   UNL     1      37.798 -95.366  32.088  1.00  0.00     0.021 A 
ATOM     13  C   UNL     1      38.997 -94.637  32.175  1.00  0.00     0.016 A 
ATOM     14  C   UNL     1      39.623 -94.444  33.409  1.00  0.00     0.051 A 
ATOM     15  C   UNL     1      39.061 -94.966  34.577  1.00  0.00     0.157 A 
ATOM     16  C   UNL     1      37.228 -95.879  33.269  1.00  0.00     0.062 A 
ATOM     17  C   UNL     1      37.857 -95.684  34.509  1.00  0.00     0.158 A 
BRANCH  15  18
ATOM     18  O   UNL     1      39.711 -94.758  35.793  1.00  0.00    -0.504 OA
ATOM     19  H   UNL     1      39.254 -94.925  36.682  1.00  0.00     0.293 HD
ENDBRANCH  15  18
BRANCH  17  20
ATOM     20  O   UNL     1      37.285 -96.198  35.673  1.00  0.00    -0.504 OA
ATOM     21  H   UNL     1      37.018 -95.597  36.444  1.00  0.00     0.293 HD
ENDBRANCH  17  20
ENDBRANCH   1  12
BRANCH   6  22
ATOM     22  O   UNL     1      35.459 -96.713  26.011  1.00  0.00    -0.507 OA
ATOM     23  H   UNL     1      35.314 -96.407  25.060  1.00  0.00     0.293 HD
ENDBRANCH   6  22
BRANCH   8  24
ATOM     24  O   UNL     1      31.920 -94.278  28.118  1.00  0.00    -0.508 OA
ATOM     25  H   UNL     1      31.605 -93.554  28.754  1.00  0.00     0.293 HD
ENDBRANCH   8  24
TORSDOF 5
ENDMDL
MODEL 4
REMARK VINA RESULT:    -5.652     15.061     17.175
REMARK INTER + INTRA:          -6.916
REMARK INTER:                  -6.621
REMARK INTRA:                  -0.295
REMARK UNBOUND:                -0.273
REMARK SMILES O=c1cc(-c2ccc(O)c(O)c2)oc2cc(O)cc(O)c12
REMARK SMILES IDX 4 1 3 2 2 3 1 4 21 5 19 6 18 7 16 8 15 9 14 10 13 11 5 12
REMARK SMILES IDX 6 13 7 14 8 15 12 16 10 17 9 18 11 20 20 22 17 24
REMARK H PARENT 9 19 11 21 20 23 17 25
REMARK Flexibility Score: inf
ROOT
ATOM      1  C   UNL     1      37.224 -77.625  34.308  1.00  0.00     0.138 A 
ATOM      2  C   UNL     1      37.497 -77.544  35.680  1.00  0.00     0.100 A 
ATOM      3  C   UNL     1      36.450 -77.632  36.598  1.00  0.00     0.197 A 
ATOM      4  O   UNL     1      36.731 -77.620  37.824  1.00  0.00    -0.289 OA
ATOM      5  C   UNL     1      35.119 -77.772  36.135  1.00  0.00     0.107 A 
ATOM      6  C   UNL     1      33.969 -77.831  36.978  1.00  0.00     0.134 A 
ATOM      7  C   UNL     1      32.713 -78.086  36.414  1.00  0.00     0.093 A 
ATOM      8  C   UNL     1      32.556 -78.224  35.035  1.00  0.00     0.123 A 
ATOM      9  C   UNL     1      33.668 -78.114  34.197  1.00  0.00     0.094 A 
ATOM     10  C   UNL     1      34.939 -77.894  34.732  1.00  0.00     0.146 A 
ATOM     11  O   UNL     1      35.972 -77.810  33.902  1.00  0.00    -0.456 OA
ENDROOT
BRANCH   1  12
ATOM     12  C   UNL     1      38.300 -77.535  33.288  1.00  0.00     0.021 A 
ATOM     13  C   UNL     1      37.958 -77.359  31.936  1.00  0.00     0.016 A 
ATOM     14  C   UNL     1      38.951 -77.264  30.958  1.00  0.00     0.051 A 
ATOM     15  C   UNL     1      40.301 -77.335  31.312  1.00  0.00     0.157 A 
ATOM     16  C   UNL     1      39.662 -77.592  33.642  1.00  0.00     0.062 A 
ATOM     17  C   UNL     1      40.660 -77.496  32.660  1.00  0.00     0.158 A 
BRANCH  15  18
ATOM     18  O   UNL     1      41.270 -77.239  30.314  1.00  0.00    -0.504 OA
ATOM     19  H   UNL     1      41.037 -77.312  29.330  1.00  0.00     0.293 HD
ENDBRANCH  15  18
BRANCH  17  20
ATOM     20  O   UNL     1      42.006 -77.556  33.021  1.00  0.00    -0.504 OA
ATOM     21  H   UNL     1      42.347 -77.127  33.874  1.00  0.00     0.293 HD
ENDBRANCH  17  20
ENDBRANCH   1  12
BRANCH   6  22
ATOM     22  O   UNL     1      34.000 -77.622  38.360  1.00  0.00    -0.507 OA
ATOM     23  H   UNL     1      33.409 -76.974  38.858  1.00  0.00     0.293 HD
ENDBRANCH   6  22
BRANCH   8  24
ATOM     24  O   UNL     1      31.290 -78.463  34.508  1.00  0.00    -0.508 OA
ATOM     25  H   UNL     1      30.577 -77.742  34.494  1.00  0.00     0.293 HD
ENDBRANCH   8  24
TORSDOF 5
ENDMDL
MODEL 5
REMARK VINA RESULT:    -5.544      9.891     11.170
REMARK INTER + INTRA:          -6.789
REMARK INTER:                  -6.473
REMARK INTRA:                  -0.316
REMARK UNBOUND:                -0.273
REMARK SMILES O=c1cc(-c2ccc(O)c(O)c2)oc2cc(O)cc(O)c12
REMARK SMILES IDX 4 1 3 2 2 3 1 4 21 5 19 6 18 7 16 8 15 9 14 10 13 11 5 12
REMARK SMILES IDX 6 13 7 14 8 15 12 16 10 17 9 18 11 20 20 22 17 24
REMARK H PARENT 9 19 11 21 20 23 17 25
REMARK Flexibility Score: inf
ROOT
ATOM      1  C   UNL     1      35.905 -95.634  29.016  1.00  0.00     0.138 A 
ATOM      2  C   UNL     1      37.042 -96.041  28.305  1.00  0.00     0.100 A 
ATOM      3  C   UNL     1      38.286 -96.044  28.937  1.00  0.00     0.197 A 
ATOM      4  O   UNL     1      39.278 -96.473  28.293  1.00  0.00    -0.289 OA
ATOM      5  C   UNL     1      38.394 -95.608  30.279  1.00  0.00     0.107 A 
ATOM      6  C   UNL     1      39.617 -95.531  31.012  1.00  0.00     0.134 A 
ATOM      7  C   UNL     1      39.586 -95.195  32.371  1.00  0.00     0.093 A 
ATOM      8  C   UNL     1      38.388 -94.876  33.008  1.00  0.00     0.123 A 
ATOM      9  C   UNL     1      37.192 -94.897  32.287  1.00  0.00     0.094 A 
ATOM     10  C   UNL     1      37.186 -95.260  30.938  1.00  0.00     0.146 A 
ATOM     11  O   UNL     1      36.026 -95.282  30.292  1.00  0.00    -0.456 OA
ENDROOT
BRANCH   1  12
ATOM     12  C   UNL     1      34.557 -95.609  28.392  1.00  0.00     0.021 A 
ATOM     13  C   UNL     1      34.435 -95.783  27.003  1.00  0.00     0.016 A 
ATOM     14  C   UNL     1      33.178 -95.770  26.393  1.00  0.00     0.051 A 
ATOM     15  C   UNL     1      32.022 -95.594  27.159  1.00  0.00     0.157 A 
ATOM     16  C   UNL     1      33.389 -95.445  29.161  1.00  0.00     0.062 A 
ATOM     17  C   UNL     1      32.126 -95.434  28.550  1.00  0.00     0.158 A 
BRANCH  15  18
ATOM     18  O   UNL     1      30.782 -95.585  26.521  1.00  0.00    -0.504 OA
ATOM     19  H   UNL     1      30.688 -95.748  25.525  1.00  0.00     0.293 HD
ENDBRANCH  15  18
BRANCH  17  20
ATOM     20  O   UNL     1      30.975 -95.269  29.320  1.00  0.00    -0.504 OA
ATOM     21  H   UNL     1      31.024 -95.003  30.297  1.00  0.00     0.293 HD
ENDBRANCH  17  20
ENDBRANCH   1  12
BRANCH   6  22
ATOM     22  O   UNL     1      40.879 -95.747  30.451  1.00  0.00    -0.507 OA
ATOM     23  H   UNL     1      41.222 -96.639  30.131  1.00  0.00     0.293 HD
ENDBRANCH   6  22
BRANCH   8  24
ATOM     24  O   UNL     1      38.397 -94.533  34.358  1.00  0.00    -0.508 OA
ATOM     25  H   UNL     1      37.557 -94.583  34.923  1.00  0.00     0.293 HD
ENDBRANCH   8  24
TORSDOF 5
ENDMDL
MODEL 6
REMARK VINA RESULT:    -5.524      8.974     11.130
REMARK INTER + INTRA:          -6.766
REMARK INTER:                  -6.450
REMARK INTRA:                  -0.316
REMARK UNBOUND:                -0.273
REMARK SMILES O=c1cc(-c2ccc(O)c(O)c2)oc2cc(O)cc(O)c12
REMARK SMILES IDX 4 1 3 2 2 3 1 4 21 5 19 6 18 7 16 8 15 9 14 10 13 11 5 12
REMARK SMILES IDX 6 13 7 14 8 15 12 16 10 17 9 18 11 20 20 22 17 24
REMARK H PARENT 9 19 11 21 20 23 17 25
REMARK Flexibility Score: inf
ROOT
ATOM      1  C   UNL     1      40.144 -95.357  35.440  1.00  0.00     0.138 A 
ATOM      2  C   UNL     1      41.276 -95.533  34.634  1.00  0.00     0.100 A 
ATOM      3  C   UNL     1      41.136 -95.573  33.245  1.00  0.00     0.197 A 
ATOM      4  O   UNL     1      42.177 -95.669  32.545  1.00  0.00    -0.289 OA
ATOM      5  C   UNL     1      39.849 -95.467  32.666  1.00  0.00     0.107 A 
ATOM      6  C   UNL     1      39.581 -95.536  31.265  1.00  0.00     0.134 A 
ATOM      7  C   UNL     1      38.281 -95.302  30.800  1.00  0.00     0.093 A 
ATOM      8  C   UNL     1      37.230 -95.062  31.684  1.00  0.00     0.123 A 
ATOM      9  C   UNL     1      37.472 -95.047  33.060  1.00  0.00     0.094 A 
ATOM     10  C   UNL     1      38.764 -95.243  33.553  1.00  0.00     0.146 A 
ATOM     11  O   UNL     1      38.954 -95.205  34.867  1.00  0.00    -0.456 OA
ENDROOT
BRANCH   1  12
ATOM     12  C   UNL     1      40.236 -95.309  36.921  1.00  0.00     0.021 A 
ATOM     13  C   UNL     1      41.440 -95.668  37.551  1.00  0.00     0.016 A 
ATOM     14  C   UNL     1      41.554 -95.625  38.943  1.00  0.00     0.051 A 
ATOM     15  C   UNL     1      40.474 -95.214  39.729  1.00  0.00     0.157 A 
ATOM     16  C   UNL     1      39.155 -94.882  37.716  1.00  0.00     0.062 A 
ATOM     17  C   UNL     1      39.269 -94.837  39.114  1.00  0.00     0.158 A 
BRANCH  15  18
ATOM     18  O   UNL     1      40.618 -95.182  41.115  1.00  0.00    -0.504 OA
ATOM     19  H   UNL     1      39.822 -95.108  41.737  1.00  0.00     0.293 HD
ENDBRANCH  15  18
BRANCH  17  20
ATOM     20  O   UNL     1      38.191 -94.415  39.892  1.00  0.00    -0.504 OA
ATOM     21  H   UNL     1      38.296 -94.216  40.880  1.00  0.00     0.293 HD
ENDBRANCH  17  20
ENDBRANCH   1  12
BRANCH   6  22
ATOM     22  O   UNL     1      40.541 -95.852  30.300  1.00  0.00    -0.507 OA
ATOM     23  H   UNL     1      41.405 -95.350  30.161  1.00  0.00     0.293 HD
ENDBRANCH   6  22
BRANCH   8  24
ATOM     24  O   UNL     1      35.947 -94.849  31.186  1.00  0.00    -0.508 OA
ATOM     25  H   UNL     1      35.203 -94.490  31.775  1.00  0.00     0.293 HD
ENDBRANCH   8  24
TORSDOF 5
ENDMDL
MODEL 7
REMARK VINA RESULT:    -5.501     10.086     11.634
REMARK INTER + INTRA:          -6.738
REMARK INTER:                  -6.426
REMARK INTRA:                  -0.313
REMARK UNBOUND:                -0.273
REMARK SMILES O=c1cc(-c2ccc(O)c(O)c2)oc2cc(O)cc(O)c12
REMARK SMILES IDX 4 1 3 2 2 3 1 4 21 5 19 6 18 7 16 8 15 9 14 10 13 11 5 12
REMARK SMILES IDX 6 13 7 14 8 15 12 16 10 17 9 18 11 20 20 22 17 24
REMARK H PARENT 9 19 11 21 20 23 17 25
REMARK Flexibility Score: inf
ROOT
ATOM      1  C   UNL     1      38.838 -95.657  30.918  1.00  0.00     0.138 A 
ATOM      2  C   UNL     1      39.327 -96.030  29.659  1.00  0.00     0.100 A 
ATOM      3  C   UNL     1      38.436 -96.218  28.601  1.00  0.00     0.197 A 
ATOM      4  O   UNL     1      38.908 -96.491  27.467  1.00  0.00    -0.289 OA
ATOM      5  C   UNL     1      37.045 -96.060  28.816  1.00  0.00     0.107 A 
ATOM      6  C   UNL     1      36.042 -96.265  27.822  1.00  0.00     0.134 A 
ATOM      7  C   UNL     1      34.706 -95.966  28.119  1.00  0.00     0.093 A 
ATOM      8  C   UNL     1      34.330 -95.529  29.388  1.00  0.00     0.123 A 
ATOM      9  C   UNL     1      35.297 -95.377  30.384  1.00  0.00     0.094 A 
ATOM     10  C   UNL     1      36.642 -95.634  30.109  1.00  0.00     0.146 A 
ATOM     11  O   UNL     1      37.533 -95.463  31.079  1.00  0.00    -0.456 OA
ENDROOT
BRANCH   1  12
ATOM     12  C   UNL     1      39.741 -95.447  32.078  1.00  0.00     0.021 A 
ATOM     13  C   UNL     1      41.035 -95.993  32.055  1.00  0.00     0.016 A 
ATOM     14  C   UNL     1      41.906 -95.803  33.131  1.00  0.00     0.051 A 
ATOM     15  C   UNL     1      41.504 -95.059  34.243  1.00  0.00     0.157 A 
ATOM     16  C   UNL     1      39.345 -94.686  33.195  1.00  0.00     0.062 A 
ATOM     17  C   UNL     1      40.219 -94.494  34.275  1.00  0.00     0.158 A 
BRANCH  15  18
ATOM     18  O   UNL     1      42.395 -94.888  35.302  1.00  0.00    -0.504 OA
ATOM     19  H   UNL     1      43.177 -94.245  35.249  1.00  0.00     0.293 HD
ENDBRANCH  15  18
BRANCH  17  20
ATOM     20  O   UNL     1      39.817 -93.740  35.378  1.00  0.00    -0.504 OA
ATOM     21  H   UNL     1      40.380 -93.686  36.219  1.00  0.00     0.293 HD
ENDBRANCH  17  20
ENDBRANCH   1  12
BRANCH   6  22
ATOM     22  O   UNL     1      36.297 -96.779  26.547  1.00  0.00    -0.507 OA
ATOM     23  H   UNL     1      35.665 -97.368  26.027  1.00  0.00     0.293 HD
ENDBRANCH   6  22
BRANCH   8  24
ATOM     24  O   UNL     1      32.990 -95.255  29.652  1.00  0.00    -0.508 OA
ATOM     25  H   UNL     1      32.374 -95.957  30.048  1.00  0.00     0.293 HD
ENDBRANCH   8  24
TORSDOF 5
ENDMDL
MODEL 8
REMARK VINA RESULT:    -5.462     15.244     17.407
REMARK INTER + INTRA:          -6.693
REMARK INTER:                  -6.375
REMARK INTRA:                  -0.318
REMARK UNBOUND:                -0.273
REMARK SMILES O=c1cc(-c2ccc(O)c(O)c2)oc2cc(O)cc(O)c12
REMARK SMILES IDX 4 1 3 2 2 3 1 4 21 5 19 6 18 7 16 8 15 9 14 10 13 11 5 12
REMARK SMILES IDX 6 13 7 14 8 15 12 16 10 17 9 18 11 20 20 22 17 24
REMARK H PARENT 9 19 11 21 20 23 17 25
REMARK Flexibility Score: inf
ROOT
ATOM      1  C   UNL     1      35.921 -77.575  33.426  1.00  0.00     0.138 A 
ATOM      2  C   UNL     1      35.506 -77.404  32.099  1.00  0.00     0.100 A 
ATOM      3  C   UNL     1      36.459 -77.300  31.085  1.00  0.00     0.197 A 
ATOM      4  O   UNL     1      36.056 -77.210  29.896  1.00  0.00    -0.289 OA
ATOM      5  C   UNL     1      37.837 -77.337  31.409  1.00  0.00     0.107 A 
ATOM      6  C   UNL     1      38.897 -77.199  30.463  1.00  0.00     0.134 A 
ATOM      7  C   UNL     1      40.222 -77.368  30.884  1.00  0.00     0.093 A 
ATOM      8  C   UNL     1      40.529 -77.609  32.222  1.00  0.00     0.123 A 
ATOM      9  C   UNL     1      39.502 -77.691  33.165  1.00  0.00     0.094 A 
ATOM     10  C   UNL     1      38.168 -77.561  32.771  1.00  0.00     0.146 A 
ATOM     11  O   UNL     1      37.220 -77.661  33.696  1.00  0.00    -0.456 OA
ENDROOT
BRANCH   1  12
ATOM     12  C   UNL     1      34.950 -77.690  34.543  1.00  0.00     0.021 A 
ATOM     13  C   UNL     1      33.573 -77.621  34.272  1.00  0.00     0.016 A 
ATOM     14  C   UNL     1      32.638 -77.733  35.305  1.00  0.00     0.051 A 
ATOM     15  C   UNL     1      33.061 -77.924  36.623  1.00  0.00     0.157 A 
ATOM     16  C   UNL     1      35.371 -77.896  35.871  1.00  0.00     0.062 A 
ATOM     17  C   UNL     1      34.433 -78.010  36.909  1.00  0.00     0.158 A 
BRANCH  15  18
ATOM     18  O   UNL     1      32.105 -78.031  37.632  1.00  0.00    -0.504 OA
ATOM     19  H   UNL     1      31.208 -78.479  37.479  1.00  0.00     0.293 HD
ENDBRANCH  15  18
BRANCH  17  20
ATOM     20  O   UNL     1      34.860 -78.212  38.221  1.00  0.00    -0.504 OA
ATOM     21  H   UNL     1      34.490 -77.667  38.990  1.00  0.00     0.293 HD
ENDBRANCH  17  20
ENDBRANCH   1  12
BRANCH   6  22
ATOM     22  O   UNL     1      38.707 -76.875  29.117  1.00  0.00    -0.507 OA
ATOM     23  H   UNL     1      38.935 -75.985  28.701  1.00  0.00     0.293 HD
ENDBRANCH   6  22
BRANCH   8  24
ATOM     24  O   UNL     1      41.859 -77.757  32.607  1.00  0.00    -0.508 OA
ATOM     25  H   UNL     1      42.117 -77.915  33.575  1.00  0.00     0.293 HD
ENDBRANCH   8  24
TORSDOF 5
ENDMDL
MODEL 9
REMARK VINA RESULT:    -5.362     14.974     16.521
REMARK INTER + INTRA:          -6.576
REMARK INTER:                  -6.301
REMARK INTRA:                  -0.275
REMARK UNBOUND:                -0.273
REMARK SMILES O=c1cc(-c2ccc(O)c(O)c2)oc2cc(O)cc(O)c12
REMARK SMILES IDX 4 1 3 2 2 3 1 4 21 5 19 6 18 7 16 8 15 9 14 10 13 11 5 12
REMARK SMILES IDX 6 13 7 14 8 15 12 16 10 17 9 18 11 20 20 22 17 24
REMARK H PARENT 9 19 11 21 20 23 17 25
REMARK Flexibility Score: inf
ROOT
ATOM      1  C   UNL     1      36.824 -77.971  37.358  1.00  0.00     0.138 A 
ATOM      2  C   UNL     1      37.389 -77.837  36.083  1.00  0.00     0.100 A 
ATOM      3  C   UNL     1      36.560 -77.816  34.960  1.00  0.00     0.197 A 
ATOM      4  O   UNL     1      37.090 -77.632  33.833  1.00  0.00    -0.289 OA
ATOM      5  C   UNL     1      35.161 -77.962  35.116  1.00  0.00     0.107 A 
ATOM      6  C   UNL     1      34.223 -77.997  34.040  1.00  0.00     0.134 A 
ATOM      7  C   UNL     1      32.852 -78.029  34.322  1.00  0.00     0.093 A 
ATOM      8  C   UNL     1      32.386 -78.088  35.635  1.00  0.00     0.123 A 
ATOM      9  C   UNL     1      33.297 -78.109  36.693  1.00  0.00     0.094 A 
ATOM     10  C   UNL     1      34.670 -78.044  36.446  1.00  0.00     0.146 A 
ATOM     11  O   UNL     1      35.503 -78.051  37.481  1.00  0.00    -0.456 OA
ENDROOT
BRANCH   1  12
ATOM     12  C   UNL     1      37.659 -78.000  38.586  1.00  0.00     0.021 A 
ATOM     13  C   UNL     1      38.431 -76.875  38.925  1.00  0.00     0.016 A 
ATOM     14  C   UNL     1      39.219 -76.875  40.078  1.00  0.00     0.051 A 
ATOM     15  C   UNL     1      39.244 -77.992  40.917  1.00  0.00     0.157 A 
ATOM     16  C   UNL     1      37.677 -79.118  39.441  1.00  0.00     0.062 A 
ATOM     17  C   UNL     1      38.468 -79.118  40.601  1.00  0.00     0.158 A 
BRANCH  15  18
ATOM     18  O   UNL     1      40.042 -77.963  42.061  1.00  0.00    -0.504 OA
ATOM     19  H   UNL     1      40.096 -78.748  42.699  1.00  0.00     0.293 HD
ENDBRANCH  15  18
BRANCH  17  20
ATOM     20  O   UNL     1      38.480 -80.232  41.441  1.00  0.00    -0.504 OA
ATOM     21  H   UNL     1      39.257 -80.420  42.063  1.00  0.00     0.293 HD
ENDBRANCH  17  20
ENDBRANCH   1  12
BRANCH   6  22
ATOM     22  O   UNL     1      34.583 -78.028  32.690  1.00  0.00    -0.507 OA
ATOM     23  H   UNL     1      33.933 -78.100  31.922  1.00  0.00     0.293 HD
ENDBRANCH   6  22
BRANCH   8  24
ATOM     24  O   UNL     1      31.015 -78.133  35.877  1.00  0.00    -0.508 OA
ATOM     25  H   UNL     1      30.347 -78.235  35.121  1.00  0.00     0.293 HD
ENDBRANCH   8  24
TORSDOF 5
ENDMDL
