MODEL 1
REMARK VINA RESULT:    -5.894      0.000      0.000
REMARK INTER + INTRA:          -6.807
REMARK INTER:                  -6.755
REMARK INTRA:                  -0.052
REMARK UNBOUND:                -0.052
REMARK SMILES O=C([O-])c1cc(O)c(O)c(O)c1
REMARK SMILES IDX 4 1 5 2 12 3 6 4 10 5 8 6 2 7 1 8 3 9 7 10 11 12 9 14
REMARK H PARENT 7 11 11 13 9 15
REMARK Flexibility Score: inf
ROOT
ATOM      1  C   UNL     1      33.737  26.539  19.360  1.00  0.00     0.005 A 
ATOM      2  C   UNL     1      33.308  27.580  18.523  1.00  0.00     0.060 A 
ATOM      3  C   UNL     1      33.940  25.262  18.811  1.00  0.00     0.060 A 
ATOM      4  C   UNL     1      33.087  27.352  17.160  1.00  0.00     0.162 A 
ATOM      5  C   UNL     1      33.722  25.021  17.449  1.00  0.00     0.162 A 
ATOM      6  C   UNL     1      33.290  26.077  16.613  1.00  0.00     0.200 A 
ENDROOT
BRANCH   1   7
ATOM      7  C   UNL     1      33.969  26.786  20.802  1.00  0.00     0.072 C 
ATOM      8  O   UNL     1      33.475  27.797  21.366  1.00  0.00    -0.545 OA
ATOM      9  O   UNL     1      34.737  25.902  21.553  1.00  0.00    -0.545 OA
ENDBRANCH   1   7
BRANCH   4  10
ATOM     10  O   UNL     1      32.661  28.393  16.336  1.00  0.00    -0.504 OA
ATOM     11  H   UNL     1      32.299  29.258  16.718  1.00  0.00     0.293 HD
ENDBRANCH   4  10
BRANCH   5  12
ATOM     12  O   UNL     1      33.945  23.726  16.976  1.00  0.00    -0.504 OA
ATOM     13  H   UNL     1      33.220  23.124  16.613  1.00  0.00     0.293 HD
ENDBRANCH   5  12
BRANCH   6  14
ATOM     14  O   UNL     1      33.054  25.905  15.247  1.00  0.00    -0.502 OA
ATOM     15  H   UNL     1      33.027  26.661  14.577  1.00  0.00     0.293 HD
ENDBRANCH   6  14
TORSDOF 4
ENDMDL
MODEL 2
REMARK VINA RESULT:    -5.883      0.167      2.439
REMARK INTER + INTRA:          -6.794
REMARK INTER:                  -6.742
REMARK INTRA:                  -0.052
REMARK UNBOUND:                -0.052
REMARK SMILES O=C([O-])c1cc(O)c(O)c(O)c1
REMARK SMILES IDX 4 1 5 2 12 3 6 4 10 5 8 6 2 7 1 8 3 9 7 10 11 12 9 14
REMARK H PARENT 7 11 11 13 9 15
REMARK Flexibility Score: inf
ROOT
ATOM      1  C   UNL     1      33.773  26.586  19.403  1.00  0.00     0.005 A 
ATOM      2  C   UNL     1      34.006  25.346  18.788  1.00  0.00     0.060 A 
ATOM      3  C   UNL     1      33.292  27.652  18.626  1.00  0.00     0.060 A 
ATOM      4  C   UNL     1      33.763  25.173  17.421  1.00  0.00     0.162 A 
ATOM      5  C   UNL     1      33.044  27.492  17.256  1.00  0.00     0.162 A 
ATOM      6  C   UNL     1      33.283  26.239  16.645  1.00  0.00     0.200 A 
ENDROOT
BRANCH   1   7
ATOM      7  C   UNL     1      34.031  26.763  20.850  1.00  0.00     0.072 C 
ATOM      8  O   UNL     1      33.536  27.738  21.475  1.00  0.00    -0.545 OA
ATOM      9  O   UNL     1      34.825  25.853  21.540  1.00  0.00    -0.545 OA
ENDBRANCH   1   7
BRANCH   4  10
ATOM     10  O   UNL     1      33.998  23.938  16.818  1.00  0.00    -0.504 OA
ATOM     11  H   UNL     1      33.320  23.186  16.867  1.00  0.00     0.293 HD
ENDBRANCH   4  10
BRANCH   5  12
ATOM     12  O   UNL     1      32.568  28.598  16.550  1.00  0.00    -0.504 OA
ATOM     13  H   UNL     1      31.588  28.792  16.396  1.00  0.00     0.293 HD
ENDBRANCH   5  12
BRANCH   6  14
ATOM     14  O   UNL     1      33.058  26.011  15.286  1.00  0.00    -0.502 OA
ATOM     15  H   UNL     1      33.792  25.867  14.606  1.00  0.00     0.293 HD
ENDBRANCH   6  14
TORSDOF 4
ENDMDL
MODEL 3
REMARK VINA RESULT:    -5.810      1.503      4.683
REMARK INTER + INTRA:          -6.711
REMARK INTER:                  -6.663
REMARK INTRA:                  -0.048
REMARK UNBOUND:                -0.052
REMARK SMILES O=C([O-])c1cc(O)c(O)c(O)c1
REMARK SMILES IDX 4 1 5 2 12 3 6 4 10 5 8 6 2 7 1 8 3 9 7 10 11 12 9 14
REMARK H PARENT 7 11 11 13 9 15
REMARK Flexibility Score: inf
ROOT
ATOM      1  C   UNL     1      33.661  25.445  18.658  1.00  0.00     0.005 A 
ATOM      2  C   UNL     1      34.577  25.267  19.705  1.00  0.00     0.060 A 
ATOM      3  C   UNL     1      32.784  26.542  18.699  1.00  0.00     0.060 A 
ATOM      4  C   UNL     1      34.620  26.168  20.775  1.00  0.00     0.162 A 
ATOM      5  C   UNL     1      32.816  27.451  19.763  1.00  0.00     0.162 A 
ATOM      6  C   UNL     1      33.744  27.263  20.815  1.00  0.00     0.200 A 
ENDROOT
BRANCH   1   7
ATOM      7  C   UNL     1      33.620  24.489  17.528  1.00  0.00     0.072 C 
ATOM      8  O   UNL     1      33.659  24.900  16.338  1.00  0.00    -0.545 OA
ATOM      9  O   UNL     1      33.541  23.121  17.766  1.00  0.00    -0.545 OA
ENDBRANCH   1   7
BRANCH   4  10
ATOM     10  O   UNL     1      35.534  25.983  21.811  1.00  0.00    -0.504 OA
ATOM     11  H   UNL     1      36.511  26.230  21.707  1.00  0.00     0.293 HD
ENDBRANCH   4  10
BRANCH   5  12
ATOM     12  O   UNL     1      31.914  28.517  19.734  1.00  0.00    -0.504 OA
ATOM     13  H   UNL     1      31.079  28.566  20.301  1.00  0.00     0.293 HD
ENDBRANCH   5  12
BRANCH   6  14
ATOM     14  O   UNL     1      33.829  28.131  21.906  1.00  0.00    -0.502 OA
ATOM     15  H   UNL     1      33.038  28.617  22.306  1.00  0.00     0.293 HD
ENDBRANCH   6  14
TORSDOF 4
ENDMDL
MODEL 4
REMARK VINA RESULT:    -5.777      1.224      4.501
REMARK INTER + INTRA:          -6.673
REMARK INTER:                  -6.621
REMARK INTRA:                  -0.053
REMARK UNBOUND:                -0.052
REMARK SMILES O=C([O-])c1cc(O)c(O)c(O)c1
REMARK SMILES IDX 4 1 5 2 12 3 6 4 10 5 8 6 2 7 1 8 3 9 7 10 11 12 9 14
REMARK H PARENT 7 11 11 13 9 15
REMARK Flexibility Score: inf
ROOT
ATOM      1  C   UNL     1      33.238  26.497  16.761  1.00  0.00     0.005 A 
ATOM      2  C   UNL     1      33.406  25.124  16.521  1.00  0.00     0.060 A 
ATOM      3  C   UNL     1      33.480  26.997  18.051  1.00  0.00     0.060 A 
ATOM      4  C   UNL     1      33.808  24.265  17.551  1.00  0.00     0.162 A 
ATOM      5  C   UNL     1      33.884  26.149  19.090  1.00  0.00     0.162 A 
ATOM      6  C   UNL     1      34.050  24.767  18.838  1.00  0.00     0.200 A 
ENDROOT
BRANCH   1   7
ATOM      7  C   UNL     1      32.812  27.400  15.669  1.00  0.00     0.072 C 
ATOM      8  O   UNL     1      32.408  26.932  14.571  1.00  0.00    -0.545 OA
ATOM      9  O   UNL     1      32.850  28.779  15.840  1.00  0.00    -0.545 OA
ENDBRANCH   1   7
BRANCH   4  10
ATOM     10  O   UNL     1      33.972  22.903  17.303  1.00  0.00    -0.504 OA
ATOM     11  H   UNL     1      34.721  22.557  16.714  1.00  0.00     0.293 HD
ENDBRANCH   4  10
BRANCH   5  12
ATOM     12  O   UNL     1      34.105  26.720  20.345  1.00  0.00    -0.504 OA
ATOM     13  H   UNL     1      34.358  27.687  20.489  1.00  0.00     0.293 HD
ENDBRANCH   5  12
BRANCH   6  14
ATOM     14  O   UNL     1      34.450  23.866  19.828  1.00  0.00    -0.502 OA
ATOM     15  H   UNL     1      34.167  23.927  20.796  1.00  0.00     0.293 HD
ENDBRANCH   6  14
TORSDOF 4
ENDMDL
MODEL 5
REMARK VINA RESULT:    -5.748      1.549      3.040
REMARK INTER + INTRA:          -6.640
REMARK INTER:                  -6.589
REMARK INTRA:                  -0.051
REMARK UNBOUND:                -0.052
REMARK SMILES O=C([O-])c1cc(O)c(O)c(O)c1
REMARK SMILES IDX 4 1 5 2 12 3 6 4 10 5 8 6 2 7 1 8 3 9 7 10 11 12 9 14
REMARK H PARENT 7 11 11 13 9 15
REMARK Flexibility Score: inf
ROOT
ATOM      1  C   UNL     1      33.536  25.810  17.846  1.00  0.00     0.005 A 
ATOM      2  C   UNL     1      33.309  26.946  18.637  1.00  0.00     0.060 A 
ATOM      3  C   UNL     1      33.377  25.906  16.454  1.00  0.00     0.060 A 
ATOM      4  C   UNL     1      32.931  28.159  18.050  1.00  0.00     0.162 A 
ATOM      5  C   UNL     1      32.999  27.113  15.853  1.00  0.00     0.162 A 
ATOM      6  C   UNL     1      32.773  28.254  16.659  1.00  0.00     0.200 A 
ENDROOT
BRANCH   1   7
ATOM      7  C   UNL     1      33.936  24.530  18.474  1.00  0.00     0.072 C 
ATOM      8  O   UNL     1      34.586  24.521  19.553  1.00  0.00    -0.545 OA
ATOM      9  O   UNL     1      33.596  23.319  17.881  1.00  0.00    -0.545 OA
ENDBRANCH   1   7
BRANCH   4  10
ATOM     10  O   UNL     1      32.708  29.283  18.843  1.00  0.00    -0.504 OA
ATOM     11  H   UNL     1      33.475  29.824  19.226  1.00  0.00     0.293 HD
ENDBRANCH   4  10
BRANCH   5  12
ATOM     12  O   UNL     1      32.861  27.131  14.464  1.00  0.00    -0.504 OA
ATOM     13  H   UNL     1      32.146  27.649  13.973  1.00  0.00     0.293 HD
ENDBRANCH   5  12
BRANCH   6  14
ATOM     14  O   UNL     1      32.394  29.488  16.125  1.00  0.00    -0.502 OA
ATOM     15  H   UNL     1      31.748  30.123  16.571  1.00  0.00     0.293 HD
ENDBRANCH   6  14
TORSDOF 4
ENDMDL
MODEL 6
REMARK VINA RESULT:    -5.726      1.505      3.311
REMARK INTER + INTRA:          -6.615
REMARK INTER:                  -6.564
REMARK INTRA:                  -0.051
REMARK UNBOUND:                -0.052
REMARK SMILES O=C([O-])c1cc(O)c(O)c(O)c1
REMARK SMILES IDX 4 1 5 2 12 3 6 4 10 5 8 6 2 7 1 8 3 9 7 10 11 12 9 14
REMARK H PARENT 7 11 11 13 9 15
REMARK Flexibility Score: inf
ROOT
ATOM      1  C   UNL     1      33.563  25.756  17.887  1.00  0.00     0.005 A 
ATOM      2  C   UNL     1      33.395  25.869  16.499  1.00  0.00     0.060 A 
ATOM      3  C   UNL     1      33.347  26.886  18.694  1.00  0.00     0.060 A 
ATOM      4  C   UNL     1      33.018  27.089  15.924  1.00  0.00     0.162 A 
ATOM      5  C   UNL     1      32.968  28.111  18.132  1.00  0.00     0.162 A 
ATOM      6  C   UNL     1      32.802  28.216  16.731  1.00  0.00     0.200 A 
ENDROOT
BRANCH   1   7
ATOM      7  C   UNL     1      33.963  24.464  18.489  1.00  0.00     0.072 C 
ATOM      8  O   UNL     1      34.595  24.433  19.578  1.00  0.00    -0.545 OA
ATOM      9  O   UNL     1      33.643  23.266  17.860  1.00  0.00    -0.545 OA
ENDBRANCH   1   7
BRANCH   4  10
ATOM     10  O   UNL     1      32.854  27.192  14.543  1.00  0.00    -0.504 OA
ATOM     11  H   UNL     1      32.272  27.912  14.131  1.00  0.00     0.293 HD
ENDBRANCH   4  10
BRANCH   5  12
ATOM     12  O   UNL     1      32.772  29.189  18.998  1.00  0.00    -0.504 OA
ATOM     13  H   UNL     1      32.286  30.037  18.743  1.00  0.00     0.293 HD
ENDBRANCH   5  12
BRANCH   6  14
ATOM     14  O   UNL     1      32.427  29.407  16.106  1.00  0.00    -0.502 OA
ATOM     15  H   UNL     1      32.257  30.274  16.595  1.00  0.00     0.293 HD
ENDBRANCH   6  14
TORSDOF 4
ENDMDL
MODEL 7
REMARK VINA RESULT:    -5.705      1.312      4.208
REMARK INTER + INTRA:          -6.591
REMARK INTER:                  -6.541
REMARK INTRA:                  -0.050
REMARK UNBOUND:                -0.052
REMARK SMILES O=C([O-])c1cc(O)c(O)c(O)c1
REMARK SMILES IDX 4 1 5 2 12 3 6 4 10 5 8 6 2 7 1 8 3 9 7 10 11 12 9 14
REMARK H PARENT 7 11 11 13 9 15
REMARK Flexibility Score: inf
ROOT
ATOM      1  C   UNL     1      33.645  25.591  18.422  1.00  0.00     0.005 A 
ATOM      2  C   UNL     1      32.866  26.757  18.457  1.00  0.00     0.060 A 
ATOM      3  C   UNL     1      34.443  25.271  19.533  1.00  0.00     0.060 A 
ATOM      4  C   UNL     1      32.881  27.590  19.582  1.00  0.00     0.162 A 
ATOM      5  C   UNL     1      34.468  26.095  20.664  1.00  0.00     0.162 A 
ATOM      6  C   UNL     1      33.679  27.270  20.690  1.00  0.00     0.200 A 
ENDROOT
BRANCH   1   7
ATOM      7  C   UNL     1      33.624  24.713  17.230  1.00  0.00     0.072 C 
ATOM      8  O   UNL     1      33.676  23.461  17.355  1.00  0.00    -0.545 OA
ATOM      9  O   UNL     1      33.546  25.261  15.954  1.00  0.00    -0.545 OA
ENDBRANCH   1   7
BRANCH   4  10
ATOM     10  O   UNL     1      32.104  28.747  19.608  1.00  0.00    -0.504 OA
ATOM     11  H   UNL     1      32.341  29.532  20.204  1.00  0.00     0.293 HD
ENDBRANCH   4  10
BRANCH   5  12
ATOM     12  O   UNL     1      35.286  25.712  21.729  1.00  0.00    -0.504 OA
ATOM     13  H   UNL     1      35.677  26.356  22.402  1.00  0.00     0.293 HD
ENDBRANCH   5  12
BRANCH   6  14
ATOM     14  O   UNL     1      33.657  28.136  21.786  1.00  0.00    -0.502 OA
ATOM     15  H   UNL     1      33.094  28.973  21.834  1.00  0.00     0.293 HD
ENDBRANCH   6  14
TORSDOF 4
ENDMDL
MODEL 8
REMARK VINA RESULT:    -5.542      1.231      3.696
REMARK INTER + INTRA:          -6.404
REMARK INTER:                  -6.354
REMARK INTRA:                  -0.050
REMARK UNBOUND:                -0.052
REMARK SMILES O=C([O-])c1cc(O)c(O)c(O)c1
REMARK SMILES IDX 4 1 5 2 12 3 6 4 10 5 8 6 2 7 1 8 3 9 7 10 11 12 9 14
REMARK H PARENT 7 11 11 13 9 15
REMARK Flexibility Score: inf
ROOT
ATOM      1  C   UNL     1      33.099  27.555  18.174  1.00  0.00     0.005 A 
ATOM      2  C   UNL     1      33.453  27.549  19.531  1.00  0.00     0.060 A 
ATOM      3  C   UNL     1      33.318  26.399  17.407  1.00  0.00     0.060 A 
ATOM      4  C   UNL     1      34.018  26.408  20.115  1.00  0.00     0.162 A 
ATOM      5  C   UNL     1      33.881  25.251  17.978  1.00  0.00     0.162 A 
ATOM      6  C   UNL     1      34.236  25.254  19.347  1.00  0.00     0.200 A 
ENDROOT
BRANCH   1   7
ATOM      7  C   UNL     1      32.503  28.765  17.563  1.00  0.00     0.072 C 
ATOM      8  O   UNL     1      31.734  29.507  18.229  1.00  0.00    -0.545 OA
ATOM      9  O   UNL     1      32.786  29.099  16.243  1.00  0.00    -0.545 OA
ENDBRANCH   1   7
BRANCH   4  10
ATOM     10  O   UNL     1      34.367  26.411  21.464  1.00  0.00    -0.504 OA
ATOM     11  H   UNL     1      34.112  25.647  22.080  1.00  0.00     0.293 HD
ENDBRANCH   4  10
BRANCH   5  12
ATOM     12  O   UNL     1      34.069  24.141  17.152  1.00  0.00    -0.504 OA
ATOM     13  H   UNL     1      34.786  23.444  17.296  1.00  0.00     0.293 HD
ENDBRANCH   5  12
BRANCH   6  14
ATOM     14  O   UNL     1      34.801  24.144  19.980  1.00  0.00    -0.502 OA
ATOM     15  H   UNL     1      34.840  23.220  19.573  1.00  0.00     0.293 HD
ENDBRANCH   6  14
TORSDOF 4
ENDMDL
MODEL 9
REMARK VINA RESULT:    -5.518      1.380      2.554
REMARK INTER + INTRA:          -6.376
REMARK INTER:                  -6.326
REMARK INTRA:                  -0.050
REMARK UNBOUND:                -0.052
REMARK SMILES O=C([O-])c1cc(O)c(O)c(O)c1
REMARK SMILES IDX 4 1 5 2 12 3 6 4 10 5 8 6 2 7 1 8 3 9 7 10 11 12 9 14
REMARK H PARENT 7 11 11 13 9 15
REMARK Flexibility Score: inf
ROOT
ATOM      1  C   UNL     1      33.123  27.789  18.588  1.00  0.00     0.005 A 
ATOM      2  C   UNL     1      32.928  27.595  17.213  1.00  0.00     0.060 A 
ATOM      3  C   UNL     1      33.644  26.736  19.358  1.00  0.00     0.060 A 
ATOM      4  C   UNL     1      33.247  26.370  16.614  1.00  0.00     0.162 A 
ATOM      5  C   UNL     1      33.968  25.506  18.772  1.00  0.00     0.162 A 
ATOM      6  C   UNL     1      33.767  25.319  17.384  1.00  0.00     0.200 A 
ENDROOT
BRANCH   1   7
ATOM      7  C   UNL     1      32.783  29.086  19.216  1.00  0.00     0.072 C 
ATOM      8  O   UNL     1      33.464  29.531  20.178  1.00  0.00    -0.545 OA
ATOM      9  O   UNL     1      31.707  29.833  18.750  1.00  0.00    -0.545 OA
ENDBRANCH   1   7
BRANCH   4  10
ATOM     10  O   UNL     1      33.050  26.186  15.247  1.00  0.00    -0.504 OA
ATOM     11  H   UNL     1      32.135  25.969  14.867  1.00  0.00     0.293 HD
ENDBRANCH   4  10
BRANCH   5  12
ATOM     12  O   UNL     1      34.481  24.507  19.602  1.00  0.00    -0.504 OA
ATOM     13  H   UNL     1      34.060  24.227  20.477  1.00  0.00     0.293 HD
ENDBRANCH   5  12
BRANCH   6  14
ATOM     14  O   UNL     1      34.069  24.119  16.737  1.00  0.00    -0.502 OA
ATOM     15  H   UNL     1      34.089  24.007  15.733  1.00  0.00     0.293 HD
ENDBRANCH   6  14
TORSDOF 4
ENDMDL
