MODEL 1
REMARK VINA RESULT:    -3.077      0.000      0.000
REMARK INTER + INTRA:         -10.782
REMARK INTER:                  -7.034
REMARK INTRA:                  -3.748
REMARK UNBOUND:                -3.748
REMARK SMILES CCCCCCCCCCCCCCCCCCCCCCCC(=O)[O-]
REMARK SMILES IDX 13 1 14 2 15 3 16 4 17 5 18 6 19 7 20 8 21 9 22 10 23 11
REMARK SMILES IDX 24 12 25 13 26 14 12 15 11 16 10 17 9 18 8 19 7 20 6 21 5 22
REMARK SMILES IDX 4 23 3 24 2 25 1 26
REMARK H PARENT
REMARK Flexibility Score: inf
ROOT
ATOM      1  C   UNL     1     -22.379   1.908   9.119  1.00  0.00     0.000 C 
ENDROOT
BRANCH   1   2
ATOM      2  C   UNL     1     -21.068   1.459   8.453  1.00  0.00     0.000 C 
BRANCH   2   3
ATOM      3  C   UNL     1     -19.919   1.318   9.475  1.00  0.00     0.000 C 
BRANCH   3   4
ATOM      4  C   UNL     1     -18.681   2.169   9.141  1.00  0.00     0.000 C 
BRANCH   4   5
ATOM      5  C   UNL     1     -18.488   3.351  10.101  1.00  0.00     0.000 C 
BRANCH   5   6
ATOM      6  C   UNL     1     -18.612   4.717   9.404  1.00  0.00     0.000 C 
BRANCH   6   7
ATOM      7  C   UNL     1     -19.978   4.949   8.726  1.00  0.00     0.000 C 
BRANCH   7   8
ATOM      8  C   UNL     1     -20.320   6.445   8.607  1.00  0.00     0.000 C 
BRANCH   8   9
ATOM      9  C   UNL     1     -19.197   7.268   7.951  1.00  0.00     0.000 C 
BRANCH   9  10
ATOM     10  C   UNL     1     -19.382   7.538   6.446  1.00  0.00     0.006 C 
BRANCH  10  11
ATOM     11  C   UNL     1     -18.563   6.591   5.560  1.00  0.00     0.053 C 
BRANCH  11  12
ATOM     12  C   UNL     1     -19.449   5.561   4.937  1.00  0.00     0.041 C 
ATOM     13  O   UNL     1     -19.422   4.372   5.348  1.00  0.00    -0.550 OA
ATOM     14  O   UNL     1     -20.328   5.920   3.923  1.00  0.00    -0.550 OA
ENDBRANCH  11  12
ENDBRANCH  10  11
ENDBRANCH   9  10
ENDBRANCH   8   9
ENDBRANCH   7   8
ENDBRANCH   6   7
ENDBRANCH   5   6
ENDBRANCH   4   5
ENDBRANCH   3   4
ENDBRANCH   2   3
ENDBRANCH   1   2
BRANCH   1  15
ATOM     15  C   UNL     1     -22.295   1.922  10.653  1.00  0.00     0.000 C 
BRANCH  15  16
ATOM     16  C   UNL     1     -22.344   3.342  11.235  1.00  0.00     0.000 C 
BRANCH  16  17
ATOM     17  C   UNL     1     -21.997   3.339  12.730  1.00  0.00     0.000 C 
BRANCH  17  18
ATOM     18  C   UNL     1     -20.889   4.359  13.037  1.00  0.00    -0.000 C 
BRANCH  18  19
ATOM     19  C   UNL     1     -20.913   5.565  12.085  1.00  0.00    -0.000 C 
BRANCH  19  20
ATOM     20  C   UNL     1     -20.441   6.864  12.764  1.00  0.00    -0.000 C 
BRANCH  20  21
ATOM     21  C   UNL     1     -21.383   8.048  12.496  1.00  0.00    -0.000 C 
BRANCH  21  22
ATOM     22  C   UNL     1     -22.297   7.816  11.280  1.00  0.00    -0.000 C 
BRANCH  22  23
ATOM     23  C   UNL     1     -23.794   7.891  11.655  1.00  0.00    -0.000 C 
BRANCH  23  24
ATOM     24  C   UNL     1     -24.201   6.900  12.763  1.00  0.00    -0.000 C 
BRANCH  24  25
ATOM     25  C   UNL     1     -24.935   5.645  12.260  1.00  0.00    -0.003 C 
ATOM     26  C   UNL     1     -26.430   5.877  12.047  1.00  0.00     0.004 C 
ENDBRANCH  24  25
ENDBRANCH  23  24
ENDBRANCH  22  23
ENDBRANCH  21  22
ENDBRANCH  20  21
ENDBRANCH  19  20
ENDBRANCH  18  19
ENDBRANCH  17  18
ENDBRANCH  16  17
ENDBRANCH  15  16
ENDBRANCH   1  15
TORSDOF 22
ENDMDL
MODEL 2
REMARK VINA RESULT:    -2.873     11.412     14.410
REMARK INTER + INTRA:         -10.316
REMARK INTER:                  -8.567
REMARK INTRA:                  -1.748
REMARK UNBOUND:                -3.748
REMARK SMILES CCCCCCCCCCCCCCCCCCCCCCCC(=O)[O-]
REMARK SMILES IDX 13 1 14 2 15 3 16 4 17 5 18 6 19 7 20 8 21 9 22 10 23 11
REMARK SMILES IDX 24 12 25 13 26 14 12 15 11 16 10 17 9 18 8 19 7 20 6 21 5 22
REMARK SMILES IDX 4 23 3 24 2 25 1 26
REMARK H PARENT
REMARK Flexibility Score: inf
ROOT
ATOM      1  C   UNL     1     -18.236   0.955  -4.869  1.00  0.00     0.000 C 
ENDROOT
BRANCH   1   2
ATOM      2  C   UNL     1     -18.338  -0.391  -4.134  1.00  0.00     0.000 C 
BRANCH   2   3
ATOM      3  C   UNL     1     -19.746  -0.625  -3.546  1.00  0.00     0.000 C 
BRANCH   3   4
ATOM      4  C   UNL     1     -20.032  -2.091  -3.179  1.00  0.00     0.000 C 
BRANCH   4   5
ATOM      5  C   UNL     1     -20.583  -2.259  -1.756  1.00  0.00     0.000 C 
BRANCH   5   6
ATOM      6  C   UNL     1     -19.608  -2.985  -0.814  1.00  0.00     0.000 C 
BRANCH   6   7
ATOM      7  C   UNL     1     -19.926  -2.792   0.683  1.00  0.00     0.000 C 
BRANCH   7   8
ATOM      8  C   UNL     1     -19.474  -3.993   1.532  1.00  0.00     0.000 C 
BRANCH   8   9
ATOM      9  C   UNL     1     -19.030  -5.197   0.681  1.00  0.00     0.000 C 
BRANCH   9  10
ATOM     10  C   UNL     1     -18.914  -6.528   1.448  1.00  0.00     0.006 C 
BRANCH  10  11
ATOM     11  C   UNL     1     -20.055  -7.504   1.133  1.00  0.00     0.053 C 
BRANCH  11  12
ATOM     12  C   UNL     1     -21.031  -7.550   2.265  1.00  0.00     0.041 C 
ATOM     13  O   UNL     1     -21.956  -8.404   2.268  1.00  0.00    -0.550 OA
ATOM     14  O   UNL     1     -20.900  -6.670   3.332  1.00  0.00    -0.550 OA
ENDBRANCH  11  12
ENDBRANCH  10  11
ENDBRANCH   9  10
ENDBRANCH   8   9
ENDBRANCH   7   8
ENDBRANCH   6   7
ENDBRANCH   5   6
ENDBRANCH   4   5
ENDBRANCH   3   4
ENDBRANCH   2   3
ENDBRANCH   1   2
BRANCH   1  15
ATOM     15  C   UNL     1     -17.962   2.133  -3.922  1.00  0.00     0.000 C 
BRANCH  15  16
ATOM     16  C   UNL     1     -19.022   3.239  -4.032  1.00  0.00     0.000 C 
BRANCH  16  17
ATOM     17  C   UNL     1     -18.368   4.613  -4.228  1.00  0.00     0.000 C 
BRANCH  17  18
ATOM     18  C   UNL     1     -19.360   5.608  -4.853  1.00  0.00    -0.000 C 
BRANCH  18  19
ATOM     19  C   UNL     1     -18.838   7.053  -4.843  1.00  0.00    -0.000 C 
BRANCH  19  20
ATOM     20  C   UNL     1     -19.865   8.049  -4.274  1.00  0.00    -0.000 C 
BRANCH  20  21
ATOM     21  C   UNL     1     -20.813   7.403  -3.252  1.00  0.00    -0.000 C 
BRANCH  21  22
ATOM     22  C   UNL     1     -20.366   7.637  -1.798  1.00  0.00    -0.000 C 
BRANCH  22  23
ATOM     23  C   UNL     1     -20.668   6.420  -0.895  1.00  0.00    -0.000 C 
BRANCH  23  24
ATOM     24  C   UNL     1     -21.098   5.164  -1.678  1.00  0.00    -0.000 C 
BRANCH  24  25
ATOM     25  C   UNL     1     -22.469   4.597  -1.275  1.00  0.00    -0.003 C 
ATOM     26  C   UNL     1     -23.542   5.677  -1.141  1.00  0.00     0.004 C 
ENDBRANCH  24  25
ENDBRANCH  23  24
ENDBRANCH  22  23
ENDBRANCH  21  22
ENDBRANCH  20  21
ENDBRANCH  19  20
ENDBRANCH  18  19
ENDBRANCH  17  18
ENDBRANCH  16  17
ENDBRANCH  15  16
ENDBRANCH   1  15
TORSDOF 22
ENDMDL
MODEL 3
REMARK VINA RESULT:    -2.682      1.404      2.831
REMARK INTER + INTRA:          -9.879
REMARK INTER:                  -6.627
REMARK INTRA:                  -3.252
REMARK UNBOUND:                -3.748
REMARK SMILES CCCCCCCCCCCCCCCCCCCCCCCC(=O)[O-]
REMARK SMILES IDX 13 1 14 2 15 3 16 4 17 5 18 6 19 7 20 8 21 9 22 10 23 11
REMARK SMILES IDX 24 12 25 13 26 14 12 15 11 16 10 17 9 18 8 19 7 20 6 21 5 22
REMARK SMILES IDX 4 23 3 24 2 25 1 26
REMARK H PARENT
REMARK Flexibility Score: inf
ROOT
ATOM      1  C   UNL     1     -22.289   1.726   9.061  1.00  0.00     0.000 C 
ENDROOT
BRANCH   1   2
ATOM      2  C   UNL     1     -21.083   2.215   8.241  1.00  0.00     0.000 C 
BRANCH   2   3
ATOM      3  C   UNL     1     -19.793   2.275   9.087  1.00  0.00     0.000 C 
BRANCH   3   4
ATOM      4  C   UNL     1     -18.697   3.172   8.487  1.00  0.00     0.000 C 
BRANCH   4   5
ATOM      5  C   UNL     1     -18.843   3.369   6.972  1.00  0.00     0.000 C 
BRANCH   5   6
ATOM      6  C   UNL     1     -19.370   4.764   6.594  1.00  0.00     0.000 C 
BRANCH   6   7
ATOM      7  C   UNL     1     -18.329   5.890   6.763  1.00  0.00     0.000 C 
BRANCH   7   8
ATOM      8  C   UNL     1     -18.979   7.284   6.782  1.00  0.00     0.000 C 
BRANCH   8   9
ATOM      9  C   UNL     1     -18.648   8.119   5.531  1.00  0.00     0.000 C 
BRANCH   9  10
ATOM     10  C   UNL     1     -18.062   7.321   4.352  1.00  0.00     0.006 C 
BRANCH  10  11
ATOM     11  C   UNL     1     -18.722   7.660   3.009  1.00  0.00     0.053 C 
BRANCH  11  12
ATOM     12  C   UNL     1     -19.719   6.609   2.637  1.00  0.00     0.041 C 
ATOM     13  O   UNL     1     -19.758   6.162   1.461  1.00  0.00    -0.550 OA
ATOM     14  O   UNL     1     -20.585   6.101   3.597  1.00  0.00    -0.550 OA
ENDBRANCH  11  12
ENDBRANCH  10  11
ENDBRANCH   9  10
ENDBRANCH   8   9
ENDBRANCH   7   8
ENDBRANCH   6   7
ENDBRANCH   5   6
ENDBRANCH   4   5
ENDBRANCH   3   4
ENDBRANCH   2   3
ENDBRANCH   1   2
BRANCH   1  15
ATOM     15  C   UNL     1     -22.085   1.889  10.575  1.00  0.00     0.000 C 
BRANCH  15  16
ATOM     16  C   UNL     1     -22.724   3.173  11.124  1.00  0.00     0.000 C 
BRANCH  16  17
ATOM     17  C   UNL     1     -22.182   3.507  12.520  1.00  0.00     0.000 C 
BRANCH  17  18
ATOM     18  C   UNL     1     -22.930   4.706  13.125  1.00  0.00    -0.000 C 
BRANCH  18  19
ATOM     19  C   UNL     1     -24.095   5.185  12.245  1.00  0.00    -0.000 C 
BRANCH  19  20
ATOM     20  C   UNL     1     -24.463   6.658  12.499  1.00  0.00    -0.000 C 
BRANCH  20  21
ATOM     21  C   UNL     1     -23.547   7.636  11.746  1.00  0.00    -0.000 C 
BRANCH  21  22
ATOM     22  C   UNL     1     -22.270   7.980  12.535  1.00  0.00    -0.000 C 
BRANCH  22  23
ATOM     23  C   UNL     1     -21.015   7.981  11.636  1.00  0.00    -0.000 C 
BRANCH  23  24
ATOM     24  C   UNL     1     -20.042   6.824  11.936  1.00  0.00    -0.000 C 
BRANCH  24  25
ATOM     25  C   UNL     1     -19.887   5.806  10.794  1.00  0.00    -0.003 C 
ATOM     26  C   UNL     1     -20.907   6.010   9.675  1.00  0.00     0.004 C 
ENDBRANCH  24  25
ENDBRANCH  23  24
ENDBRANCH  22  23
ENDBRANCH  21  22
ENDBRANCH  20  21
ENDBRANCH  19  20
ENDBRANCH  18  19
ENDBRANCH  17  18
ENDBRANCH  16  17
ENDBRANCH  15  16
ENDBRANCH   1  15
TORSDOF 22
ENDMDL
MODEL 4
REMARK VINA RESULT:    -2.655      3.390      8.416
REMARK INTER + INTRA:          -9.817
REMARK INTER:                  -7.565
REMARK INTRA:                  -2.252
REMARK UNBOUND:                -3.748
REMARK SMILES CCCCCCCCCCCCCCCCCCCCCCCC(=O)[O-]
REMARK SMILES IDX 13 1 14 2 15 3 16 4 17 5 18 6 19 7 20 8 21 9 22 10 23 11
REMARK SMILES IDX 24 12 25 13 26 14 12 15 11 16 10 17 9 18 8 19 7 20 6 21 5 22
REMARK SMILES IDX 4 23 3 24 2 25 1 26
REMARK H PARENT
REMARK Flexibility Score: inf
ROOT
ATOM      1  C   UNL     1     -20.480   6.209   9.001  1.00  0.00     0.000 C 
ENDROOT
BRANCH   1   2
ATOM      2  C   UNL     1     -19.732   6.476  10.317  1.00  0.00     0.000 C 
BRANCH   2   3
ATOM      3  C   UNL     1     -20.613   7.224  11.342  1.00  0.00     0.000 C 
BRANCH   3   4
ATOM      4  C   UNL     1     -22.080   7.380  10.905  1.00  0.00     0.000 C 
BRANCH   4   5
ATOM      5  C   UNL     1     -23.079   7.024  12.015  1.00  0.00     0.000 C 
BRANCH   5   6
ATOM      6  C   UNL     1     -22.483   6.092  13.084  1.00  0.00     0.000 C 
BRANCH   6   7
ATOM      7  C   UNL     1     -22.864   4.608  12.900  1.00  0.00     0.000 C 
BRANCH   7   8
ATOM      8  C   UNL     1     -21.666   3.670  13.125  1.00  0.00     0.000 C 
BRANCH   8   9
ATOM      9  C   UNL     1     -20.898   3.354  11.829  1.00  0.00     0.000 C 
BRANCH   9  10
ATOM     10  C   UNL     1     -21.774   3.205  10.572  1.00  0.00     0.006 C 
BRANCH  10  11
ATOM     11  C   UNL     1     -22.329   1.785  10.390  1.00  0.00     0.053 C 
BRANCH  11  12
ATOM     12  C   UNL     1     -21.957   1.247   9.046  1.00  0.00     0.041 C 
ATOM     13  O   UNL     1     -20.826   0.726   8.864  1.00  0.00    -0.550 OA
ATOM     14  O   UNL     1     -22.871   1.293   8.001  1.00  0.00    -0.550 OA
ENDBRANCH  11  12
ENDBRANCH  10  11
ENDBRANCH   9  10
ENDBRANCH   8   9
ENDBRANCH   7   8
ENDBRANCH   6   7
ENDBRANCH   5   6
ENDBRANCH   4   5
ENDBRANCH   3   4
ENDBRANCH   2   3
ENDBRANCH   1   2
BRANCH   1  15
ATOM     15  C   UNL     1     -19.744   5.217   8.087  1.00  0.00     0.000 C 
BRANCH  15  16
ATOM     16  C   UNL     1     -19.098   5.900   6.873  1.00  0.00     0.000 C 
BRANCH  16  17
ATOM     17  C   UNL     1     -18.957   4.922   5.699  1.00  0.00     0.000 C 
BRANCH  17  18
ATOM     18  C   UNL     1     -19.651   5.471   4.442  1.00  0.00    -0.000 C 
BRANCH  18  19
ATOM     19  C   UNL     1     -19.610   7.005   4.363  1.00  0.00    -0.000 C 
BRANCH  19  20
ATOM     20  C   UNL     1     -20.703   7.580   3.443  1.00  0.00    -0.000 C 
BRANCH  20  21
ATOM     21  C   UNL     1     -21.215   6.554   2.420  1.00  0.00    -0.000 C 
BRANCH  21  22
ATOM     22  C   UNL     1     -21.031   7.023   0.966  1.00  0.00    -0.000 C 
BRANCH  22  23
ATOM     23  C   UNL     1     -20.981   5.839  -0.025  1.00  0.00    -0.000 C 
BRANCH  23  24
ATOM     24  C   UNL     1     -22.370   5.268  -0.371  1.00  0.00    -0.000 C 
BRANCH  24  25
ATOM     25  C   UNL     1     -22.540   4.843  -1.839  1.00  0.00    -0.003 C 
ATOM     26  C   UNL     1     -21.214   4.493  -2.513  1.00  0.00     0.004 C 
ENDBRANCH  24  25
ENDBRANCH  23  24
ENDBRANCH  22  23
ENDBRANCH  21  22
ENDBRANCH  20  21
ENDBRANCH  19  20
ENDBRANCH  18  19
ENDBRANCH  17  18
ENDBRANCH  16  17
ENDBRANCH  15  16
ENDBRANCH   1  15
TORSDOF 22
ENDMDL
MODEL 5
REMARK VINA RESULT:    -2.646      2.926      4.656
REMARK INTER + INTRA:          -9.796
REMARK INTER:                  -7.713
REMARK INTRA:                  -2.084
REMARK UNBOUND:                -3.748
REMARK SMILES CCCCCCCCCCCCCCCCCCCCCCCC(=O)[O-]
REMARK SMILES IDX 13 1 14 2 15 3 16 4 17 5 18 6 19 7 20 8 21 9 22 10 23 11
REMARK SMILES IDX 24 12 25 13 26 14 12 15 11 16 10 17 9 18 8 19 7 20 6 21 5 22
REMARK SMILES IDX 4 23 3 24 2 25 1 26
REMARK H PARENT
REMARK Flexibility Score: inf
ROOT
ATOM      1  C   UNL     1     -20.474   3.921   8.851  1.00  0.00     0.000 C 
ENDROOT
BRANCH   1   2
ATOM      2  C   UNL     1     -19.371   4.500   7.949  1.00  0.00     0.000 C 
BRANCH   2   3
ATOM      3  C   UNL     1     -19.245   3.725   6.619  1.00  0.00     0.000 C 
BRANCH   3   4
ATOM      4  C   UNL     1     -18.522   4.507   5.509  1.00  0.00     0.000 C 
BRANCH   4   5
ATOM      5  C   UNL     1     -18.499   6.022   5.759  1.00  0.00     0.000 C 
BRANCH   5   6
ATOM      6  C   UNL     1     -19.245   6.822   4.678  1.00  0.00     0.000 C 
BRANCH   6   7
ATOM      7  C   UNL     1     -19.948   5.940   3.624  1.00  0.00     0.000 C 
BRANCH   7   8
ATOM      8  C   UNL     1     -21.247   6.580   3.105  1.00  0.00     0.000 C 
BRANCH   8   9
ATOM      9  C   UNL     1     -21.081   7.245   1.727  1.00  0.00     0.000 C 
BRANCH   9  10
ATOM     10  C   UNL     1     -20.684   6.289   0.587  1.00  0.00     0.006 C 
BRANCH  10  11
ATOM     11  C   UNL     1     -21.615   6.383  -0.629  1.00  0.00     0.053 C 
BRANCH  11  12
ATOM     12  C   UNL     1     -22.265   5.062  -0.894  1.00  0.00     0.041 C 
ATOM     13  O   UNL     1     -21.868   4.342  -1.847  1.00  0.00    -0.550 OA
ATOM     14  O   UNL     1     -23.288   4.613  -0.069  1.00  0.00    -0.550 OA
ENDBRANCH  11  12
ENDBRANCH  10  11
ENDBRANCH   9  10
ENDBRANCH   8   9
ENDBRANCH   7   8
ENDBRANCH   6   7
ENDBRANCH   5   6
ENDBRANCH   4   5
ENDBRANCH   3   4
ENDBRANCH   2   3
ENDBRANCH   1   2
BRANCH   1  15
ATOM     15  C   UNL     1     -20.851   2.479   8.482  1.00  0.00     0.000 C 
BRANCH  15  16
ATOM     16  C   UNL     1     -20.386   1.459   9.532  1.00  0.00     0.000 C 
BRANCH  16  17
ATOM     17  C   UNL     1     -18.855   1.353   9.559  1.00  0.00     0.000 C 
BRANCH  17  18
ATOM     18  C   UNL     1     -18.334   1.324  11.005  1.00  0.00    -0.000 C 
BRANCH  18  19
ATOM     19  C   UNL     1     -18.503   2.671  11.724  1.00  0.00    -0.000 C 
BRANCH  19  20
ATOM     20  C   UNL     1     -19.513   2.600  12.884  1.00  0.00    -0.000 C 
BRANCH  20  21
ATOM     21  C   UNL     1     -20.807   3.376  12.591  1.00  0.00    -0.000 C 
BRANCH  21  22
ATOM     22  C   UNL     1     -20.669   4.884  12.865  1.00  0.00    -0.000 C 
BRANCH  22  23
ATOM     23  C   UNL     1     -21.487   5.733  11.867  1.00  0.00    -0.000 C 
BRANCH  23  24
ATOM     24  C   UNL     1     -22.839   6.213  12.431  1.00  0.00    -0.000 C 
BRANCH  24  25
ATOM     25  C   UNL     1     -23.975   5.182  12.333  1.00  0.00    -0.003 C 
ATOM     26  C   UNL     1     -25.359   5.828  12.268  1.00  0.00     0.004 C 
ENDBRANCH  24  25
ENDBRANCH  23  24
ENDBRANCH  22  23
ENDBRANCH  21  22
ENDBRANCH  20  21
ENDBRANCH  19  20
ENDBRANCH  18  19
ENDBRANCH  17  18
ENDBRANCH  16  17
ENDBRANCH  15  16
ENDBRANCH   1  15
TORSDOF 22
ENDMDL
MODEL 6
REMARK VINA RESULT:    -2.589      3.070      5.504
REMARK INTER + INTRA:          -9.667
REMARK INTER:                  -7.221
REMARK INTRA:                  -2.446
REMARK UNBOUND:                -3.748
REMARK SMILES CCCCCCCCCCCCCCCCCCCCCCCC(=O)[O-]
REMARK SMILES IDX 13 1 14 2 15 3 16 4 17 5 18 6 19 7 20 8 21 9 22 10 23 11
REMARK SMILES IDX 24 12 25 13 26 14 12 15 11 16 10 17 9 18 8 19 7 20 6 21 5 22
REMARK SMILES IDX 4 23 3 24 2 25 1 26
REMARK H PARENT
REMARK Flexibility Score: inf
ROOT
ATOM      1  C   UNL     1     -20.516   5.692   9.039  1.00  0.00     0.000 C 
ENDROOT
BRANCH   1   2
ATOM      2  C   UNL     1     -19.680   4.641   8.289  1.00  0.00     0.000 C 
BRANCH   2   3
ATOM      3  C   UNL     1     -19.377   5.069   6.837  1.00  0.00     0.000 C 
BRANCH   3   4
ATOM      4  C   UNL     1     -19.341   6.594   6.633  1.00  0.00     0.000 C 
BRANCH   4   5
ATOM      5  C   UNL     1     -19.476   7.007   5.161  1.00  0.00     0.000 C 
BRANCH   5   6
ATOM      6  C   UNL     1     -19.808   5.827   4.233  1.00  0.00     0.000 C 
BRANCH   6   7
ATOM      7  C   UNL     1     -19.676   6.158   2.732  1.00  0.00     0.000 C 
BRANCH   7   8
ATOM      8  C   UNL     1     -20.203   7.564   2.399  1.00  0.00     0.000 C 
BRANCH   8   9
ATOM      9  C   UNL     1     -20.868   7.646   1.013  1.00  0.00     0.000 C 
BRANCH   9  10
ATOM     10  C   UNL     1     -21.061   6.293   0.303  1.00  0.00     0.006 C 
BRANCH  10  11
ATOM     11  C   UNL     1     -22.302   6.258  -0.598  1.00  0.00     0.053 C 
BRANCH  11  12
ATOM     12  C   UNL     1     -22.739   4.847  -0.831  1.00  0.00     0.041 C 
ATOM     13  O   UNL     1     -22.340   4.221  -1.848  1.00  0.00    -0.550 OA
ATOM     14  O   UNL     1     -23.562   4.212   0.091  1.00  0.00    -0.550 OA
ENDBRANCH  11  12
ENDBRANCH  10  11
ENDBRANCH   9  10
ENDBRANCH   8   9
ENDBRANCH   7   8
ENDBRANCH   6   7
ENDBRANCH   5   6
ENDBRANCH   4   5
ENDBRANCH   3   4
ENDBRANCH   2   3
ENDBRANCH   1   2
BRANCH   1  15
ATOM     15  C   UNL     1     -20.042   5.911  10.483  1.00  0.00     0.000 C 
BRANCH  15  16
ATOM     16  C   UNL     1     -20.283   7.347  10.973  1.00  0.00     0.000 C 
BRANCH  16  17
ATOM     17  C   UNL     1     -21.780   7.679  10.996  1.00  0.00     0.000 C 
BRANCH  17  18
ATOM     18  C   UNL     1     -22.396   7.339  12.363  1.00  0.00    -0.000 C 
BRANCH  18  19
ATOM     19  C   UNL     1     -23.931   7.298  12.329  1.00  0.00    -0.000 C 
BRANCH  19  20
ATOM     20  C   UNL     1     -24.485   5.861  12.334  1.00  0.00    -0.000 C 
BRANCH  20  21
ATOM     21  C   UNL     1     -23.402   4.810  12.627  1.00  0.00    -0.000 C 
BRANCH  21  22
ATOM     22  C   UNL     1     -23.100   3.915  11.413  1.00  0.00    -0.000 C 
BRANCH  22  23
ATOM     23  C   UNL     1     -21.994   2.879  11.715  1.00  0.00    -0.000 C 
BRANCH  23  24
ATOM     24  C   UNL     1     -21.087   3.275  12.897  1.00  0.00    -0.000 C 
BRANCH  24  25
ATOM     25  C   UNL     1     -19.602   2.924  12.709  1.00  0.00    -0.003 C 
ATOM     26  C   UNL     1     -19.323   2.216  11.384  1.00  0.00     0.004 C 
ENDBRANCH  24  25
ENDBRANCH  23  24
ENDBRANCH  22  23
ENDBRANCH  21  22
ENDBRANCH  20  21
ENDBRANCH  19  20
ENDBRANCH  18  19
ENDBRANCH  17  18
ENDBRANCH  16  17
ENDBRANCH  15  16
ENDBRANCH   1  15
TORSDOF 22
ENDMDL
MODEL 7
REMARK VINA RESULT:    -2.587      6.065     10.203
REMARK INTER + INTRA:          -9.661
REMARK INTER:                  -7.429
REMARK INTRA:                  -2.233
REMARK UNBOUND:                -3.748
REMARK SMILES CCCCCCCCCCCCCCCCCCCCCCCC(=O)[O-]
REMARK SMILES IDX 13 1 14 2 15 3 16 4 17 5 18 6 19 7 20 8 21 9 22 10 23 11
REMARK SMILES IDX 24 12 25 13 26 14 12 15 11 16 10 17 9 18 8 19 7 20 6 21 5 22
REMARK SMILES IDX 4 23 3 24 2 25 1 26
REMARK H PARENT
REMARK Flexibility Score: inf
ROOT
ATOM      1  C   UNL     1     -19.362   7.206  -0.647  1.00  0.00     0.000 C 
ENDROOT
BRANCH   1   2
ATOM      2  C   UNL     1     -18.019   7.338  -1.385  1.00  0.00     0.000 C 
BRANCH   2   3
ATOM      3  C   UNL     1     -18.188   7.961  -2.788  1.00  0.00     0.000 C 
BRANCH   3   4
ATOM      4  C   UNL     1     -19.620   7.868  -3.341  1.00  0.00     0.000 C 
BRANCH   4   5
ATOM      5  C   UNL     1     -19.700   7.124  -4.682  1.00  0.00     0.000 C 
BRANCH   5   6
ATOM      6  C   UNL     1     -18.450   6.278  -4.976  1.00  0.00     0.000 C 
BRANCH   6   7
ATOM      7  C   UNL     1     -18.729   4.764  -5.067  1.00  0.00     0.000 C 
BRANCH   7   8
ATOM      8  C   UNL     1     -18.913   4.123  -3.681  1.00  0.00     0.000 C 
BRANCH   8   9
ATOM      9  C   UNL     1     -20.380   3.778  -3.367  1.00  0.00     0.000 C 
BRANCH   9  10
ATOM     10  C   UNL     1     -21.015   4.605  -2.234  1.00  0.00     0.006 C 
BRANCH  10  11
ATOM     11  C   UNL     1     -22.507   4.887  -2.459  1.00  0.00     0.053 C 
BRANCH  11  12
ATOM     12  C   UNL     1     -23.095   5.567  -1.264  1.00  0.00     0.041 C 
ATOM     13  O   UNL     1     -22.870   6.788  -1.057  1.00  0.00    -0.550 OA
ATOM     14  O   UNL     1     -23.918   4.860  -0.396  1.00  0.00    -0.550 OA
ENDBRANCH  11  12
ENDBRANCH  10  11
ENDBRANCH   9  10
ENDBRANCH   8   9
ENDBRANCH   7   8
ENDBRANCH   6   7
ENDBRANCH   5   6
ENDBRANCH   4   5
ENDBRANCH   3   4
ENDBRANCH   2   3
ENDBRANCH   1   2
BRANCH   1  15
ATOM     15  C   UNL     1     -19.309   6.198   0.511  1.00  0.00     0.000 C 
BRANCH  15  16
ATOM     16  C   UNL     1     -20.096   6.672   1.742  1.00  0.00     0.000 C 
BRANCH  16  17
ATOM     17  C   UNL     1     -19.217   6.656   3.000  1.00  0.00     0.000 C 
BRANCH  17  18
ATOM     18  C   UNL     1     -19.865   5.813   4.110  1.00  0.00    -0.000 C 
BRANCH  18  19
ATOM     19  C   UNL     1     -18.834   5.218   5.082  1.00  0.00    -0.000 C 
BRANCH  19  20
ATOM     20  C   UNL     1     -19.240   3.823   5.593  1.00  0.00    -0.000 C 
BRANCH  20  21
ATOM     21  C   UNL     1     -18.461   3.405   6.850  1.00  0.00    -0.000 C 
BRANCH  21  22
ATOM     22  C   UNL     1     -18.818   4.257   8.081  1.00  0.00    -0.000 C 
BRANCH  22  23
ATOM     23  C   UNL     1     -20.250   3.976   8.587  1.00  0.00    -0.000 C 
BRANCH  23  24
ATOM     24  C   UNL     1     -20.552   2.476   8.778  1.00  0.00    -0.000 C 
BRANCH  24  25
ATOM     25  C   UNL     1     -20.827   2.059  10.233  1.00  0.00    -0.003 C 
ATOM     26  C   UNL     1     -22.317   2.015  10.566  1.00  0.00     0.004 C 
ENDBRANCH  24  25
ENDBRANCH  23  24
ENDBRANCH  22  23
ENDBRANCH  21  22
ENDBRANCH  20  21
ENDBRANCH  19  20
ENDBRANCH  18  19
ENDBRANCH  17  18
ENDBRANCH  16  17
ENDBRANCH  15  16
ENDBRANCH   1  15
TORSDOF 22
ENDMDL
MODEL 8
REMARK VINA RESULT:    -2.576      3.868      6.873
REMARK INTER + INTRA:          -9.636
REMARK INTER:                  -6.868
REMARK INTRA:                  -2.768
REMARK UNBOUND:                -3.748
REMARK SMILES CCCCCCCCCCCCCCCCCCCCCCCC(=O)[O-]
REMARK SMILES IDX 13 1 14 2 15 3 16 4 17 5 18 6 19 7 20 8 21 9 22 10 23 11
REMARK SMILES IDX 24 12 25 13 26 14 12 15 11 16 10 17 9 18 8 19 7 20 6 21 5 22
REMARK SMILES IDX 4 23 3 24 2 25 1 26
REMARK H PARENT
REMARK Flexibility Score: inf
ROOT
ATOM      1  C   UNL     1     -19.352   5.533   7.220  1.00  0.00     0.000 C 
ENDROOT
BRANCH   1   2
ATOM      2  C   UNL     1     -19.034   6.623   6.182  1.00  0.00     0.000 C 
BRANCH   2   3
ATOM      3  C   UNL     1     -18.748   6.027   4.786  1.00  0.00     0.000 C 
BRANCH   3   4
ATOM      4  C   UNL     1     -19.988   5.948   3.878  1.00  0.00     0.000 C 
BRANCH   4   5
ATOM      5  C   UNL     1     -19.684   6.298   2.415  1.00  0.00     0.000 C 
BRANCH   5   6
ATOM      6  C   UNL     1     -20.950   6.581   1.588  1.00  0.00     0.000 C 
BRANCH   6   7
ATOM      7  C   UNL     1     -20.666   7.220   0.213  1.00  0.00     0.000 C 
BRANCH   7   8
ATOM      8  C   UNL     1     -19.645   6.410  -0.604  1.00  0.00     0.000 C 
BRANCH   8   9
ATOM      9  C   UNL     1     -20.104   6.147  -2.050  1.00  0.00     0.000 C 
BRANCH   9  10
ATOM     10  C   UNL     1     -20.809   4.796  -2.273  1.00  0.00     0.006 C 
BRANCH  10  11
ATOM     11  C   UNL     1     -22.299   4.944  -2.610  1.00  0.00     0.053 C 
BRANCH  11  12
ATOM     12  C   UNL     1     -23.117   4.976  -1.358  1.00  0.00     0.041 C 
ATOM     13  O   UNL     1     -23.884   5.947  -1.129  1.00  0.00    -0.550 OA
ATOM     14  O   UNL     1     -23.055   3.918  -0.460  1.00  0.00    -0.550 OA
ENDBRANCH  11  12
ENDBRANCH  10  11
ENDBRANCH   9  10
ENDBRANCH   8   9
ENDBRANCH   7   8
ENDBRANCH   6   7
ENDBRANCH   5   6
ENDBRANCH   4   5
ENDBRANCH   3   4
ENDBRANCH   2   3
ENDBRANCH   1   2
BRANCH   1  15
ATOM     15  C   UNL     1     -19.243   6.037   8.667  1.00  0.00     0.000 C 
BRANCH  15  16
ATOM     16  C   UNL     1     -20.612   6.180   9.348  1.00  0.00     0.000 C 
BRANCH  16  17
ATOM     17  C   UNL     1     -20.461   6.321  10.868  1.00  0.00     0.000 C 
BRANCH  17  18
ATOM     18  C   UNL     1     -21.684   5.740  11.596  1.00  0.00    -0.000 C 
BRANCH  18  19
ATOM     19  C   UNL     1     -21.306   4.660  12.622  1.00  0.00    -0.000 C 
BRANCH  19  20
ATOM     20  C   UNL     1     -22.265   3.456  12.595  1.00  0.00    -0.000 C 
BRANCH  20  21
ATOM     21  C   UNL     1     -22.829   3.180  11.192  1.00  0.00    -0.000 C 
BRANCH  21  22
ATOM     22  C   UNL     1     -22.099   2.030  10.475  1.00  0.00    -0.000 C 
BRANCH  22  23
ATOM     23  C   UNL     1     -21.407   2.501   9.177  1.00  0.00    -0.000 C 
BRANCH  23  24
ATOM     24  C   UNL     1     -19.869   2.433   9.239  1.00  0.00    -0.000 C 
BRANCH  24  25
ATOM     25  C   UNL     1     -19.295   2.195  10.646  1.00  0.00    -0.003 C 
ATOM     26  C   UNL     1     -18.257   3.241  11.049  1.00  0.00     0.004 C 
ENDBRANCH  24  25
ENDBRANCH  23  24
ENDBRANCH  22  23
ENDBRANCH  21  22
ENDBRANCH  20  21
ENDBRANCH  19  20
ENDBRANCH  18  19
ENDBRANCH  17  18
ENDBRANCH  16  17
ENDBRANCH  15  16
ENDBRANCH   1  15
TORSDOF 22
ENDMDL
MODEL 9
REMARK VINA RESULT:    -2.478      3.056      8.008
REMARK INTER + INTRA:          -9.413
REMARK INTER:                  -7.062
REMARK INTRA:                  -2.351
REMARK UNBOUND:                -3.748
REMARK SMILES CCCCCCCCCCCCCCCCCCCCCCCC(=O)[O-]
REMARK SMILES IDX 13 1 14 2 15 3 16 4 17 5 18 6 19 7 20 8 21 9 22 10 23 11
REMARK SMILES IDX 24 12 25 13 26 14 12 15 11 16 10 17 9 18 8 19 7 20 6 21 5 22
REMARK SMILES IDX 4 23 3 24 2 25 1 26
REMARK H PARENT
REMARK Flexibility Score: inf
ROOT
ATOM      1  C   UNL     1     -21.247   6.979   9.655  1.00  0.00     0.000 C 
ENDROOT
BRANCH   1   2
ATOM      2  C   UNL     1     -21.954   8.018  10.541  1.00  0.00     0.000 C 
BRANCH   2   3
ATOM      3  C   UNL     1     -21.522   7.908  12.019  1.00  0.00     0.000 C 
BRANCH   3   4
ATOM      4  C   UNL     1     -22.638   7.421  12.959  1.00  0.00     0.000 C 
BRANCH   4   5
ATOM      5  C   UNL     1     -23.870   6.896  12.208  1.00  0.00     0.000 C 
BRANCH   5   6
ATOM      6  C   UNL     1     -24.047   5.374  12.332  1.00  0.00     0.000 C 
BRANCH   6   7
ATOM      7  C   UNL     1     -22.880   4.667  13.053  1.00  0.00     0.000 C 
BRANCH   7   8
ATOM      8  C   UNL     1     -21.855   4.085  12.065  1.00  0.00     0.000 C 
BRANCH   8   9
ATOM      9  C   UNL     1     -22.508   3.470  10.814  1.00  0.00     0.000 C 
BRANCH   9  10
ATOM     10  C   UNL     1     -22.005   2.063  10.442  1.00  0.00     0.006 C 
BRANCH  10  11
ATOM     11  C   UNL     1     -21.114   2.053   9.193  1.00  0.00     0.053 C 
BRANCH  11  12
ATOM     12  C   UNL     1     -19.705   1.710   9.558  1.00  0.00     0.041 C 
ATOM     13  O   UNL     1     -18.975   2.562  10.128  1.00  0.00    -0.550 OA
ATOM     14  O   UNL     1     -19.208   0.440   9.297  1.00  0.00    -0.550 OA
ENDBRANCH  11  12
ENDBRANCH  10  11
ENDBRANCH   9  10
ENDBRANCH   8   9
ENDBRANCH   7   8
ENDBRANCH   6   7
ENDBRANCH   5   6
ENDBRANCH   4   5
ENDBRANCH   3   4
ENDBRANCH   2   3
ENDBRANCH   1   2
BRANCH   1  15
ATOM     15  C   UNL     1     -19.801   6.704  10.095  1.00  0.00     0.000 C 
BRANCH  15  16
ATOM     16  C   UNL     1     -18.945   6.103   8.971  1.00  0.00     0.000 C 
BRANCH  16  17
ATOM     17  C   UNL     1     -19.800   5.257   8.018  1.00  0.00     0.000 C 
BRANCH  17  18
ATOM     18  C   UNL     1     -19.089   5.065   6.668  1.00  0.00    -0.000 C 
BRANCH  18  19
ATOM     19  C   UNL     1     -19.286   6.257   5.719  1.00  0.00    -0.000 C 
BRANCH  19  20
ATOM     20  C   UNL     1     -19.318   5.835   4.238  1.00  0.00    -0.000 C 
BRANCH  20  21
ATOM     21  C   UNL     1     -20.616   6.257   3.531  1.00  0.00    -0.000 C 
BRANCH  21  22
ATOM     22  C   UNL     1     -20.363   6.851   2.133  1.00  0.00    -0.000 C 
BRANCH  22  23
ATOM     23  C   UNL     1     -21.304   6.248   1.067  1.00  0.00    -0.000 C 
BRANCH  23  24
ATOM     24  C   UNL     1     -21.274   7.002  -0.277  1.00  0.00    -0.000 C 
BRANCH  24  25
ATOM     25  C   UNL     1     -22.447   6.678  -1.219  1.00  0.00    -0.003 C 
ATOM     26  C   UNL     1     -22.744   5.181  -1.301  1.00  0.00     0.004 C 
ENDBRANCH  24  25
ENDBRANCH  23  24
ENDBRANCH  22  23
ENDBRANCH  21  22
ENDBRANCH  20  21
ENDBRANCH  19  20
ENDBRANCH  18  19
ENDBRANCH  17  18
ENDBRANCH  16  17
ENDBRANCH  15  16
ENDBRANCH   1  15
TORSDOF 22
ENDMDL
