MODEL 1
REMARK VINA RESULT:    -3.730      0.000      0.000
REMARK INTER + INTRA:          -3.967
REMARK INTER:                  -3.948
REMARK INTRA:                  -0.020
REMARK UNBOUND:                -0.020
REMARK SMILES O=C([O-])c1cccnc1
REMARK SMILES IDX 4 1 5 2 9 3 6 4 8 5 7 6 2 7 1 8 3 9
REMARK H PARENT
REMARK Flexibility Score: inf
ROOT
ATOM      1  C   UNL     1      -1.796   0.800   2.466  1.00  0.00     0.016 A 
ATOM      2  C   UNL     1      -3.148   0.420   2.471  1.00  0.00     0.013 A 
ATOM      3  C   UNL     1      -1.475   2.129   2.144  1.00  0.00     0.120 A 
ATOM      4  C   UNL     1      -4.139   1.354   2.161  1.00  0.00     0.021 A 
ATOM      5  N   UNL     1      -2.461   3.019   1.845  1.00  0.00    -0.264 NA
ATOM      6  C   UNL     1      -3.772   2.663   1.847  1.00  0.00     0.111 A 
ENDROOT
BRANCH   1   7
ATOM      7  C   UNL     1      -0.731  -0.174   2.791  1.00  0.00     0.073 C 
ATOM      8  O   UNL     1       0.219   0.147   3.554  1.00  0.00    -0.545 OA
ATOM      9  O   UNL     1      -0.763  -1.458   2.258  1.00  0.00    -0.545 OA
ENDBRANCH   1   7
TORSDOF 1
ENDMDL
MODEL 2
REMARK VINA RESULT:    -3.579      1.276      1.535
REMARK INTER + INTRA:          -3.808
REMARK INTER:                  -3.788
REMARK INTRA:                  -0.020
REMARK UNBOUND:                -0.020
REMARK SMILES O=C([O-])c1cccnc1
REMARK SMILES IDX 4 1 5 2 9 3 6 4 8 5 7 6 2 7 1 8 3 9
REMARK H PARENT
REMARK Flexibility Score: inf
ROOT
ATOM      1  C   UNL     1      -0.847   0.994   2.542  1.00  0.00     0.016 A 
ATOM      2  C   UNL     1      -1.707  -0.114   2.468  1.00  0.00     0.013 A 
ATOM      3  C   UNL     1      -1.412   2.281   2.554  1.00  0.00     0.120 A 
ATOM      4  C   UNL     1      -3.090   0.076   2.410  1.00  0.00     0.021 A 
ATOM      5  N   UNL     1      -2.763   2.437   2.496  1.00  0.00    -0.264 NA
ATOM      6  C   UNL     1      -3.604   1.372   2.425  1.00  0.00     0.111 A 
ENDROOT
BRANCH   1   7
ATOM      7  C   UNL     1       0.620   0.816   2.604  1.00  0.00     0.073 C 
ATOM      8  O   UNL     1       1.313   1.489   3.414  1.00  0.00    -0.545 OA
ATOM      9  O   UNL     1       1.256  -0.095   1.769  1.00  0.00    -0.545 OA
ENDBRANCH   1   7
TORSDOF 1
ENDMDL
MODEL 3
REMARK VINA RESULT:    -3.574      2.231      2.904
REMARK INTER + INTRA:          -3.803
REMARK INTER:                  -3.781
REMARK INTRA:                  -0.022
REMARK UNBOUND:                -0.020
REMARK SMILES O=C([O-])c1cccnc1
REMARK SMILES IDX 4 1 5 2 9 3 6 4 8 5 7 6 2 7 1 8 3 9
REMARK H PARENT
REMARK Flexibility Score: inf
ROOT
ATOM      1  C   UNL     1      -0.149   0.690   2.530  1.00  0.00     0.016 A 
ATOM      2  C   UNL     1      -1.193   1.565   2.873  1.00  0.00     0.013 A 
ATOM      3  C   UNL     1      -0.478  -0.576   2.015  1.00  0.00     0.120 A 
ATOM      4  C   UNL     1      -2.522   1.171   2.701  1.00  0.00     0.021 A 
ATOM      5  N   UNL     1      -1.782  -0.934   1.858  1.00  0.00    -0.264 NA
ATOM      6  C   UNL     1      -2.800  -0.096   2.187  1.00  0.00     0.111 A 
ENDROOT
BRANCH   1   7
ATOM      7  C   UNL     1       1.265   1.087   2.704  1.00  0.00     0.073 C 
ATOM      8  O   UNL     1       2.175   0.521   2.041  1.00  0.00    -0.545 OA
ATOM      9  O   UNL     1       1.610   2.089   3.604  1.00  0.00    -0.545 OA
ENDBRANCH   1   7
TORSDOF 1
ENDMDL
MODEL 4
REMARK VINA RESULT:    -3.555      2.235      3.330
REMARK INTER + INTRA:          -3.783
REMARK INTER:                  -3.762
REMARK INTRA:                  -0.021
REMARK UNBOUND:                -0.020
REMARK SMILES O=C([O-])c1cccnc1
REMARK SMILES IDX 4 1 5 2 9 3 6 4 8 5 7 6 2 7 1 8 3 9
REMARK H PARENT
REMARK Flexibility Score: inf
ROOT
ATOM      1  C   UNL     1      -1.099   1.027   2.568  1.00  0.00     0.016 A 
ATOM      2  C   UNL     1      -1.259   2.418   2.449  1.00  0.00     0.013 A 
ATOM      3  C   UNL     1       0.158   0.527   2.947  1.00  0.00     0.120 A 
ATOM      4  C   UNL     1      -0.183   3.271   2.706  1.00  0.00     0.021 A 
ATOM      5  N   UNL     1       1.190   1.381   3.191  1.00  0.00    -0.264 NA
ATOM      6  C   UNL     1       1.047   2.728   3.079  1.00  0.00     0.111 A 
ENDROOT
BRANCH   1   7
ATOM      7  C   UNL     1      -2.226   0.106   2.300  1.00  0.00     0.073 C 
ATOM      8  O   UNL     1      -2.024  -1.008   1.748  1.00  0.00    -0.545 OA
ATOM      9  O   UNL     1      -3.523   0.458   2.655  1.00  0.00    -0.545 OA
ENDBRANCH   1   7
TORSDOF 1
ENDMDL
MODEL 5
REMARK VINA RESULT:    -3.536     14.542     15.464
REMARK INTER + INTRA:          -3.762
REMARK INTER:                  -3.745
REMARK INTRA:                  -0.017
REMARK UNBOUND:                -0.020
REMARK SMILES O=C([O-])c1cccnc1
REMARK SMILES IDX 4 1 5 2 9 3 6 4 8 5 7 6 2 7 1 8 3 9
REMARK H PARENT
REMARK Flexibility Score: inf
ROOT
ATOM      1  C   UNL     1      -5.274  13.656   9.883  1.00  0.00     0.016 A 
ATOM      2  C   UNL     1      -6.647  13.935   9.989  1.00  0.00     0.013 A 
ATOM      3  C   UNL     1      -4.367  14.499  10.548  1.00  0.00     0.120 A 
ATOM      4  C   UNL     1      -7.084  15.028  10.740  1.00  0.00     0.021 A 
ATOM      5  N   UNL     1      -4.820  15.557  11.274  1.00  0.00    -0.264 NA
ATOM      6  C   UNL     1      -6.146  15.836  11.383  1.00  0.00     0.111 A 
ENDROOT
BRANCH   1   7
ATOM      7  C   UNL     1      -4.790  12.504   9.092  1.00  0.00     0.073 C 
ATOM      8  O   UNL     1      -4.294  11.497   9.664  1.00  0.00    -0.545 OA
ATOM      9  O   UNL     1      -4.875  12.517   7.704  1.00  0.00    -0.545 OA
ENDBRANCH   1   7
TORSDOF 1
ENDMDL
MODEL 6
REMARK VINA RESULT:    -3.446      2.758      3.977
REMARK INTER + INTRA:          -3.667
REMARK INTER:                  -3.645
REMARK INTRA:                  -0.022
REMARK UNBOUND:                -0.020
REMARK SMILES O=C([O-])c1cccnc1
REMARK SMILES IDX 4 1 5 2 9 3 6 4 8 5 7 6 2 7 1 8 3 9
REMARK H PARENT
REMARK Flexibility Score: inf
ROOT
ATOM      1  C   UNL     1      -1.904   1.126   2.404  1.00  0.00     0.016 A 
ATOM      2  C   UNL     1      -0.530   1.195   2.688  1.00  0.00     0.013 A 
ATOM      3  C   UNL     1      -2.447  -0.114   2.025  1.00  0.00     0.120 A 
ATOM      4  C   UNL     1       0.264   0.050   2.591  1.00  0.00     0.021 A 
ATOM      5  N   UNL     1      -1.651  -1.213   1.938  1.00  0.00    -0.264 NA
ATOM      6  C   UNL     1      -0.321  -1.158   2.210  1.00  0.00     0.111 A 
ENDROOT
BRANCH   1   7
ATOM      7  C   UNL     1      -2.763   2.327   2.500  1.00  0.00     0.073 C 
ATOM      8  O   UNL     1      -3.859   2.381   1.882  1.00  0.00    -0.545 OA
ATOM      9  O   UNL     1      -2.371   3.413   3.275  1.00  0.00    -0.545 OA
ENDBRANCH   1   7
TORSDOF 1
ENDMDL
MODEL 7
REMARK VINA RESULT:    -3.384      1.973      3.233
REMARK INTER + INTRA:          -3.601
REMARK INTER:                  -3.579
REMARK INTRA:                  -0.022
REMARK UNBOUND:                -0.020
REMARK SMILES O=C([O-])c1cccnc1
REMARK SMILES IDX 4 1 5 2 9 3 6 4 8 5 7 6 2 7 1 8 3 9
REMARK H PARENT
REMARK Flexibility Score: inf
ROOT
ATOM      1  C   UNL     1      -1.122   0.987   2.518  1.00  0.00     0.016 A 
ATOM      2  C   UNL     1       0.185   0.518   2.728  1.00  0.00     0.013 A 
ATOM      3  C   UNL     1      -1.350   2.373   2.549  1.00  0.00     0.120 A 
ATOM      4  C   UNL     1       1.224   1.422   2.961  1.00  0.00     0.021 A 
ATOM      5  N   UNL     1      -0.319   3.232   2.779  1.00  0.00    -0.264 NA
ATOM      6  C   UNL     1       0.950   2.789   2.983  1.00  0.00     0.111 A 
ENDROOT
BRANCH   1   7
ATOM      7  C   UNL     1      -2.238   0.047   2.269  1.00  0.00     0.073 C 
ATOM      8  O   UNL     1      -2.022  -1.076   1.739  1.00  0.00    -0.545 OA
ATOM      9  O   UNL     1      -3.539   0.390   2.618  1.00  0.00    -0.545 OA
ENDBRANCH   1   7
TORSDOF 1
ENDMDL
MODEL 8
REMARK VINA RESULT:    -3.303      2.858      3.494
REMARK INTER + INTRA:          -3.516
REMARK INTER:                  -3.495
REMARK INTRA:                  -0.021
REMARK UNBOUND:                -0.020
REMARK SMILES O=C([O-])c1cccnc1
REMARK SMILES IDX 4 1 5 2 9 3 6 4 8 5 7 6 2 7 1 8 3 9
REMARK H PARENT
REMARK Flexibility Score: inf
ROOT
ATOM      1  C   UNL     1      -2.059   2.331   2.794  1.00  0.00     0.016 A 
ATOM      2  C   UNL     1      -3.205   1.523   2.712  1.00  0.00     0.013 A 
ATOM      3  C   UNL     1      -0.806   1.741   2.557  1.00  0.00     0.120 A 
ATOM      4  C   UNL     1      -3.085   0.166   2.400  1.00  0.00     0.021 A 
ATOM      5  N   UNL     1      -0.717   0.417   2.256  1.00  0.00    -0.264 NA
ATOM      6  C   UNL     1      -1.819  -0.374   2.173  1.00  0.00     0.111 A 
ENDROOT
BRANCH   1   7
ATOM      7  C   UNL     1      -2.164   3.769   3.123  1.00  0.00     0.073 C 
ATOM      8  O   UNL     1      -1.281   4.332   3.824  1.00  0.00    -0.545 OA
ATOM      9  O   UNL     1      -3.240   4.521   2.664  1.00  0.00    -0.545 OA
ENDBRANCH   1   7
TORSDOF 1
ENDMDL
MODEL 9
REMARK VINA RESULT:    -3.274      4.294      5.134
REMARK INTER + INTRA:          -3.485
REMARK INTER:                  -3.468
REMARK INTRA:                  -0.017
REMARK UNBOUND:                -0.020
REMARK SMILES O=C([O-])c1cccnc1
REMARK SMILES IDX 4 1 5 2 9 3 6 4 8 5 7 6 2 7 1 8 3 9
REMARK H PARENT
REMARK Flexibility Score: inf
ROOT
ATOM      1  C   UNL     1      -3.801   4.638   2.408  1.00  0.00     0.016 A 
ATOM      2  C   UNL     1      -4.648   3.825   1.636  1.00  0.00     0.013 A 
ATOM      3  C   UNL     1      -2.571   4.109   2.834  1.00  0.00     0.120 A 
ATOM      4  C   UNL     1      -4.262   2.523   1.309  1.00  0.00     0.021 A 
ATOM      5  N   UNL     1      -2.220   2.837   2.501  1.00  0.00    -0.264 NA
ATOM      6  C   UNL     1      -3.031   2.042   1.755  1.00  0.00     0.111 A 
ENDROOT
BRANCH   1   7
ATOM      7  C   UNL     1      -4.191   6.019   2.766  1.00  0.00     0.073 C 
ATOM      8  O   UNL     1      -3.569   7.004   2.288  1.00  0.00    -0.545 OA
ATOM      9  O   UNL     1      -5.251   6.249   3.637  1.00  0.00    -0.545 OA
ENDBRANCH   1   7
TORSDOF 1
ENDMDL
