MODEL 1
REMARK VINA RESULT:    -7.591      0.000      0.000
REMARK INTER + INTRA:         -12.842
REMARK INTER:                 -11.585
REMARK INTRA:                  -1.257
REMARK UNBOUND:                -1.257
REMARK SMILES CC(=O)CCC=C(C)CCC=C(C)CCC=C(C)C
REMARK SMILES IDX 10 1 11 2 12 3 13 4 14 5 15 6 16 7 18 8 17 9 19 10 9 11 7 12
REMARK SMILES IDX 6 13 8 14 5 15 4 16 2 17 3 18 1 19
REMARK H PARENT
REMARK Flexibility Score: inf
ROOT
ATOM      1  C   UNL     1      15.914  24.597   6.339  1.00  0.00     0.032 C 
ENDROOT
BRANCH   1   2
ATOM      2  C   UNL     1      16.434  25.362   5.148  1.00  0.00    -0.028 C 
ATOM      3  C   UNL     1      17.579  25.068   4.490  1.00  0.00    -0.077 C 
ATOM      4  C   UNL     1      18.429  23.876   4.864  1.00  0.00     0.039 C 
BRANCH   3   5
ATOM      5  C   UNL     1      18.014  25.955   3.343  1.00  0.00     0.034 C 
BRANCH   5   6
ATOM      6  C   UNL     1      18.657  27.245   3.863  1.00  0.00     0.032 C 
BRANCH   6   7
ATOM      7  C   UNL     1      19.925  27.566   3.108  1.00  0.00    -0.028 C 
ATOM      8  C   UNL     1      22.302  27.338   2.523  1.00  0.00     0.039 C 
ATOM      9  C   UNL     1      21.100  26.945   3.342  1.00  0.00    -0.080 C 
ATOM     10  C   UNL     1      21.232  25.875   4.400  1.00  0.00     0.039 C 
ENDBRANCH   6   7
ENDBRANCH   5   6
ENDBRANCH   3   5
ENDBRANCH   1   2
BRANCH   1  11
ATOM     11  C   UNL     1      15.776  25.517   7.557  1.00  0.00     0.034 C 
BRANCH  11  12
ATOM     12  C   UNL     1      17.128  26.035   7.998  1.00  0.00    -0.077 C 
ATOM     13  C   UNL     1      17.837  25.326   8.905  1.00  0.00    -0.028 C 
ATOM     14  C   UNL     1      17.654  27.318   7.397  1.00  0.00     0.039 C 
BRANCH  13  15
ATOM     15  C   UNL     1      19.177  25.741   9.466  1.00  0.00     0.035 C 
BRANCH  15  16
ATOM     16  C   UNL     1      19.113  25.994  10.978  1.00  0.00     0.079 C 
BRANCH  16  17
ATOM     17  C   UNL     1      19.156  27.464  11.303  1.00  0.00     0.130 C 
ATOM     18  O   UNL     1      20.221  27.993  11.581  1.00  0.00    -0.300 OA
ATOM     19  C   UNL     1      17.909  28.292  11.239  1.00  0.00     0.087 C 
ENDBRANCH  16  17
ENDBRANCH  15  16
ENDBRANCH  13  15
ENDBRANCH  11  12
ENDBRANCH   1  11
TORSDOF 9
ENDMDL
MODEL 2
REMARK VINA RESULT:    -7.362      2.052      6.657
REMARK INTER + INTRA:         -12.492
REMARK INTER:                 -11.179
REMARK INTRA:                  -1.313
REMARK UNBOUND:                -1.257
REMARK SMILES CC(=O)CCC=C(C)CCC=C(C)CCC=C(C)C
REMARK SMILES IDX 10 1 11 2 12 3 13 4 14 5 15 6 16 7 18 8 17 9 19 10 9 11 7 12
REMARK SMILES IDX 6 13 8 14 5 15 4 16 2 17 3 18 1 19
REMARK H PARENT
REMARK Flexibility Score: inf
ROOT
ATOM      1  C   UNL     1      15.807  25.688   7.019  1.00  0.00     0.032 C 
ENDROOT
BRANCH   1   2
ATOM      2  C   UNL     1      16.772  25.362   8.131  1.00  0.00    -0.028 C 
ATOM      3  C   UNL     1      17.934  26.018   8.354  1.00  0.00    -0.077 C 
ATOM      4  C   UNL     1      18.349  27.208   7.521  1.00  0.00     0.039 C 
BRANCH   3   5
ATOM      5  C   UNL     1      18.838  25.549   9.473  1.00  0.00     0.034 C 
BRANCH   5   6
ATOM      6  C   UNL     1      19.270  26.724  10.356  1.00  0.00     0.032 C 
BRANCH   6   7
ATOM      7  C   UNL     1      18.076  27.502  10.855  1.00  0.00    -0.028 C 
ATOM      8  C   UNL     1      16.837  28.947  12.411  1.00  0.00     0.039 C 
ATOM      9  C   UNL     1      18.081  28.199  12.011  1.00  0.00    -0.080 C 
ATOM     10  C   UNL     1      19.300  28.240  12.904  1.00  0.00     0.039 C 
ENDBRANCH   6   7
ENDBRANCH   5   6
ENDBRANCH   3   5
ENDBRANCH   1   2
BRANCH   1  11
ATOM     11  C   UNL     1      15.887  24.638   5.906  1.00  0.00     0.034 C 
BRANCH  11  12
ATOM     12  C   UNL     1      17.099  24.869   5.031  1.00  0.00    -0.077 C 
ATOM     13  C   UNL     1      17.161  25.993   4.280  1.00  0.00    -0.028 C 
ATOM     14  C   UNL     1      18.213  23.848   5.036  1.00  0.00     0.039 C 
BRANCH  13  15
ATOM     15  C   UNL     1      18.287  26.335   3.333  1.00  0.00     0.035 C 
BRANCH  15  16
ATOM     16  C   UNL     1      19.420  27.092   4.037  1.00  0.00     0.079 C 
BRANCH  16  17
ATOM     17  C   UNL     1      20.775  26.552   3.659  1.00  0.00     0.130 C 
ATOM     18  O   UNL     1      21.074  25.405   3.954  1.00  0.00    -0.300 OA
ATOM     19  C   UNL     1      21.737  27.395   2.881  1.00  0.00     0.087 C 
ENDBRANCH  16  17
ENDBRANCH  15  16
ENDBRANCH  13  15
ENDBRANCH  11  12
ENDBRANCH   1  11
TORSDOF 9
ENDMDL
MODEL 3
REMARK VINA RESULT:    -7.298      1.321      2.241
REMARK INTER + INTRA:         -12.395
REMARK INTER:                 -11.438
REMARK INTRA:                  -0.957
REMARK UNBOUND:                -1.257
REMARK SMILES CC(=O)CCC=C(C)CCC=C(C)CCC=C(C)C
REMARK SMILES IDX 10 1 11 2 12 3 13 4 14 5 15 6 16 7 18 8 17 9 19 10 9 11 7 12
REMARK SMILES IDX 6 13 8 14 5 15 4 16 2 17 3 18 1 19
REMARK H PARENT
REMARK Flexibility Score: inf
ROOT
ATOM      1  C   UNL     1      16.885  26.744   7.482  1.00  0.00     0.032 C 
ENDROOT
BRANCH   1   2
ATOM      2  C   UNL     1      17.807  26.442   6.328  1.00  0.00    -0.028 C 
ATOM      3  C   UNL     1      17.401  25.973   5.125  1.00  0.00    -0.077 C 
ATOM      4  C   UNL     1      15.939  25.764   4.804  1.00  0.00     0.039 C 
BRANCH   3   5
ATOM      5  C   UNL     1      18.440  25.658   4.072  1.00  0.00     0.034 C 
BRANCH   5   6
ATOM      6  C   UNL     1      19.829  25.505   4.701  1.00  0.00     0.032 C 
BRANCH   6   7
ATOM      7  C   UNL     1      20.919  25.794   3.698  1.00  0.00    -0.028 C 
ATOM      8  C   UNL     1      22.344  27.215   2.285  1.00  0.00     0.039 C 
ATOM      9  C   UNL     1      21.231  27.040   3.285  1.00  0.00    -0.080 C 
ATOM     10  C   UNL     1      20.490  28.252   3.801  1.00  0.00     0.039 C 
ENDBRANCH   6   7
ENDBRANCH   5   6
ENDBRANCH   3   5
ENDBRANCH   1   2
BRANCH   1  11
ATOM     11  C   UNL     1      17.076  25.725   8.610  1.00  0.00     0.034 C 
BRANCH  11  12
ATOM     12  C   UNL     1      18.276  26.080   9.461  1.00  0.00    -0.077 C 
ATOM     13  C   UNL     1      18.168  27.086  10.358  1.00  0.00    -0.028 C 
ATOM     14  C   UNL     1      19.551  25.287   9.297  1.00  0.00     0.039 C 
BRANCH  13  15
ATOM     15  C   UNL     1      19.291  27.575  11.242  1.00  0.00     0.035 C 
BRANCH  15  16
ATOM     16  C   UNL     1      18.817  27.843  12.677  1.00  0.00     0.079 C 
BRANCH  16  17
ATOM     17  C   UNL     1      18.094  29.158  12.792  1.00  0.00     0.130 C 
ATOM     18  O   UNL     1      18.713  30.204  12.670  1.00  0.00    -0.300 OA
ATOM     19  C   UNL     1      16.612  29.193  13.007  1.00  0.00     0.087 C 
ENDBRANCH  16  17
ENDBRANCH  15  16
ENDBRANCH  13  15
ENDBRANCH  11  12
ENDBRANCH   1  11
TORSDOF 9
ENDMDL
MODEL 4
REMARK VINA RESULT:    -7.290      1.558      2.830
REMARK INTER + INTRA:         -12.382
REMARK INTER:                 -11.188
REMARK INTRA:                  -1.194
REMARK UNBOUND:                -1.257
REMARK SMILES CC(=O)CCC=C(C)CCC=C(C)CCC=C(C)C
REMARK SMILES IDX 10 1 11 2 12 3 13 4 14 5 15 6 16 7 18 8 17 9 19 10 9 11 7 12
REMARK SMILES IDX 6 13 8 14 5 15 4 16 2 17 3 18 1 19
REMARK H PARENT
REMARK Flexibility Score: inf
ROOT
ATOM      1  C   UNL     1      16.763  26.503   8.217  1.00  0.00     0.032 C 
ENDROOT
BRANCH   1   2
ATOM      2  C   UNL     1      16.762  26.566   6.710  1.00  0.00    -0.028 C 
ATOM      3  C   UNL     1      16.167  25.656   5.905  1.00  0.00    -0.077 C 
ATOM      4  C   UNL     1      15.376  24.496   6.463  1.00  0.00     0.039 C 
BRANCH   3   5
ATOM      5  C   UNL     1      16.294  25.809   4.405  1.00  0.00     0.034 C 
BRANCH   5   6
ATOM      6  C   UNL     1      17.692  25.404   3.929  1.00  0.00     0.032 C 
BRANCH   6   7
ATOM      7  C   UNL     1      18.444  26.587   3.369  1.00  0.00    -0.028 C 
ATOM      8  C   UNL     1      20.255  28.247   3.271  1.00  0.00     0.039 C 
ATOM      9  C   UNL     1      19.581  27.065   3.917  1.00  0.00    -0.080 C 
ATOM     10  C   UNL     1      20.182  26.445   5.157  1.00  0.00     0.039 C 
ENDBRANCH   6   7
ENDBRANCH   5   6
ENDBRANCH   3   5
ENDBRANCH   1   2
BRANCH   1  11
ATOM     11  C   UNL     1      17.986  25.736   8.728  1.00  0.00     0.034 C 
BRANCH  11  12
ATOM     12  C   UNL     1      18.572  26.406   9.951  1.00  0.00    -0.077 C 
ATOM     13  C   UNL     1      18.024  27.562  10.391  1.00  0.00    -0.028 C 
ATOM     14  C   UNL     1      19.739  25.754  10.657  1.00  0.00     0.039 C 
BRANCH  13  15
ATOM     15  C   UNL     1      18.528  28.360  11.569  1.00  0.00     0.035 C 
BRANCH  15  16
ATOM     16  C   UNL     1      17.402  29.147  12.253  1.00  0.00     0.079 C 
BRANCH  16  17
ATOM     17  C   UNL     1      17.651  30.632  12.212  1.00  0.00     0.130 C 
ATOM     18  O   UNL     1      18.662  31.092  12.720  1.00  0.00    -0.300 OA
ATOM     19  C   UNL     1      16.693  31.543  11.508  1.00  0.00     0.087 C 
ENDBRANCH  16  17
ENDBRANCH  15  16
ENDBRANCH  13  15
ENDBRANCH  11  12
ENDBRANCH   1  11
TORSDOF 9
ENDMDL
MODEL 5
REMARK VINA RESULT:    -7.232      2.391      7.180
REMARK INTER + INTRA:         -12.294
REMARK INTER:                 -11.255
REMARK INTRA:                  -1.039
REMARK UNBOUND:                -1.257
REMARK SMILES CC(=O)CCC=C(C)CCC=C(C)CCC=C(C)C
REMARK SMILES IDX 10 1 11 2 12 3 13 4 14 5 15 6 16 7 18 8 17 9 19 10 9 11 7 12
REMARK SMILES IDX 6 13 8 14 5 15 4 16 2 17 3 18 1 19
REMARK H PARENT
REMARK Flexibility Score: inf
ROOT
ATOM      1  C   UNL     1      17.167  25.745   8.453  1.00  0.00     0.032 C 
ENDROOT
BRANCH   1   2
ATOM      2  C   UNL     1      17.913  26.616   9.432  1.00  0.00    -0.028 C 
ATOM      3  C   UNL     1      19.078  26.274  10.030  1.00  0.00    -0.077 C 
ATOM      4  C   UNL     1      19.785  24.977   9.712  1.00  0.00     0.039 C 
BRANCH   3   5
ATOM      5  C   UNL     1      19.691  27.221  11.038  1.00  0.00     0.034 C 
BRANCH   5   6
ATOM      6  C   UNL     1      18.668  27.621  12.106  1.00  0.00     0.032 C 
BRANCH   6   7
ATOM      7  C   UNL     1      18.768  29.091  12.436  1.00  0.00    -0.028 C 
ATOM      8  C   UNL     1      17.924  31.382  12.733  1.00  0.00     0.039 C 
ATOM      9  C   UNL     1      17.715  29.934  12.374  1.00  0.00    -0.080 C 
ATOM     10  C   UNL     1      16.344  29.456  11.954  1.00  0.00     0.039 C 
ENDBRANCH   6   7
ENDBRANCH   5   6
ENDBRANCH   3   5
ENDBRANCH   1   2
BRANCH   1  11
ATOM     11  C   UNL     1      16.477  26.599   7.384  1.00  0.00     0.034 C 
BRANCH  11  12
ATOM     12  C   UNL     1      17.008  26.272   6.006  1.00  0.00    -0.077 C 
ATOM     13  C   UNL     1      18.338  26.365   5.777  1.00  0.00    -0.028 C 
ATOM     14  C   UNL     1      16.041  25.832   4.932  1.00  0.00     0.039 C 
BRANCH  13  15
ATOM     15  C   UNL     1      19.002  26.110   4.445  1.00  0.00     0.035 C 
BRANCH  15  16
ATOM     16  C   UNL     1      20.091  27.148   4.138  1.00  0.00     0.079 C 
BRANCH  16  17
ATOM     17  C   UNL     1      21.321  26.511   3.547  1.00  0.00     0.130 C 
ATOM     18  O   UNL     1      21.564  25.336   3.772  1.00  0.00    -0.300 OA
ATOM     19  C   UNL     1      22.221  27.297   2.644  1.00  0.00     0.087 C 
ENDBRANCH  16  17
ENDBRANCH  15  16
ENDBRANCH  13  15
ENDBRANCH  11  12
ENDBRANCH   1  11
TORSDOF 9
ENDMDL
MODEL 6
REMARK VINA RESULT:    -7.172      2.346      6.093
REMARK INTER + INTRA:         -12.202
REMARK INTER:                 -11.827
REMARK INTRA:                  -0.375
REMARK UNBOUND:                -1.257
REMARK SMILES CC(=O)CCC=C(C)CCC=C(C)CCC=C(C)C
REMARK SMILES IDX 10 1 11 2 12 3 13 4 14 5 15 6 16 7 18 8 17 9 19 10 9 11 7 12
REMARK SMILES IDX 6 13 8 14 5 15 4 16 2 17 3 18 1 19
REMARK H PARENT
REMARK Flexibility Score: inf
ROOT
ATOM      1  C   UNL     1      15.474  25.947   4.997  1.00  0.00     0.032 C 
ENDROOT
BRANCH   1   2
ATOM      2  C   UNL     1      16.142  26.087   6.342  1.00  0.00    -0.028 C 
ATOM      3  C   UNL     1      16.022  25.197   7.353  1.00  0.00    -0.077 C 
ATOM      4  C   UNL     1      15.234  23.917   7.199  1.00  0.00     0.039 C 
BRANCH   3   5
ATOM      5  C   UNL     1      16.702  25.490   8.673  1.00  0.00     0.034 C 
BRANCH   5   6
ATOM      6  C   UNL     1      17.704  26.640   8.529  1.00  0.00     0.032 C 
BRANCH   6   7
ATOM      7  C   UNL     1      17.913  27.352   9.844  1.00  0.00    -0.028 C 
ATOM      8  C   UNL     1      19.003  27.791  12.004  1.00  0.00     0.039 C 
ATOM      9  C   UNL     1      18.877  27.007  10.723  1.00  0.00    -0.080 C 
ATOM     10  C   UNL     1      19.821  25.859  10.452  1.00  0.00     0.039 C 
ENDBRANCH   6   7
ENDBRANCH   5   6
ENDBRANCH   3   5
ENDBRANCH   1   2
BRANCH   1  11
ATOM     11  C   UNL     1      16.518  25.828   3.882  1.00  0.00     0.034 C 
BRANCH  11  12
ATOM     12  C   UNL     1      17.885  25.521   4.452  1.00  0.00    -0.077 C 
ATOM     13  C   UNL     1      18.775  26.529   4.602  1.00  0.00    -0.028 C 
ATOM     14  C   UNL     1      18.209  24.102   4.857  1.00  0.00     0.039 C 
BRANCH  13  15
ATOM     15  C   UNL     1      20.184  26.364   5.118  1.00  0.00     0.035 C 
BRANCH  15  16
ATOM     16  C   UNL     1      21.168  26.006   3.996  1.00  0.00     0.079 C 
BRANCH  16  17
ATOM     17  C   UNL     1      21.579  27.219   3.203  1.00  0.00     0.130 C 
ATOM     18  O   UNL     1      22.679  27.254   2.674  1.00  0.00    -0.300 OA
ATOM     19  C   UNL     1      20.628  28.361   3.016  1.00  0.00     0.087 C 
ENDBRANCH  16  17
ENDBRANCH  15  16
ENDBRANCH  13  15
ENDBRANCH  11  12
ENDBRANCH   1  11
TORSDOF 9
ENDMDL
MODEL 7
REMARK VINA RESULT:    -6.650      1.290      2.330
REMARK INTER + INTRA:         -11.405
REMARK INTER:                 -10.648
REMARK INTRA:                  -0.758
REMARK UNBOUND:                -1.257
REMARK SMILES CC(=O)CCC=C(C)CCC=C(C)CCC=C(C)C
REMARK SMILES IDX 10 1 11 2 12 3 13 4 14 5 15 6 16 7 18 8 17 9 19 10 9 11 7 12
REMARK SMILES IDX 6 13 8 14 5 15 4 16 2 17 3 18 1 19
REMARK H PARENT
REMARK Flexibility Score: inf
ROOT
ATOM      1  C   UNL     1      15.900  26.194   4.685  1.00  0.00     0.032 C 
ENDROOT
BRANCH   1   2
ATOM      2  C   UNL     1      17.153  25.441   4.314  1.00  0.00    -0.028 C 
ATOM      3  C   UNL     1      18.398  25.777   4.723  1.00  0.00    -0.077 C 
ATOM      4  C   UNL     1      18.642  26.933   5.665  1.00  0.00     0.039 C 
BRANCH   3   5
ATOM      5  C   UNL     1      19.577  24.967   4.228  1.00  0.00     0.034 C 
BRANCH   5   6
ATOM      6  C   UNL     1      20.900  25.632   4.618  1.00  0.00     0.032 C 
BRANCH   6   7
ATOM      7  C   UNL     1      21.688  26.041   3.396  1.00  0.00    -0.028 C 
ATOM      8  C   UNL     1      22.420  27.564   1.610  1.00  0.00     0.039 C 
ATOM      9  C   UNL     1      21.580  27.258   2.823  1.00  0.00    -0.080 C 
ATOM     10  C   UNL     1      20.640  28.308   3.367  1.00  0.00     0.039 C 
ENDBRANCH   6   7
ENDBRANCH   5   6
ENDBRANCH   3   5
ENDBRANCH   1   2
BRANCH   1  11
ATOM     11  C   UNL     1      14.946  25.299   5.482  1.00  0.00     0.034 C 
BRANCH  11  12
ATOM     12  C   UNL     1      15.534  24.948   6.831  1.00  0.00    -0.077 C 
ATOM     13  C   UNL     1      16.282  25.869   7.480  1.00  0.00    -0.028 C 
ATOM     14  C   UNL     1      15.253  23.586   7.422  1.00  0.00     0.039 C 
BRANCH  13  15
ATOM     15  C   UNL     1      16.964  25.644   8.809  1.00  0.00     0.035 C 
BRANCH  15  16
ATOM     16  C   UNL     1      17.864  26.825   9.198  1.00  0.00     0.079 C 
BRANCH  16  17
ATOM     17  C   UNL     1      18.856  26.444  10.267  1.00  0.00     0.130 C 
ATOM     18  O   UNL     1      19.614  25.504  10.084  1.00  0.00    -0.300 OA
ATOM     19  C   UNL     1      18.952  27.241  11.531  1.00  0.00     0.087 C 
ENDBRANCH  16  17
ENDBRANCH  15  16
ENDBRANCH  13  15
ENDBRANCH  11  12
ENDBRANCH   1  11
TORSDOF 9
ENDMDL
MODEL 8
REMARK VINA RESULT:    -5.608      2.142      6.814
REMARK INTER + INTRA:          -9.816
REMARK INTER:                  -9.481
REMARK INTRA:                  -0.335
REMARK UNBOUND:                -1.257
REMARK SMILES CC(=O)CCC=C(C)CCC=C(C)CCC=C(C)C
REMARK SMILES IDX 10 1 11 2 12 3 13 4 14 5 15 6 16 7 18 8 17 9 19 10 9 11 7 12
REMARK SMILES IDX 6 13 8 14 5 15 4 16 2 17 3 18 1 19
REMARK H PARENT
REMARK Flexibility Score: inf
ROOT
ATOM      1  C   UNL     1      19.790  25.713   6.836  1.00  0.00     0.032 C 
ENDROOT
BRANCH   1   2
ATOM      2  C   UNL     1      19.002  26.491   7.859  1.00  0.00    -0.028 C 
ATOM      3  C   UNL     1      18.943  26.186   9.176  1.00  0.00    -0.077 C 
ATOM      4  C   UNL     1      19.736  25.042   9.764  1.00  0.00     0.039 C 
BRANCH   3   5
ATOM      5  C   UNL     1      18.065  27.020  10.083  1.00  0.00     0.034 C 
BRANCH   5   6
ATOM      6  C   UNL     1      18.591  27.001  11.522  1.00  0.00     0.032 C 
BRANCH   6   7
ATOM      7  C   UNL     1      18.968  28.387  11.986  1.00  0.00    -0.028 C 
ATOM      8  C   UNL     1      18.547  30.652  12.847  1.00  0.00     0.039 C 
ATOM      9  C   UNL     1      18.061  29.299  12.397  1.00  0.00    -0.080 C 
ATOM     10  C   UNL     1      16.581  28.992  12.410  1.00  0.00     0.039 C 
ENDBRANCH   6   7
ENDBRANCH   5   6
ENDBRANCH   3   5
ENDBRANCH   1   2
BRANCH   1  11
ATOM     11  C   UNL     1      20.062  26.569   5.594  1.00  0.00     0.034 C 
BRANCH  11  12
ATOM     12  C   UNL     1      18.880  26.541   4.650  1.00  0.00    -0.077 C 
ATOM     13  C   UNL     1      17.789  25.816   4.987  1.00  0.00    -0.028 C 
ATOM     14  C   UNL     1      18.946  27.339   3.369  1.00  0.00     0.039 C 
BRANCH  13  15
ATOM     15  C   UNL     1      16.557  25.663   4.127  1.00  0.00     0.035 C 
BRANCH  15  16
ATOM     16  C   UNL     1      15.267  25.737   4.954  1.00  0.00     0.079 C 
BRANCH  16  17
ATOM     17  C   UNL     1      15.487  25.295   6.377  1.00  0.00     0.130 C 
ATOM     18  O   UNL     1      15.827  26.111   7.220  1.00  0.00    -0.300 OA
ATOM     19  C   UNL     1      15.244  23.872   6.775  1.00  0.00     0.087 C 
ENDBRANCH  16  17
ENDBRANCH  15  16
ENDBRANCH  13  15
ENDBRANCH  11  12
ENDBRANCH   1  11
TORSDOF 9
ENDMDL
MODEL 9
REMARK VINA RESULT:    -5.465      2.499      6.594
REMARK INTER + INTRA:          -9.598
REMARK INTER:                  -9.861
REMARK INTRA:                   0.264
REMARK UNBOUND:                -1.257
REMARK SMILES CC(=O)CCC=C(C)CCC=C(C)CCC=C(C)C
REMARK SMILES IDX 10 1 11 2 12 3 13 4 14 5 15 6 16 7 18 8 17 9 19 10 9 11 7 12
REMARK SMILES IDX 6 13 8 14 5 15 4 16 2 17 3 18 1 19
REMARK H PARENT
REMARK Flexibility Score: inf
ROOT
ATOM      1  C   UNL     1      17.731  24.527   4.890  1.00  0.00     0.032 C 
ENDROOT
BRANCH   1   2
ATOM      2  C   UNL     1      17.720  24.841   6.364  1.00  0.00    -0.028 C 
ATOM      3  C   UNL     1      16.599  24.987   7.108  1.00  0.00    -0.077 C 
ATOM      4  C   UNL     1      15.221  24.782   6.521  1.00  0.00     0.039 C 
BRANCH   3   5
ATOM      5  C   UNL     1      16.731  25.359   8.569  1.00  0.00     0.034 C 
BRANCH   5   6
ATOM      6  C   UNL     1      17.918  26.302   8.788  1.00  0.00     0.032 C 
BRANCH   6   7
ATOM      7  C   UNL     1      18.466  26.175  10.190  1.00  0.00    -0.028 C 
ATOM      8  C   UNL     1      18.881  26.892  12.505  1.00  0.00     0.039 C 
ATOM      9  C   UNL     1      18.299  27.124  11.135  1.00  0.00    -0.080 C 
ATOM     10  C   UNL     1      17.550  28.405  10.847  1.00  0.00     0.039 C 
ENDBRANCH   6   7
ENDBRANCH   5   6
ENDBRANCH   3   5
ENDBRANCH   1   2
BRANCH   1  11
ATOM     11  C   UNL     1      17.329  25.758   4.070  1.00  0.00     0.034 C 
BRANCH  11  12
ATOM     12  C   UNL     1      18.382  26.839   4.167  1.00  0.00    -0.077 C 
ATOM     13  C   UNL     1      18.767  27.482   3.041  1.00  0.00    -0.028 C 
ATOM     14  C   UNL     1      18.957  27.184   5.521  1.00  0.00     0.039 C 
BRANCH  13  15
ATOM     15  C   UNL     1      19.833  28.550   2.981  1.00  0.00     0.035 C 
BRANCH  15  16
ATOM     16  C   UNL     1      21.132  28.104   3.667  1.00  0.00     0.079 C 
BRANCH  16  17
ATOM     17  C   UNL     1      21.763  26.931   2.964  1.00  0.00     0.130 C 
ATOM     18  O   UNL     1      22.409  27.112   1.944  1.00  0.00    -0.300 OA
ATOM     19  C   UNL     1      21.646  25.552   3.536  1.00  0.00     0.087 C 
ENDBRANCH  16  17
ENDBRANCH  15  16
ENDBRANCH  13  15
ENDBRANCH  11  12
ENDBRANCH   1  11
TORSDOF 9
ENDMDL
