MODEL 1
REMARK VINA RESULT:    -7.518      0.000      0.000
REMARK INTER + INTRA:         -14.026
REMARK INTER:                 -11.912
REMARK INTRA:                  -2.113
REMARK UNBOUND:                -2.113
REMARK SMILES C[C@@H]1O[C@@H](O[C@@H]2[C@H](Oc3cc(O)c4c(c3)O[C@H](c3ccc(O)cc3)CC4=O)O[C@H](CO)[C@@H](O)[C@@H]2O)[C@H](O)[C@@H](O)[C@@H]1O
REMARK SMILES IDX 6 1 34 2 32 3 29 4 28 5 7 6 5 7 4 8 1 9 2 10 40 11 3 12
REMARK SMILES IDX 38 13 36 14 41 15 39 17 37 19 35 21 8 23 9 24 10 25 15 26
REMARK SMILES IDX 11 27 14 28 13 29 16 30 26 31 17 32 27 33 25 34 12 35 18 37
REMARK SMILES IDX 19 38 24 39 20 40 23 41 21 42 22 43 33 45 30 47 31 48
REMARK H PARENT 41 16 39 18 37 20 35 22 12 36 22 44 33 46 31 49
REMARK Flexibility Score: inf
ROOT
ATOM      1  C   UNL     1      11.094 -13.547  16.762  1.00  0.00     0.221 C 
ATOM      2  C   UNL     1       9.812 -14.374  16.564  1.00  0.00     0.181 C 
ATOM      3  C   UNL     1       9.461 -15.143  17.851  1.00  0.00     0.177 C 
ATOM      4  C   UNL     1      10.687 -15.864  18.479  1.00  0.00     0.179 C 
ATOM      5  O   UNL     1      11.860 -15.054  18.554  1.00  0.00    -0.332 OA
ATOM      6  C   UNL     1      12.218 -14.427  17.329  1.00  0.00     0.339 C 
ENDROOT
BRANCH   1   7
ATOM      7  O   UNL     1      11.541 -12.993  15.534  1.00  0.00    -0.337 OA
BRANCH   7   8
ATOM      8  C   UNL     1      12.307 -11.807  15.711  1.00  0.00     0.282 C 
ATOM      9  C   UNL     1      10.130  -9.513  13.823  1.00  0.00     0.041 C 
ATOM     10  C   UNL     1      11.109 -10.668  14.041  1.00  0.00     0.150 C 
ATOM     11  C   UNL     1      12.318 -10.560  13.086  1.00  0.00     0.174 C 
ATOM     12  O   UNL     1      11.535 -10.658  15.395  1.00  0.00    -0.344 OA
ATOM     13  C   UNL     1      13.289 -11.734  13.346  1.00  0.00     0.179 C 
ATOM     14  C   UNL     1      13.593 -11.887  14.851  1.00  0.00     0.202 C 
BRANCH  11  15
ATOM     15  O   UNL     1      12.971  -9.328  13.270  1.00  0.00    -0.388 OA
ATOM     16  H   UNL     1      12.436  -8.820  13.932  1.00  0.00     0.211 HD
ENDBRANCH  11  15
BRANCH  13  17
ATOM     17  O   UNL     1      12.727 -12.931  12.868  1.00  0.00    -0.387 OA
ATOM     18  H   UNL     1      13.373 -13.656  13.072  1.00  0.00     0.211 HD
ENDBRANCH  13  17
BRANCH  14  19
ATOM     19  O   UNL     1      14.553 -10.944  15.267  1.00  0.00    -0.385 OA
ATOM     20  H   UNL     1      15.408 -11.148  14.807  1.00  0.00     0.211 HD
ENDBRANCH  14  19
ENDBRANCH   7   8
ENDBRANCH   1   7
BRANCH   2  21
ATOM     21  O   UNL     1       9.978 -15.264  15.487  1.00  0.00    -0.387 OA
ATOM     22  H   UNL     1       9.270 -15.054  14.824  1.00  0.00     0.211 HD
ENDBRANCH   2  21
BRANCH   6  23
ATOM     23  O   UNL     1      12.658 -15.380  16.360  1.00  0.00    -0.462 OA
BRANCH  23  24
ATOM     24  C   UNL     1      13.963 -15.489  15.853  1.00  0.00     0.130 A 
ATOM     25  C   UNL     1      14.973 -15.887  16.730  1.00  0.00     0.093 A 
ATOM     26  C   UNL     1      14.286 -15.229  14.510  1.00  0.00     0.094 A 
ATOM     27  C   UNL     1      16.294 -16.046  16.292  1.00  0.00     0.133 A 
ATOM     28  C   UNL     1      15.598 -15.374  14.056  1.00  0.00     0.138 A 
ATOM     29  C   UNL     1      16.621 -15.762  14.943  1.00  0.00     0.102 A 
ATOM     30  O   UNL     1      15.877 -15.148  12.699  1.00  0.00    -0.484 OA
ATOM     31  C   UNL     1      17.987 -15.856  14.384  1.00  0.00     0.174 C 
ATOM     32  C   UNL     1      17.203 -15.042  12.167  1.00  0.00     0.211 C 
ATOM     33  O   UNL     1      19.009 -15.763  15.115  1.00  0.00    -0.294 OA
ATOM     34  C   UNL     1      18.148 -16.014  12.901  1.00  0.00     0.131 C 
BRANCH  27  35
ATOM     35  O   UNL     1      17.226 -16.520  17.219  1.00  0.00    -0.507 OA
ATOM     36  H   UNL     1      16.982 -16.863  18.138  1.00  0.00     0.293 HD
ENDBRANCH  27  35
BRANCH  32  37
ATOM     37  C   UNL     1      17.150 -15.241  10.658  1.00  0.00    -0.007 A 
ATOM     38  C   UNL     1      15.957 -15.127   9.909  1.00  0.00     0.011 A 
ATOM     39  C   UNL     1      18.331 -15.607   9.982  1.00  0.00     0.011 A 
ATOM     40  C   UNL     1      15.964 -15.328   8.525  1.00  0.00     0.046 A 
ATOM     41  C   UNL     1      18.332 -15.806   8.598  1.00  0.00     0.046 A 
ATOM     42  C   UNL     1      17.149 -15.660   7.865  1.00  0.00     0.115 A 
BRANCH  42  43
ATOM     43  O   UNL     1      17.137 -15.846   6.484  1.00  0.00    -0.508 OA
ATOM     44  H   UNL     1      16.302 -16.156   5.999  1.00  0.00     0.293 HD
ENDBRANCH  42  43
ENDBRANCH  32  37
ENDBRANCH  23  24
ENDBRANCH   6  23
BRANCH   3  45
ATOM     45  O   UNL     1       8.857 -14.282  18.786  1.00  0.00    -0.387 OA
ATOM     46  H   UNL     1       7.881 -14.261  18.605  1.00  0.00     0.211 HD
ENDBRANCH   3  45
BRANCH   4  47
ATOM     47  C   UNL     1      10.951 -17.255  17.861  1.00  0.00     0.191 C 
BRANCH  47  48
ATOM     48  O   UNL     1       9.763 -17.797  17.347  1.00  0.00    -0.394 OA
ATOM     49  H   UNL     1       9.503 -18.538  17.958  1.00  0.00     0.210 HD
ENDBRANCH  47  48
ENDBRANCH   4  47
TORSDOF 14
ENDMDL
MODEL 2
REMARK VINA RESULT:    -7.376      3.980      8.194
REMARK INTER + INTRA:         -13.801
REMARK INTER:                 -12.108
REMARK INTRA:                  -1.693
REMARK UNBOUND:                -2.113
REMARK SMILES C[C@@H]1O[C@@H](O[C@@H]2[C@H](Oc3cc(O)c4c(c3)O[C@H](c3ccc(O)cc3)CC4=O)O[C@H](CO)[C@@H](O)[C@@H]2O)[C@H](O)[C@@H](O)[C@@H]1O
REMARK SMILES IDX 6 1 34 2 32 3 29 4 28 5 7 6 5 7 4 8 1 9 2 10 40 11 3 12
REMARK SMILES IDX 38 13 36 14 41 15 39 17 37 19 35 21 8 23 9 24 10 25 15 26
REMARK SMILES IDX 11 27 14 28 13 29 16 30 26 31 17 32 27 33 25 34 12 35 18 37
REMARK SMILES IDX 19 38 24 39 20 40 23 41 21 42 22 43 33 45 30 47 31 48
REMARK H PARENT 41 16 39 18 37 20 35 22 12 36 22 44 33 46 31 49
REMARK Flexibility Score: inf
ROOT
ATOM      1  C   UNL     1      12.810 -16.263  16.662  1.00  0.00     0.221 C 
ATOM      2  C   UNL     1      13.113 -16.539  18.144  1.00  0.00     0.181 C 
ATOM      3  C   UNL     1      12.538 -17.902  18.568  1.00  0.00     0.177 C 
ATOM      4  C   UNL     1      11.076 -18.120  18.085  1.00  0.00     0.179 C 
ATOM      5  O   UNL     1      10.858 -17.765  16.720  1.00  0.00    -0.332 OA
ATOM      6  C   UNL     1      11.315 -16.464  16.373  1.00  0.00     0.339 C 
ENDROOT
BRANCH   1   7
ATOM      7  O   UNL     1      13.154 -14.932  16.307  1.00  0.00    -0.337 OA
BRANCH   7   8
ATOM      8  C   UNL     1      14.557 -14.748  16.156  1.00  0.00     0.282 C 
ATOM      9  C   UNL     1      14.471 -11.354  14.726  1.00  0.00     0.041 C 
ATOM     10  C   UNL     1      14.260 -12.869  14.776  1.00  0.00     0.150 C 
ATOM     11  C   UNL     1      14.846 -13.553  13.522  1.00  0.00     0.174 C 
ATOM     12  O   UNL     1      14.866 -13.376  15.956  1.00  0.00    -0.344 OA
ATOM     13  C   UNL     1      14.628 -15.081  13.617  1.00  0.00     0.179 C 
ATOM     14  C   UNL     1      15.074 -15.626  14.989  1.00  0.00     0.202 C 
BRANCH  11  15
ATOM     15  O   UNL     1      16.216 -13.256  13.405  1.00  0.00    -0.388 OA
ATOM     16  H   UNL     1      16.431 -13.283  12.438  1.00  0.00     0.211 HD
ENDBRANCH  11  15
BRANCH  13  17
ATOM     17  O   UNL     1      13.267 -15.379  13.425  1.00  0.00    -0.387 OA
ATOM     18  H   UNL     1      13.227 -16.188  12.852  1.00  0.00     0.211 HD
ENDBRANCH  13  17
BRANCH  14  19
ATOM     19  O   UNL     1      16.473 -15.779  15.037  1.00  0.00    -0.385 OA
ATOM     20  H   UNL     1      16.677 -16.750  15.083  1.00  0.00     0.211 HD
ENDBRANCH  14  19
ENDBRANCH   7   8
ENDBRANCH   1   7
BRANCH   2  21
ATOM     21  O   UNL     1      12.580 -15.509  18.941  1.00  0.00    -0.387 OA
ATOM     22  H   UNL     1      12.397 -15.898  19.835  1.00  0.00     0.211 HD
ENDBRANCH   2  21
BRANCH   6  23
ATOM     23  O   UNL     1      10.532 -15.448  17.002  1.00  0.00    -0.462 OA
BRANCH  23  24
ATOM     24  C   UNL     1       9.687 -14.540  16.344  1.00  0.00     0.130 A 
ATOM     25  C   UNL     1      10.052 -13.192  16.342  1.00  0.00     0.093 A 
ATOM     26  C   UNL     1       8.511 -14.931  15.682  1.00  0.00     0.094 A 
ATOM     27  C   UNL     1       9.276 -12.231  15.682  1.00  0.00     0.133 A 
ATOM     28  C   UNL     1       7.719 -13.986  15.025  1.00  0.00     0.138 A 
ATOM     29  C   UNL     1       8.078 -12.625  15.036  1.00  0.00     0.102 A 
ATOM     30  O   UNL     1       6.574 -14.418  14.338  1.00  0.00    -0.484 OA
ATOM     31  C   UNL     1       7.164 -11.690  14.344  1.00  0.00     0.174 C 
ATOM     32  C   UNL     1       5.571 -13.531  13.828  1.00  0.00     0.211 C 
ATOM     33  O   UNL     1       7.126 -10.465  14.636  1.00  0.00    -0.294 OA
ATOM     34  C   UNL     1       6.225 -12.235  13.309  1.00  0.00     0.131 C 
BRANCH  27  35
ATOM     35  O   UNL     1       9.754 -10.918  15.668  1.00  0.00    -0.507 OA
ATOM     36  H   UNL     1      10.644 -10.638  16.058  1.00  0.00     0.293 HD
ENDBRANCH  27  35
BRANCH  32  37
ATOM     37  C   UNL     1       4.737 -14.270  12.790  1.00  0.00    -0.007 A 
ATOM     38  C   UNL     1       5.293 -15.186  11.868  1.00  0.00     0.011 A 
ATOM     39  C   UNL     1       3.359 -13.991  12.706  1.00  0.00     0.011 A 
ATOM     40  C   UNL     1       4.481 -15.832  10.931  1.00  0.00     0.046 A 
ATOM     41  C   UNL     1       2.552 -14.639  11.766  1.00  0.00     0.046 A 
ATOM     42  C   UNL     1       3.110 -15.567  10.880  1.00  0.00     0.115 A 
BRANCH  42  43
ATOM     43  O   UNL     1       2.317 -16.228   9.945  1.00  0.00    -0.508 OA
ATOM     44  H   UNL     1       1.744 -17.023  10.205  1.00  0.00     0.293 HD
ENDBRANCH  42  43
ENDBRANCH  32  37
ENDBRANCH  23  24
ENDBRANCH   6  23
BRANCH   3  45
ATOM     45  O   UNL     1      13.370 -18.945  18.122  1.00  0.00    -0.387 OA
ATOM     46  H   UNL     1      13.833 -19.333  18.910  1.00  0.00     0.211 HD
ENDBRANCH   3  45
BRANCH   4  47
ATOM     47  C   UNL     1      10.027 -17.513  19.042  1.00  0.00     0.191 C 
BRANCH  47  48
ATOM     48  O   UNL     1       9.437 -18.517  19.826  1.00  0.00    -0.394 OA
ATOM     49  H   UNL     1       8.555 -18.164  20.121  1.00  0.00     0.210 HD
ENDBRANCH  47  48
ENDBRANCH   4  47
TORSDOF 14
ENDMDL
MODEL 3
REMARK VINA RESULT:    -7.366      2.097      4.871
REMARK INTER + INTRA:         -13.785
REMARK INTER:                 -11.651
REMARK INTRA:                  -2.133
REMARK UNBOUND:                -2.113
REMARK SMILES C[C@@H]1O[C@@H](O[C@@H]2[C@H](Oc3cc(O)c4c(c3)O[C@H](c3ccc(O)cc3)CC4=O)O[C@H](CO)[C@@H](O)[C@@H]2O)[C@H](O)[C@@H](O)[C@@H]1O
REMARK SMILES IDX 6 1 34 2 32 3 29 4 28 5 7 6 5 7 4 8 1 9 2 10 40 11 3 12
REMARK SMILES IDX 38 13 36 14 41 15 39 17 37 19 35 21 8 23 9 24 10 25 15 26
REMARK SMILES IDX 11 27 14 28 13 29 16 30 26 31 17 32 27 33 25 34 12 35 18 37
REMARK SMILES IDX 19 38 24 39 20 40 23 41 21 42 22 43 33 45 30 47 31 48
REMARK H PARENT 41 16 39 18 37 20 35 22 12 36 22 44 33 46 31 49
REMARK Flexibility Score: inf
ROOT
ATOM      1  C   UNL     1       9.860 -12.379  16.258  1.00  0.00     0.221 C 
ATOM      2  C   UNL     1       9.294 -11.290  17.185  1.00  0.00     0.181 C 
ATOM      3  C   UNL     1       8.386 -10.328  16.398  1.00  0.00     0.177 C 
ATOM      4  C   UNL     1       9.015  -9.865  15.053  1.00  0.00     0.179 C 
ATOM      5  O   UNL     1       9.589 -10.924  14.288  1.00  0.00    -0.332 OA
ATOM      6  C   UNL     1      10.497 -11.745  15.012  1.00  0.00     0.339 C 
ENDROOT
BRANCH   1   7
ATOM      7  O   UNL     1      10.851 -13.150  16.918  1.00  0.00    -0.337 OA
BRANCH   7   8
ATOM      8  C   UNL     1      10.363 -14.411  17.361  1.00  0.00     0.282 C 
ATOM      9  C   UNL     1      13.483 -15.661  18.868  1.00  0.00     0.041 C 
ATOM     10  C   UNL     1      12.533 -15.224  17.751  1.00  0.00     0.150 C 
ATOM     11  C   UNL     1      12.460 -16.289  16.635  1.00  0.00     0.174 C 
ATOM     12  O   UNL     1      11.249 -14.990  18.309  1.00  0.00    -0.344 OA
ATOM     13  C   UNL     1      11.480 -15.819  15.535  1.00  0.00     0.179 C 
ATOM     14  C   UNL     1      10.145 -15.341  16.141  1.00  0.00     0.202 C 
BRANCH  11  15
ATOM     15  O   UNL     1      12.046 -17.522  17.171  1.00  0.00    -0.388 OA
ATOM     16  H   UNL     1      12.501 -17.618  18.047  1.00  0.00     0.211 HD
ENDBRANCH  11  15
BRANCH  13  17
ATOM     17  O   UNL     1      12.056 -14.763  14.805  1.00  0.00    -0.387 OA
ATOM     18  H   UNL     1      12.779 -15.156  14.252  1.00  0.00     0.211 HD
ENDBRANCH  13  17
BRANCH  14  19
ATOM     19  O   UNL     1       9.321 -16.436  16.467  1.00  0.00    -0.385 OA
ATOM     20  H   UNL     1       8.686 -16.580  15.718  1.00  0.00     0.211 HD
ENDBRANCH  14  19
ENDBRANCH   7   8
ENDBRANCH   1   7
BRANCH   2  21
ATOM     21  O   UNL     1      10.349 -10.585  17.794  1.00  0.00    -0.387 OA
ATOM     22  H   UNL     1      11.195 -10.977  17.455  1.00  0.00     0.211 HD
ENDBRANCH   2  21
BRANCH   6  23
ATOM     23  O   UNL     1      11.688 -11.035  15.353  1.00  0.00    -0.462 OA
BRANCH  23  24
ATOM     24  C   UNL     1      13.001 -11.490  15.143  1.00  0.00     0.130 A 
ATOM     25  C   UNL     1      13.808 -11.694  16.264  1.00  0.00     0.093 A 
ATOM     26  C   UNL     1      13.522 -11.758  13.866  1.00  0.00     0.094 A 
ATOM     27  C   UNL     1      15.117 -12.174  16.138  1.00  0.00     0.133 A 
ATOM     28  C   UNL     1      14.829 -12.229  13.719  1.00  0.00     0.138 A 
ATOM     29  C   UNL     1      15.649 -12.421  14.848  1.00  0.00     0.102 A 
ATOM     30  O   UNL     1      15.303 -12.528  12.432  1.00  0.00    -0.484 OA
ATOM     31  C   UNL     1      17.029 -12.890  14.596  1.00  0.00     0.174 C 
ATOM     32  C   UNL     1      16.679 -12.794  12.134  1.00  0.00     0.211 C 
ATOM     33  O   UNL     1      17.957 -12.689  15.424  1.00  0.00    -0.294 OA
ATOM     34  C   UNL     1      17.331 -13.571  13.294  1.00  0.00     0.131 C 
BRANCH  27  35
ATOM     35  O   UNL     1      15.829 -12.419  17.315  1.00  0.00    -0.507 OA
ATOM     36  H   UNL     1      16.518 -11.788  17.699  1.00  0.00     0.293 HD
ENDBRANCH  27  35
BRANCH  32  37
ATOM     37  C   UNL     1      16.767 -13.495  10.784  1.00  0.00    -0.007 A 
ATOM     38  C   UNL     1      17.530 -12.991   9.706  1.00  0.00     0.011 A 
ATOM     39  C   UNL     1      16.016 -14.670  10.582  1.00  0.00     0.011 A 
ATOM     40  C   UNL     1      17.571 -13.673   8.485  1.00  0.00     0.046 A 
ATOM     41  C   UNL     1      16.061 -15.346   9.359  1.00  0.00     0.046 A 
ATOM     42  C   UNL     1      16.844 -14.852   8.309  1.00  0.00     0.115 A 
BRANCH  42  43
ATOM     43  O   UNL     1      16.905 -15.521   7.089  1.00  0.00    -0.508 OA
ATOM     44  H   UNL     1      17.548 -15.234   6.359  1.00  0.00     0.293 HD
ENDBRANCH  42  43
ENDBRANCH  32  37
ENDBRANCH  23  24
ENDBRANCH   6  23
BRANCH   3  45
ATOM     45  O   UNL     1       7.124 -10.911  16.183  1.00  0.00    -0.387 OA
ATOM     46  H   UNL     1       6.777 -10.592  15.309  1.00  0.00     0.211 HD
ENDBRANCH   3  45
BRANCH   4  47
ATOM     47  C   UNL     1       9.959  -8.654  15.213  1.00  0.00     0.191 C 
BRANCH  47  48
ATOM     48  O   UNL     1       9.619  -7.913  16.355  1.00  0.00    -0.394 OA
ATOM     49  H   UNL     1      10.415  -7.362  16.583  1.00  0.00     0.210 HD
ENDBRANCH  47  48
ENDBRANCH   4  47
TORSDOF 14
ENDMDL
MODEL 4
REMARK VINA RESULT:    -7.356      4.180      8.444
REMARK INTER + INTRA:         -13.769
REMARK INTER:                 -11.988
REMARK INTRA:                  -1.781
REMARK UNBOUND:                -2.113
REMARK SMILES C[C@@H]1O[C@@H](O[C@@H]2[C@H](Oc3cc(O)c4c(c3)O[C@H](c3ccc(O)cc3)CC4=O)O[C@H](CO)[C@@H](O)[C@@H]2O)[C@H](O)[C@@H](O)[C@@H]1O
REMARK SMILES IDX 6 1 34 2 32 3 29 4 28 5 7 6 5 7 4 8 1 9 2 10 40 11 3 12
REMARK SMILES IDX 38 13 36 14 41 15 39 17 37 19 35 21 8 23 9 24 10 25 15 26
REMARK SMILES IDX 11 27 14 28 13 29 16 30 26 31 17 32 27 33 25 34 12 35 18 37
REMARK SMILES IDX 19 38 24 39 20 40 23 41 21 42 22 43 33 45 30 47 31 48
REMARK H PARENT 41 16 39 18 37 20 35 22 12 36 22 44 33 46 31 49
REMARK Flexibility Score: inf
ROOT
ATOM      1  C   UNL     1      12.692 -15.673  16.272  1.00  0.00     0.221 C 
ATOM      2  C   UNL     1      13.006 -15.970  17.748  1.00  0.00     0.181 C 
ATOM      3  C   UNL     1      12.581 -17.404  18.114  1.00  0.00     0.177 C 
ATOM      4  C   UNL     1      11.158 -17.764  17.600  1.00  0.00     0.179 C 
ATOM      5  O   UNL     1      10.919 -17.384  16.245  1.00  0.00    -0.332 OA
ATOM      6  C   UNL     1      11.232 -16.028  15.953  1.00  0.00     0.339 C 
ENDROOT
BRANCH   1   7
ATOM      7  O   UNL     1      12.890 -14.301  15.972  1.00  0.00    -0.337 OA
BRANCH   7   8
ATOM      8  C   UNL     1      13.413 -14.093  14.665  1.00  0.00     0.282 C 
ATOM      9  C   UNL     1      16.857 -13.213  15.633  1.00  0.00     0.041 C 
ATOM     10  C   UNL     1      15.342 -13.041  15.499  1.00  0.00     0.150 C 
ATOM     11  C   UNL     1      14.990 -11.662  14.900  1.00  0.00     0.174 C 
ATOM     12  O   UNL     1      14.834 -14.088  14.687  1.00  0.00    -0.344 OA
ATOM     13  C   UNL     1      13.455 -11.534  14.767  1.00  0.00     0.179 C 
ATOM     14  C   UNL     1      12.846 -12.775  14.082  1.00  0.00     0.202 C 
BRANCH  11  15
ATOM     15  O   UNL     1      15.610 -11.507  13.647  1.00  0.00    -0.388 OA
ATOM     16  H   UNL     1      15.940 -12.403  13.380  1.00  0.00     0.211 HD
ENDBRANCH  11  15
BRANCH  13  17
ATOM     17  O   UNL     1      12.878 -11.383  16.041  1.00  0.00    -0.387 OA
ATOM     18  H   UNL     1      11.953 -11.734  15.981  1.00  0.00     0.211 HD
ENDBRANCH  13  17
BRANCH  14  19
ATOM     19  O   UNL     1      13.016 -12.711  12.686  1.00  0.00    -0.385 OA
ATOM     20  H   UNL     1      13.274 -11.783  12.447  1.00  0.00     0.211 HD
ENDBRANCH  14  19
ENDBRANCH   7   8
ENDBRANCH   1   7
BRANCH   2  21
ATOM     21  O   UNL     1      12.353 -15.037  18.574  1.00  0.00    -0.387 OA
ATOM     22  H   UNL     1      11.449 -15.399  18.765  1.00  0.00     0.211 HD
ENDBRANCH   2  21
BRANCH   6  23
ATOM     23  O   UNL     1      10.334 -15.130  16.606  1.00  0.00    -0.462 OA
BRANCH  23  24
ATOM     24  C   UNL     1       9.429 -14.267  15.966  1.00  0.00     0.130 A 
ATOM     25  C   UNL     1       9.761 -12.913  15.888  1.00  0.00     0.093 A 
ATOM     26  C   UNL     1       8.223 -14.709  15.396  1.00  0.00     0.094 A 
ATOM     27  C   UNL     1       8.925 -11.996  15.241  1.00  0.00     0.133 A 
ATOM     28  C   UNL     1       7.371 -13.808  14.752  1.00  0.00     0.138 A 
ATOM     29  C   UNL     1       7.699 -12.441  14.686  1.00  0.00     0.102 A 
ATOM     30  O   UNL     1       6.196 -14.292  14.156  1.00  0.00    -0.484 OA
ATOM     31  C   UNL     1       6.722 -11.554  14.017  1.00  0.00     0.174 C 
ATOM     32  C   UNL     1       5.144 -13.447  13.675  1.00  0.00     0.211 C 
ATOM     33  O   UNL     1       6.673 -10.319  14.262  1.00  0.00    -0.294 OA
ATOM     34  C   UNL     1       5.734 -12.160  13.065  1.00  0.00     0.131 C 
BRANCH  27  35
ATOM     35  O   UNL     1       9.370 -10.675  15.144  1.00  0.00    -0.507 OA
ATOM     36  H   UNL     1       9.076  -9.935  15.766  1.00  0.00     0.293 HD
ENDBRANCH  27  35
BRANCH  32  37
ATOM     37  C   UNL     1       4.264 -14.245  12.721  1.00  0.00    -0.007 A 
ATOM     38  C   UNL     1       4.777 -15.226  11.841  1.00  0.00     0.011 A 
ATOM     39  C   UNL     1       2.885 -13.959  12.673  1.00  0.00     0.011 A 
ATOM     40  C   UNL     1       3.924 -15.924  10.981  1.00  0.00     0.046 A 
ATOM     41  C   UNL     1       2.038 -14.661  11.810  1.00  0.00     0.046 A 
ATOM     42  C   UNL     1       2.555 -15.650  10.966  1.00  0.00     0.115 A 
BRANCH  42  43
ATOM     43  O   UNL     1       1.721 -16.364  10.108  1.00  0.00    -0.508 OA
ATOM     44  H   UNL     1       1.696 -16.173   9.113  1.00  0.00     0.293 HD
ENDBRANCH  42  43
ENDBRANCH  32  37
ENDBRANCH  23  24
ENDBRANCH   6  23
BRANCH   3  45
ATOM     45  O   UNL     1      13.529 -18.331  17.643  1.00  0.00    -0.387 OA
ATOM     46  H   UNL     1      14.373 -17.844  17.450  1.00  0.00     0.211 HD
ENDBRANCH   3  45
BRANCH   4  47
ATOM     47  C   UNL     1      10.037 -17.313  18.562  1.00  0.00     0.191 C 
BRANCH  47  48
ATOM     48  O   UNL     1       9.647 -18.375  19.393  1.00  0.00    -0.394 OA
ATOM     49  H   UNL     1      10.234 -18.337  20.195  1.00  0.00     0.210 HD
ENDBRANCH  47  48
ENDBRANCH   4  47
TORSDOF 14
ENDMDL
MODEL 5
REMARK VINA RESULT:    -7.322      2.541      5.309
REMARK INTER + INTRA:         -13.715
REMARK INTER:                 -11.463
REMARK INTRA:                  -2.252
REMARK UNBOUND:                -2.113
REMARK SMILES C[C@@H]1O[C@@H](O[C@@H]2[C@H](Oc3cc(O)c4c(c3)O[C@H](c3ccc(O)cc3)CC4=O)O[C@H](CO)[C@@H](O)[C@@H]2O)[C@H](O)[C@@H](O)[C@@H]1O
REMARK SMILES IDX 6 1 34 2 32 3 29 4 28 5 7 6 5 7 4 8 1 9 2 10 40 11 3 12
REMARK SMILES IDX 38 13 36 14 41 15 39 17 37 19 35 21 8 23 9 24 10 25 15 26
REMARK SMILES IDX 11 27 14 28 13 29 16 30 26 31 17 32 27 33 25 34 12 35 18 37
REMARK SMILES IDX 19 38 24 39 20 40 23 41 21 42 22 43 33 45 30 47 31 48
REMARK H PARENT 41 16 39 18 37 20 35 22 12 36 22 44 33 46 31 49
REMARK Flexibility Score: inf
ROOT
ATOM      1  C   UNL     1      11.197 -10.677  15.122  1.00  0.00     0.221 C 
ATOM      2  C   UNL     1       9.772 -10.235  14.750  1.00  0.00     0.181 C 
ATOM      3  C   UNL     1       9.187  -9.320  15.842  1.00  0.00     0.177 C 
ATOM      4  C   UNL     1       9.413  -9.871  17.278  1.00  0.00     0.179 C 
ATOM      5  O   UNL     1      10.741 -10.334  17.519  1.00  0.00    -0.332 OA
ATOM      6  C   UNL     1      11.226 -11.251  16.546  1.00  0.00     0.339 C 
ENDROOT
BRANCH   1   7
ATOM      7  O   UNL     1      11.673 -11.674  14.232  1.00  0.00    -0.337 OA
BRANCH   7   8
ATOM      8  C   UNL     1      12.303 -11.128  13.079  1.00  0.00     0.282 C 
ATOM      9  C   UNL     1      13.781 -14.245  11.787  1.00  0.00     0.041 C 
ATOM     10  C   UNL     1      13.588 -13.067  12.744  1.00  0.00     0.150 C 
ATOM     11  C   UNL     1      14.932 -12.368  13.042  1.00  0.00     0.174 C 
ATOM     12  O   UNL     1      12.664 -12.157  12.168  1.00  0.00    -0.344 OA
ATOM     13  C   UNL     1      14.694 -11.176  13.998  1.00  0.00     0.179 C 
ATOM     14  C   UNL     1      13.532 -10.288  13.507  1.00  0.00     0.202 C 
BRANCH  11  15
ATOM     15  O   UNL     1      15.525 -11.929  11.844  1.00  0.00    -0.388 OA
ATOM     16  H   UNL     1      14.958 -11.193  11.500  1.00  0.00     0.211 HD
ENDBRANCH  11  15
BRANCH  13  17
ATOM     17  O   UNL     1      14.395 -11.653  15.287  1.00  0.00    -0.387 OA
ATOM     18  H   UNL     1      13.629 -11.119  15.621  1.00  0.00     0.211 HD
ENDBRANCH  13  17
BRANCH  14  19
ATOM     19  O   UNL     1      13.957  -9.431  12.475  1.00  0.00    -0.385 OA
ATOM     20  H   UNL     1      13.491  -9.695  11.640  1.00  0.00     0.211 HD
ENDBRANCH  14  19
ENDBRANCH   7   8
ENDBRANCH   1   7
BRANCH   2  21
ATOM     21  O   UNL     1       8.954 -11.364  14.563  1.00  0.00    -0.387 OA
ATOM     22  H   UNL     1       8.013 -11.056  14.632  1.00  0.00     0.211 HD
ENDBRANCH   2  21
BRANCH   6  23
ATOM     23  O   UNL     1      10.532 -12.498  16.608  1.00  0.00    -0.462 OA
BRANCH  23  24
ATOM     24  C   UNL     1      11.113 -13.746  16.890  1.00  0.00     0.130 A 
ATOM     25  C   UNL     1      10.292 -14.743  17.420  1.00  0.00     0.093 A 
ATOM     26  C   UNL     1      12.467 -14.030  16.650  1.00  0.00     0.094 A 
ATOM     27  C   UNL     1      10.791 -16.020  17.701  1.00  0.00     0.133 A 
ATOM     28  C   UNL     1      12.986 -15.296  16.930  1.00  0.00     0.138 A 
ATOM     29  C   UNL     1      12.163 -16.298  17.479  1.00  0.00     0.102 A 
ATOM     30  O   UNL     1      14.333 -15.559  16.638  1.00  0.00    -0.484 OA
ATOM     31  C   UNL     1      12.804 -17.598  17.777  1.00  0.00     0.174 C 
ATOM     32  C   UNL     1      15.031 -16.728  17.086  1.00  0.00     0.211 C 
ATOM     33  O   UNL     1      12.326 -18.391  18.631  1.00  0.00    -0.294 OA
ATOM     34  C   UNL     1      14.084 -17.945  17.078  1.00  0.00     0.131 C 
BRANCH  27  35
ATOM     35  O   UNL     1       9.883 -16.979  18.159  1.00  0.00    -0.507 OA
ATOM     36  H   UNL     1       9.967 -17.969  17.972  1.00  0.00     0.293 HD
ENDBRANCH  27  35
BRANCH  32  37
ATOM     37  C   UNL     1      16.288 -16.908  16.246  1.00  0.00    -0.007 A 
ATOM     38  C   UNL     1      17.492 -17.434  16.768  1.00  0.00     0.011 A 
ATOM     39  C   UNL     1      16.270 -16.485  14.902  1.00  0.00     0.011 A 
ATOM     40  C   UNL     1      18.620 -17.572  15.952  1.00  0.00     0.046 A 
ATOM     41  C   UNL     1      17.402 -16.625  14.092  1.00  0.00     0.046 A 
ATOM     42  C   UNL     1      18.578 -17.175  14.614  1.00  0.00     0.115 A 
BRANCH  42  43
ATOM     43  O   UNL     1      19.709 -17.329  13.815  1.00  0.00    -0.508 OA
ATOM     44  H   UNL     1      19.861 -18.170  13.270  1.00  0.00     0.293 HD
ENDBRANCH  42  43
ENDBRANCH  32  37
ENDBRANCH  23  24
ENDBRANCH   6  23
BRANCH   3  45
ATOM     45  O   UNL     1       9.708  -8.018  15.720  1.00  0.00    -0.387 OA
ATOM     46  H   UNL     1       9.659  -7.750  14.766  1.00  0.00     0.211 HD
ENDBRANCH   3  45
BRANCH   4  47
ATOM     47  C   UNL     1       8.330 -10.882  17.713  1.00  0.00     0.191 C 
BRANCH  47  48
ATOM     48  O   UNL     1       7.229 -10.828  16.844  1.00  0.00    -0.394 OA
ATOM     49  H   UNL     1       7.571 -10.484  15.976  1.00  0.00     0.210 HD
ENDBRANCH  47  48
ENDBRANCH   4  47
TORSDOF 14
ENDMDL
MODEL 6
REMARK VINA RESULT:    -7.264      1.991      2.558
REMARK INTER + INTRA:         -13.624
REMARK INTER:                 -12.229
REMARK INTRA:                  -1.395
REMARK UNBOUND:                -2.113
REMARK SMILES C[C@@H]1O[C@@H](O[C@@H]2[C@H](Oc3cc(O)c4c(c3)O[C@H](c3ccc(O)cc3)CC4=O)O[C@H](CO)[C@@H](O)[C@@H]2O)[C@H](O)[C@@H](O)[C@@H]1O
REMARK SMILES IDX 6 1 34 2 32 3 29 4 28 5 7 6 5 7 4 8 1 9 2 10 40 11 3 12
REMARK SMILES IDX 38 13 36 14 41 15 39 17 37 19 35 21 8 23 9 24 10 25 15 26
REMARK SMILES IDX 11 27 14 28 13 29 16 30 26 31 17 32 27 33 25 34 12 35 18 37
REMARK SMILES IDX 19 38 24 39 20 40 23 41 21 42 22 43 33 45 30 47 31 48
REMARK H PARENT 41 16 39 18 37 20 35 22 12 36 22 44 33 46 31 49
REMARK Flexibility Score: inf
ROOT
ATOM      1  C   UNL     1      10.157 -13.658  17.032  1.00  0.00     0.221 C 
ATOM      2  C   UNL     1       9.399 -14.984  16.855  1.00  0.00     0.181 C 
ATOM      3  C   UNL     1       9.860 -16.014  17.902  1.00  0.00     0.177 C 
ATOM      4  C   UNL     1      11.407 -16.088  18.039  1.00  0.00     0.179 C 
ATOM      5  O   UNL     1      12.043 -14.814  18.117  1.00  0.00    -0.332 OA
ATOM      6  C   UNL     1      11.672 -13.909  17.085  1.00  0.00     0.339 C 
ENDROOT
BRANCH   1   7
ATOM      7  O   UNL     1       9.893 -12.769  15.958  1.00  0.00    -0.337 OA
BRANCH   7   8
ATOM      8  C   UNL     1      10.769 -11.648  15.943  1.00  0.00     0.282 C 
ATOM      9  C   UNL     1       9.084  -9.656  18.544  1.00  0.00     0.041 C 
ATOM     10  C   UNL     1       9.266 -10.335  17.185  1.00  0.00     0.150 C 
ATOM     11  C   UNL     1       8.992  -9.348  16.029  1.00  0.00     0.174 C 
ATOM     12  O   UNL     1      10.586 -10.851  17.105  1.00  0.00    -0.344 OA
ATOM     13  C   UNL     1       9.201 -10.066  14.676  1.00  0.00     0.179 C 
ATOM     14  C   UNL     1      10.541 -10.829  14.648  1.00  0.00     0.202 C 
BRANCH  11  15
ATOM     15  O   UNL     1       9.844  -8.233  16.134  1.00  0.00    -0.388 OA
ATOM     16  H   UNL     1      10.488  -8.296  15.383  1.00  0.00     0.211 HD
ENDBRANCH  11  15
BRANCH  13  17
ATOM     17  O   UNL     1       8.151 -10.975  14.453  1.00  0.00    -0.387 OA
ATOM     18  H   UNL     1       7.376 -10.657  14.984  1.00  0.00     0.211 HD
ENDBRANCH  13  17
BRANCH  14  19
ATOM     19  O   UNL     1      11.613  -9.951  14.396  1.00  0.00    -0.385 OA
ATOM     20  H   UNL     1      11.487  -9.559  13.493  1.00  0.00     0.211 HD
ENDBRANCH  14  19
ENDBRANCH   7   8
ENDBRANCH   1   7
BRANCH   2  21
ATOM     21  O   UNL     1       9.599 -15.480  15.554  1.00  0.00    -0.387 OA
ATOM     22  H   UNL     1       8.779 -15.274  15.035  1.00  0.00     0.211 HD
ENDBRANCH   2  21
BRANCH   6  23
ATOM     23  O   UNL     1      12.163 -14.334  15.813  1.00  0.00    -0.462 OA
BRANCH  23  24
ATOM     24  C   UNL     1      13.422 -14.018  15.274  1.00  0.00     0.130 A 
ATOM     25  C   UNL     1      14.436 -13.648  16.159  1.00  0.00     0.093 A 
ATOM     26  C   UNL     1      13.701 -14.074  13.899  1.00  0.00     0.094 A 
ATOM     27  C   UNL     1      15.725 -13.347  15.702  1.00  0.00     0.133 A 
ATOM     28  C   UNL     1      14.978 -13.770  13.421  1.00  0.00     0.138 A 
ATOM     29  C   UNL     1      15.997 -13.382  14.312  1.00  0.00     0.102 A 
ATOM     30  O   UNL     1      15.233 -13.878  12.045  1.00  0.00    -0.484 OA
ATOM     31  C   UNL     1      17.309 -13.044  13.716  1.00  0.00     0.174 C 
ATOM     32  C   UNL     1      16.419 -13.379  11.416  1.00  0.00     0.211 C 
ATOM     33  O   UNL     1      18.132 -12.297  14.308  1.00  0.00    -0.294 OA
ATOM     34  C   UNL     1      17.633 -13.567  12.347  1.00  0.00     0.131 C 
BRANCH  27  35
ATOM     35  O   UNL     1      16.698 -13.058  16.663  1.00  0.00    -0.507 OA
ATOM     36  H   UNL     1      17.581 -13.544  16.732  1.00  0.00     0.293 HD
ENDBRANCH  27  35
BRANCH  32  37
ATOM     37  C   UNL     1      16.571 -14.037  10.051  1.00  0.00    -0.007 A 
ATOM     38  C   UNL     1      17.257 -13.428   8.976  1.00  0.00     0.011 A 
ATOM     39  C   UNL     1      15.957 -15.286   9.830  1.00  0.00     0.011 A 
ATOM     40  C   UNL     1      17.361 -14.075   7.740  1.00  0.00     0.046 A 
ATOM     41  C   UNL     1      16.064 -15.928   8.593  1.00  0.00     0.046 A 
ATOM     42  C   UNL     1      16.772 -15.327   7.546  1.00  0.00     0.115 A 
BRANCH  42  43
ATOM     43  O   UNL     1      16.894 -15.960   6.312  1.00  0.00    -0.508 OA
ATOM     44  H   UNL     1      16.096 -16.383   5.851  1.00  0.00     0.293 HD
ENDBRANCH  42  43
ENDBRANCH  32  37
ENDBRANCH  23  24
ENDBRANCH   6  23
BRANCH   3  45
ATOM     45  O   UNL     1       9.263 -15.747  19.148  1.00  0.00    -0.387 OA
ATOM     46  H   UNL     1       8.290 -15.929  19.073  1.00  0.00     0.211 HD
ENDBRANCH   3  45
BRANCH   4  47
ATOM     47  C   UNL     1      12.060 -17.028  17.001  1.00  0.00     0.191 C 
BRANCH  47  48
ATOM     48  O   UNL     1      11.080 -17.780  16.334  1.00  0.00    -0.394 OA
ATOM     49  H   UNL     1      11.479 -18.676  16.165  1.00  0.00     0.210 HD
ENDBRANCH  47  48
ENDBRANCH   4  47
TORSDOF 14
ENDMDL
MODEL 7
REMARK VINA RESULT:    -7.241      2.927      8.942
REMARK INTER + INTRA:         -13.588
REMARK INTER:                 -11.423
REMARK INTRA:                  -2.165
REMARK UNBOUND:                -2.113
REMARK SMILES C[C@@H]1O[C@@H](O[C@@H]2[C@H](Oc3cc(O)c4c(c3)O[C@H](c3ccc(O)cc3)CC4=O)O[C@H](CO)[C@@H](O)[C@@H]2O)[C@H](O)[C@@H](O)[C@@H]1O
REMARK SMILES IDX 6 1 34 2 32 3 29 4 28 5 7 6 5 7 4 8 1 9 2 10 40 11 3 12
REMARK SMILES IDX 38 13 36 14 41 15 39 17 37 19 35 21 8 23 9 24 10 25 15 26
REMARK SMILES IDX 11 27 14 28 13 29 16 30 26 31 17 32 27 33 25 34 12 35 18 37
REMARK SMILES IDX 19 38 24 39 20 40 23 41 21 42 22 43 33 45 30 47 31 48
REMARK H PARENT 41 16 39 18 37 20 35 22 12 36 22 44 33 46 31 49
REMARK Flexibility Score: inf
ROOT
ATOM      1  C   UNL     1      14.800 -15.812  16.844  1.00  0.00     0.221 C 
ATOM      2  C   UNL     1      15.620 -16.807  16.006  1.00  0.00     0.181 C 
ATOM      3  C   UNL     1      17.127 -16.540  16.171  1.00  0.00     0.177 C 
ATOM      4  C   UNL     1      17.491 -15.033  16.051  1.00  0.00     0.179 C 
ATOM      5  O   UNL     1      16.634 -14.169  16.795  1.00  0.00    -0.332 OA
ATOM      6  C   UNL     1      15.247 -14.372  16.556  1.00  0.00     0.339 C 
ENDROOT
BRANCH   1   7
ATOM      7  O   UNL     1      13.415 -15.913  16.549  1.00  0.00    -0.337 OA
BRANCH   7   8
ATOM      8  C   UNL     1      12.590 -15.532  17.644  1.00  0.00     0.282 C 
ATOM      9  C   UNL     1      12.338 -18.833  19.261  1.00  0.00     0.041 C 
ATOM     10  C   UNL     1      12.110 -17.768  18.186  1.00  0.00     0.150 C 
ATOM     11  C   UNL     1      10.612 -17.655  17.826  1.00  0.00     0.174 C 
ATOM     12  O   UNL     1      12.609 -16.527  18.659  1.00  0.00    -0.344 OA
ATOM     13  C   UNL     1      10.420 -16.561  16.751  1.00  0.00     0.179 C 
ATOM     14  C   UNL     1      11.151 -15.259  17.139  1.00  0.00     0.202 C 
BRANCH  11  15
ATOM     15  O   UNL     1       9.860 -17.355  18.977  1.00  0.00    -0.388 OA
ATOM     16  H   UNL     1      10.059 -18.064  19.639  1.00  0.00     0.211 HD
ENDBRANCH  11  15
BRANCH  13  17
ATOM     17  O   UNL     1      10.918 -17.015  15.516  1.00  0.00    -0.387 OA
ATOM     18  H   UNL     1      11.362 -16.242  15.082  1.00  0.00     0.211 HD
ENDBRANCH  13  17
BRANCH  14  19
ATOM     19  O   UNL     1      10.403 -14.526  18.081  1.00  0.00    -0.385 OA
ATOM     20  H   UNL     1      10.169 -13.650  17.677  1.00  0.00     0.211 HD
ENDBRANCH  14  19
ENDBRANCH   7   8
ENDBRANCH   1   7
BRANCH   2  21
ATOM     21  O   UNL     1      15.248 -16.713  14.652  1.00  0.00    -0.387 OA
ATOM     22  H   UNL     1      14.915 -15.790  14.505  1.00  0.00     0.211 HD
ENDBRANCH   2  21
BRANCH   6  23
ATOM     23  O   UNL     1      14.880 -13.978  15.233  1.00  0.00    -0.462 OA
BRANCH  23  24
ATOM     24  C   UNL     1      13.871 -13.057  14.903  1.00  0.00     0.130 A 
ATOM     25  C   UNL     1      13.691 -12.741  13.555  1.00  0.00     0.093 A 
ATOM     26  C   UNL     1      13.036 -12.461  15.863  1.00  0.00     0.094 A 
ATOM     27  C   UNL     1      12.688 -11.855  13.145  1.00  0.00     0.133 A 
ATOM     28  C   UNL     1      12.035 -11.568  15.475  1.00  0.00     0.138 A 
ATOM     29  C   UNL     1      11.863 -11.237  14.117  1.00  0.00     0.102 A 
ATOM     30  O   UNL     1      11.191 -11.024  16.456  1.00  0.00    -0.484 OA
ATOM     31  C   UNL     1      10.801 -10.257  13.800  1.00  0.00     0.174 C 
ATOM     32  C   UNL     1      10.290  -9.937  16.215  1.00  0.00     0.211 C 
ATOM     33  O   UNL     1      10.827  -9.571  12.744  1.00  0.00    -0.294 OA
ATOM     34  C   UNL     1       9.699 -10.044  14.795  1.00  0.00     0.131 C 
BRANCH  27  35
ATOM     35  O   UNL     1      12.530 -11.652  11.771  1.00  0.00    -0.507 OA
ATOM     36  H   UNL     1      12.786 -12.333  11.069  1.00  0.00     0.293 HD
ENDBRANCH  27  35
BRANCH  32  37
ATOM     37  C   UNL     1       9.248  -9.901  17.325  1.00  0.00    -0.007 A 
ATOM     38  C   UNL     1       9.057  -8.779  18.164  1.00  0.00     0.011 A 
ATOM     39  C   UNL     1       8.472 -11.053  17.563  1.00  0.00     0.011 A 
ATOM     40  C   UNL     1       8.089  -8.803  19.173  1.00  0.00     0.046 A 
ATOM     41  C   UNL     1       7.507 -11.071  18.574  1.00  0.00     0.046 A 
ATOM     42  C   UNL     1       7.308  -9.943  19.377  1.00  0.00     0.115 A 
BRANCH  42  43
ATOM     43  O   UNL     1       6.343  -9.943  20.382  1.00  0.00    -0.508 OA
ATOM     44  H   UNL     1       6.597 -10.023  21.360  1.00  0.00     0.293 HD
ENDBRANCH  42  43
ENDBRANCH  32  37
ENDBRANCH  23  24
ENDBRANCH   6  23
BRANCH   3  45
ATOM     45  O   UNL     1      17.586 -17.067  17.392  1.00  0.00    -0.387 OA
ATOM     46  H   UNL     1      18.179 -16.395  17.819  1.00  0.00     0.211 HD
ENDBRANCH   3  45
BRANCH   4  47
ATOM     47  C   UNL     1      17.692 -14.576  14.590  1.00  0.00     0.191 C 
BRANCH  47  48
ATOM     48  O   UNL     1      17.672 -13.175  14.506  1.00  0.00    -0.394 OA
ATOM     49  H   UNL     1      18.619 -12.875  14.553  1.00  0.00     0.210 HD
ENDBRANCH  47  48
ENDBRANCH   4  47
TORSDOF 14
ENDMDL
MODEL 8
REMARK VINA RESULT:    -7.075      2.434      7.594
REMARK INTER + INTRA:         -13.325
REMARK INTER:                 -11.082
REMARK INTRA:                  -2.243
REMARK UNBOUND:                -2.113
REMARK SMILES C[C@@H]1O[C@@H](O[C@@H]2[C@H](Oc3cc(O)c4c(c3)O[C@H](c3ccc(O)cc3)CC4=O)O[C@H](CO)[C@@H](O)[C@@H]2O)[C@H](O)[C@@H](O)[C@@H]1O
REMARK SMILES IDX 6 1 34 2 32 3 29 4 28 5 7 6 5 7 4 8 1 9 2 10 40 11 3 12
REMARK SMILES IDX 38 13 36 14 41 15 39 17 37 19 35 21 8 23 9 24 10 25 15 26
REMARK SMILES IDX 11 27 14 28 13 29 16 30 26 31 17 32 27 33 25 34 12 35 18 37
REMARK SMILES IDX 19 38 24 39 20 40 23 41 21 42 22 43 33 45 30 47 31 48
REMARK H PARENT 41 16 39 18 37 20 35 22 12 36 22 44 33 46 31 49
REMARK Flexibility Score: inf
ROOT
ATOM      1  C   UNL     1      16.805 -14.405  14.603  1.00  0.00     0.221 C 
ATOM      2  C   UNL     1      17.900 -13.454  15.115  1.00  0.00     0.181 C 
ATOM      3  C   UNL     1      19.038 -14.249  15.780  1.00  0.00     0.177 C 
ATOM      4  C   UNL     1      18.522 -15.339  16.762  1.00  0.00     0.179 C 
ATOM      5  O   UNL     1      17.452 -16.127  16.241  1.00  0.00    -0.332 OA
ATOM      6  C   UNL     1      16.369 -15.370  15.715  1.00  0.00     0.339 C 
ENDROOT
BRANCH   1   7
ATOM      7  O   UNL     1      15.662 -13.684  14.169  1.00  0.00    -0.337 OA
BRANCH   7   8
ATOM      8  C   UNL     1      15.726 -13.326  12.793  1.00  0.00     0.282 C 
ATOM      9  C   UNL     1      12.625 -11.342  12.642  1.00  0.00     0.041 C 
ATOM     10  C   UNL     1      13.492 -12.596  12.780  1.00  0.00     0.150 C 
ATOM     11  C   UNL     1      13.012 -13.710  11.824  1.00  0.00     0.174 C 
ATOM     12  O   UNL     1      14.842 -12.250  12.512  1.00  0.00    -0.344 OA
ATOM     13  C   UNL     1      13.920 -14.952  11.981  1.00  0.00     0.179 C 
ATOM     14  C   UNL     1      15.412 -14.566  11.919  1.00  0.00     0.202 C 
BRANCH  11  15
ATOM     15  O   UNL     1      13.031 -13.249  10.495  1.00  0.00    -0.388 OA
ATOM     16  H   UNL     1      12.490 -13.888   9.965  1.00  0.00     0.211 HD
ENDBRANCH  11  15
BRANCH  13  17
ATOM     17  O   UNL     1      13.659 -15.579  13.212  1.00  0.00    -0.387 OA
ATOM     18  H   UNL     1      12.677 -15.707  13.268  1.00  0.00     0.211 HD
ENDBRANCH  13  17
BRANCH  14  19
ATOM     19  O   UNL     1      15.827 -14.377  10.587  1.00  0.00    -0.385 OA
ATOM     20  H   UNL     1      16.365 -13.545  10.544  1.00  0.00     0.211 HD
ENDBRANCH  14  19
ENDBRANCH   7   8
ENDBRANCH   1   7
BRANCH   2  21
ATOM     21  O   UNL     1      17.347 -12.531  16.021  1.00  0.00    -0.387 OA
ATOM     22  H   UNL     1      17.588 -12.839  16.933  1.00  0.00     0.211 HD
ENDBRANCH   2  21
BRANCH   6  23
ATOM     23  O   UNL     1      15.664 -14.676  16.746  1.00  0.00    -0.462 OA
BRANCH  23  24
ATOM     24  C   UNL     1      14.353 -14.951  17.169  1.00  0.00     0.130 A 
ATOM     25  C   UNL     1      14.178 -15.468  18.454  1.00  0.00     0.093 A 
ATOM     26  C   UNL     1      13.225 -14.717  16.366  1.00  0.00     0.094 A 
ATOM     27  C   UNL     1      12.900 -15.741  18.959  1.00  0.00     0.133 A 
ATOM     28  C   UNL     1      11.943 -14.990  16.848  1.00  0.00     0.138 A 
ATOM     29  C   UNL     1      11.765 -15.525  18.138  1.00  0.00     0.102 A 
ATOM     30  O   UNL     1      10.835 -14.702  16.035  1.00  0.00    -0.484 OA
ATOM     31  C   UNL     1      10.375 -15.815  18.553  1.00  0.00     0.174 C 
ATOM     32  C   UNL     1       9.503 -15.145  16.321  1.00  0.00     0.211 C 
ATOM     33  O   UNL     1      10.116 -16.660  19.452  1.00  0.00    -0.294 OA
ATOM     34  C   UNL     1       9.252 -15.121  17.842  1.00  0.00     0.131 C 
BRANCH  27  35
ATOM     35  O   UNL     1      12.812 -16.186  20.281  1.00  0.00    -0.507 OA
ATOM     36  H   UNL     1      13.092 -15.634  21.080  1.00  0.00     0.293 HD
ENDBRANCH  27  35
BRANCH  32  37
ATOM     37  C   UNL     1       8.518 -14.311  15.512  1.00  0.00    -0.007 A 
ATOM     38  C   UNL     1       8.531 -12.897  15.507  1.00  0.00     0.011 A 
ATOM     39  C   UNL     1       7.517 -14.973  14.774  1.00  0.00     0.011 A 
ATOM     40  C   UNL     1       7.598 -12.181  14.750  1.00  0.00     0.046 A 
ATOM     41  C   UNL     1       6.587 -14.251  14.020  1.00  0.00     0.046 A 
ATOM     42  C   UNL     1       6.630 -12.852  14.001  1.00  0.00     0.115 A 
BRANCH  42  43
ATOM     43  O   UNL     1       5.716 -12.121  13.246  1.00  0.00    -0.508 OA
ATOM     44  H   UNL     1       4.718 -12.182  13.417  1.00  0.00     0.293 HD
ENDBRANCH  42  43
ENDBRANCH  32  37
ENDBRANCH  23  24
ENDBRANCH   6  23
BRANCH   3  45
ATOM     45  O   UNL     1      19.876 -14.816  14.802  1.00  0.00    -0.387 OA
ATOM     46  H   UNL     1      20.744 -15.040  15.228  1.00  0.00     0.211 HD
ENDBRANCH   3  45
BRANCH   4  47
ATOM     47  C   UNL     1      18.237 -14.791  18.177  1.00  0.00     0.191 C 
BRANCH  47  48
ATOM     48  O   UNL     1      18.949 -13.601  18.395  1.00  0.00    -0.394 OA
ATOM     49  H   UNL     1      18.273 -12.874  18.452  1.00  0.00     0.210 HD
ENDBRANCH  47  48
ENDBRANCH   4  47
TORSDOF 14
ENDMDL
MODEL 9
REMARK VINA RESULT:    -7.050      2.878      7.452
REMARK INTER + INTRA:         -13.284
REMARK INTER:                 -11.388
REMARK INTRA:                  -1.897
REMARK UNBOUND:                -2.113
REMARK SMILES C[C@@H]1O[C@@H](O[C@@H]2[C@H](Oc3cc(O)c4c(c3)O[C@H](c3ccc(O)cc3)CC4=O)O[C@H](CO)[C@@H](O)[C@@H]2O)[C@H](O)[C@@H](O)[C@@H]1O
REMARK SMILES IDX 6 1 34 2 32 3 29 4 28 5 7 6 5 7 4 8 1 9 2 10 40 11 3 12
REMARK SMILES IDX 38 13 36 14 41 15 39 17 37 19 35 21 8 23 9 24 10 25 15 26
REMARK SMILES IDX 11 27 14 28 13 29 16 30 26 31 17 32 27 33 25 34 12 35 18 37
REMARK SMILES IDX 19 38 24 39 20 40 23 41 21 42 22 43 33 45 30 47 31 48
REMARK H PARENT 41 16 39 18 37 20 35 22 12 36 22 44 33 46 31 49
REMARK Flexibility Score: inf
ROOT
ATOM      1  C   UNL     1      14.837 -16.365  16.329  1.00  0.00     0.221 C 
ATOM      2  C   UNL     1      15.730 -16.456  17.578  1.00  0.00     0.181 C 
ATOM      3  C   UNL     1      15.532 -17.808  18.287  1.00  0.00     0.177 C 
ATOM      4  C   UNL     1      14.034 -18.194  18.449  1.00  0.00     0.179 C 
ATOM      5  O   UNL     1      13.257 -18.006  17.268  1.00  0.00    -0.332 OA
ATOM      6  C   UNL     1      13.384 -16.716  16.682  1.00  0.00     0.339 C 
ENDROOT
BRANCH   1   7
ATOM      7  O   UNL     1      14.855 -15.057  15.780  1.00  0.00    -0.337 OA
BRANCH   7   8
ATOM      8  C   UNL     1      15.782 -14.923  14.708  1.00  0.00     0.282 C 
ATOM      9  C   UNL     1      15.059 -11.414  13.850  1.00  0.00     0.041 C 
ATOM     10  C   UNL     1      14.798 -12.916  13.981  1.00  0.00     0.150 C 
ATOM     11  C   UNL     1      14.297 -13.511  12.646  1.00  0.00     0.174 C 
ATOM     12  O   UNL     1      15.996 -13.553  14.397  1.00  0.00    -0.344 OA
ATOM     13  C   UNL     1      14.060 -15.029  12.814  1.00  0.00     0.179 C 
ATOM     14  C   UNL     1      15.271 -15.715  13.479  1.00  0.00     0.202 C 
BRANCH  11  15
ATOM     15  O   UNL     1      15.233 -13.265  11.626  1.00  0.00    -0.388 OA
ATOM     16  H   UNL     1      14.962 -12.417  11.190  1.00  0.00     0.211 HD
ENDBRANCH  11  15
BRANCH  13  17
ATOM     17  O   UNL     1      12.918 -15.248  13.605  1.00  0.00    -0.387 OA
ATOM     18  H   UNL     1      12.262 -14.543  13.368  1.00  0.00     0.211 HD
ENDBRANCH  13  17
BRANCH  14  19
ATOM     19  O   UNL     1      16.300 -15.934  12.542  1.00  0.00    -0.385 OA
ATOM     20  H   UNL     1      15.944 -15.730  11.638  1.00  0.00     0.211 HD
ENDBRANCH  14  19
ENDBRANCH   7   8
ENDBRANCH   1   7
BRANCH   2  21
ATOM     21  O   UNL     1      15.438 -15.393  18.453  1.00  0.00    -0.387 OA
ATOM     22  H   UNL     1      14.452 -15.284  18.459  1.00  0.00     0.211 HD
ENDBRANCH   2  21
BRANCH   6  23
ATOM     23  O   UNL     1      12.800 -15.706  17.505  1.00  0.00    -0.462 OA
BRANCH  23  24
ATOM     24  C   UNL     1      12.128 -14.561  17.045  1.00  0.00     0.130 A 
ATOM     25  C   UNL     1      12.812 -13.345  17.081  1.00  0.00     0.093 A 
ATOM     26  C   UNL     1      10.816 -14.594  16.543  1.00  0.00     0.094 A 
ATOM     27  C   UNL     1      12.220 -12.165  16.613  1.00  0.00     0.133 A 
ATOM     28  C   UNL     1      10.206 -13.427  16.078  1.00  0.00     0.138 A 
ATOM     29  C   UNL     1      10.889 -12.197  16.128  1.00  0.00     0.102 A 
ATOM     30  O   UNL     1       8.910 -13.504  15.543  1.00  0.00    -0.484 OA
ATOM     31  C   UNL     1      10.153 -11.007  15.648  1.00  0.00     0.174 C 
ATOM     32  C   UNL     1       8.102 -12.358  15.251  1.00  0.00     0.211 C 
ATOM     33  O   UNL     1      10.457  -9.844  16.026  1.00  0.00    -0.294 OA
ATOM     34  C   UNL     1       8.984 -11.206  14.730  1.00  0.00     0.131 C 
BRANCH  27  35
ATOM     35  O   UNL     1      13.003 -11.007  16.617  1.00  0.00    -0.507 OA
ATOM     36  H   UNL     1      12.642 -10.083  16.420  1.00  0.00     0.293 HD
ENDBRANCH  27  35
BRANCH  32  37
ATOM     37  C   UNL     1       6.984 -12.768  14.302  1.00  0.00    -0.007 A 
ATOM     38  C   UNL     1       6.602 -14.114  14.101  1.00  0.00     0.011 A 
ATOM     39  C   UNL     1       6.334 -11.769  13.550  1.00  0.00     0.011 A 
ATOM     40  C   UNL     1       5.572 -14.435  13.211  1.00  0.00     0.046 A 
ATOM     41  C   UNL     1       5.305 -12.097  12.661  1.00  0.00     0.046 A 
ATOM     42  C   UNL     1       4.917 -13.431  12.494  1.00  0.00     0.115 A 
BRANCH  42  43
ATOM     43  O   UNL     1       3.887 -13.770  11.620  1.00  0.00    -0.508 OA
ATOM     44  H   UNL     1       3.766 -14.721  11.288  1.00  0.00     0.293 HD
ENDBRANCH  42  43
ENDBRANCH  32  37
ENDBRANCH  23  24
ENDBRANCH   6  23
BRANCH   3  45
ATOM     45  O   UNL     1      16.237 -18.822  17.612  1.00  0.00    -0.387 OA
ATOM     46  H   UNL     1      15.778 -19.000  16.749  1.00  0.00     0.211 HD
ENDBRANCH   3  45
BRANCH   4  47
ATOM     47  C   UNL     1      13.385 -17.575  19.706  1.00  0.00     0.191 C 
BRANCH  47  48
ATOM     48  O   UNL     1      11.987 -17.566  19.584  1.00  0.00    -0.394 OA
ATOM     49  H   UNL     1      11.674 -18.472  19.848  1.00  0.00     0.210 HD
ENDBRANCH  47  48
ENDBRANCH   4  47
TORSDOF 14
ENDMDL
