MODEL 1
REMARK VINA RESULT:    -2.916      0.000      0.000
REMARK INTER + INTRA:          -4.318
REMARK INTER:                  -3.768
REMARK INTRA:                  -0.550
REMARK UNBOUND:                -0.550
REMARK SMILES C=CC(=O)CCCCC
REMARK SMILES IDX 6 1 7 2 8 3 9 4 5 5 3 6 4 7 2 8 1 9
REMARK H PARENT
REMARK Flexibility Score: inf
ROOT
ATOM      1  C   UNL     1      -1.878  -5.361 -13.920  1.00  0.00     0.008 C 
ENDROOT
BRANCH   1   2
ATOM      2  C   UNL     1      -2.014  -4.464 -15.164  1.00  0.00     0.000 C 
BRANCH   2   3
ATOM      3  C   UNL     1      -3.465  -4.022 -15.414  1.00  0.00    -0.003 C 
ATOM      4  C   UNL     1      -3.862  -4.101 -16.888  1.00  0.00     0.004 C 
ENDBRANCH   2   3
ENDBRANCH   1   2
BRANCH   1   5
ATOM      5  C   UNL     1      -2.723  -6.638 -14.031  1.00  0.00     0.080 C 
BRANCH   5   6
ATOM      6  C   UNL     1      -2.030  -7.704 -14.831  1.00  0.00     0.155 C 
ATOM      7  O   UNL     1      -0.876  -8.080 -14.491  1.00  0.00    -0.295 OA
BRANCH   6   8
ATOM      8  C   UNL     1      -2.688  -8.283 -16.018  1.00  0.00     0.039 C 
ATOM      9  C   UNL     1      -3.847  -7.826 -16.488  1.00  0.00     0.012 C 
ENDBRANCH   6   8
ENDBRANCH   5   6
ENDBRANCH   1   5
TORSDOF 5
ENDMDL
MODEL 2
REMARK VINA RESULT:    -2.910     15.125     16.256
REMARK INTER + INTRA:          -4.311
REMARK INTER:                  -4.185
REMARK INTRA:                  -0.126
REMARK UNBOUND:                -0.550
REMARK SMILES C=CC(=O)CCCCC
REMARK SMILES IDX 6 1 7 2 8 3 9 4 5 5 3 6 4 7 2 8 1 9
REMARK H PARENT
REMARK Flexibility Score: inf
ROOT
ATOM      1  C   UNL     1      -3.123  -7.709   0.950  1.00  0.00     0.008 C 
ENDROOT
BRANCH   1   2
ATOM      2  C   UNL     1      -4.115  -8.825   0.576  1.00  0.00     0.000 C 
BRANCH   2   3
ATOM      3  C   UNL     1      -3.530  -9.815  -0.443  1.00  0.00    -0.003 C 
ATOM      4  C   UNL     1      -2.223 -10.450   0.031  1.00  0.00     0.004 C 
ENDBRANCH   2   3
ENDBRANCH   1   2
BRANCH   1   5
ATOM      5  C   UNL     1      -3.833  -6.453   1.472  1.00  0.00     0.080 C 
BRANCH   5   6
ATOM      6  C   UNL     1      -3.352  -5.207   0.785  1.00  0.00     0.155 C 
ATOM      7  O   UNL     1      -2.137  -4.879   0.880  1.00  0.00    -0.295 OA
BRANCH   6   8
ATOM      8  C   UNL     1      -4.299  -4.365   0.029  1.00  0.00     0.039 C 
ATOM      9  C   UNL     1      -3.935  -3.226  -0.555  1.00  0.00     0.012 C 
ENDBRANCH   6   8
ENDBRANCH   5   6
ENDBRANCH   1   5
TORSDOF 5
ENDMDL
MODEL 3
REMARK VINA RESULT:    -2.874      1.430      3.392
REMARK INTER + INTRA:          -4.265
REMARK INTER:                  -3.626
REMARK INTRA:                  -0.639
REMARK UNBOUND:                -0.550
REMARK SMILES C=CC(=O)CCCCC
REMARK SMILES IDX 6 1 7 2 8 3 9 4 5 5 3 6 4 7 2 8 1 9
REMARK H PARENT
REMARK Flexibility Score: inf
ROOT
ATOM      1  C   UNL     1      -2.714  -6.636 -13.952  1.00  0.00     0.008 C 
ENDROOT
BRANCH   1   2
ATOM      2  C   UNL     1      -2.329  -7.718 -14.977  1.00  0.00     0.000 C 
BRANCH   2   3
ATOM      3  C   UNL     1      -3.370  -7.863 -16.097  1.00  0.00    -0.003 C 
ATOM      4  C   UNL     1      -2.850  -7.390 -17.455  1.00  0.00     0.004 C 
ENDBRANCH   2   3
ENDBRANCH   1   2
BRANCH   1   5
ATOM      5  C   UNL     1      -1.715  -5.470 -13.938  1.00  0.00     0.080 C 
BRANCH   5   6
ATOM      6  C   UNL     1      -1.883  -4.571 -15.130  1.00  0.00     0.155 C 
ATOM      7  O   UNL     1      -0.941  -4.467 -15.963  1.00  0.00    -0.295 OA
BRANCH   6   8
ATOM      8  C   UNL     1      -3.128  -3.799 -15.305  1.00  0.00     0.039 C 
ATOM      9  C   UNL     1      -3.950  -3.991 -16.335  1.00  0.00     0.012 C 
ENDBRANCH   6   8
ENDBRANCH   5   6
ENDBRANCH   1   5
TORSDOF 5
ENDMDL
MODEL 4
REMARK VINA RESULT:    -2.814     15.477     15.912
REMARK INTER + INTRA:          -4.187
REMARK INTER:                  -4.046
REMARK INTRA:                  -0.141
REMARK UNBOUND:                -0.550
REMARK SMILES C=CC(=O)CCCCC
REMARK SMILES IDX 6 1 7 2 8 3 9 4 5 5 3 6 4 7 2 8 1 9
REMARK H PARENT
REMARK Flexibility Score: inf
ROOT
ATOM      1  C   UNL     1      -3.095  -7.012   1.009  1.00  0.00     0.008 C 
ENDROOT
BRANCH   1   2
ATOM      2  C   UNL     1      -3.928  -5.770   1.374  1.00  0.00     0.000 C 
BRANCH   2   3
ATOM      3  C   UNL     1      -4.062  -4.786   0.202  1.00  0.00    -0.003 C 
ATOM      4  C   UNL     1      -5.006  -3.624   0.509  1.00  0.00     0.004 C 
ENDBRANCH   2   3
ENDBRANCH   1   2
BRANCH   1   5
ATOM      5  C   UNL     1      -3.901  -8.312   1.150  1.00  0.00     0.080 C 
BRANCH   5   6
ATOM      6  C   UNL     1      -3.460  -9.357   0.167  1.00  0.00     0.155 C 
ATOM      7  O   UNL     1      -3.941  -9.351  -1.000  1.00  0.00    -0.295 OA
BRANCH   6   8
ATOM      8  C   UNL     1      -2.494 -10.395   0.574  1.00  0.00     0.039 C 
ATOM      9  C   UNL     1      -1.282 -10.497   0.032  1.00  0.00     0.012 C 
ENDBRANCH   6   8
ENDBRANCH   5   6
ENDBRANCH   1   5
TORSDOF 5
ENDMDL
MODEL 5
REMARK VINA RESULT:    -2.791      2.017      4.288
REMARK INTER + INTRA:          -4.158
REMARK INTER:                  -3.651
REMARK INTRA:                  -0.506
REMARK UNBOUND:                -0.550
REMARK SMILES C=CC(=O)CCCCC
REMARK SMILES IDX 6 1 7 2 8 3 9 4 5 5 3 6 4 7 2 8 1 9
REMARK H PARENT
REMARK Flexibility Score: inf
ROOT
ATOM      1  C   UNL     1      -3.317  -7.780 -16.171  1.00  0.00     0.008 C 
ENDROOT
BRANCH   1   2
ATOM      2  C   UNL     1      -2.479  -8.646 -17.129  1.00  0.00     0.000 C 
BRANCH   2   3
ATOM      3  C   UNL     1      -1.053  -8.887 -16.609  1.00  0.00    -0.003 C 
ATOM      4  C   UNL     1      -1.019  -9.272 -15.130  1.00  0.00     0.004 C 
ENDBRANCH   2   3
ENDBRANCH   1   2
BRANCH   1   5
ATOM      5  C   UNL     1      -3.179  -6.282 -16.475  1.00  0.00     0.080 C 
BRANCH   5   6
ATOM      6  C   UNL     1      -3.061  -5.462 -15.222  1.00  0.00     0.155 C 
ATOM      7  O   UNL     1      -3.327  -4.229 -15.263  1.00  0.00    -0.295 OA
BRANCH   6   8
ATOM      8  C   UNL     1      -2.612  -6.091 -13.966  1.00  0.00     0.039 C 
ATOM      9  C   UNL     1      -1.408  -5.866 -13.443  1.00  0.00     0.012 C 
ENDBRANCH   6   8
ENDBRANCH   5   6
ENDBRANCH   1   5
TORSDOF 5
ENDMDL
MODEL 6
REMARK VINA RESULT:    -2.789     15.073     15.844
REMARK INTER + INTRA:          -4.155
REMARK INTER:                  -3.962
REMARK INTRA:                  -0.193
REMARK UNBOUND:                -0.550
REMARK SMILES C=CC(=O)CCCCC
REMARK SMILES IDX 6 1 7 2 8 3 9 4 5 5 3 6 4 7 2 8 1 9
REMARK H PARENT
REMARK Flexibility Score: inf
ROOT
ATOM      1  C   UNL     1      -3.566  -6.259   0.907  1.00  0.00     0.008 C 
ENDROOT
BRANCH   1   2
ATOM      2  C   UNL     1      -3.171  -4.817   0.542  1.00  0.00     0.000 C 
BRANCH   2   3
ATOM      3  C   UNL     1      -4.325  -4.037  -0.108  1.00  0.00    -0.003 C 
ATOM      4  C   UNL     1      -5.164  -3.263   0.909  1.00  0.00     0.004 C 
ENDBRANCH   2   3
ENDBRANCH   1   2
BRANCH   1   5
ATOM      5  C   UNL     1      -2.363  -7.086   1.381  1.00  0.00     0.080 C 
BRANCH   5   6
ATOM      6  C   UNL     1      -2.372  -8.473   0.805  1.00  0.00     0.155 C 
ATOM      7  O   UNL     1      -1.280  -9.087   0.656  1.00  0.00    -0.295 OA
BRANCH   6   8
ATOM      8  C   UNL     1      -3.645  -9.097   0.396  1.00  0.00     0.039 C 
ATOM      9  C   UNL     1      -3.828  -9.621  -0.814  1.00  0.00     0.012 C 
ENDBRANCH   6   8
ENDBRANCH   5   6
ENDBRANCH   1   5
TORSDOF 5
ENDMDL
MODEL 7
REMARK VINA RESULT:    -2.779      1.240      2.609
REMARK INTER + INTRA:          -4.141
REMARK INTER:                  -3.600
REMARK INTRA:                  -0.541
REMARK UNBOUND:                -0.550
REMARK SMILES C=CC(=O)CCCCC
REMARK SMILES IDX 6 1 7 2 8 3 9 4 5 5 3 6 4 7 2 8 1 9
REMARK H PARENT
REMARK Flexibility Score: inf
ROOT
ATOM      1  C   UNL     1      -3.804  -6.007 -16.889  1.00  0.00     0.008 C 
ENDROOT
BRANCH   1   2
ATOM      2  C   UNL     1      -3.667  -4.496 -17.145  1.00  0.00     0.000 C 
BRANCH   2   3
ATOM      3  C   UNL     1      -4.178  -3.651 -15.968  1.00  0.00    -0.003 C 
ATOM      4  C   UNL     1      -3.061  -2.880 -15.263  1.00  0.00     0.004 C 
ENDBRANCH   2   3
ENDBRANCH   1   2
BRANCH   1   5
ATOM      5  C   UNL     1      -2.462  -6.657 -16.524  1.00  0.00     0.080 C 
BRANCH   5   6
ATOM      6  C   UNL     1      -2.494  -7.287 -15.161  1.00  0.00     0.155 C 
ATOM      7  O   UNL     1      -2.432  -8.543 -15.060  1.00  0.00    -0.295 OA
BRANCH   6   8
ATOM      8  C   UNL     1      -2.623  -6.443 -13.958  1.00  0.00     0.039 C 
ATOM      9  C   UNL     1      -1.600  -5.758 -13.452  1.00  0.00     0.012 C 
ENDBRANCH   6   8
ENDBRANCH   5   6
ENDBRANCH   1   5
TORSDOF 5
ENDMDL
MODEL 8
REMARK VINA RESULT:    -2.753      1.680      3.705
REMARK INTER + INTRA:          -4.107
REMARK INTER:                  -3.679
REMARK INTRA:                  -0.428
REMARK UNBOUND:                -0.550
REMARK SMILES C=CC(=O)CCCCC
REMARK SMILES IDX 6 1 7 2 8 3 9 4 5 5 3 6 4 7 2 8 1 9
REMARK H PARENT
REMARK Flexibility Score: inf
ROOT
ATOM      1  C   UNL     1      -2.042  -5.053 -14.388  1.00  0.00     0.008 C 
ENDROOT
BRANCH   1   2
ATOM      2  C   UNL     1      -2.789  -6.343 -14.006  1.00  0.00     0.000 C 
BRANCH   2   3
ATOM      3  C   UNL     1      -2.258  -7.575 -14.756  1.00  0.00    -0.003 C 
ATOM      4  C   UNL     1      -3.151  -7.987 -15.926  1.00  0.00     0.004 C 
ENDBRANCH   2   3
ENDBRANCH   1   2
BRANCH   1   5
ATOM      5  C   UNL     1      -2.955  -4.044 -15.100  1.00  0.00     0.080 C 
BRANCH   5   6
ATOM      6  C   UNL     1      -3.143  -4.381 -16.551  1.00  0.00     0.155 C 
ATOM      7  O   UNL     1      -2.149  -4.754 -17.233  1.00  0.00    -0.295 OA
BRANCH   6   8
ATOM      8  C   UNL     1      -4.474  -4.251 -17.175  1.00  0.00     0.039 C 
ATOM      9  C   UNL     1      -5.362  -3.340 -16.782  1.00  0.00     0.012 C 
ENDBRANCH   6   8
ENDBRANCH   5   6
ENDBRANCH   1   5
TORSDOF 5
ENDMDL
MODEL 9
REMARK VINA RESULT:    -2.710      1.405      3.416
REMARK INTER + INTRA:          -4.052
REMARK INTER:                  -3.550
REMARK INTRA:                  -0.503
REMARK UNBOUND:                -0.550
REMARK SMILES C=CC(=O)CCCCC
REMARK SMILES IDX 6 1 7 2 8 3 9 4 5 5 3 6 4 7 2 8 1 9
REMARK H PARENT
REMARK Flexibility Score: inf
ROOT
ATOM      1  C   UNL     1      -2.118  -8.420 -15.091  1.00  0.00     0.008 C 
ENDROOT
BRANCH   1   2
ATOM      2  C   UNL     1      -1.859  -8.783 -16.564  1.00  0.00     0.000 C 
BRANCH   2   3
ATOM      3  C   UNL     1      -2.736  -7.974 -17.533  1.00  0.00    -0.003 C 
ATOM      4  C   UNL     1      -4.221  -8.029 -17.174  1.00  0.00     0.004 C 
ENDBRANCH   2   3
ENDBRANCH   1   2
BRANCH   1   5
ATOM      5  C   UNL     1      -1.099  -7.404 -14.557  1.00  0.00     0.080 C 
BRANCH   5   6
ATOM      6  C   UNL     1      -1.764  -6.179 -14.000  1.00  0.00     0.155 C 
ATOM      7  O   UNL     1      -1.267  -5.611 -12.989  1.00  0.00    -0.295 OA
BRANCH   6   8
ATOM      8  C   UNL     1      -3.001  -5.663 -14.617  1.00  0.00     0.039 C 
ATOM      9  C   UNL     1      -3.053  -4.490 -15.244  1.00  0.00     0.012 C 
ENDBRANCH   6   8
ENDBRANCH   5   6
ENDBRANCH   1   5
TORSDOF 5
ENDMDL
