MODEL 1
REMARK VINA RESULT:    -2.484      0.000      0.000
REMARK INTER + INTRA:          -2.484
REMARK INTER:                  -2.484
REMARK INTRA:                   0.000
REMARK UNBOUND:                 0.000
REMARK SMILES CC(=O)[O-]
REMARK SMILES IDX 1 1 2 2 3 3 4 4
REMARK H PARENT
REMARK Flexibility Score: inf
ROOT
ATOM      1  C   UNL     1      -2.336 -14.390   6.261  1.00  0.00     0.063 C 
ATOM      2  C   UNL     1      -3.381 -13.670   7.045  1.00  0.00     0.038 C 
ATOM      3  O   UNL     1      -4.570 -13.642   6.636  1.00  0.00    -0.550 OA
ATOM      4  O   UNL     1      -3.031 -12.980   8.199  1.00  0.00    -0.550 OA
ENDROOT
TORSDOF 0
ENDMDL
MODEL 2
REMARK VINA RESULT:    -2.308      1.440      1.748
REMARK INTER + INTRA:          -2.308
REMARK INTER:                  -2.308
REMARK INTRA:                   0.000
REMARK UNBOUND:                 0.000
REMARK SMILES CC(=O)[O-]
REMARK SMILES IDX 1 1 2 2 3 3 4 4
REMARK H PARENT
REMARK Flexibility Score: inf
ROOT
ATOM      1  C   UNL     1      -4.468 -13.694   6.709  1.00  0.00     0.063 C 
ATOM      2  C   UNL     1      -3.005 -13.882   6.926  1.00  0.00     0.038 C 
ATOM      3  O   UNL     1      -2.296 -14.408   6.029  1.00  0.00    -0.550 OA
ATOM      4  O   UNL     1      -2.431 -13.527   8.140  1.00  0.00    -0.550 OA
ENDROOT
TORSDOF 0
ENDMDL
MODEL 3
REMARK VINA RESULT:    -2.286      1.415      2.135
REMARK INTER + INTRA:          -2.286
REMARK INTER:                  -2.286
REMARK INTRA:                   0.000
REMARK UNBOUND:                 0.000
REMARK SMILES CC(=O)[O-]
REMARK SMILES IDX 1 1 2 2 3 3 4 4
REMARK H PARENT
REMARK Flexibility Score: inf
ROOT
ATOM      1  C   UNL     1      -4.600 -13.662   6.645  1.00  0.00     0.063 C 
ATOM      2  C   UNL     1      -3.164 -13.794   7.029  1.00  0.00     0.038 C 
ATOM      3  O   UNL     1      -2.747 -13.279   8.098  1.00  0.00    -0.550 OA
ATOM      4  O   UNL     1      -2.274 -14.437   6.179  1.00  0.00    -0.550 OA
ENDROOT
TORSDOF 0
ENDMDL
MODEL 4
REMARK VINA RESULT:    -2.267      1.420      2.151
REMARK INTER + INTRA:          -2.267
REMARK INTER:                  -2.267
REMARK INTRA:                   0.000
REMARK UNBOUND:                 0.000
REMARK SMILES CC(=O)[O-]
REMARK SMILES IDX 1 1 2 2 3 3 4 4
REMARK H PARENT
REMARK Flexibility Score: inf
ROOT
ATOM      1  C   UNL     1      -2.262 -14.391   6.240  1.00  0.00     0.063 C 
ATOM      2  C   UNL     1      -1.983 -13.836   7.596  1.00  0.00     0.038 C 
ATOM      3  O   UNL     1      -0.853 -14.000   8.125  1.00  0.00    -0.550 OA
ATOM      4  O   UNL     1      -2.987 -13.185   8.301  1.00  0.00    -0.550 OA
ENDROOT
TORSDOF 0
ENDMDL
MODEL 5
REMARK VINA RESULT:    -2.199      1.532      1.963
REMARK INTER + INTRA:          -2.199
REMARK INTER:                  -2.199
REMARK INTRA:                   0.000
REMARK UNBOUND:                 0.000
REMARK SMILES CC(=O)[O-]
REMARK SMILES IDX 1 1 2 2 3 3 4 4
REMARK H PARENT
REMARK Flexibility Score: inf
ROOT
ATOM      1  C   UNL     1      -2.269 -13.654   8.122  1.00  0.00     0.063 C 
ATOM      2  C   UNL     1      -2.935 -13.985   6.830  1.00  0.00     0.038 C 
ATOM      3  O   UNL     1      -2.264 -14.456   5.875  1.00  0.00    -0.550 OA
ATOM      4  O   UNL     1      -4.289 -13.723   6.659  1.00  0.00    -0.550 OA
ENDROOT
TORSDOF 0
ENDMDL
MODEL 6
REMARK VINA RESULT:    -2.185     19.175     19.870
REMARK INTER + INTRA:          -2.185
REMARK INTER:                  -2.185
REMARK INTRA:                   0.000
REMARK UNBOUND:                 0.000
REMARK SMILES CC(=O)[O-]
REMARK SMILES IDX 1 1 2 2 3 3 4 4
REMARK H PARENT
REMARK Flexibility Score: inf
ROOT
ATOM      1  C   UNL     1      -2.260  -5.423  24.190  1.00  0.00     0.063 C 
ATOM      2  C   UNL     1      -3.511  -5.095  24.933  1.00  0.00     0.038 C 
ATOM      3  O   UNL     1      -3.451  -4.497  26.039  1.00  0.00    -0.550 OA
ATOM      4  O   UNL     1      -4.743  -5.498  24.433  1.00  0.00    -0.550 OA
ENDROOT
TORSDOF 0
ENDMDL
MODEL 7
REMARK VINA RESULT:    -1.955      2.645      2.892
REMARK INTER + INTRA:          -1.955
REMARK INTER:                  -1.955
REMARK INTRA:                   0.000
REMARK UNBOUND:                 0.000
REMARK SMILES CC(=O)[O-]
REMARK SMILES IDX 1 1 2 2 3 3 4 4
REMARK H PARENT
REMARK Flexibility Score: inf
ROOT
ATOM      1  C   UNL     1      -4.461 -13.662   6.647  1.00  0.00     0.063 C 
ATOM      2  C   UNL     1      -5.948 -13.778   6.607  1.00  0.00     0.038 C 
ATOM      3  O   UNL     1      -6.622 -13.007   5.876  1.00  0.00    -0.550 OA
ATOM      4  O   UNL     1      -6.595 -14.701   7.419  1.00  0.00    -0.550 OA
ENDROOT
TORSDOF 0
ENDMDL
MODEL 8
REMARK VINA RESULT:    -1.675     18.784     19.272
REMARK INTER + INTRA:          -1.675
REMARK INTER:                  -1.675
REMARK INTRA:                   0.000
REMARK UNBOUND:                 0.000
REMARK SMILES CC(=O)[O-]
REMARK SMILES IDX 1 1 2 2 3 3 4 4
REMARK H PARENT
REMARK Flexibility Score: inf
ROOT
ATOM      1  C   UNL     1      -3.420  -4.955  25.007  1.00  0.00     0.063 C 
ATOM      2  C   UNL     1      -2.220  -5.216  24.161  1.00  0.00     0.038 C 
ATOM      3  O   UNL     1      -1.956  -6.387  23.783  1.00  0.00    -0.550 OA
ATOM      4  O   UNL     1      -1.361  -4.175  23.834  1.00  0.00    -0.550 OA
ENDROOT
TORSDOF 0
ENDMDL
