MODEL 1
REMARK VINA RESULT:    -6.104      0.000      0.000
REMARK INTER + INTRA:         -19.428
REMARK INTER:                 -15.381
REMARK INTRA:                  -4.047
REMARK UNBOUND:                -4.047
REMARK SMILES CCCCCCCCCCCCCCCCCCCCCCCCCCCC(=O)[O-]
REMARK SMILES IDX 15 1 16 2 17 3 18 4 19 5 20 6 21 7 22 8 23 9 24 10 25 11
REMARK SMILES IDX 26 12 27 13 28 14 29 15 30 16 14 17 13 18 12 19 11 20 10 21
REMARK SMILES IDX 9 22 8 23 7 24 6 25 5 26 4 27 3 28 2 29 1 30
REMARK H PARENT
REMARK Flexibility Score: inf
ROOT
ATOM      1  C   UNL     1      63.929   2.896  22.868  1.00  0.00     0.000 C 
ENDROOT
BRANCH   1   2
ATOM      2  C   UNL     1      65.343   3.121  23.450  1.00  0.00     0.000 C 
BRANCH   2   3
ATOM      3  C   UNL     1      65.563   4.540  24.010  1.00  0.00     0.000 C 
BRANCH   3   4
ATOM      4  C   UNL     1      67.028   5.011  24.006  1.00  0.00     0.000 C 
BRANCH   4   5
ATOM      5  C   UNL     1      68.015   3.958  23.450  1.00  0.00     0.000 C 
BRANCH   5   6
ATOM      6  C   UNL     1      69.484   4.378  23.623  1.00  0.00     0.000 C 
BRANCH   6   7
ATOM      7  C   UNL     1      70.199   4.608  22.283  1.00  0.00     0.000 C 
BRANCH   7   8
ATOM      8  C   UNL     1      69.371   5.457  21.303  1.00  0.00     0.000 C 
BRANCH   8   9
ATOM      9  C   UNL     1      69.594   6.967  21.512  1.00  0.00     0.000 C 
BRANCH   9  10
ATOM     10  C   UNL     1      69.908   7.727  20.210  1.00  0.00     0.000 C 
BRANCH  10  11
ATOM     11  C   UNL     1      71.174   7.193  19.517  1.00  0.00     0.000 C 
BRANCH  11  12
ATOM     12  C   UNL     1      72.454   7.898  19.993  1.00  0.00     0.006 C 
BRANCH  12  13
ATOM     13  C   UNL     1      73.112   7.196  21.189  1.00  0.00     0.053 C 
BRANCH  13  14
ATOM     14  C   UNL     1      74.568   6.963  20.927  1.00  0.00     0.041 C 
ATOM     15  O   UNL     1      75.428   7.779  21.353  1.00  0.00    -0.550 OA
ATOM     16  O   UNL     1      74.978   5.835  20.223  1.00  0.00    -0.550 OA
ENDBRANCH  13  14
ENDBRANCH  12  13
ENDBRANCH  11  12
ENDBRANCH  10  11
ENDBRANCH   9  10
ENDBRANCH   8   9
ENDBRANCH   7   8
ENDBRANCH   6   7
ENDBRANCH   5   6
ENDBRANCH   4   5
ENDBRANCH   3   4
ENDBRANCH   2   3
ENDBRANCH   1   2
BRANCH   1  17
ATOM     17  C   UNL     1      63.062   4.166  22.908  1.00  0.00     0.000 C 
BRANCH  17  18
ATOM     18  C   UNL     1      61.891   4.128  21.907  1.00  0.00     0.000 C 
BRANCH  18  19
ATOM     19  C   UNL     1      61.443   2.716  21.488  1.00  0.00     0.000 C 
BRANCH  19  20
ATOM     20  C   UNL     1      61.594   2.459  19.978  1.00  0.00     0.000 C 
BRANCH  20  21
ATOM     21  C   UNL     1      62.590   1.331  19.659  1.00  0.00     0.000 C 
BRANCH  21  22
ATOM     22  C   UNL     1      64.010   1.802  19.286  1.00  0.00    -0.000 C 
BRANCH  22  23
ATOM     23  C   UNL     1      64.151   3.314  19.021  1.00  0.00    -0.000 C 
BRANCH  23  24
ATOM     24  C   UNL     1      65.601   3.816  18.893  1.00  0.00    -0.000 C 
BRANCH  24  25
ATOM     25  C   UNL     1      66.123   4.527  20.160  1.00  0.00    -0.000 C 
BRANCH  25  26
ATOM     26  C   UNL     1      65.257   5.734  20.558  1.00  0.00    -0.000 C 
BRANCH  26  27
ATOM     27  C   UNL     1      66.019   7.069  20.419  1.00  0.00    -0.000 C 
BRANCH  27  28
ATOM     28  C   UNL     1      65.345   8.070  19.466  1.00  0.00    -0.000 C 
BRANCH  28  29
ATOM     29  C   UNL     1      65.189   9.469  20.077  1.00  0.00    -0.003 C 
ATOM     30  C   UNL     1      63.768   9.994  19.896  1.00  0.00     0.004 C 
ENDBRANCH  28  29
ENDBRANCH  27  28
ENDBRANCH  26  27
ENDBRANCH  25  26
ENDBRANCH  24  25
ENDBRANCH  23  24
ENDBRANCH  22  23
ENDBRANCH  21  22
ENDBRANCH  20  21
ENDBRANCH  19  20
ENDBRANCH  18  19
ENDBRANCH  17  18
ENDBRANCH   1  17
TORSDOF 26
ENDMDL
MODEL 2
REMARK VINA RESULT:    -6.086      3.103      6.284
REMARK INTER + INTRA:         -19.383
REMARK INTER:                 -14.788
REMARK INTRA:                  -4.596
REMARK UNBOUND:                -4.047
REMARK SMILES CCCCCCCCCCCCCCCCCCCCCCCCCCCC(=O)[O-]
REMARK SMILES IDX 15 1 16 2 17 3 18 4 19 5 20 6 21 7 22 8 23 9 24 10 25 11
REMARK SMILES IDX 26 12 27 13 28 14 29 15 30 16 14 17 13 18 12 19 11 20 10 21
REMARK SMILES IDX 9 22 8 23 7 24 6 25 5 26 4 27 3 28 2 29 1 30
REMARK H PARENT
REMARK Flexibility Score: inf
ROOT
ATOM      1  C   UNL     1      61.471   3.641  21.281  1.00  0.00     0.000 C 
ENDROOT
BRANCH   1   2
ATOM      2  C   UNL     1      61.666   2.913  19.932  1.00  0.00     0.000 C 
BRANCH   2   3
ATOM      3  C   UNL     1      62.241   1.490  20.075  1.00  0.00     0.000 C 
BRANCH   3   4
ATOM      4  C   UNL     1      63.520   1.230  19.260  1.00  0.00     0.000 C 
BRANCH   4   5
ATOM      5  C   UNL     1      64.704   2.140  19.662  1.00  0.00     0.000 C 
BRANCH   5   6
ATOM      6  C   UNL     1      65.102   3.118  18.543  1.00  0.00     0.000 C 
BRANCH   6   7
ATOM      7  C   UNL     1      65.302   4.554  19.052  1.00  0.00     0.000 C 
BRANCH   7   8
ATOM      8  C   UNL     1      66.233   4.629  20.275  1.00  0.00     0.000 C 
BRANCH   8   9
ATOM      9  C   UNL     1      66.108   5.974  21.017  1.00  0.00     0.000 C 
BRANCH   9  10
ATOM     10  C   UNL     1      65.258   7.014  20.262  1.00  0.00     0.000 C 
BRANCH  10  11
ATOM     11  C   UNL     1      66.086   8.236  19.828  1.00  0.00     0.000 C 
BRANCH  11  12
ATOM     12  C   UNL     1      65.266   9.252  19.017  1.00  0.00     0.006 C 
BRANCH  12  13
ATOM     13  C   UNL     1      64.264  10.034  19.877  1.00  0.00     0.053 C 
BRANCH  13  14
ATOM     14  C   UNL     1      64.782  11.406  20.176  1.00  0.00     0.041 C 
ATOM     15  O   UNL     1      64.008  12.294  20.620  1.00  0.00    -0.550 OA
ATOM     16  O   UNL     1      66.127  11.701  19.977  1.00  0.00    -0.550 OA
ENDBRANCH  13  14
ENDBRANCH  12  13
ENDBRANCH  11  12
ENDBRANCH  10  11
ENDBRANCH   9  10
ENDBRANCH   8   9
ENDBRANCH   7   8
ENDBRANCH   6   7
ENDBRANCH   5   6
ENDBRANCH   4   5
ENDBRANCH   3   4
ENDBRANCH   2   3
ENDBRANCH   1   2
BRANCH   1  17
ATOM     17  C   UNL     1      62.720   4.422  21.721  1.00  0.00     0.000 C 
BRANCH  17  18
ATOM     18  C   UNL     1      63.215   4.026  23.126  1.00  0.00     0.000 C 
BRANCH  18  19
ATOM     19  C   UNL     1      64.198   2.841  23.155  1.00  0.00     0.000 C 
BRANCH  19  20
ATOM     20  C   UNL     1      65.606   3.238  23.632  1.00  0.00     0.000 C 
BRANCH  20  21
ATOM     21  C   UNL     1      65.688   4.699  24.107  1.00  0.00     0.000 C 
BRANCH  21  22
ATOM     22  C   UNL     1      66.502   4.920  25.398  1.00  0.00    -0.000 C 
BRANCH  22  23
ATOM     23  C   UNL     1      68.028   4.762  25.246  1.00  0.00    -0.000 C 
BRANCH  23  24
ATOM     24  C   UNL     1      68.623   5.415  23.984  1.00  0.00    -0.000 C 
BRANCH  24  25
ATOM     25  C   UNL     1      69.054   4.397  22.906  1.00  0.00    -0.000 C 
BRANCH  25  26
ATOM     26  C   UNL     1      69.709   5.070  21.688  1.00  0.00    -0.000 C 
BRANCH  26  27
ATOM     27  C   UNL     1      70.167   6.512  21.994  1.00  0.00    -0.000 C 
BRANCH  27  28
ATOM     28  C   UNL     1      69.430   7.583  21.174  1.00  0.00    -0.000 C 
BRANCH  28  29
ATOM     29  C   UNL     1      69.384   8.949  21.872  1.00  0.00    -0.003 C 
ATOM     30  C   UNL     1      68.070   9.139  22.624  1.00  0.00     0.004 C 
ENDBRANCH  28  29
ENDBRANCH  27  28
ENDBRANCH  26  27
ENDBRANCH  25  26
ENDBRANCH  24  25
ENDBRANCH  23  24
ENDBRANCH  22  23
ENDBRANCH  21  22
ENDBRANCH  20  21
ENDBRANCH  19  20
ENDBRANCH  18  19
ENDBRANCH  17  18
ENDBRANCH   1  17
TORSDOF 26
ENDMDL
MODEL 3
REMARK VINA RESULT:    -6.026      4.288      7.293
REMARK INTER + INTRA:         -19.233
REMARK INTER:                 -15.912
REMARK INTRA:                  -3.320
REMARK UNBOUND:                -4.047
REMARK SMILES CCCCCCCCCCCCCCCCCCCCCCCCCCCC(=O)[O-]
REMARK SMILES IDX 15 1 16 2 17 3 18 4 19 5 20 6 21 7 22 8 23 9 24 10 25 11
REMARK SMILES IDX 26 12 27 13 28 14 29 15 30 16 14 17 13 18 12 19 11 20 10 21
REMARK SMILES IDX 9 22 8 23 7 24 6 25 5 26 4 27 3 28 2 29 1 30
REMARK H PARENT
REMARK Flexibility Score: inf
ROOT
ATOM      1  C   UNL     1      65.707   3.942  20.190  1.00  0.00     0.000 C 
ENDROOT
BRANCH   1   2
ATOM      2  C   UNL     1      64.956   5.287  20.063  1.00  0.00     0.000 C 
BRANCH   2   3
ATOM      3  C   UNL     1      65.836   6.516  20.364  1.00  0.00     0.000 C 
BRANCH   3   4
ATOM      4  C   UNL     1      65.502   7.764  19.528  1.00  0.00     0.000 C 
BRANCH   4   5
ATOM      5  C   UNL     1      64.723   8.845  20.314  1.00  0.00     0.000 C 
BRANCH   5   6
ATOM      6  C   UNL     1      64.212   9.977  19.408  1.00  0.00     0.000 C 
BRANCH   6   7
ATOM      7  C   UNL     1      63.341  10.995  20.162  1.00  0.00     0.000 C 
BRANCH   7   8
ATOM      8  C   UNL     1      62.451  10.340  21.234  1.00  0.00     0.000 C 
BRANCH   8   9
ATOM      9  C   UNL     1      62.507  11.097  22.575  1.00  0.00     0.000 C 
BRANCH   9  10
ATOM     10  C   UNL     1      63.072  12.525  22.450  1.00  0.00     0.000 C 
BRANCH  10  11
ATOM     11  C   UNL     1      64.525  12.620  22.948  1.00  0.00     0.000 C 
BRANCH  11  12
ATOM     12  C   UNL     1      65.285  13.808  22.338  1.00  0.00     0.006 C 
BRANCH  12  13
ATOM     13  C   UNL     1      64.523  14.478  21.186  1.00  0.00     0.053 C 
BRANCH  13  14
ATOM     14  C   UNL     1      65.260  14.305  19.895  1.00  0.00     0.041 C 
ATOM     15  O   UNL     1      65.186  15.187  18.999  1.00  0.00    -0.550 OA
ATOM     16  O   UNL     1      66.044  13.175  19.685  1.00  0.00    -0.550 OA
ENDBRANCH  13  14
ENDBRANCH  12  13
ENDBRANCH  11  12
ENDBRANCH  10  11
ENDBRANCH   9  10
ENDBRANCH   8   9
ENDBRANCH   7   8
ENDBRANCH   6   7
ENDBRANCH   5   6
ENDBRANCH   4   5
ENDBRANCH   3   4
ENDBRANCH   2   3
ENDBRANCH   1   2
BRANCH   1  17
ATOM     17  C   UNL     1      65.276   2.918  19.126  1.00  0.00     0.000 C 
BRANCH  17  18
ATOM     18  C   UNL     1      64.682   1.632  19.732  1.00  0.00     0.000 C 
BRANCH  18  19
ATOM     19  C   UNL     1      63.369   1.157  19.082  1.00  0.00     0.000 C 
BRANCH  19  20
ATOM     20  C   UNL     1      62.120   1.543  19.895  1.00  0.00     0.000 C 
BRANCH  20  21
ATOM     21  C   UNL     1      61.757   3.032  19.762  1.00  0.00     0.000 C 
BRANCH  21  22
ATOM     22  C   UNL     1      61.404   3.738  21.088  1.00  0.00    -0.000 C 
BRANCH  22  23
ATOM     23  C   UNL     1      61.197   2.801  22.293  1.00  0.00    -0.000 C 
BRANCH  23  24
ATOM     24  C   UNL     1      62.195   3.003  23.449  1.00  0.00    -0.000 C 
BRANCH  24  25
ATOM     25  C   UNL     1      63.632   3.310  22.976  1.00  0.00    -0.000 C 
BRANCH  25  26
ATOM     26  C   UNL     1      64.651   2.268  23.470  1.00  0.00    -0.000 C 
BRANCH  26  27
ATOM     27  C   UNL     1      65.886   2.924  24.122  1.00  0.00    -0.000 C 
BRANCH  27  28
ATOM     28  C   UNL     1      66.015   4.428  23.830  1.00  0.00    -0.000 C 
BRANCH  28  29
ATOM     29  C   UNL     1      66.848   5.175  24.880  1.00  0.00    -0.003 C 
ATOM     30  C   UNL     1      66.797   4.466  26.230  1.00  0.00     0.004 C 
ENDBRANCH  28  29
ENDBRANCH  27  28
ENDBRANCH  26  27
ENDBRANCH  25  26
ENDBRANCH  24  25
ENDBRANCH  23  24
ENDBRANCH  22  23
ENDBRANCH  21  22
ENDBRANCH  20  21
ENDBRANCH  19  20
ENDBRANCH  18  19
ENDBRANCH  17  18
ENDBRANCH   1  17
TORSDOF 26
ENDMDL
MODEL 4
REMARK VINA RESULT:    -6.002      4.363     10.125
REMARK INTER + INTRA:         -19.171
REMARK INTER:                 -14.590
REMARK INTRA:                  -4.581
REMARK UNBOUND:                -4.047
REMARK SMILES CCCCCCCCCCCCCCCCCCCCCCCCCCCC(=O)[O-]
REMARK SMILES IDX 15 1 16 2 17 3 18 4 19 5 20 6 21 7 22 8 23 9 24 10 25 11
REMARK SMILES IDX 26 12 27 13 28 14 29 15 30 16 14 17 13 18 12 19 11 20 10 21
REMARK SMILES IDX 9 22 8 23 7 24 6 25 5 26 4 27 3 28 2 29 1 30
REMARK H PARENT
REMARK Flexibility Score: inf
ROOT
ATOM      1  C   UNL     1      74.248   2.273  20.629  1.00  0.00     0.000 C 
ENDROOT
BRANCH   1   2
ATOM      2  C   UNL     1      73.283   2.812  21.709  1.00  0.00     0.000 C 
BRANCH   2   3
ATOM      3  C   UNL     1      72.478   4.047  21.259  1.00  0.00     0.000 C 
BRANCH   3   4
ATOM      4  C   UNL     1      73.140   5.398  21.586  1.00  0.00     0.000 C 
BRANCH   4   5
ATOM      5  C   UNL     1      73.718   6.118  20.345  1.00  0.00     0.000 C 
BRANCH   5   6
ATOM      6  C   UNL     1      72.890   7.349  19.941  1.00  0.00     0.000 C 
BRANCH   6   7
ATOM      7  C   UNL     1      71.450   6.992  19.539  1.00  0.00     0.000 C 
BRANCH   7   8
ATOM      8  C   UNL     1      70.395   7.770  20.345  1.00  0.00     0.000 C 
BRANCH   8   9
ATOM      9  C   UNL     1      69.754   6.905  21.448  1.00  0.00     0.000 C 
BRANCH   9  10
ATOM     10  C   UNL     1      70.294   7.210  22.857  1.00  0.00     0.000 C 
BRANCH  10  11
ATOM     11  C   UNL     1      70.103   6.027  23.822  1.00  0.00     0.000 C 
BRANCH  11  12
ATOM     12  C   UNL     1      69.501   4.791  23.134  1.00  0.00     0.006 C 
BRANCH  12  13
ATOM     13  C   UNL     1      68.312   4.199  23.902  1.00  0.00     0.053 C 
BRANCH  13  14
ATOM     14  C   UNL     1      67.032   4.451  23.167  1.00  0.00     0.041 C 
ATOM     15  O   UNL     1      66.079   5.044  23.739  1.00  0.00    -0.550 OA
ATOM     16  O   UNL     1      66.895   4.044  21.844  1.00  0.00    -0.550 OA
ENDBRANCH  13  14
ENDBRANCH  12  13
ENDBRANCH  11  12
ENDBRANCH  10  11
ENDBRANCH   9  10
ENDBRANCH   8   9
ENDBRANCH   7   8
ENDBRANCH   6   7
ENDBRANCH   5   6
ENDBRANCH   4   5
ENDBRANCH   3   4
ENDBRANCH   2   3
ENDBRANCH   1   2
BRANCH   1  17
ATOM     17  C   UNL     1      75.722   2.580  20.942  1.00  0.00     0.000 C 
BRANCH  17  18
ATOM     18  C   UNL     1      75.928   3.178  22.348  1.00  0.00     0.000 C 
BRANCH  18  19
ATOM     19  C   UNL     1      77.390   3.206  22.831  1.00  0.00     0.000 C 
BRANCH  19  20
ATOM     20  C   UNL     1      78.406   3.227  21.675  1.00  0.00     0.000 C 
BRANCH  20  21
ATOM     21  C   UNL     1      79.112   4.586  21.524  1.00  0.00     0.000 C 
BRANCH  21  22
ATOM     22  C   UNL     1      78.238   5.713  20.936  1.00  0.00    -0.000 C 
BRANCH  22  23
ATOM     23  C   UNL     1      78.105   6.967  21.821  1.00  0.00    -0.000 C 
BRANCH  23  24
ATOM     24  C   UNL     1      76.656   7.390  22.132  1.00  0.00    -0.000 C 
BRANCH  24  25
ATOM     25  C   UNL     1      76.055   6.675  23.362  1.00  0.00    -0.000 C 
BRANCH  25  26
ATOM     26  C   UNL     1      75.588   7.660  24.446  1.00  0.00    -0.000 C 
BRANCH  26  27
ATOM     27  C   UNL     1      74.237   8.318  24.093  1.00  0.00    -0.000 C 
BRANCH  27  28
ATOM     28  C   UNL     1      74.360   9.784  23.646  1.00  0.00    -0.000 C 
BRANCH  28  29
ATOM     29  C   UNL     1      73.877  10.016  22.208  1.00  0.00    -0.003 C 
ATOM     30  C   UNL     1      72.383  10.325  22.172  1.00  0.00     0.004 C 
ENDBRANCH  28  29
ENDBRANCH  27  28
ENDBRANCH  26  27
ENDBRANCH  25  26
ENDBRANCH  24  25
ENDBRANCH  23  24
ENDBRANCH  22  23
ENDBRANCH  21  22
ENDBRANCH  20  21
ENDBRANCH  19  20
ENDBRANCH  18  19
ENDBRANCH  17  18
ENDBRANCH   1  17
TORSDOF 26
ENDMDL
MODEL 5
REMARK VINA RESULT:    -5.982      2.710      6.723
REMARK INTER + INTRA:         -19.120
REMARK INTER:                 -15.107
REMARK INTRA:                  -4.014
REMARK UNBOUND:                -4.047
REMARK SMILES CCCCCCCCCCCCCCCCCCCCCCCCCCCC(=O)[O-]
REMARK SMILES IDX 15 1 16 2 17 3 18 4 19 5 20 6 21 7 22 8 23 9 24 10 25 11
REMARK SMILES IDX 26 12 27 13 28 14 29 15 30 16 14 17 13 18 12 19 11 20 10 21
REMARK SMILES IDX 9 22 8 23 7 24 6 25 5 26 4 27 3 28 2 29 1 30
REMARK H PARENT
REMARK Flexibility Score: inf
ROOT
ATOM      1  C   UNL     1      62.792   3.551  22.756  1.00  0.00     0.000 C 
ENDROOT
BRANCH   1   2
ATOM      2  C   UNL     1      61.460   2.946  22.256  1.00  0.00     0.000 C 
BRANCH   2   3
ATOM      3  C   UNL     1      60.882   3.662  21.019  1.00  0.00     0.000 C 
BRANCH   3   4
ATOM      4  C   UNL     1      61.224   2.995  19.675  1.00  0.00     0.000 C 
BRANCH   4   5
ATOM      5  C   UNL     1      61.964   1.645  19.825  1.00  0.00     0.000 C 
BRANCH   5   6
ATOM      6  C   UNL     1      63.408   1.704  19.300  1.00  0.00     0.000 C 
BRANCH   6   7
ATOM      7  C   UNL     1      63.919   3.142  19.123  1.00  0.00     0.000 C 
BRANCH   7   8
ATOM      8  C   UNL     1      65.429   3.207  18.833  1.00  0.00     0.000 C 
BRANCH   8   9
ATOM      9  C   UNL     1      66.187   4.036  19.889  1.00  0.00     0.000 C 
BRANCH   9  10
ATOM     10  C   UNL     1      65.301   5.069  20.609  1.00  0.00     0.000 C 
BRANCH  10  11
ATOM     11  C   UNL     1      66.114   6.265  21.136  1.00  0.00     0.000 C 
BRANCH  11  12
ATOM     12  C   UNL     1      65.946   7.524  20.271  1.00  0.00     0.006 C 
BRANCH  12  13
ATOM     13  C   UNL     1      67.133   8.490  20.386  1.00  0.00     0.053 C 
BRANCH  13  14
ATOM     14  C   UNL     1      66.931   9.442  21.523  1.00  0.00     0.041 C 
ATOM     15  O   UNL     1      67.651   9.362  22.553  1.00  0.00    -0.550 OA
ATOM     16  O   UNL     1      65.954  10.430  21.441  1.00  0.00    -0.550 OA
ENDBRANCH  13  14
ENDBRANCH  12  13
ENDBRANCH  11  12
ENDBRANCH  10  11
ENDBRANCH   9  10
ENDBRANCH   8   9
ENDBRANCH   7   8
ENDBRANCH   6   7
ENDBRANCH   5   6
ENDBRANCH   4   5
ENDBRANCH   3   4
ENDBRANCH   2   3
ENDBRANCH   1   2
BRANCH   1  17
ATOM     17  C   UNL     1      63.643   2.543  23.545  1.00  0.00     0.000 C 
BRANCH  17  18
ATOM     18  C   UNL     1      64.869   2.042  22.757  1.00  0.00     0.000 C 
BRANCH  18  19
ATOM     19  C   UNL     1      66.226   2.549  23.281  1.00  0.00     0.000 C 
BRANCH  19  20
ATOM     20  C   UNL     1      66.155   3.078  24.724  1.00  0.00     0.000 C 
BRANCH  20  21
ATOM     21  C   UNL     1      66.540   4.564  24.836  1.00  0.00     0.000 C 
BRANCH  21  22
ATOM     22  C   UNL     1      67.422   4.918  26.051  1.00  0.00    -0.000 C 
BRANCH  22  23
ATOM     23  C   UNL     1      68.923   5.081  25.746  1.00  0.00    -0.000 C 
BRANCH  23  24
ATOM     24  C   UNL     1      69.298   4.958  24.257  1.00  0.00    -0.000 C 
BRANCH  24  25
ATOM     25  C   UNL     1      69.536   6.317  23.565  1.00  0.00    -0.000 C 
BRANCH  25  26
ATOM     26  C   UNL     1      70.558   6.225  22.419  1.00  0.00    -0.000 C 
BRANCH  26  27
ATOM     27  C   UNL     1      70.186   5.132  21.394  1.00  0.00    -0.000 C 
BRANCH  27  28
ATOM     28  C   UNL     1      71.379   4.634  20.562  1.00  0.00    -0.000 C 
BRANCH  28  29
ATOM     29  C   UNL     1      72.516   4.066  21.423  1.00  0.00    -0.003 C 
ATOM     30  C   UNL     1      71.994   3.021  22.405  1.00  0.00     0.004 C 
ENDBRANCH  28  29
ENDBRANCH  27  28
ENDBRANCH  26  27
ENDBRANCH  25  26
ENDBRANCH  24  25
ENDBRANCH  23  24
ENDBRANCH  22  23
ENDBRANCH  21  22
ENDBRANCH  20  21
ENDBRANCH  19  20
ENDBRANCH  18  19
ENDBRANCH  17  18
ENDBRANCH   1  17
TORSDOF 26
ENDMDL
MODEL 6
REMARK VINA RESULT:    -5.952      2.719      7.281
REMARK INTER + INTRA:         -19.046
REMARK INTER:                 -15.316
REMARK INTRA:                  -3.730
REMARK UNBOUND:                -4.047
REMARK SMILES CCCCCCCCCCCCCCCCCCCCCCCCCCCC(=O)[O-]
REMARK SMILES IDX 15 1 16 2 17 3 18 4 19 5 20 6 21 7 22 8 23 9 24 10 25 11
REMARK SMILES IDX 26 12 27 13 28 14 29 15 30 16 14 17 13 18 12 19 11 20 10 21
REMARK SMILES IDX 9 22 8 23 7 24 6 25 5 26 4 27 3 28 2 29 1 30
REMARK H PARENT
REMARK Flexibility Score: inf
ROOT
ATOM      1  C   UNL     1      65.329   3.159  23.561  1.00  0.00     0.000 C 
ENDROOT
BRANCH   1   2
ATOM      2  C   UNL     1      63.911   2.951  22.983  1.00  0.00     0.000 C 
BRANCH   2   3
ATOM      3  C   UNL     1      63.178   4.267  22.656  1.00  0.00     0.000 C 
BRANCH   3   4
ATOM      4  C   UNL     1      61.838   4.088  21.918  1.00  0.00     0.000 C 
BRANCH   4   5
ATOM      5  C   UNL     1      61.296   2.641  21.964  1.00  0.00     0.000 C 
BRANCH   5   6
ATOM      6  C   UNL     1      61.007   2.075  20.563  1.00  0.00     0.000 C 
BRANCH   6   7
ATOM      7  C   UNL     1      62.110   2.411  19.547  1.00  0.00     0.000 C 
BRANCH   7   8
ATOM      8  C   UNL     1      63.305   1.444  19.623  1.00  0.00     0.000 C 
BRANCH   8   9
ATOM      9  C   UNL     1      64.653   2.176  19.476  1.00  0.00     0.000 C 
BRANCH   9  10
ATOM     10  C   UNL     1      64.506   3.662  19.099  1.00  0.00     0.000 C 
BRANCH  10  11
ATOM     11  C   UNL     1      65.604   4.534  19.733  1.00  0.00     0.000 C 
BRANCH  11  12
ATOM     12  C   UNL     1      65.059   5.847  20.316  1.00  0.00     0.006 C 
BRANCH  12  13
ATOM     13  C   UNL     1      66.167   6.841  20.690  1.00  0.00     0.053 C 
BRANCH  13  14
ATOM     14  C   UNL     1      65.907   8.178  20.068  1.00  0.00     0.041 C 
ATOM     15  O   UNL     1      64.824   8.782  20.292  1.00  0.00    -0.550 OA
ATOM     16  O   UNL     1      66.867   8.765  19.251  1.00  0.00    -0.550 OA
ENDBRANCH  13  14
ENDBRANCH  12  13
ENDBRANCH  11  12
ENDBRANCH  10  11
ENDBRANCH   9  10
ENDBRANCH   8   9
ENDBRANCH   7   8
ENDBRANCH   6   7
ENDBRANCH   5   6
ENDBRANCH   4   5
ENDBRANCH   3   4
ENDBRANCH   2   3
ENDBRANCH   1   2
BRANCH   1  17
ATOM     17  C   UNL     1      65.640   4.637  23.855  1.00  0.00     0.000 C 
BRANCH  17  18
ATOM     18  C   UNL     1      66.521   4.831  25.104  1.00  0.00     0.000 C 
BRANCH  18  19
ATOM     19  C   UNL     1      68.037   4.820  24.835  1.00  0.00     0.000 C 
BRANCH  19  20
ATOM     20  C   UNL     1      68.384   4.961  23.342  1.00  0.00     0.000 C 
BRANCH  20  21
ATOM     21  C   UNL     1      69.296   3.833  22.830  1.00  0.00     0.000 C 
BRANCH  21  22
ATOM     22  C   UNL     1      70.799   4.027  23.119  1.00  0.00    -0.000 C 
BRANCH  22  23
ATOM     23  C   UNL     1      71.749   3.213  22.221  1.00  0.00    -0.000 C 
BRANCH  23  24
ATOM     24  C   UNL     1      72.176   3.920  20.921  1.00  0.00    -0.000 C 
BRANCH  24  25
ATOM     25  C   UNL     1      73.629   4.442  20.951  1.00  0.00    -0.000 C 
BRANCH  25  26
ATOM     26  C   UNL     1      73.751   5.807  21.649  1.00  0.00    -0.000 C 
BRANCH  26  27
ATOM     27  C   UNL     1      73.879   6.969  20.641  1.00  0.00    -0.000 C 
BRANCH  27  28
ATOM     28  C   UNL     1      72.901   8.126  20.902  1.00  0.00    -0.000 C 
BRANCH  28  29
ATOM     29  C   UNL     1      71.465   7.808  20.464  1.00  0.00    -0.003 C 
ATOM     30  C   UNL     1      71.430   7.271  19.036  1.00  0.00     0.004 C 
ENDBRANCH  28  29
ENDBRANCH  27  28
ENDBRANCH  26  27
ENDBRANCH  25  26
ENDBRANCH  24  25
ENDBRANCH  23  24
ENDBRANCH  22  23
ENDBRANCH  21  22
ENDBRANCH  20  21
ENDBRANCH  19  20
ENDBRANCH  18  19
ENDBRANCH  17  18
ENDBRANCH   1  17
TORSDOF 26
ENDMDL
MODEL 7
REMARK VINA RESULT:    -5.949      5.276     11.487
REMARK INTER + INTRA:         -19.039
REMARK INTER:                 -14.362
REMARK INTRA:                  -4.677
REMARK UNBOUND:                -4.047
REMARK SMILES CCCCCCCCCCCCCCCCCCCCCCCCCCCC(=O)[O-]
REMARK SMILES IDX 15 1 16 2 17 3 18 4 19 5 20 6 21 7 22 8 23 9 24 10 25 11
REMARK SMILES IDX 26 12 27 13 28 14 29 15 30 16 14 17 13 18 12 19 11 20 10 21
REMARK SMILES IDX 9 22 8 23 7 24 6 25 5 26 4 27 3 28 2 29 1 30
REMARK H PARENT
REMARK Flexibility Score: inf
ROOT
ATOM      1  C   UNL     1      79.669   8.099  24.586  1.00  0.00     0.000 C 
ENDROOT
BRANCH   1   2
ATOM      2  C   UNL     1      80.276   7.074  23.601  1.00  0.00     0.000 C 
BRANCH   2   3
ATOM      3  C   UNL     1      79.463   5.769  23.489  1.00  0.00     0.000 C 
BRANCH   3   4
ATOM      4  C   UNL     1      80.011   4.758  22.466  1.00  0.00     0.000 C 
BRANCH   4   5
ATOM      5  C   UNL     1      78.952   4.273  21.449  1.00  0.00     0.000 C 
BRANCH   5   6
ATOM      6  C   UNL     1      77.802   3.502  22.118  1.00  0.00     0.000 C 
BRANCH   6   7
ATOM      7  C   UNL     1      76.892   2.791  21.104  1.00  0.00     0.000 C 
BRANCH   7   8
ATOM      8  C   UNL     1      75.490   2.496  21.666  1.00  0.00     0.000 C 
BRANCH   8   9
ATOM      9  C   UNL     1      74.465   2.215  20.549  1.00  0.00     0.000 C 
BRANCH   9  10
ATOM     10  C   UNL     1      73.098   2.882  20.789  1.00  0.00     0.000 C 
BRANCH  10  11
ATOM     11  C   UNL     1      72.779   3.029  22.288  1.00  0.00     0.000 C 
BRANCH  11  12
ATOM     12  C   UNL     1      71.306   3.378  22.550  1.00  0.00     0.006 C 
BRANCH  12  13
ATOM     13  C   UNL     1      70.841   4.625  21.785  1.00  0.00     0.053 C 
BRANCH  13  14
ATOM     14  C   UNL     1      69.541   5.125  22.333  1.00  0.00     0.041 C 
ATOM     15  O   UNL     1      68.790   4.355  22.989  1.00  0.00    -0.550 OA
ATOM     16  O   UNL     1      69.163   6.449  22.132  1.00  0.00    -0.550 OA
ENDBRANCH  13  14
ENDBRANCH  12  13
ENDBRANCH  11  12
ENDBRANCH  10  11
ENDBRANCH   9  10
ENDBRANCH   8   9
ENDBRANCH   7   8
ENDBRANCH   6   7
ENDBRANCH   5   6
ENDBRANCH   4   5
ENDBRANCH   3   4
ENDBRANCH   2   3
ENDBRANCH   1   2
BRANCH   1  17
ATOM     17  C   UNL     1      79.593   9.517  23.996  1.00  0.00     0.000 C 
BRANCH  17  18
ATOM     18  C   UNL     1      78.755  10.483  24.855  1.00  0.00     0.000 C 
BRANCH  18  19
ATOM     19  C   UNL     1      77.232  10.372  24.656  1.00  0.00     0.000 C 
BRANCH  19  20
ATOM     20  C   UNL     1      76.496   9.861  25.907  1.00  0.00     0.000 C 
BRANCH  20  21
ATOM     21  C   UNL     1      76.079   8.384  25.795  1.00  0.00     0.000 C 
BRANCH  21  22
ATOM     22  C   UNL     1      75.376   8.004  24.476  1.00  0.00    -0.000 C 
BRANCH  22  23
ATOM     23  C   UNL     1      76.123   6.973  23.608  1.00  0.00    -0.000 C 
BRANCH  23  24
ATOM     24  C   UNL     1      76.528   7.476  22.210  1.00  0.00    -0.000 C 
BRANCH  24  25
ATOM     25  C   UNL     1      75.992   6.598  21.059  1.00  0.00    -0.000 C 
BRANCH  25  26
ATOM     26  C   UNL     1      74.515   6.216  21.247  1.00  0.00    -0.000 C 
BRANCH  26  27
ATOM     27  C   UNL     1      73.638   6.677  20.063  1.00  0.00    -0.000 C 
BRANCH  27  28
ATOM     28  C   UNL     1      72.532   7.668  20.461  1.00  0.00    -0.000 C 
BRANCH  28  29
ATOM     29  C   UNL     1      72.713   8.232  21.877  1.00  0.00    -0.003 C 
ATOM     30  C   UNL     1      73.287   9.645  21.838  1.00  0.00     0.004 C 
ENDBRANCH  28  29
ENDBRANCH  27  28
ENDBRANCH  26  27
ENDBRANCH  25  26
ENDBRANCH  24  25
ENDBRANCH  23  24
ENDBRANCH  22  23
ENDBRANCH  21  22
ENDBRANCH  20  21
ENDBRANCH  19  20
ENDBRANCH  18  19
ENDBRANCH  17  18
ENDBRANCH   1  17
TORSDOF 26
ENDMDL
MODEL 8
REMARK VINA RESULT:    -5.944      5.336      9.528
REMARK INTER + INTRA:         -19.027
REMARK INTER:                 -14.198
REMARK INTRA:                  -4.828
REMARK UNBOUND:                -4.047
REMARK SMILES CCCCCCCCCCCCCCCCCCCCCCCCCCCC(=O)[O-]
REMARK SMILES IDX 15 1 16 2 17 3 18 4 19 5 20 6 21 7 22 8 23 9 24 10 25 11
REMARK SMILES IDX 26 12 27 13 28 14 29 15 30 16 14 17 13 18 12 19 11 20 10 21
REMARK SMILES IDX 9 22 8 23 7 24 6 25 5 26 4 27 3 28 2 29 1 30
REMARK H PARENT
REMARK Flexibility Score: inf
ROOT
ATOM      1  C   UNL     1      71.789   3.406  22.494  1.00  0.00     0.000 C 
ENDROOT
BRANCH   1   2
ATOM      2  C   UNL     1      70.326   3.895  22.597  1.00  0.00     0.000 C 
BRANCH   2   3
ATOM      3  C   UNL     1      70.119   5.009  23.641  1.00  0.00     0.000 C 
BRANCH   3   4
ATOM      4  C   UNL     1      70.723   6.371  23.255  1.00  0.00     0.000 C 
BRANCH   4   5
ATOM      5  C   UNL     1      69.736   7.294  22.503  1.00  0.00     0.000 C 
BRANCH   5   6
ATOM      6  C   UNL     1      70.443   8.211  21.490  1.00  0.00     0.000 C 
BRANCH   6   7
ATOM      7  C   UNL     1      70.376   7.673  20.052  1.00  0.00     0.000 C 
BRANCH   7   8
ATOM      8  C   UNL     1      71.603   6.824  19.676  1.00  0.00     0.000 C 
BRANCH   8   9
ATOM      9  C   UNL     1      72.924   7.491  20.106  1.00  0.00     0.000 C 
BRANCH   9  10
ATOM     10  C   UNL     1      73.738   6.648  21.105  1.00  0.00     0.000 C 
BRANCH  10  11
ATOM     11  C   UNL     1      74.187   7.469  22.327  1.00  0.00     0.000 C 
BRANCH  11  12
ATOM     12  C   UNL     1      74.262   8.976  22.035  1.00  0.00     0.006 C 
BRANCH  12  13
ATOM     13  C   UNL     1      73.400   9.814  22.990  1.00  0.00     0.053 C 
BRANCH  13  14
ATOM     14  C   UNL     1      73.142  11.171  22.414  1.00  0.00     0.041 C 
ATOM     15  O   UNL     1      73.613  12.197  22.973  1.00  0.00    -0.550 OA
ATOM     16  O   UNL     1      72.393  11.304  21.250  1.00  0.00    -0.550 OA
ENDBRANCH  13  14
ENDBRANCH  12  13
ENDBRANCH  11  12
ENDBRANCH  10  11
ENDBRANCH   9  10
ENDBRANCH   8   9
ENDBRANCH   7   8
ENDBRANCH   6   7
ENDBRANCH   5   6
ENDBRANCH   4   5
ENDBRANCH   3   4
ENDBRANCH   2   3
ENDBRANCH   1   2
BRANCH   1  17
ATOM     17  C   UNL     1      72.349   3.505  21.065  1.00  0.00     0.000 C 
BRANCH  17  18
ATOM     18  C   UNL     1      73.463   2.478  20.782  1.00  0.00     0.000 C 
BRANCH  18  19
ATOM     19  C   UNL     1      74.887   3.062  20.745  1.00  0.00     0.000 C 
BRANCH  19  20
ATOM     20  C   UNL     1      75.389   3.514  22.129  1.00  0.00     0.000 C 
BRANCH  20  21
ATOM     21  C   UNL     1      76.774   2.942  22.479  1.00  0.00     0.000 C 
BRANCH  21  22
ATOM     22  C   UNL     1      77.836   3.084  21.370  1.00  0.00    -0.000 C 
BRANCH  22  23
ATOM     23  C   UNL     1      79.014   4.020  21.706  1.00  0.00    -0.000 C 
BRANCH  23  24
ATOM     24  C   UNL     1      79.019   5.355  20.939  1.00  0.00    -0.000 C 
BRANCH  24  25
ATOM     25  C   UNL     1      77.728   6.181  21.129  1.00  0.00    -0.000 C 
BRANCH  25  26
ATOM     26  C   UNL     1      77.808   7.132  22.335  1.00  0.00    -0.000 C 
BRANCH  26  27
ATOM     27  C   UNL     1      77.262   6.485  23.625  1.00  0.00    -0.000 C 
BRANCH  27  28
ATOM     28  C   UNL     1      77.201   7.448  24.822  1.00  0.00    -0.000 C 
BRANCH  28  29
ATOM     29  C   UNL     1      77.241   8.925  24.407  1.00  0.00    -0.003 C 
ATOM     30  C   UNL     1      76.320   9.769  25.285  1.00  0.00     0.004 C 
ENDBRANCH  28  29
ENDBRANCH  27  28
ENDBRANCH  26  27
ENDBRANCH  25  26
ENDBRANCH  24  25
ENDBRANCH  23  24
ENDBRANCH  22  23
ENDBRANCH  21  22
ENDBRANCH  20  21
ENDBRANCH  19  20
ENDBRANCH  18  19
ENDBRANCH  17  18
ENDBRANCH   1  17
TORSDOF 26
ENDMDL
MODEL 9
REMARK VINA RESULT:    -5.902      1.760      3.743
REMARK INTER + INTRA:         -18.920
REMARK INTER:                 -14.902
REMARK INTRA:                  -4.018
REMARK UNBOUND:                -4.047
REMARK SMILES CCCCCCCCCCCCCCCCCCCCCCCCCCCC(=O)[O-]
REMARK SMILES IDX 15 1 16 2 17 3 18 4 19 5 20 6 21 7 22 8 23 9 24 10 25 11
REMARK SMILES IDX 26 12 27 13 28 14 29 15 30 16 14 17 13 18 12 19 11 20 10 21
REMARK SMILES IDX 9 22 8 23 7 24 6 25 5 26 4 27 3 28 2 29 1 30
REMARK H PARENT
REMARK Flexibility Score: inf
ROOT
ATOM      1  C   UNL     1      67.120   4.545  24.423  1.00  0.00     0.000 C 
ENDROOT
BRANCH   1   2
ATOM      2  C   UNL     1      68.356   4.066  23.628  1.00  0.00     0.000 C 
BRANCH   2   3
ATOM      3  C   UNL     1      69.669   4.749  24.057  1.00  0.00     0.000 C 
BRANCH   3   4
ATOM      4  C   UNL     1      70.401   5.499  22.929  1.00  0.00     0.000 C 
BRANCH   4   5
ATOM      5  C   UNL     1      70.386   7.036  23.098  1.00  0.00     0.000 C 
BRANCH   5   6
ATOM      6  C   UNL     1      70.139   7.772  21.770  1.00  0.00     0.000 C 
BRANCH   6   7
ATOM      7  C   UNL     1      70.225   6.842  20.549  1.00  0.00     0.000 C 
BRANCH   7   8
ATOM      8  C   UNL     1      71.159   7.383  19.453  1.00  0.00     0.000 C 
BRANCH   8   9
ATOM      9  C   UNL     1      72.597   7.592  19.967  1.00  0.00     0.000 C 
BRANCH   9  10
ATOM     10  C   UNL     1      73.349   6.274  20.235  1.00  0.00     0.000 C 
BRANCH  10  11
ATOM     11  C   UNL     1      74.044   6.272  21.608  1.00  0.00     0.000 C 
BRANCH  11  12
ATOM     12  C   UNL     1      74.483   4.867  22.049  1.00  0.00     0.006 C 
BRANCH  12  13
ATOM     13  C   UNL     1      73.465   3.779  21.681  1.00  0.00     0.053 C 
BRANCH  13  14
ATOM     14  C   UNL     1      74.143   2.630  21.002  1.00  0.00     0.041 C 
ATOM     15  O   UNL     1      73.615   2.086  19.996  1.00  0.00    -0.550 OA
ATOM     16  O   UNL     1      75.368   2.168  21.471  1.00  0.00    -0.550 OA
ENDBRANCH  13  14
ENDBRANCH  12  13
ENDBRANCH  11  12
ENDBRANCH  10  11
ENDBRANCH   9  10
ENDBRANCH   8   9
ENDBRANCH   7   8
ENDBRANCH   6   7
ENDBRANCH   5   6
ENDBRANCH   4   5
ENDBRANCH   3   4
ENDBRANCH   2   3
ENDBRANCH   1   2
BRANCH   1  17
ATOM     17  C   UNL     1      66.138   3.404  24.738  1.00  0.00     0.000 C 
BRANCH  17  18
ATOM     18  C   UNL     1      66.118   2.309  23.654  1.00  0.00     0.000 C 
BRANCH  18  19
ATOM     19  C   UNL     1      64.754   2.099  22.971  1.00  0.00     0.000 C 
BRANCH  19  20
ATOM     20  C   UNL     1      63.880   3.366  22.968  1.00  0.00     0.000 C 
BRANCH  20  21
ATOM     21  C   UNL     1      62.455   3.109  22.450  1.00  0.00     0.000 C 
BRANCH  21  22
ATOM     22  C   UNL     1      62.313   3.088  20.914  1.00  0.00    -0.000 C 
BRANCH  22  23
ATOM     23  C   UNL     1      62.221   1.684  20.284  1.00  0.00    -0.000 C 
BRANCH  23  24
ATOM     24  C   UNL     1      63.295   1.378  19.224  1.00  0.00    -0.000 C 
BRANCH  24  25
ATOM     25  C   UNL     1      64.640   2.091  19.484  1.00  0.00    -0.000 C 
BRANCH  25  26
ATOM     26  C   UNL     1      64.961   3.152  18.417  1.00  0.00    -0.000 C 
BRANCH  26  27
ATOM     27  C   UNL     1      65.297   4.523  19.041  1.00  0.00    -0.000 C 
BRANCH  27  28
ATOM     28  C   UNL     1      66.175   4.432  20.300  1.00  0.00    -0.000 C 
BRANCH  28  29
ATOM     29  C   UNL     1      66.378   5.788  20.989  1.00  0.00    -0.003 C 
ATOM     30  C   UNL     1      65.513   6.868  20.347  1.00  0.00     0.004 C 
ENDBRANCH  28  29
ENDBRANCH  27  28
ENDBRANCH  26  27
ENDBRANCH  25  26
ENDBRANCH  24  25
ENDBRANCH  23  24
ENDBRANCH  22  23
ENDBRANCH  21  22
ENDBRANCH  20  21
ENDBRANCH  19  20
ENDBRANCH  18  19
ENDBRANCH  17  18
ENDBRANCH   1  17
TORSDOF 26
ENDMDL
