MODEL 1
REMARK VINA RESULT:    -7.387      0.000      0.000
REMARK INTER + INTRA:          -9.267
REMARK INTER:                  -8.899
REMARK INTRA:                  -0.368
REMARK UNBOUND:                -0.368
REMARK SMILES Oc1cc(O)c2c(c1)O[C@@H](c1ccc(O)c(O)c1)[C@H](O)C2
REMARK SMILES IDX 21 1 19 2 10 3 9 4 7 5 8 6 2 7 3 8 4 9 6 10 20 11 11 13
REMARK SMILES IDX 18 14 12 15 16 16 13 17 14 18 17 19 15 21 5 23 1 25
REMARK H PARENT 20 12 17 20 15 22 5 24 1 26
REMARK Flexibility Score: inf
ROOT
ATOM      1  C   UNL     1     114.692 -50.226  32.285  1.00  0.00     0.079 C 
ATOM      2  C   UNL     1     115.955 -49.460  31.856  1.00  0.00     0.164 C 
ATOM      3  C   UNL     1     115.898 -49.163  30.345  1.00  0.00     0.232 C 
ATOM      4  O   UNL     1     114.706 -48.440  30.040  1.00  0.00    -0.482 OA
ATOM      5  C   UNL     1     113.485 -48.711  30.663  1.00  0.00     0.131 A 
ATOM      6  C   UNL     1     112.326 -48.093  30.185  1.00  0.00     0.093 A 
ATOM      7  C   UNL     1     111.088 -48.357  30.780  1.00  0.00     0.122 A 
ATOM      8  C   UNL     1     111.010 -49.252  31.848  1.00  0.00     0.092 A 
ATOM      9  C   UNL     1     112.159 -49.883  32.340  1.00  0.00     0.126 A 
ATOM     10  C   UNL     1     113.420 -49.585  31.771  1.00  0.00     0.039 A 
ENDROOT
BRANCH   2  11
ATOM     11  O   UNL     1     117.084 -50.240  32.161  1.00  0.00    -0.389 OA
ATOM     12  H   UNL     1     116.890 -50.708  33.015  1.00  0.00     0.211 HD
ENDBRANCH   2  11
BRANCH   3  13
ATOM     13  C   UNL     1     117.100 -48.366  29.895  1.00  0.00    -0.001 A 
ATOM     14  C   UNL     1     117.928 -48.846  28.865  1.00  0.00     0.057 A 
ATOM     15  C   UNL     1     117.376 -47.114  30.468  1.00  0.00     0.012 A 
ATOM     16  C   UNL     1     119.026 -48.097  28.427  1.00  0.00     0.157 A 
ATOM     17  C   UNL     1     118.471 -46.364  30.033  1.00  0.00     0.050 A 
ATOM     18  C   UNL     1     119.301 -46.849  29.014  1.00  0.00     0.157 A 
BRANCH  16  19
ATOM     19  O   UNL     1     119.830 -48.605  27.407  1.00  0.00    -0.504 OA
ATOM     20  H   UNL     1     119.445 -48.930  26.529  1.00  0.00     0.293 HD
ENDBRANCH  16  19
BRANCH  18  21
ATOM     21  O   UNL     1     120.393 -46.098  28.583  1.00  0.00    -0.504 OA
ATOM     22  H   UNL     1     120.849 -46.284  27.698  1.00  0.00     0.293 HD
ENDBRANCH  18  21
ENDBRANCH   3  13
BRANCH   9  23
ATOM     23  O   UNL     1     112.010 -50.802  33.381  1.00  0.00    -0.507 OA
ATOM     24  H   UNL     1     111.283 -51.504  33.402  1.00  0.00     0.293 HD
ENDBRANCH   9  23
BRANCH   7  25
ATOM     25  O   UNL     1     109.930 -47.743  30.310  1.00  0.00    -0.508 OA
ATOM     26  H   UNL     1     109.198 -48.273  29.852  1.00  0.00     0.293 HD
ENDBRANCH   7  25
TORSDOF 6
ENDMDL
MODEL 2
REMARK VINA RESULT:    -7.232      1.700      7.088
REMARK INTER + INTRA:          -9.081
REMARK INTER:                  -9.045
REMARK INTRA:                  -0.035
REMARK UNBOUND:                -0.368
REMARK SMILES Oc1cc(O)c2c(c1)O[C@@H](c1ccc(O)c(O)c1)[C@H](O)C2
REMARK SMILES IDX 21 1 19 2 10 3 9 4 7 5 8 6 2 7 3 8 4 9 6 10 20 11 11 13
REMARK SMILES IDX 18 14 12 15 16 16 13 17 14 18 17 19 15 21 5 23 1 25
REMARK H PARENT 20 12 17 20 15 22 5 24 1 26
REMARK Flexibility Score: inf
ROOT
ATOM      1  C   UNL     1     115.302 -50.129  28.860  1.00  0.00     0.079 C 
ATOM      2  C   UNL     1     113.896 -49.645  29.252  1.00  0.00     0.164 C 
ATOM      3  C   UNL     1     113.899 -49.160  30.714  1.00  0.00     0.232 C 
ATOM      4  O   UNL     1     114.881 -48.138  30.882  1.00  0.00    -0.482 OA
ATOM      5  C   UNL     1     116.123 -48.180  30.242  1.00  0.00     0.131 A 
ATOM      6  C   UNL     1     117.100 -47.246  30.595  1.00  0.00     0.093 A 
ATOM      7  C   UNL     1     118.357 -47.273  29.982  1.00  0.00     0.122 A 
ATOM      8  C   UNL     1     118.638 -48.247  29.022  1.00  0.00     0.092 A 
ATOM      9  C   UNL     1     117.673 -49.192  28.656  1.00  0.00     0.126 A 
ATOM     10  C   UNL     1     116.385 -49.141  29.241  1.00  0.00     0.039 A 
ENDROOT
BRANCH   2  11
ATOM     11  O   UNL     1     112.989 -50.706  29.088  1.00  0.00    -0.389 OA
ATOM     12  H   UNL     1     112.513 -50.550  28.230  1.00  0.00     0.211 HD
ENDBRANCH   2  11
BRANCH   3  13
ATOM     13  C   UNL     1     112.545 -48.629  31.121  1.00  0.00    -0.001 A 
ATOM     14  C   UNL     1     112.221 -48.466  32.479  1.00  0.00     0.057 A 
ATOM     15  C   UNL     1     111.610 -48.248  30.144  1.00  0.00     0.012 A 
ATOM     16  C   UNL     1     110.978 -47.948  32.858  1.00  0.00     0.157 A 
ATOM     17  C   UNL     1     110.368 -47.730  30.519  1.00  0.00     0.050 A 
ATOM     18  C   UNL     1     110.044 -47.578  31.874  1.00  0.00     0.157 A 
BRANCH  16  19
ATOM     19  O   UNL     1     110.688 -47.804  34.215  1.00  0.00    -0.504 OA
ATOM     20  H   UNL     1     111.026 -47.019  34.758  1.00  0.00     0.293 HD
ENDBRANCH  16  19
BRANCH  18  21
ATOM     21  O   UNL     1     108.803 -47.063  32.245  1.00  0.00    -0.504 OA
ATOM     22  H   UNL     1     108.045 -46.977  31.580  1.00  0.00     0.293 HD
ENDBRANCH  18  21
ENDBRANCH   3  13
BRANCH   9  23
ATOM     23  O   UNL     1     118.029 -50.169  27.723  1.00  0.00    -0.507 OA
ATOM     24  H   UNL     1     117.784 -51.145  27.820  1.00  0.00     0.293 HD
ENDBRANCH   9  23
BRANCH   7  25
ATOM     25  O   UNL     1     119.336 -46.344  30.327  1.00  0.00    -0.508 OA
ATOM     26  H   UNL     1     119.601 -46.187  31.292  1.00  0.00     0.293 HD
ENDBRANCH   7  25
TORSDOF 6
ENDMDL
MODEL 3
REMARK VINA RESULT:    -7.143      2.069      6.839
REMARK INTER + INTRA:          -8.973
REMARK INTER:                  -8.677
REMARK INTRA:                  -0.296
REMARK UNBOUND:                -0.368
REMARK SMILES Oc1cc(O)c2c(c1)O[C@@H](c1ccc(O)c(O)c1)[C@H](O)C2
REMARK SMILES IDX 21 1 19 2 10 3 9 4 7 5 8 6 2 7 3 8 4 9 6 10 20 11 11 13
REMARK SMILES IDX 18 14 12 15 16 16 13 17 14 18 17 19 15 21 5 23 1 25
REMARK H PARENT 20 12 17 20 15 22 5 24 1 26
REMARK Flexibility Score: inf
ROOT
ATOM      1  C   UNL     1     116.006 -50.029  29.599  1.00  0.00     0.079 C 
ATOM      2  C   UNL     1     114.710 -49.337  30.054  1.00  0.00     0.164 C 
ATOM      3  C   UNL     1     115.029 -48.297  31.145  1.00  0.00     0.232 C 
ATOM      4  O   UNL     1     115.989 -47.362  30.655  1.00  0.00    -0.482 OA
ATOM      5  C   UNL     1     117.054 -47.743  29.834  1.00  0.00     0.131 A 
ATOM      6  C   UNL     1     118.055 -46.811  29.544  1.00  0.00     0.093 A 
ATOM      7  C   UNL     1     119.140 -47.168  28.738  1.00  0.00     0.122 A 
ATOM      8  C   UNL     1     119.228 -48.466  28.230  1.00  0.00     0.092 A 
ATOM      9  C   UNL     1     118.237 -49.414  28.510  1.00  0.00     0.126 A 
ATOM     10  C   UNL     1     117.114 -49.044  29.289  1.00  0.00     0.039 A 
ENDROOT
BRANCH   2  11
ATOM     11  O   UNL     1     113.825 -50.311  30.547  1.00  0.00    -0.389 OA
ATOM     12  H   UNL     1     114.044 -51.162  30.084  1.00  0.00     0.211 HD
ENDBRANCH   2  11
BRANCH   3  13
ATOM     13  C   UNL     1     113.785 -47.559  31.583  1.00  0.00    -0.001 A 
ATOM     14  C   UNL     1     113.570 -47.267  32.941  1.00  0.00     0.057 A 
ATOM     15  C   UNL     1     112.853 -47.116  30.631  1.00  0.00     0.012 A 
ATOM     16  C   UNL     1     112.433 -46.560  33.346  1.00  0.00     0.157 A 
ATOM     17  C   UNL     1     111.716 -46.409  31.032  1.00  0.00     0.050 A 
ATOM     18  C   UNL     1     111.500 -46.128  32.387  1.00  0.00     0.157 A 
BRANCH  16  19
ATOM     19  O   UNL     1     112.248 -46.292  34.702  1.00  0.00    -0.504 OA
ATOM     20  H   UNL     1     112.057 -45.359  35.045  1.00  0.00     0.293 HD
ENDBRANCH  16  19
BRANCH  18  21
ATOM     21  O   UNL     1     110.364 -45.424  32.784  1.00  0.00    -0.504 OA
ATOM     22  H   UNL     1     110.365 -44.838  33.611  1.00  0.00     0.293 HD
ENDBRANCH  18  21
ENDBRANCH   3  13
BRANCH   9  23
ATOM     23  O   UNL     1     118.404 -50.707  28.011  1.00  0.00    -0.507 OA
ATOM     24  H   UNL     1     117.855 -51.498  28.322  1.00  0.00     0.293 HD
ENDBRANCH   9  23
BRANCH   7  25
ATOM     25  O   UNL     1     120.141 -46.245  28.443  1.00  0.00    -0.508 OA
ATOM     26  H   UNL     1     121.091 -46.371  28.771  1.00  0.00     0.293 HD
ENDBRANCH   7  25
TORSDOF 6
ENDMDL
MODEL 4
REMARK VINA RESULT:    -7.130      0.989      1.695
REMARK INTER + INTRA:          -8.958
REMARK INTER:                  -8.583
REMARK INTRA:                  -0.374
REMARK UNBOUND:                -0.368
REMARK SMILES Oc1cc(O)c2c(c1)O[C@@H](c1ccc(O)c(O)c1)[C@H](O)C2
REMARK SMILES IDX 21 1 19 2 10 3 9 4 7 5 8 6 2 7 3 8 4 9 6 10 20 11 11 13
REMARK SMILES IDX 18 14 12 15 16 16 13 17 14 18 17 19 15 21 5 23 1 25
REMARK H PARENT 20 12 17 20 15 22 5 24 1 26
REMARK Flexibility Score: inf
ROOT
ATOM      1  C   UNL     1     114.039 -50.060  32.390  1.00  0.00     0.079 C 
ATOM      2  C   UNL     1     115.340 -49.637  31.687  1.00  0.00     0.164 C 
ATOM      3  C   UNL     1     115.149 -49.690  30.159  1.00  0.00     0.232 C 
ATOM      4  O   UNL     1     114.046 -48.866  29.781  1.00  0.00    -0.482 OA
ATOM      5  C   UNL     1     112.880 -48.778  30.547  1.00  0.00     0.131 A 
ATOM      6  C   UNL     1     111.775 -48.100  30.026  1.00  0.00     0.093 A 
ATOM      7  C   UNL     1     110.590 -48.008  30.764  1.00  0.00     0.122 A 
ATOM      8  C   UNL     1     110.510 -48.608  32.023  1.00  0.00     0.092 A 
ATOM      9  C   UNL     1     111.606 -49.292  32.561  1.00  0.00     0.126 A 
ATOM     10  C   UNL     1     112.821 -49.349  31.837  1.00  0.00     0.039 A 
ENDROOT
BRANCH   2  11
ATOM     11  O   UNL     1     116.372 -50.504  32.083  1.00  0.00    -0.389 OA
ATOM     12  H   UNL     1     117.066 -50.472  31.372  1.00  0.00     0.211 HD
ENDBRANCH   2  11
BRANCH   3  13
ATOM     13  C   UNL     1     116.391 -49.232  29.432  1.00  0.00    -0.001 A 
ATOM     14  C   UNL     1     116.856 -47.913  29.575  1.00  0.00     0.057 A 
ATOM     15  C   UNL     1     117.122 -50.133  28.642  1.00  0.00     0.012 A 
ATOM     16  C   UNL     1     118.022 -47.494  28.925  1.00  0.00     0.157 A 
ATOM     17  C   UNL     1     118.287 -49.718  27.991  1.00  0.00     0.050 A 
ATOM     18  C   UNL     1     118.742 -48.400  28.128  1.00  0.00     0.157 A 
BRANCH  16  19
ATOM     19  O   UNL     1     118.452 -46.177  29.085  1.00  0.00    -0.504 OA
ATOM     20  H   UNL     1     119.418 -45.946  29.279  1.00  0.00     0.293 HD
ENDBRANCH  16  19
BRANCH  18  21
ATOM     21  O   UNL     1     119.904 -47.989  27.476  1.00  0.00    -0.504 OA
ATOM     22  H   UNL     1     119.884 -47.640  26.526  1.00  0.00     0.293 HD
ENDBRANCH  18  21
ENDBRANCH   3  13
BRANCH   9  23
ATOM     23  O   UNL     1     111.449 -49.909  33.804  1.00  0.00    -0.507 OA
ATOM     24  H   UNL     1     111.868 -49.560  34.655  1.00  0.00     0.293 HD
ENDBRANCH   9  23
BRANCH   7  25
ATOM     25  O   UNL     1     109.485 -47.332  30.252  1.00  0.00    -0.508 OA
ATOM     26  H   UNL     1     109.574 -46.418  29.825  1.00  0.00     0.293 HD
ENDBRANCH   7  25
TORSDOF 6
ENDMDL
MODEL 5
REMARK VINA RESULT:    -6.893      1.499      3.226
REMARK INTER + INTRA:          -8.672
REMARK INTER:                  -8.345
REMARK INTRA:                  -0.327
REMARK UNBOUND:                -0.368
REMARK SMILES Oc1cc(O)c2c(c1)O[C@@H](c1ccc(O)c(O)c1)[C@H](O)C2
REMARK SMILES IDX 21 1 19 2 10 3 9 4 7 5 8 6 2 7 3 8 4 9 6 10 20 11 11 13
REMARK SMILES IDX 18 14 12 15 16 16 13 17 14 18 17 19 15 21 5 23 1 25
REMARK H PARENT 20 12 17 20 15 22 5 24 1 26
REMARK Flexibility Score: inf
ROOT
ATOM      1  C   UNL     1     112.782 -49.397  30.643  1.00  0.00     0.079 C 
ATOM      2  C   UNL     1     114.065 -49.366  29.795  1.00  0.00     0.164 C 
ATOM      3  C   UNL     1     115.160 -48.573  30.534  1.00  0.00     0.232 C 
ATOM      4  O   UNL     1     115.385 -49.145  31.822  1.00  0.00    -0.482 OA
ATOM      5  C   UNL     1     114.346 -49.646  32.611  1.00  0.00     0.131 A 
ATOM      6  C   UNL     1     114.614 -50.021  33.931  1.00  0.00     0.093 A 
ATOM      7  C   UNL     1     113.591 -50.512  34.748  1.00  0.00     0.122 A 
ATOM      8  C   UNL     1     112.293 -50.615  34.245  1.00  0.00     0.092 A 
ATOM      9  C   UNL     1     112.003 -50.244  32.927  1.00  0.00     0.126 A 
ATOM     10  C   UNL     1     113.044 -49.789  32.082  1.00  0.00     0.039 A 
ENDROOT
BRANCH   2  11
ATOM     11  O   UNL     1     113.776 -48.768  28.557  1.00  0.00    -0.389 OA
ATOM     12  H   UNL     1     114.435 -48.035  28.429  1.00  0.00     0.211 HD
ENDBRANCH   2  11
BRANCH   3  13
ATOM     13  C   UNL     1     116.454 -48.563  29.755  1.00  0.00    -0.001 A 
ATOM     14  C   UNL     1     117.181 -47.371  29.595  1.00  0.00     0.057 A 
ATOM     15  C   UNL     1     116.968 -49.756  29.220  1.00  0.00     0.012 A 
ATOM     16  C   UNL     1     118.394 -47.365  28.897  1.00  0.00     0.157 A 
ATOM     17  C   UNL     1     118.179 -49.753  28.523  1.00  0.00     0.050 A 
ATOM     18  C   UNL     1     118.896 -48.561  28.357  1.00  0.00     0.157 A 
BRANCH  16  19
ATOM     19  O   UNL     1     119.087 -46.163  28.752  1.00  0.00    -0.504 OA
ATOM     20  H   UNL     1     119.571 -45.920  27.897  1.00  0.00     0.293 HD
ENDBRANCH  16  19
BRANCH  18  21
ATOM     21  O   UNL     1     120.103 -48.562  27.659  1.00  0.00    -0.504 OA
ATOM     22  H   UNL     1     120.868 -49.171  27.923  1.00  0.00     0.293 HD
ENDBRANCH  18  21
ENDBRANCH   3  13
BRANCH   9  23
ATOM     23  O   UNL     1     110.677 -50.327  32.496  1.00  0.00    -0.507 OA
ATOM     24  H   UNL     1     110.336 -51.059  31.888  1.00  0.00     0.293 HD
ENDBRANCH   9  23
BRANCH   7  25
ATOM     25  O   UNL     1     113.852 -50.889  36.063  1.00  0.00    -0.508 OA
ATOM     26  H   UNL     1     113.171 -51.400  36.613  1.00  0.00     0.293 HD
ENDBRANCH   7  25
TORSDOF 6
ENDMDL
MODEL 6
REMARK VINA RESULT:    -6.692      2.229      3.693
REMARK INTER + INTRA:          -8.430
REMARK INTER:                  -8.201
REMARK INTRA:                  -0.229
REMARK UNBOUND:                -0.368
REMARK SMILES Oc1cc(O)c2c(c1)O[C@@H](c1ccc(O)c(O)c1)[C@H](O)C2
REMARK SMILES IDX 21 1 19 2 10 3 9 4 7 5 8 6 2 7 3 8 4 9 6 10 20 11 11 13
REMARK SMILES IDX 18 14 12 15 16 16 13 17 14 18 17 19 15 21 5 23 1 25
REMARK H PARENT 20 12 17 20 15 22 5 24 1 26
REMARK Flexibility Score: inf
ROOT
ATOM      1  C   UNL     1     111.890 -47.671  30.947  1.00  0.00     0.079 C 
ATOM      2  C   UNL     1     113.022 -48.187  30.043  1.00  0.00     0.164 C 
ATOM      3  C   UNL     1     114.188 -48.703  30.909  1.00  0.00     0.232 C 
ATOM      4  O   UNL     1     113.718 -49.711  31.803  1.00  0.00    -0.482 OA
ATOM      5  C   UNL     1     112.470 -49.634  32.428  1.00  0.00     0.131 A 
ATOM      6  C   UNL     1     112.153 -50.559  33.427  1.00  0.00     0.093 A 
ATOM      7  C   UNL     1     110.918 -50.498  34.080  1.00  0.00     0.122 A 
ATOM      8  C   UNL     1     110.003 -49.499  33.740  1.00  0.00     0.092 A 
ATOM      9  C   UNL     1     110.303 -48.563  32.743  1.00  0.00     0.126 A 
ATOM     10  C   UNL     1     111.533 -48.649  32.048  1.00  0.00     0.039 A 
ENDROOT
BRANCH   2  11
ATOM     11  O   UNL     1     113.453 -47.139  29.213  1.00  0.00    -0.389 OA
ATOM     12  H   UNL     1     114.361 -47.380  28.890  1.00  0.00     0.211 HD
ENDBRANCH   2  11
BRANCH   3  13
ATOM     13  C   UNL     1     115.301 -49.265  30.056  1.00  0.00    -0.001 A 
ATOM     14  C   UNL     1     115.009 -49.942  28.859  1.00  0.00     0.057 A 
ATOM     15  C   UNL     1     116.642 -49.076  30.427  1.00  0.00     0.012 A 
ATOM     16  C   UNL     1     116.039 -50.440  28.053  1.00  0.00     0.157 A 
ATOM     17  C   UNL     1     117.673 -49.572  29.624  1.00  0.00     0.050 A 
ATOM     18  C   UNL     1     117.379 -50.255  28.437  1.00  0.00     0.157 A 
BRANCH  16  19
ATOM     19  O   UNL     1     115.714 -51.112  26.875  1.00  0.00    -0.504 OA
ATOM     20  H   UNL     1     115.337 -52.052  26.878  1.00  0.00     0.293 HD
ENDBRANCH  16  19
BRANCH  18  21
ATOM     21  O   UNL     1     118.410 -50.750  27.639  1.00  0.00    -0.504 OA
ATOM     22  H   UNL     1     119.357 -50.399  27.719  1.00  0.00     0.293 HD
ENDBRANCH  18  21
ENDBRANCH   3  13
BRANCH   9  23
ATOM     23  O   UNL     1     109.366 -47.561  32.479  1.00  0.00    -0.507 OA
ATOM     24  H   UNL     1     108.390 -47.748  32.292  1.00  0.00     0.293 HD
ENDBRANCH   9  23
BRANCH   7  25
ATOM     25  O   UNL     1     110.594 -51.417  35.075  1.00  0.00    -0.508 OA
ATOM     26  H   UNL     1     109.656 -51.787  35.170  1.00  0.00     0.293 HD
ENDBRANCH   7  25
TORSDOF 6
ENDMDL
MODEL 7
REMARK VINA RESULT:    -6.674      3.385      7.823
REMARK INTER + INTRA:          -8.408
REMARK INTER:                  -8.094
REMARK INTRA:                  -0.314
REMARK UNBOUND:                -0.368
REMARK SMILES Oc1cc(O)c2c(c1)O[C@@H](c1ccc(O)c(O)c1)[C@H](O)C2
REMARK SMILES IDX 21 1 19 2 10 3 9 4 7 5 8 6 2 7 3 8 4 9 6 10 20 11 11 13
REMARK SMILES IDX 18 14 12 15 16 16 13 17 14 18 17 19 15 21 5 23 1 25
REMARK H PARENT 20 12 17 20 15 22 5 24 1 26
REMARK Flexibility Score: inf
ROOT
ATOM      1  C   UNL     1     112.645 -48.091  32.740  1.00  0.00     0.079 C 
ATOM      2  C   UNL     1     111.222 -47.519  32.631  1.00  0.00     0.164 C 
ATOM      3  C   UNL     1     111.146 -46.527  31.456  1.00  0.00     0.232 C 
ATOM      4  O   UNL     1     111.555 -47.172  30.250  1.00  0.00    -0.482 OA
ATOM      5  C   UNL     1     112.605 -48.094  30.214  1.00  0.00     0.131 A 
ATOM      6  C   UNL     1     113.069 -48.546  28.975  1.00  0.00     0.093 A 
ATOM      7  C   UNL     1     114.127 -49.458  28.908  1.00  0.00     0.122 A 
ATOM      8  C   UNL     1     114.730 -49.908  30.084  1.00  0.00     0.092 A 
ATOM      9  C   UNL     1     114.280 -49.466  31.334  1.00  0.00     0.126 A 
ATOM     10  C   UNL     1     113.180 -48.579  31.409  1.00  0.00     0.039 A 
ENDROOT
BRANCH   2  11
ATOM     11  O   UNL     1     110.898 -46.878  33.838  1.00  0.00    -0.389 OA
ATOM     12  H   UNL     1     110.691 -47.590  34.499  1.00  0.00     0.211 HD
ENDBRANCH   2  11
BRANCH   3  13
ATOM     13  C   UNL     1     109.748 -45.981  31.285  1.00  0.00    -0.001 A 
ATOM     14  C   UNL     1     109.420 -44.699  31.761  1.00  0.00     0.057 A 
ATOM     15  C   UNL     1     108.773 -46.730  30.607  1.00  0.00     0.012 A 
ATOM     16  C   UNL     1     108.133 -44.180  31.579  1.00  0.00     0.157 A 
ATOM     17  C   UNL     1     107.487 -46.214  30.424  1.00  0.00     0.050 A 
ATOM     18  C   UNL     1     107.160 -44.941  30.908  1.00  0.00     0.157 A 
BRANCH  16  19
ATOM     19  O   UNL     1     107.840 -42.907  32.069  1.00  0.00    -0.504 OA
ATOM     20  H   UNL     1     107.195 -42.761  32.836  1.00  0.00     0.293 HD
ENDBRANCH  16  19
BRANCH  18  21
ATOM     21  O   UNL     1     105.876 -44.430  30.725  1.00  0.00    -0.504 OA
ATOM     22  H   UNL     1     105.692 -43.435  30.750  1.00  0.00     0.293 HD
ENDBRANCH  18  21
ENDBRANCH   3  13
BRANCH   9  23
ATOM     23  O   UNL     1     114.952 -49.917  32.472  1.00  0.00    -0.507 OA
ATOM     24  H   UNL     1     115.321 -49.299  33.181  1.00  0.00     0.293 HD
ENDBRANCH   9  23
BRANCH   7  25
ATOM     25  O   UNL     1     114.594 -49.914  27.677  1.00  0.00    -0.508 OA
ATOM     26  H   UNL     1     115.368 -50.565  27.612  1.00  0.00     0.293 HD
ENDBRANCH   7  25
TORSDOF 6
ENDMDL
MODEL 8
REMARK VINA RESULT:    -6.596      3.601      4.194
REMARK INTER + INTRA:          -8.314
REMARK INTER:                  -7.947
REMARK INTRA:                  -0.367
REMARK UNBOUND:                -0.368
REMARK SMILES Oc1cc(O)c2c(c1)O[C@@H](c1ccc(O)c(O)c1)[C@H](O)C2
REMARK SMILES IDX 21 1 19 2 10 3 9 4 7 5 8 6 2 7 3 8 4 9 6 10 20 11 11 13
REMARK SMILES IDX 18 14 12 15 16 16 13 17 14 18 17 19 15 21 5 23 1 25
REMARK H PARENT 20 12 17 20 15 22 5 24 1 26
REMARK Flexibility Score: inf
ROOT
ATOM      1  C   UNL     1     116.731 -47.066  34.322  1.00  0.00     0.079 C 
ATOM      2  C   UNL     1     117.615 -47.376  33.103  1.00  0.00     0.164 C 
ATOM      3  C   UNL     1     116.745 -47.464  31.835  1.00  0.00     0.232 C 
ATOM      4  O   UNL     1     116.012 -46.252  31.666  1.00  0.00    -0.482 OA
ATOM      5  C   UNL     1     115.463 -45.552  32.745  1.00  0.00     0.131 A 
ATOM      6  C   UNL     1     114.606 -44.478  32.493  1.00  0.00     0.093 A 
ATOM      7  C   UNL     1     114.031 -43.770  33.552  1.00  0.00     0.122 A 
ATOM      8  C   UNL     1     114.306 -44.146  34.869  1.00  0.00     0.092 A 
ATOM      9  C   UNL     1     115.161 -45.221  35.142  1.00  0.00     0.126 A 
ATOM     10  C   UNL     1     115.781 -45.912  34.073  1.00  0.00     0.039 A 
ENDROOT
BRANCH   2  11
ATOM     11  O   UNL     1     118.284 -48.592  33.325  1.00  0.00    -0.389 OA
ATOM     12  H   UNL     1     119.236 -48.371  33.503  1.00  0.00     0.211 HD
ENDBRANCH   2  11
BRANCH   3  13
ATOM     13  C   UNL     1     117.586 -47.718  30.606  1.00  0.00    -0.001 A 
ATOM     14  C   UNL     1     118.485 -46.742  30.142  1.00  0.00     0.057 A 
ATOM     15  C   UNL     1     117.513 -48.953  29.940  1.00  0.00     0.012 A 
ATOM     16  C   UNL     1     119.286 -46.986  29.020  1.00  0.00     0.157 A 
ATOM     17  C   UNL     1     118.311 -49.200  28.820  1.00  0.00     0.050 A 
ATOM     18  C   UNL     1     119.199 -48.221  28.354  1.00  0.00     0.157 A 
BRANCH  16  19
ATOM     19  O   UNL     1     120.162 -45.993  28.584  1.00  0.00    -0.504 OA
ATOM     20  H   UNL     1     121.040 -46.212  28.129  1.00  0.00     0.293 HD
ENDBRANCH  16  19
BRANCH  18  21
ATOM     21  O   UNL     1     119.992 -48.470  27.235  1.00  0.00    -0.504 OA
ATOM     22  H   UNL     1     119.807 -49.250  26.617  1.00  0.00     0.293 HD
ENDBRANCH  18  21
ENDBRANCH   3  13
BRANCH   9  23
ATOM     23  O   UNL     1     115.363 -45.578  36.477  1.00  0.00    -0.507 OA
ATOM     24  H   UNL     1     116.212 -45.374  36.985  1.00  0.00     0.293 HD
ENDBRANCH   9  23
BRANCH   7  25
ATOM     25  O   UNL     1     113.176 -42.697  33.309  1.00  0.00    -0.508 OA
ATOM     26  H   UNL     1     112.640 -42.631  32.452  1.00  0.00     0.293 HD
ENDBRANCH   7  25
TORSDOF 6
ENDMDL
MODEL 9
REMARK VINA RESULT:    -6.558      1.724      1.980
REMARK INTER + INTRA:          -8.269
REMARK INTER:                  -8.008
REMARK INTRA:                  -0.260
REMARK UNBOUND:                -0.368
REMARK SMILES Oc1cc(O)c2c(c1)O[C@@H](c1ccc(O)c(O)c1)[C@H](O)C2
REMARK SMILES IDX 21 1 19 2 10 3 9 4 7 5 8 6 2 7 3 8 4 9 6 10 20 11 11 13
REMARK SMILES IDX 18 14 12 15 16 16 13 17 14 18 17 19 15 21 5 23 1 25
REMARK H PARENT 20 12 17 20 15 22 5 24 1 26
REMARK Flexibility Score: inf
ROOT
ATOM      1  C   UNL     1     113.362 -49.582  32.349  1.00  0.00     0.079 C 
ATOM      2  C   UNL     1     114.789 -49.546  31.777  1.00  0.00     0.164 C 
ATOM      3  C   UNL     1     114.757 -49.028  30.326  1.00  0.00     0.232 C 
ATOM      4  O   UNL     1     114.133 -47.745  30.285  1.00  0.00    -0.482 OA
ATOM      5  C   UNL     1     113.030 -47.422  31.081  1.00  0.00     0.131 A 
ATOM      6  C   UNL     1     112.360 -46.217  30.857  1.00  0.00     0.093 A 
ATOM      7  C   UNL     1     111.245 -45.874  31.628  1.00  0.00     0.122 A 
ATOM      8  C   UNL     1     110.794 -46.749  32.619  1.00  0.00     0.092 A 
ATOM      9  C   UNL     1     111.450 -47.961  32.858  1.00  0.00     0.126 A 
ATOM     10  C   UNL     1     112.606 -48.291  32.110  1.00  0.00     0.039 A 
ENDROOT
BRANCH   2  11
ATOM     11  O   UNL     1     115.329 -50.842  31.823  1.00  0.00    -0.389 OA
ATOM     12  H   UNL     1     116.129 -50.802  32.411  1.00  0.00     0.211 HD
ENDBRANCH   2  11
BRANCH   3  13
ATOM     13  C   UNL     1     116.148 -48.930  29.745  1.00  0.00    -0.001 A 
ATOM     14  C   UNL     1     116.680 -49.987  28.987  1.00  0.00     0.057 A 
ATOM     15  C   UNL     1     116.907 -47.761  29.918  1.00  0.00     0.012 A 
ATOM     16  C   UNL     1     117.958 -49.888  28.424  1.00  0.00     0.157 A 
ATOM     17  C   UNL     1     118.183 -47.659  29.358  1.00  0.00     0.050 A 
ATOM     18  C   UNL     1     118.715 -48.718  28.610  1.00  0.00     0.157 A 
BRANCH  16  19
ATOM     19  O   UNL     1     118.457 -50.958  27.682  1.00  0.00    -0.504 OA
ATOM     20  H   UNL     1     119.431 -51.231  27.720  1.00  0.00     0.293 HD
ENDBRANCH  16  19
BRANCH  18  21
ATOM     21  O   UNL     1     119.989 -48.613  28.054  1.00  0.00    -0.504 OA
ATOM     22  H   UNL     1     120.245 -47.834  27.460  1.00  0.00     0.293 HD
ENDBRANCH  18  21
ENDBRANCH   3  13
BRANCH   9  23
ATOM     23  O   UNL     1     110.924 -48.813  33.831  1.00  0.00    -0.507 OA
ATOM     24  H   UNL     1     110.718 -48.518  34.776  1.00  0.00     0.293 HD
ENDBRANCH   9  23
BRANCH   7  25
ATOM     25  O   UNL     1     110.573 -44.674  31.412  1.00  0.00    -0.508 OA
ATOM     26  H   UNL     1     109.884 -44.327  32.068  1.00  0.00     0.293 HD
ENDBRANCH   7  25
TORSDOF 6
ENDMDL
