MODEL 1
REMARK VINA RESULT:    20.444      0.000      0.000
REMARK INTER + INTRA:          23.138
REMARK INTER:                  23.431
REMARK INTRA:                  -0.293
REMARK UNBOUND:                -0.293
REMARK SMILES O=C1C[C@H](c2ccc(O)cc2)Oc2cc(O)cc(O)c21
REMARK SMILES IDX 3 1 4 2 12 3 13 4 14 5 15 6 17 7 18 8 20 9 2 10 1 11 5 12
REMARK SMILES IDX 6 13 11 14 7 15 10 16 8 17 9 18 19 20 16 22
REMARK H PARENT 9 19 19 21 16 23
REMARK Flexibility Score: inf
ROOT
ATOM      1  C   UNL     1      -6.024  -0.921  15.989  1.00  0.00     0.131 C 
ATOM      2  C   UNL     1      -4.793  -0.295  15.318  1.00  0.00     0.211 C 
ATOM      3  O   UNL     1      -4.484  -0.977  14.098  1.00  0.00    -0.484 OA
ATOM      4  C   UNL     1      -4.588  -2.368  13.962  1.00  0.00     0.138 A 
ATOM      5  C   UNL     1      -4.012  -2.984  12.848  1.00  0.00     0.093 A 
ATOM      6  C   UNL     1      -4.088  -4.371  12.693  1.00  0.00     0.123 A 
ATOM      7  C   UNL     1      -4.767  -5.140  13.640  1.00  0.00     0.093 A 
ATOM      8  C   UNL     1      -5.387  -4.539  14.742  1.00  0.00     0.133 A 
ATOM      9  C   UNL     1      -5.271  -3.136  14.930  1.00  0.00     0.102 A 
ATOM     10  C   UNL     1      -5.826  -2.403  16.095  1.00  0.00     0.174 C 
ATOM     11  O   UNL     1      -6.080  -2.983  17.183  1.00  0.00    -0.294 OA
ENDROOT
BRANCH   2  12
ATOM     12  C   UNL     1      -5.018   1.172  15.047  1.00  0.00    -0.007 A 
ATOM     13  C   UNL     1      -5.937   1.577  14.064  1.00  0.00     0.011 A 
ATOM     14  C   UNL     1      -4.273   2.148  15.732  1.00  0.00     0.011 A 
ATOM     15  C   UNL     1      -6.125   2.935  13.789  1.00  0.00     0.046 A 
ATOM     16  C   UNL     1      -4.463   3.505  15.455  1.00  0.00     0.046 A 
ATOM     17  C   UNL     1      -5.391   3.902  14.483  1.00  0.00     0.115 A 
BRANCH  17  18
ATOM     18  O   UNL     1      -5.590   5.251  14.200  1.00  0.00    -0.508 OA
ATOM     19  H   UNL     1      -6.513   5.669  14.232  1.00  0.00     0.293 HD
ENDBRANCH  17  18
ENDBRANCH   2  12
BRANCH   8  20
ATOM     20  O   UNL     1      -6.124  -5.364  15.593  1.00  0.00    -0.507 OA
ATOM     21  H   UNL     1      -6.201  -6.365  15.483  1.00  0.00     0.293 HD
ENDBRANCH   8  20
BRANCH   6  22
ATOM     22  O   UNL     1      -3.497  -4.996  11.597  1.00  0.00    -0.508 OA
ATOM     23  H   UNL     1      -2.806  -4.522  11.026  1.00  0.00     0.293 HD
ENDBRANCH   6  22
TORSDOF 4
ENDMDL
