MODEL 1
REMARK VINA RESULT:     0.816      0.000      0.000
REMARK INTER + INTRA:           2.758
REMARK INTER:                   2.153
REMARK INTRA:                   0.605
REMARK UNBOUND:                 0.605
REMARK SMILES CCCCCCCCCCCCCCCCCCCCCCCCCCCCCC(=O)[O-]
REMARK SMILES IDX 16 1 17 2 18 3 19 4 20 5 21 6 22 7 23 8 24 9 25 10 26 11
REMARK SMILES IDX 27 12 28 13 29 14 30 15 31 16 32 17 15 18 14 19 13 20 12 21
REMARK SMILES IDX 11 22 10 23 9 24 8 25 7 26 6 27 5 28 4 29 3 30 2 31 1 32
REMARK H PARENT
REMARK Flexibility Score: inf
ROOT
ATOM      1  C   UNL     1      29.888  14.113  18.612  1.00  0.00     0.000 C 
ENDROOT
BRANCH   1   2
ATOM      2  C   UNL     1      28.523  14.736  18.270  1.00  0.00     0.000 C 
BRANCH   2   3
ATOM      3  C   UNL     1      28.029  15.726  19.339  1.00  0.00     0.000 C 
BRANCH   3   4
ATOM      4  C   UNL     1      26.875  16.619  18.846  1.00  0.00     0.000 C 
BRANCH   4   5
ATOM      5  C   UNL     1      27.015  17.125  17.398  1.00  0.00     0.000 C 
BRANCH   5   6
ATOM      6  C   UNL     1      27.344  16.004  16.397  1.00  0.00     0.000 C 
BRANCH   6   7
ATOM      7  C   UNL     1      28.659  16.257  15.644  1.00  0.00     0.000 C 
BRANCH   7   8
ATOM      8  C   UNL     1      28.459  17.037  14.335  1.00  0.00     0.000 C 
BRANCH   8   9
ATOM      9  C   UNL     1      28.964  16.225  13.134  1.00  0.00     0.000 C 
BRANCH   9  10
ATOM     10  C   UNL     1      30.312  16.729  12.596  1.00  0.00     0.000 C 
BRANCH  10  11
ATOM     11  C   UNL     1      31.504  15.921  13.129  1.00  0.00     0.000 C 
BRANCH  11  12
ATOM     12  C   UNL     1      32.121  16.603  14.359  1.00  0.00     0.000 C 
BRANCH  12  13
ATOM     13  C   UNL     1      31.698  15.944  15.685  1.00  0.00     0.006 C 
BRANCH  13  14
ATOM     14  C   UNL     1      31.274  16.939  16.777  1.00  0.00     0.053 C 
BRANCH  14  15
ATOM     15  C   UNL     1      32.159  16.859  17.982  1.00  0.00     0.041 C 
ATOM     16  O   UNL     1      33.385  17.125  17.887  1.00  0.00    -0.550 OA
ATOM     17  O   UNL     1      31.638  16.443  19.202  1.00  0.00    -0.550 OA
ENDBRANCH  14  15
ENDBRANCH  13  14
ENDBRANCH  12  13
ENDBRANCH  11  12
ENDBRANCH  10  11
ENDBRANCH   9  10
ENDBRANCH   8   9
ENDBRANCH   7   8
ENDBRANCH   6   7
ENDBRANCH   5   6
ENDBRANCH   4   5
ENDBRANCH   3   4
ENDBRANCH   2   3
ENDBRANCH   1   2
BRANCH   1  18
ATOM     18  C   UNL     1      29.833  12.862  19.507  1.00  0.00     0.000 C 
BRANCH  18  19
ATOM     19  C   UNL     1      28.753  11.857  19.074  1.00  0.00     0.000 C 
BRANCH  19  20
ATOM     20  C   UNL     1      27.878  11.374  20.245  1.00  0.00     0.000 C 
BRANCH  20  21
ATOM     21  C   UNL     1      28.115  12.105  21.578  1.00  0.00     0.000 C 
BRANCH  21  22
ATOM     22  C   UNL     1      27.057  13.184  21.869  1.00  0.00     0.000 C 
BRANCH  22  23
ATOM     23  C   UNL     1      27.476  14.128  23.008  1.00  0.00     0.000 C 
BRANCH  23  24
ATOM     24  C   UNL     1      28.900  14.682  22.821  1.00  0.00    -0.000 C 
BRANCH  24  25
ATOM     25  C   UNL     1      28.987  15.693  21.658  1.00  0.00    -0.000 C 
BRANCH  25  26
ATOM     26  C   UNL     1      30.174  16.668  21.768  1.00  0.00    -0.000 C 
BRANCH  26  27
ATOM     27  C   UNL     1      31.019  16.517  23.045  1.00  0.00    -0.000 C 
BRANCH  27  28
ATOM     28  C   UNL     1      32.443  17.085  22.886  1.00  0.00    -0.000 C 
BRANCH  28  29
ATOM     29  C   UNL     1      33.542  16.009  23.013  1.00  0.00    -0.000 C 
BRANCH  29  30
ATOM     30  C   UNL     1      33.318  14.764  22.132  1.00  0.00    -0.000 C 
BRANCH  30  31
ATOM     31  C   UNL     1      32.166  13.846  22.570  1.00  0.00    -0.003 C 
ATOM     32  C   UNL     1      32.467  12.362  22.362  1.00  0.00     0.004 C 
ENDBRANCH  30  31
ENDBRANCH  29  30
ENDBRANCH  28  29
ENDBRANCH  27  28
ENDBRANCH  26  27
ENDBRANCH  25  26
ENDBRANCH  24  25
ENDBRANCH  23  24
ENDBRANCH  22  23
ENDBRANCH  21  22
ENDBRANCH  20  21
ENDBRANCH  19  20
ENDBRANCH  18  19
ENDBRANCH   1  18
TORSDOF 28
ENDMDL
MODEL 2
REMARK VINA RESULT:     3.088      1.207      2.197
REMARK INTER + INTRA:           8.747
REMARK INTER:                   3.476
REMARK INTRA:                   5.271
REMARK UNBOUND:                 0.605
REMARK SMILES CCCCCCCCCCCCCCCCCCCCCCCCCCCCCC(=O)[O-]
REMARK SMILES IDX 16 1 17 2 18 3 19 4 20 5 21 6 22 7 23 8 24 9 25 10 26 11
REMARK SMILES IDX 27 12 28 13 29 14 30 15 31 16 32 17 15 18 14 19 13 20 12 21
REMARK SMILES IDX 11 22 10 23 9 24 8 25 7 26 6 27 5 28 4 29 3 30 2 31 1 32
REMARK H PARENT
REMARK Flexibility Score: inf
ROOT
ATOM      1  C   UNL     1      29.933  13.853  18.300  1.00  0.00     0.000 C 
ENDROOT
BRANCH   1   2
ATOM      2  C   UNL     1      28.492  14.319  18.024  1.00  0.00     0.000 C 
BRANCH   2   3
ATOM      3  C   UNL     1      27.945  15.260  19.111  1.00  0.00     0.000 C 
BRANCH   3   4
ATOM      4  C   UNL     1      26.951  16.300  18.563  1.00  0.00     0.000 C 
BRANCH   4   5
ATOM      5  C   UNL     1      27.448  17.101  17.347  1.00  0.00     0.000 C 
BRANCH   5   6
ATOM      6  C   UNL     1      27.438  16.286  16.043  1.00  0.00     0.000 C 
BRANCH   6   7
ATOM      7  C   UNL     1      28.843  16.120  15.442  1.00  0.00     0.000 C 
BRANCH   7   8
ATOM      8  C   UNL     1      29.134  17.125  14.316  1.00  0.00     0.000 C 
BRANCH   8   9
ATOM      9  C   UNL     1      29.212  16.413  12.957  1.00  0.00     0.000 C 
BRANCH   9  10
ATOM     10  C   UNL     1      30.378  16.911  12.088  1.00  0.00     0.000 C 
BRANCH  10  11
ATOM     11  C   UNL     1      31.359  15.790  11.712  1.00  0.00     0.000 C 
BRANCH  11  12
ATOM     12  C   UNL     1      32.245  15.414  12.909  1.00  0.00     0.000 C 
BRANCH  12  13
ATOM     13  C   UNL     1      31.603  14.352  13.820  1.00  0.00     0.006 C 
BRANCH  13  14
ATOM     14  C   UNL     1      31.818  14.596  15.322  1.00  0.00     0.053 C 
BRANCH  14  15
ATOM     15  C   UNL     1      31.670  16.043  15.682  1.00  0.00     0.041 C 
ATOM     16  O   UNL     1      31.078  16.375  16.741  1.00  0.00    -0.550 OA
ATOM     17  O   UNL     1      32.146  17.025  14.822  1.00  0.00    -0.550 OA
ENDBRANCH  14  15
ENDBRANCH  13  14
ENDBRANCH  12  13
ENDBRANCH  11  12
ENDBRANCH  10  11
ENDBRANCH   9  10
ENDBRANCH   8   9
ENDBRANCH   7   8
ENDBRANCH   6   7
ENDBRANCH   5   6
ENDBRANCH   4   5
ENDBRANCH   3   4
ENDBRANCH   2   3
ENDBRANCH   1   2
BRANCH   1  18
ATOM     18  C   UNL     1      30.094  12.890  19.490  1.00  0.00     0.000 C 
BRANCH  18  19
ATOM     19  C   UNL     1      29.153  11.675  19.416  1.00  0.00     0.000 C 
BRANCH  19  20
ATOM     20  C   UNL     1      27.979  11.764  20.406  1.00  0.00     0.000 C 
BRANCH  20  21
ATOM     21  C   UNL     1      28.096  12.884  21.456  1.00  0.00     0.000 C 
BRANCH  21  22
ATOM     22  C   UNL     1      27.380  14.179  21.036  1.00  0.00     0.000 C 
BRANCH  22  23
ATOM     23  C   UNL     1      27.892  15.411  21.801  1.00  0.00     0.000 C 
BRANCH  23  24
ATOM     24  C   UNL     1      29.429  15.493  21.824  1.00  0.00    -0.000 C 
BRANCH  24  25
ATOM     25  C   UNL     1      30.027  14.916  23.124  1.00  0.00    -0.000 C 
BRANCH  25  26
ATOM     26  C   UNL     1      31.331  14.125  22.911  1.00  0.00    -0.000 C 
BRANCH  26  27
ATOM     27  C   UNL     1      31.776  13.992  21.445  1.00  0.00    -0.000 C 
BRANCH  27  28
ATOM     28  C   UNL     1      33.194  14.546  21.200  1.00  0.00    -0.000 C 
BRANCH  28  29
ATOM     29  C   UNL     1      33.459  15.878  21.935  1.00  0.00    -0.000 C 
BRANCH  29  30
ATOM     30  C   UNL     1      32.711  17.089  21.346  1.00  0.00    -0.000 C 
BRANCH  30  31
ATOM     31  C   UNL     1      32.613  17.121  19.812  1.00  0.00    -0.003 C 
ATOM     32  C   UNL     1      31.176  17.040  19.299  1.00  0.00     0.004 C 
ENDBRANCH  30  31
ENDBRANCH  29  30
ENDBRANCH  28  29
ENDBRANCH  27  28
ENDBRANCH  26  27
ENDBRANCH  25  26
ENDBRANCH  24  25
ENDBRANCH  23  24
ENDBRANCH  22  23
ENDBRANCH  21  22
ENDBRANCH  20  21
ENDBRANCH  19  20
ENDBRANCH  18  19
ENDBRANCH   1  18
TORSDOF 28
ENDMDL
