MODEL 1
REMARK VINA RESULT:    -3.182      0.000      0.000
REMARK INTER + INTRA:          -4.019
REMARK INTER:                  -3.926
REMARK INTRA:                  -0.094
REMARK UNBOUND:                -0.094
REMARK SMILES CCCCCC=O
REMARK SMILES IDX 4 1 3 2 2 3 1 4 5 5 6 6 7 7
REMARK H PARENT
REMARK Flexibility Score: inf
ROOT
ATOM      1  C   UNL     1       6.606 -49.751 -34.161  1.00  0.00     0.008 C 
ENDROOT
BRANCH   1   2
ATOM      2  C   UNL     1       7.745 -50.756 -34.391  1.00  0.00     0.000 C 
BRANCH   2   3
ATOM      3  C   UNL     1       8.444 -51.165 -33.087  1.00  0.00    -0.003 C 
ATOM      4  C   UNL     1       9.729 -50.368 -32.878  1.00  0.00     0.004 C 
ENDBRANCH   2   3
ENDBRANCH   1   2
BRANCH   1   5
ATOM      5  C   UNL     1       5.427 -49.962 -35.122  1.00  0.00     0.072 C 
BRANCH   5   6
ATOM      6  C   UNL     1       4.899 -51.361 -35.019  1.00  0.00     0.224 C 
ATOM      7  O   UNL     1       4.201 -51.690 -34.073  1.00  0.00    -0.303 OA
ENDBRANCH   5   6
ENDBRANCH   1   5
TORSDOF 4
ENDMDL
MODEL 2
REMARK VINA RESULT:    -3.113      2.223      4.075
REMARK INTER + INTRA:          -3.934
REMARK INTER:                  -3.824
REMARK INTRA:                  -0.110
REMARK UNBOUND:                -0.094
REMARK SMILES CCCCCC=O
REMARK SMILES IDX 4 1 3 2 2 3 1 4 5 5 6 6 7 7
REMARK H PARENT
REMARK Flexibility Score: inf
ROOT
ATOM      1  C   UNL     1       6.585 -49.786 -34.151  1.00  0.00     0.008 C 
ENDROOT
BRANCH   1   2
ATOM      2  C   UNL     1       5.335 -50.105 -34.986  1.00  0.00     0.000 C 
BRANCH   2   3
ATOM      3  C   UNL     1       5.128 -51.613 -35.188  1.00  0.00    -0.003 C 
ATOM      4  C   UNL     1       4.001 -52.136 -34.301  1.00  0.00     0.004 C 
ENDBRANCH   2   3
ENDBRANCH   1   2
BRANCH   1   5
ATOM      5  C   UNL     1       7.689 -50.841 -34.312  1.00  0.00     0.072 C 
BRANCH   5   6
ATOM      6  C   UNL     1       8.532 -50.924 -33.076  1.00  0.00     0.224 C 
ATOM      7  O   UNL     1       9.679 -50.504 -33.079  1.00  0.00    -0.303 OA
ENDBRANCH   5   6
ENDBRANCH   1   5
TORSDOF 4
ENDMDL
MODEL 3
REMARK VINA RESULT:    -2.834      8.384      9.595
REMARK INTER + INTRA:          -3.590
REMARK INTER:                  -3.559
REMARK INTRA:                  -0.031
REMARK UNBOUND:                -0.094
REMARK SMILES CCCCCC=O
REMARK SMILES IDX 4 1 3 2 2 3 1 4 5 5 6 6 7 7
REMARK H PARENT
REMARK Flexibility Score: inf
ROOT
ATOM      1  C   UNL     1      -1.860 -48.990 -35.085  1.00  0.00     0.008 C 
ENDROOT
BRANCH   1   2
ATOM      2  C   UNL     1      -2.997 -49.851 -34.513  1.00  0.00     0.000 C 
BRANCH   2   3
ATOM      3  C   UNL     1      -2.538 -51.268 -34.144  1.00  0.00    -0.003 C 
ATOM      4  C   UNL     1      -3.665 -52.279 -34.339  1.00  0.00     0.004 C 
ENDBRANCH   2   3
ENDBRANCH   1   2
BRANCH   1   5
ATOM      5  C   UNL     1      -1.675 -47.671 -34.322  1.00  0.00     0.072 C 
BRANCH   5   6
ATOM      6  C   UNL     1      -0.432 -46.964 -34.771  1.00  0.00     0.224 C 
ATOM      7  O   UNL     1       0.256 -46.352 -33.968  1.00  0.00    -0.303 OA
ENDBRANCH   5   6
ENDBRANCH   1   5
TORSDOF 4
ENDMDL
MODEL 4
REMARK VINA RESULT:    -2.814      7.731      8.567
REMARK INTER + INTRA:          -3.566
REMARK INTER:                  -3.507
REMARK INTRA:                  -0.059
REMARK UNBOUND:                -0.094
REMARK SMILES CCCCCC=O
REMARK SMILES IDX 4 1 3 2 2 3 1 4 5 5 6 6 7 7
REMARK H PARENT
REMARK Flexibility Score: inf
ROOT
ATOM      1  C   UNL     1      -1.320 -48.408 -35.024  1.00  0.00     0.008 C 
ENDROOT
BRANCH   1   2
ATOM      2  C   UNL     1      -1.412 -47.059 -34.295  1.00  0.00     0.000 C 
BRANCH   2   3
ATOM      3  C   UNL     1      -0.050 -46.359 -34.174  1.00  0.00    -0.003 C 
ATOM      4  C   UNL     1       0.752 -46.494 -35.465  1.00  0.00     0.004 C 
ENDBRANCH   2   3
ENDBRANCH   1   2
BRANCH   1   5
ATOM      5  C   UNL     1      -2.493 -49.341 -34.691  1.00  0.00     0.072 C 
BRANCH   5   6
ATOM      6  C   UNL     1      -2.094 -50.777 -34.850  1.00  0.00     0.224 C 
ATOM      7  O   UNL     1      -2.090 -51.529 -33.887  1.00  0.00    -0.303 OA
ENDBRANCH   5   6
ENDBRANCH   1   5
TORSDOF 4
ENDMDL
MODEL 5
REMARK VINA RESULT:    -2.776      8.658      9.477
REMARK INTER + INTRA:          -3.518
REMARK INTER:                  -3.402
REMARK INTRA:                  -0.117
REMARK UNBOUND:                -0.094
REMARK SMILES CCCCCC=O
REMARK SMILES IDX 4 1 3 2 2 3 1 4 5 5 6 6 7 7
REMARK H PARENT
REMARK Flexibility Score: inf
ROOT
ATOM      1  C   UNL     1      -1.291 -47.326 -34.403  1.00  0.00     0.008 C 
ENDROOT
BRANCH   1   2
ATOM      2  C   UNL     1      -1.596 -47.796 -35.834  1.00  0.00     0.000 C 
BRANCH   2   3
ATOM      3  C   UNL     1      -2.439 -49.079 -35.867  1.00  0.00    -0.003 C 
ATOM      4  C   UNL     1      -2.695 -49.605 -34.457  1.00  0.00     0.004 C 
ENDBRANCH   2   3
ENDBRANCH   1   2
BRANCH   1   5
ATOM      5  C   UNL     1      -0.144 -46.308 -34.347  1.00  0.00     0.072 C 
BRANCH   5   6
ATOM      6  C   UNL     1       0.102 -45.706 -35.697  1.00  0.00     0.224 C 
ATOM      7  O   UNL     1      -0.203 -44.545 -35.923  1.00  0.00    -0.303 OA
ENDBRANCH   5   6
ENDBRANCH   1   5
TORSDOF 4
ENDMDL
MODEL 6
REMARK VINA RESULT:    -2.725      9.228      9.847
REMARK INTER + INTRA:          -3.457
REMARK INTER:                  -3.333
REMARK INTRA:                  -0.124
REMARK UNBOUND:                -0.094
REMARK SMILES CCCCCC=O
REMARK SMILES IDX 4 1 3 2 2 3 1 4 5 5 6 6 7 7
REMARK H PARENT
REMARK Flexibility Score: inf
ROOT
ATOM      1  C   UNL     1       4.162 -58.902 -29.487  1.00  0.00     0.008 C 
ENDROOT
BRANCH   1   2
ATOM      2  C   UNL     1       5.097 -60.078 -29.167  1.00  0.00     0.000 C 
BRANCH   2   3
ATOM      3  C   UNL     1       5.045 -60.488 -27.688  1.00  0.00    -0.003 C 
ATOM      4  C   UNL     1       5.433 -59.324 -26.781  1.00  0.00     0.004 C 
ENDBRANCH   2   3
ENDBRANCH   1   2
BRANCH   1   5
ATOM      5  C   UNL     1       4.872 -57.772 -30.247  1.00  0.00     0.072 C 
BRANCH   5   6
ATOM      6  C   UNL     1       4.786 -56.483 -29.488  1.00  0.00     0.224 C 
ATOM      7  O   UNL     1       5.755 -55.742 -29.415  1.00  0.00    -0.303 OA
ENDBRANCH   5   6
ENDBRANCH   1   5
TORSDOF 4
ENDMDL
MODEL 7
REMARK VINA RESULT:    -2.697      8.866      9.708
REMARK INTER + INTRA:          -3.422
REMARK INTER:                  -3.306
REMARK INTRA:                  -0.116
REMARK UNBOUND:                -0.094
REMARK SMILES CCCCCC=O
REMARK SMILES IDX 4 1 3 2 2 3 1 4 5 5 6 6 7 7
REMARK H PARENT
REMARK Flexibility Score: inf
ROOT
ATOM      1  C   UNL     1      -2.032 -51.745 -34.310  1.00  0.00     0.008 C 
ENDROOT
BRANCH   1   2
ATOM      2  C   UNL     1      -1.578 -50.439 -34.981  1.00  0.00     0.000 C 
BRANCH   2   3
ATOM      3  C   UNL     1      -2.364 -49.217 -34.485  1.00  0.00    -0.003 C 
ATOM      4  C   UNL     1      -1.528 -47.945 -34.593  1.00  0.00     0.004 C 
ENDBRANCH   2   3
ENDBRANCH   1   2
BRANCH   1   5
ATOM      5  C   UNL     1      -3.547 -51.790 -34.066  1.00  0.00     0.072 C 
BRANCH   5   6
ATOM      6  C   UNL     1      -4.205 -52.783 -34.975  1.00  0.00     0.224 C 
ATOM      7  O   UNL     1      -3.532 -53.566 -35.627  1.00  0.00    -0.303 OA
ENDBRANCH   5   6
ENDBRANCH   1   5
TORSDOF 4
ENDMDL
MODEL 8
REMARK VINA RESULT:    -2.654      7.026      7.605
REMARK INTER + INTRA:          -3.368
REMARK INTER:                  -3.328
REMARK INTRA:                  -0.041
REMARK UNBOUND:                -0.094
REMARK SMILES CCCCCC=O
REMARK SMILES IDX 4 1 3 2 2 3 1 4 5 5 6 6 7 7
REMARK H PARENT
REMARK Flexibility Score: inf
ROOT
ATOM      1  C   UNL     1       5.096 -56.209 -29.625  1.00  0.00     0.008 C 
ENDROOT
BRANCH   1   2
ATOM      2  C   UNL     1       5.897 -55.376 -28.613  1.00  0.00     0.000 C 
BRANCH   2   3
ATOM      3  C   UNL     1       7.023 -54.567 -29.273  1.00  0.00    -0.003 C 
ATOM      4  C   UNL     1       7.746 -53.696 -28.249  1.00  0.00     0.004 C 
ENDBRANCH   2   3
ENDBRANCH   1   2
BRANCH   1   5
ATOM      5  C   UNL     1       4.603 -57.539 -29.038  1.00  0.00     0.072 C 
BRANCH   5   6
ATOM      6  C   UNL     1       3.386 -58.025 -29.766  1.00  0.00     0.224 C 
ATOM      7  O   UNL     1       2.577 -57.231 -30.219  1.00  0.00    -0.303 OA
ENDBRANCH   5   6
ENDBRANCH   1   5
TORSDOF 4
ENDMDL
MODEL 9
REMARK VINA RESULT:    -2.644     11.596     12.515
REMARK INTER + INTRA:          -3.356
REMARK INTER:                  -3.179
REMARK INTRA:                  -0.177
REMARK UNBOUND:                -0.094
REMARK SMILES CCCCCC=O
REMARK SMILES IDX 4 1 3 2 2 3 1 4 5 5 6 6 7 7
REMARK H PARENT
REMARK Flexibility Score: inf
ROOT
ATOM      1  C   UNL     1      -0.909 -57.286 -26.771  1.00  0.00     0.008 C 
ENDROOT
BRANCH   1   2
ATOM      2  C   UNL     1      -0.656 -56.825 -25.327  1.00  0.00     0.000 C 
BRANCH   2   3
ATOM      3  C   UNL     1      -0.182 -57.967 -24.417  1.00  0.00    -0.003 C 
ATOM      4  C   UNL     1      -0.241 -59.308 -25.143  1.00  0.00     0.004 C 
ENDBRANCH   2   3
ENDBRANCH   1   2
BRANCH   1   5
ATOM      5  C   UNL     1      -0.236 -56.376 -27.808  1.00  0.00     0.072 C 
BRANCH   5   6
ATOM      6  C   UNL     1       0.708 -57.158 -28.671  1.00  0.00     0.224 C 
ATOM      7  O   UNL     1       1.108 -58.255 -28.315  1.00  0.00    -0.303 OA
ENDBRANCH   5   6
ENDBRANCH   1   5
TORSDOF 4
ENDMDL
