MODEL 1
REMARK VINA RESULT:    -4.420      0.000      0.000
REMARK INTER + INTRA:          -8.118
REMARK INTER:                  -7.004
REMARK INTRA:                  -1.114
REMARK UNBOUND:                -1.114
REMARK SMILES CCCCCCCCCCCC(=O)[O-]
REMARK SMILES IDX 7 1 8 2 9 3 10 4 11 5 12 6 13 7 14 8 6 9 5 10 4 11 3 12 2 13
REMARK SMILES IDX 1 14
REMARK H PARENT
REMARK Flexibility Score: inf
ROOT
ATOM      1  C   UNL     1    -129.327 106.438  41.376  1.00  0.00     0.000 C 
ENDROOT
BRANCH   1   2
ATOM      2  C   UNL     1    -127.971 107.013  41.800  1.00  0.00     0.000 C 
BRANCH   2   3
ATOM      3  C   UNL     1    -128.141 108.375  42.488  1.00  0.00     0.000 C 
BRANCH   3   4
ATOM      4  C   UNL     1    -129.613 108.731  42.769  1.00  0.00     0.006 C 
BRANCH   4   5
ATOM      5  C   UNL     1    -129.856 109.322  44.169  1.00  0.00     0.053 C 
BRANCH   5   6
ATOM      6  C   UNL     1    -130.978 108.647  44.897  1.00  0.00     0.041 C 
ATOM      7  O   UNL     1    -131.864 108.020  44.259  1.00  0.00    -0.550 OA
ATOM      8  O   UNL     1    -131.029 108.684  46.285  1.00  0.00    -0.550 OA
ENDBRANCH   5   6
ENDBRANCH   4   5
ENDBRANCH   3   4
ENDBRANCH   2   3
ENDBRANCH   1   2
BRANCH   1   9
ATOM      9  C   UNL     1    -129.176 105.501  40.171  1.00  0.00     0.000 C 
BRANCH   9  10
ATOM     10  C   UNL     1    -129.948 106.038  38.956  1.00  0.00    -0.000 C 
BRANCH  10  11
ATOM     11  C   UNL     1    -129.874 107.568  38.839  1.00  0.00    -0.000 C 
BRANCH  11  12
ATOM     12  C   UNL     1    -131.265 108.228  38.816  1.00  0.00    -0.000 C 
BRANCH  12  13
ATOM     13  C   UNL     1    -131.288 109.576  39.551  1.00  0.00    -0.003 C 
ATOM     14  C   UNL     1    -129.943 110.299  39.501  1.00  0.00     0.004 C 
ENDBRANCH  12  13
ENDBRANCH  11  12
ENDBRANCH  10  11
ENDBRANCH   9  10
ENDBRANCH   1   9
TORSDOF 10
ENDMDL
MODEL 2
REMARK VINA RESULT:    -4.289      2.531      5.508
REMARK INTER + INTRA:          -7.909
REMARK INTER:                  -7.180
REMARK INTRA:                  -0.729
REMARK UNBOUND:                -1.114
REMARK SMILES CCCCCCCCCCCC(=O)[O-]
REMARK SMILES IDX 7 1 8 2 9 3 10 4 11 5 12 6 13 7 14 8 6 9 5 10 4 11 3 12 2 13
REMARK SMILES IDX 1 14
REMARK H PARENT
REMARK Flexibility Score: inf
ROOT
ATOM      1  C   UNL     1    -129.818 109.895  39.671  1.00  0.00     0.000 C 
ENDROOT
BRANCH   1   2
ATOM      2  C   UNL     1    -131.250 109.410  39.416  1.00  0.00     0.000 C 
BRANCH   2   3
ATOM      3  C   UNL     1    -131.253 108.027  38.750  1.00  0.00     0.000 C 
BRANCH   3   4
ATOM      4  C   UNL     1    -129.972 107.219  39.029  1.00  0.00     0.006 C 
BRANCH   4   5
ATOM      5  C   UNL     1    -130.202 105.701  39.130  1.00  0.00     0.053 C 
BRANCH   5   6
ATOM      6  C   UNL     1    -129.164 105.012  39.963  1.00  0.00     0.041 C 
ATOM      7  O   UNL     1    -128.368 105.683  40.671  1.00  0.00    -0.550 OA
ATOM      8  O   UNL     1    -129.094 103.624  39.980  1.00  0.00    -0.550 OA
ENDBRANCH   5   6
ENDBRANCH   4   5
ENDBRANCH   3   4
ENDBRANCH   2   3
ENDBRANCH   1   2
BRANCH   1   9
ATOM      9  C   UNL     1    -129.580 110.147  41.166  1.00  0.00     0.000 C 
BRANCH   9  10
ATOM     10  C   UNL     1    -128.931 108.924  41.833  1.00  0.00    -0.000 C 
BRANCH  10  11
ATOM     11  C   UNL     1    -129.859 108.247  42.853  1.00  0.00    -0.000 C 
BRANCH  11  12
ATOM     12  C   UNL     1    -130.202 109.163  44.042  1.00  0.00    -0.000 C 
BRANCH  12  13
ATOM     13  C   UNL     1    -131.278 108.561  44.957  1.00  0.00    -0.003 C 
ATOM     14  C   UNL     1    -130.950 108.725  46.441  1.00  0.00     0.004 C 
ENDBRANCH  12  13
ENDBRANCH  11  12
ENDBRANCH  10  11
ENDBRANCH   9  10
ENDBRANCH   1   9
TORSDOF 10
ENDMDL
MODEL 3
REMARK VINA RESULT:    -4.271      2.261      4.891
REMARK INTER + INTRA:          -7.882
REMARK INTER:                  -7.071
REMARK INTRA:                  -0.810
REMARK UNBOUND:                -1.114
REMARK SMILES CCCCCCCCCCCC(=O)[O-]
REMARK SMILES IDX 7 1 8 2 9 3 10 4 11 5 12 6 13 7 14 8 6 9 5 10 4 11 3 12 2 13
REMARK SMILES IDX 1 14
REMARK H PARENT
REMARK Flexibility Score: inf
ROOT
ATOM      1  C   UNL     1    -129.296 106.323  41.264  1.00  0.00     0.000 C 
ENDROOT
BRANCH   1   2
ATOM      2  C   UNL     1    -128.990 105.498  40.008  1.00  0.00     0.000 C 
BRANCH   2   3
ATOM      3  C   UNL     1    -129.418 106.248  38.739  1.00  0.00     0.000 C 
BRANCH   3   4
ATOM      4  C   UNL     1    -130.394 107.405  39.020  1.00  0.00     0.006 C 
BRANCH   4   5
ATOM      5  C   UNL     1    -129.742 108.798  38.971  1.00  0.00     0.053 C 
BRANCH   5   6
ATOM      6  C   UNL     1    -130.585 109.855  39.617  1.00  0.00     0.041 C 
ATOM      7  O   UNL     1    -130.045 110.796  40.257  1.00  0.00    -0.550 OA
ATOM      8  O   UNL     1    -131.968 109.818  39.487  1.00  0.00    -0.550 OA
ENDBRANCH   5   6
ENDBRANCH   4   5
ENDBRANCH   3   4
ENDBRANCH   2   3
ENDBRANCH   1   2
BRANCH   1   9
ATOM      9  C   UNL     1    -128.036 107.030  41.779  1.00  0.00     0.000 C 
BRANCH   9  10
ATOM     10  C   UNL     1    -128.387 108.385  42.415  1.00  0.00    -0.000 C 
BRANCH  10  11
ATOM     11  C   UNL     1    -129.849 108.457  42.881  1.00  0.00    -0.000 C 
BRANCH  11  12
ATOM     12  C   UNL     1    -130.006 109.198  44.221  1.00  0.00    -0.000 C 
BRANCH  12  13
ATOM     13  C   UNL     1    -131.168 108.650  45.063  1.00  0.00    -0.003 C 
ATOM     14  C   UNL     1    -130.893 108.721  46.565  1.00  0.00     0.004 C 
ENDBRANCH  12  13
ENDBRANCH  11  12
ENDBRANCH  10  11
ENDBRANCH   9  10
ENDBRANCH   1   9
TORSDOF 10
ENDMDL
MODEL 4
REMARK VINA RESULT:    -4.224     14.530     16.543
REMARK INTER + INTRA:          -7.807
REMARK INTER:                  -7.054
REMARK INTRA:                  -0.753
REMARK UNBOUND:                -1.114
REMARK SMILES CCCCCCCCCCCC(=O)[O-]
REMARK SMILES IDX 7 1 8 2 9 3 10 4 11 5 12 6 13 7 14 8 6 9 5 10 4 11 3 12 2 13
REMARK SMILES IDX 1 14
REMARK H PARENT
REMARK Flexibility Score: inf
ROOT
ATOM      1  C   UNL     1    -143.256 101.338  31.641  1.00  0.00     0.000 C 
ENDROOT
BRANCH   1   2
ATOM      2  C   UNL     1    -143.245  99.916  32.213  1.00  0.00     0.000 C 
BRANCH   2   3
ATOM      3  C   UNL     1    -141.849  99.542  32.731  1.00  0.00     0.000 C 
BRANCH   3   4
ATOM      4  C   UNL     1    -141.777  99.455  34.266  1.00  0.00     0.006 C 
BRANCH   4   5
ATOM      5  C   UNL     1    -143.044  98.875  34.919  1.00  0.00     0.053 C 
BRANCH   5   6
ATOM      6  C   UNL     1    -143.522  99.690  36.082  1.00  0.00     0.041 C 
ATOM      7  O   UNL     1    -143.706  99.150  37.205  1.00  0.00    -0.550 OA
ATOM      8  O   UNL     1    -143.736 101.055  35.934  1.00  0.00    -0.550 OA
ENDBRANCH   5   6
ENDBRANCH   4   5
ENDBRANCH   3   4
ENDBRANCH   2   3
ENDBRANCH   1   2
BRANCH   1   9
ATOM      9  C   UNL     1    -143.550 102.370  32.737  1.00  0.00     0.000 C 
BRANCH   9  10
ATOM     10  C   UNL     1    -143.241 103.794  32.249  1.00  0.00    -0.000 C 
BRANCH  10  11
ATOM     11  C   UNL     1    -142.902 104.753  33.401  1.00  0.00    -0.000 C 
BRANCH  11  12
ATOM     12  C   UNL     1    -142.471 104.012  34.680  1.00  0.00    -0.000 C 
BRANCH  12  13
ATOM     13  C   UNL     1    -142.190 104.970  35.847  1.00  0.00    -0.003 C 
ATOM     14  C   UNL     1    -141.853 106.386  35.382  1.00  0.00     0.004 C 
ENDBRANCH  12  13
ENDBRANCH  11  12
ENDBRANCH  10  11
ENDBRANCH   9  10
ENDBRANCH   1   9
TORSDOF 10
ENDMDL
MODEL 5
REMARK VINA RESULT:    -4.196     14.229     16.224
REMARK INTER + INTRA:          -7.762
REMARK INTER:                  -6.795
REMARK INTRA:                  -0.967
REMARK UNBOUND:                -1.114
REMARK SMILES CCCCCCCCCCCC(=O)[O-]
REMARK SMILES IDX 7 1 8 2 9 3 10 4 11 5 12 6 13 7 14 8 6 9 5 10 4 11 3 12 2 13
REMARK SMILES IDX 1 14
REMARK H PARENT
REMARK Flexibility Score: inf
ROOT
ATOM      1  C   UNL     1    -143.995 101.908  32.235  1.00  0.00     0.000 C 
ENDROOT
BRANCH   1   2
ATOM      2  C   UNL     1    -143.825 102.250  33.719  1.00  0.00     0.000 C 
BRANCH   2   3
ATOM      3  C   UNL     1    -142.456 102.889  33.985  1.00  0.00     0.000 C 
BRANCH   3   4
ATOM      4  C   UNL     1    -142.500 104.429  34.000  1.00  0.00     0.006 C 
BRANCH   4   5
ATOM      5  C   UNL     1    -141.518 105.072  34.995  1.00  0.00     0.053 C 
BRANCH   5   6
ATOM      6  C   UNL     1    -142.199 105.966  35.985  1.00  0.00     0.041 C 
ATOM      7  O   UNL     1    -142.390 107.182  35.719  1.00  0.00    -0.550 OA
ATOM      8  O   UNL     1    -142.651 105.449  37.194  1.00  0.00    -0.550 OA
ENDBRANCH   5   6
ENDBRANCH   4   5
ENDBRANCH   3   4
ENDBRANCH   2   3
ENDBRANCH   1   2
BRANCH   1   9
ATOM      9  C   UNL     1    -142.884 100.964  31.756  1.00  0.00     0.000 C 
BRANCH   9  10
ATOM     10  C   UNL     1    -143.097  99.543  32.301  1.00  0.00    -0.000 C 
BRANCH  10  11
ATOM     11  C   UNL     1    -141.859  98.998  33.029  1.00  0.00    -0.000 C 
BRANCH  11  12
ATOM     12  C   UNL     1    -141.923  99.217  34.551  1.00  0.00    -0.000 C 
BRANCH  12  13
ATOM     13  C   UNL     1    -143.311  98.906  35.131  1.00  0.00    -0.003 C 
ATOM     14  C   UNL     1    -143.376  99.106  36.645  1.00  0.00     0.004 C 
ENDBRANCH  12  13
ENDBRANCH  11  12
ENDBRANCH  10  11
ENDBRANCH   9  10
ENDBRANCH   1   9
TORSDOF 10
ENDMDL
MODEL 6
REMARK VINA RESULT:    -4.152      5.607      7.781
REMARK INTER + INTRA:          -7.693
REMARK INTER:                  -7.037
REMARK INTRA:                  -0.656
REMARK UNBOUND:                -1.114
REMARK SMILES CCCCCCCCCCCC(=O)[O-]
REMARK SMILES IDX 7 1 8 2 9 3 10 4 11 5 12 6 13 7 14 8 6 9 5 10 4 11 3 12 2 13
REMARK SMILES IDX 1 14
REMARK H PARENT
REMARK Flexibility Score: inf
ROOT
ATOM      1  C   UNL     1    -130.029 113.842  42.534  1.00  0.00     0.000 C 
ENDROOT
BRANCH   1   2
ATOM      2  C   UNL     1    -129.493 113.547  43.939  1.00  0.00     0.000 C 
BRANCH   2   3
ATOM      3  C   UNL     1    -129.062 112.080  44.069  1.00  0.00     0.000 C 
BRANCH   3   4
ATOM      4  C   UNL     1    -129.453 111.225  42.848  1.00  0.00     0.006 C 
BRANCH   4   5
ATOM      5  C   UNL     1    -129.401 109.709  43.105  1.00  0.00     0.053 C 
BRANCH   5   6
ATOM      6  C   UNL     1    -129.465 108.905  41.843  1.00  0.00     0.041 C 
ATOM      7  O   UNL     1    -129.571 109.479  40.727  1.00  0.00    -0.550 OA
ATOM      8  O   UNL     1    -129.376 107.519  41.896  1.00  0.00    -0.550 OA
ENDBRANCH   5   6
ENDBRANCH   4   5
ENDBRANCH   3   4
ENDBRANCH   2   3
ENDBRANCH   1   2
BRANCH   1   9
ATOM      9  C   UNL     1    -129.480 115.172  42.002  1.00  0.00     0.000 C 
BRANCH   9  10
ATOM     10  C   UNL     1    -130.130 116.363  42.724  1.00  0.00    -0.000 C 
BRANCH  10  11
ATOM     11  C   UNL     1    -129.103 117.417  43.164  1.00  0.00    -0.000 C 
BRANCH  11  12
ATOM     12  C   UNL     1    -129.393 117.975  44.569  1.00  0.00    -0.000 C 
BRANCH  12  13
ATOM     13  C   UNL     1    -130.064 116.942  45.486  1.00  0.00    -0.003 C 
ATOM     14  C   UNL     1    -130.800 117.584  46.661  1.00  0.00     0.004 C 
ENDBRANCH  12  13
ENDBRANCH  11  12
ENDBRANCH  10  11
ENDBRANCH   9  10
ENDBRANCH   1   9
TORSDOF 10
ENDMDL
MODEL 7
REMARK VINA RESULT:    -4.002      5.398      7.888
REMARK INTER + INTRA:          -7.456
REMARK INTER:                  -6.926
REMARK INTRA:                  -0.530
REMARK UNBOUND:                -1.114
REMARK SMILES CCCCCCCCCCCC(=O)[O-]
REMARK SMILES IDX 7 1 8 2 9 3 10 4 11 5 12 6 13 7 14 8 6 9 5 10 4 11 3 12 2 13
REMARK SMILES IDX 1 14
REMARK H PARENT
REMARK Flexibility Score: inf
ROOT
ATOM      1  C   UNL     1    -129.365 113.009  43.536  1.00  0.00     0.000 C 
ENDROOT
BRANCH   1   2
ATOM      2  C   UNL     1    -129.869 112.916  42.092  1.00  0.00     0.000 C 
BRANCH   2   3
ATOM      3  C   UNL     1    -129.832 111.467  41.587  1.00  0.00     0.000 C 
BRANCH   3   4
ATOM      4  C   UNL     1    -129.842 111.361  40.051  1.00  0.00     0.006 C 
BRANCH   4   5
ATOM      5  C   UNL     1    -129.370 109.998  39.515  1.00  0.00     0.053 C 
BRANCH   5   6
ATOM      6  C   UNL     1    -130.492 109.020  39.350  1.00  0.00     0.041 C 
ATOM      7  O   UNL     1    -131.688 109.397  39.472  1.00  0.00    -0.550 OA
ATOM      8  O   UNL     1    -130.220 107.695  39.030  1.00  0.00    -0.550 OA
ENDBRANCH   5   6
ENDBRANCH   4   5
ENDBRANCH   3   4
ENDBRANCH   2   3
ENDBRANCH   1   2
BRANCH   1   9
ATOM      9  C   UNL     1    -129.515 114.435  44.082  1.00  0.00     0.000 C 
BRANCH   9  10
ATOM     10  C   UNL     1    -129.916 115.412  42.966  1.00  0.00    -0.000 C 
BRANCH  10  11
ATOM     11  C   UNL     1    -129.783 116.882  43.392  1.00  0.00    -0.000 C 
BRANCH  11  12
ATOM     12  C   UNL     1    -129.366 117.036  44.866  1.00  0.00    -0.000 C 
BRANCH  12  13
ATOM     13  C   UNL     1    -130.493 117.603  45.741  1.00  0.00    -0.003 C 
ATOM     14  C   UNL     1    -130.846 116.690  46.915  1.00  0.00     0.004 C 
ENDBRANCH  12  13
ENDBRANCH  11  12
ENDBRANCH  10  11
ENDBRANCH   9  10
ENDBRANCH   1   9
TORSDOF 10
ENDMDL
MODEL 8
REMARK VINA RESULT:    -3.998      4.682      6.818
REMARK INTER + INTRA:          -7.450
REMARK INTER:                  -7.082
REMARK INTRA:                  -0.367
REMARK UNBOUND:                -1.114
REMARK SMILES CCCCCCCCCCCC(=O)[O-]
REMARK SMILES IDX 7 1 8 2 9 3 10 4 11 5 12 6 13 7 14 8 6 9 5 10 4 11 3 12 2 13
REMARK SMILES IDX 1 14
REMARK H PARENT
REMARK Flexibility Score: inf
ROOT
ATOM      1  C   UNL     1    -129.375 111.270  44.028  1.00  0.00     0.000 C 
ENDROOT
BRANCH   1   2
ATOM      2  C   UNL     1    -129.405 110.638  42.632  1.00  0.00     0.000 C 
BRANCH   2   3
ATOM      3  C   UNL     1    -129.380 109.106  42.720  1.00  0.00     0.000 C 
BRANCH   3   4
ATOM      4  C   UNL     1    -129.222 108.424  41.348  1.00  0.00     0.006 C 
BRANCH   4   5
ATOM      5  C   UNL     1    -128.995 106.904  41.428  1.00  0.00     0.053 C 
BRANCH   5   6
ATOM      6  C   UNL     1    -129.355 106.197  40.158  1.00  0.00     0.041 C 
ATOM      7  O   UNL     1    -129.840 106.837  39.188  1.00  0.00    -0.550 OA
ATOM      8  O   UNL     1    -129.127 104.831  40.034  1.00  0.00    -0.550 OA
ENDBRANCH   5   6
ENDBRANCH   4   5
ENDBRANCH   3   4
ENDBRANCH   2   3
ENDBRANCH   1   2
BRANCH   1   9
ATOM      9  C   UNL     1    -128.917 112.733  43.961  1.00  0.00     0.000 C 
BRANCH   9  10
ATOM     10  C   UNL     1    -129.759 113.528  42.952  1.00  0.00    -0.000 C 
BRANCH  10  11
ATOM     11  C   UNL     1    -129.846 115.021  43.301  1.00  0.00    -0.000 C 
BRANCH  11  12
ATOM     12  C   UNL     1    -129.546 115.300  44.785  1.00  0.00    -0.000 C 
BRANCH  12  13
ATOM     13  C   UNL     1    -129.837 116.756  45.180  1.00  0.00    -0.003 C 
ATOM     14  C   UNL     1    -129.277 117.763  44.177  1.00  0.00     0.004 C 
ENDBRANCH  12  13
ENDBRANCH  11  12
ENDBRANCH  10  11
ENDBRANCH   9  10
ENDBRANCH   1   9
TORSDOF 10
ENDMDL
MODEL 9
REMARK VINA RESULT:    -3.992      5.227      7.453
REMARK INTER + INTRA:          -7.440
REMARK INTER:                  -7.121
REMARK INTRA:                  -0.319
REMARK UNBOUND:                -1.114
REMARK SMILES CCCCCCCCCCCC(=O)[O-]
REMARK SMILES IDX 7 1 8 2 9 3 10 4 11 5 12 6 13 7 14 8 6 9 5 10 4 11 3 12 2 13
REMARK SMILES IDX 1 14
REMARK H PARENT
REMARK Flexibility Score: inf
ROOT
ATOM      1  C   UNL     1    -129.017 112.241  43.983  1.00  0.00     0.000 C 
ENDROOT
BRANCH   1   2
ATOM      2  C   UNL     1    -129.422 111.450  42.733  1.00  0.00     0.000 C 
BRANCH   2   3
ATOM      3  C   UNL     1    -129.481 109.945  43.029  1.00  0.00     0.000 C 
BRANCH   3   4
ATOM      4  C   UNL     1    -129.403 109.076  41.761  1.00  0.00     0.006 C 
BRANCH   4   5
ATOM      5  C   UNL     1    -129.797 109.817  40.471  1.00  0.00     0.053 C 
BRANCH   5   6
ATOM      6  C   UNL     1    -130.530 108.942  39.501  1.00  0.00     0.041 C 
ATOM      7  O   UNL     1    -129.990 107.895  39.054  1.00  0.00    -0.550 OA
ATOM      8  O   UNL     1    -131.824 109.266  39.111  1.00  0.00    -0.550 OA
ENDBRANCH   5   6
ENDBRANCH   4   5
ENDBRANCH   3   4
ENDBRANCH   2   3
ENDBRANCH   1   2
BRANCH   1   9
ATOM      9  C   UNL     1    -129.390 113.723  43.842  1.00  0.00     0.000 C 
BRANCH   9  10
ATOM     10  C   UNL     1    -130.025 114.255  45.136  1.00  0.00    -0.000 C 
BRANCH  10  11
ATOM     11  C   UNL     1    -129.666 115.724  45.408  1.00  0.00    -0.000 C 
BRANCH  11  12
ATOM     12  C   UNL     1    -129.739 116.596  44.141  1.00  0.00    -0.000 C 
BRANCH  12  13
ATOM     13  C   UNL     1    -129.327 118.051  44.404  1.00  0.00    -0.003 C 
ATOM     14  C   UNL     1    -128.614 118.688  43.211  1.00  0.00     0.004 C 
ENDBRANCH  12  13
ENDBRANCH  11  12
ENDBRANCH  10  11
ENDBRANCH   9  10
ENDBRANCH   1   9
TORSDOF 10
ENDMDL
