MODEL 1
REMARK VINA RESULT:    -0.360      0.000      0.000
REMARK INTER + INTRA:          -0.415
REMARK INTER:                  -0.381
REMARK INTRA:                  -0.034
REMARK UNBOUND:                -0.034
REMARK SMILES COc1ccc2ccc(=O)oc2c1
REMARK SMILES IDX 3 1 13 2 12 3 6 4 5 5 4 6 7 7 8 8 9 9 10 10 11 11 2 12 1 13
REMARK H PARENT
REMARK Flexibility Score: inf
ROOT
ATOM      1  C   UNL     1      -1.957   0.248   3.099  1.00  0.00     0.122 A 
ATOM      2  C   UNL     1      -2.249  -0.251   1.813  1.00  0.00     0.094 A 
ATOM      3  C   UNL     1      -3.475  -0.874   1.560  1.00  0.00     0.142 A 
ATOM      4  C   UNL     1      -4.424  -1.005   2.596  1.00  0.00     0.018 A 
ATOM      5  C   UNL     1      -4.136  -0.511   3.873  1.00  0.00     0.016 A 
ATOM      6  C   UNL     1      -2.908   0.111   4.120  1.00  0.00     0.047 A 
ATOM      7  C   UNL     1      -5.640  -1.634   2.311  1.00  0.00     0.019 A 
ATOM      8  C   UNL     1      -5.879  -2.110   1.022  1.00  0.00     0.094 A 
ATOM      9  C   UNL     1      -4.892  -1.945   0.045  1.00  0.00     0.336 A 
ATOM     10  O   UNL     1      -5.088  -2.368  -1.125  1.00  0.00    -0.246 OA
ATOM     11  O   UNL     1      -3.743  -1.344   0.343  1.00  0.00    -0.423 OA
ENDROOT
BRANCH   1  12
ATOM     12  O   UNL     1      -0.743   0.881   3.403  1.00  0.00    -0.497 OA
ATOM     13  C   UNL     1       0.529   0.242   3.363  1.00  0.00     0.278 C 
ENDBRANCH   1  12
TORSDOF 1
ENDMDL
MODEL 2
REMARK VINA RESULT:     0.467      1.069      4.658
REMARK INTER + INTRA:           0.461
REMARK INTER:                   0.495
REMARK INTRA:                  -0.034
REMARK UNBOUND:                -0.034
REMARK SMILES COc1ccc2ccc(=O)oc2c1
REMARK SMILES IDX 3 1 13 2 12 3 6 4 5 5 4 6 7 7 8 8 9 9 10 10 11 11 2 12 1 13
REMARK H PARENT
REMARK Flexibility Score: inf
ROOT
ATOM      1  C   UNL     1      -4.861  -1.487   0.753  1.00  0.00     0.122 A 
ATOM      2  C   UNL     1      -3.512  -1.075   0.742  1.00  0.00     0.094 A 
ATOM      3  C   UNL     1      -2.916  -0.583   1.907  1.00  0.00     0.142 A 
ATOM      4  C   UNL     1      -3.667  -0.498   3.099  1.00  0.00     0.018 A 
ATOM      5  C   UNL     1      -5.006  -0.906   3.111  1.00  0.00     0.016 A 
ATOM      6  C   UNL     1      -5.595  -1.397   1.943  1.00  0.00     0.047 A 
ATOM      7  C   UNL     1      -3.042   0.000   4.247  1.00  0.00     0.019 A 
ATOM      8  C   UNL     1      -1.706   0.394   4.183  1.00  0.00     0.094 A 
ATOM      9  C   UNL     1      -1.024   0.281   2.967  1.00  0.00     0.336 A 
ATOM     10  O   UNL     1       0.183   0.632   2.888  1.00  0.00    -0.246 OA
ATOM     11  O   UNL     1      -1.642  -0.195   1.889  1.00  0.00    -0.423 OA
ENDROOT
BRANCH   1  12
ATOM     12  O   UNL     1      -5.503  -1.988  -0.388  1.00  0.00    -0.497 OA
ATOM     13  C   UNL     1      -5.064  -3.125  -1.125  1.00  0.00     0.278 C 
ENDBRANCH   1  12
TORSDOF 1
ENDMDL
