MODEL 1
REMARK VINA RESULT:    -4.201      0.000      0.000
REMARK INTER + INTRA:          -5.342
REMARK INTER:                  -5.183
REMARK INTRA:                  -0.159
REMARK UNBOUND:                -0.159
REMARK SMILES CCCCCC(=O)[O-]
REMARK SMILES IDX 4 1 5 2 6 3 7 4 8 5 3 6 2 7 1 8
REMARK H PARENT
REMARK Flexibility Score: inf
ROOT
ATOM      1  C   UNL     1      19.157   6.652 -11.913  1.00  0.00     0.006 C 
ENDROOT
BRANCH   1   2
ATOM      2  C   UNL     1      20.114   5.605 -12.491  1.00  0.00     0.053 C 
BRANCH   2   3
ATOM      3  C   UNL     1      21.525   5.910 -12.096  1.00  0.00     0.041 C 
ATOM      4  O   UNL     1      21.762   6.766 -11.204  1.00  0.00    -0.550 OA
ATOM      5  O   UNL     1      22.576   5.213 -12.678  1.00  0.00    -0.550 OA
ENDBRANCH   2   3
ENDBRANCH   1   2
BRANCH   1   6
ATOM      6  C   UNL     1      18.164   6.005 -10.935  1.00  0.00     0.000 C 
BRANCH   6   7
ATOM      7  C   UNL     1      18.307   4.478 -10.872  1.00  0.00    -0.003 C 
ATOM      8  C   UNL     1      16.961   3.759 -10.790  1.00  0.00     0.004 C 
ENDBRANCH   6   7
ENDBRANCH   1   6
TORSDOF 4
ENDMDL
MODEL 2
REMARK VINA RESULT:    -4.031      3.111      4.480
REMARK INTER + INTRA:          -5.132
REMARK INTER:                  -5.002
REMARK INTRA:                  -0.129
REMARK UNBOUND:                -0.159
REMARK SMILES CCCCCC(=O)[O-]
REMARK SMILES IDX 4 1 5 2 6 3 7 4 8 5 3 6 2 7 1 8
REMARK H PARENT
REMARK Flexibility Score: inf
ROOT
ATOM      1  C   UNL     1      18.271   6.321 -11.246  1.00  0.00     0.006 C 
ENDROOT
BRANCH   1   2
ATOM      2  C   UNL     1      18.414   4.852 -10.837  1.00  0.00     0.053 C 
BRANCH   2   3
ATOM      3  C   UNL     1      17.071   4.194 -10.769  1.00  0.00     0.041 C 
ATOM      4  O   UNL     1      16.924   3.011 -11.174  1.00  0.00    -0.550 OA
ATOM      5  O   UNL     1      15.993   4.871 -10.212  1.00  0.00    -0.550 OA
ENDBRANCH   2   3
ENDBRANCH   1   2
BRANCH   1   6
ATOM      6  C   UNL     1      19.372   6.724 -12.240  1.00  0.00     0.000 C 
BRANCH   6   7
ATOM      7  C   UNL     1      20.315   5.560 -12.578  1.00  0.00    -0.003 C 
ATOM      8  C   UNL     1      21.773   5.859 -12.230  1.00  0.00     0.004 C 
ENDBRANCH   6   7
ENDBRANCH   1   6
TORSDOF 4
ENDMDL
MODEL 3
REMARK VINA RESULT:    -3.946      1.207      1.426
REMARK INTER + INTRA:          -5.028
REMARK INTER:                  -4.901
REMARK INTRA:                  -0.127
REMARK UNBOUND:                -0.159
REMARK SMILES CCCCCC(=O)[O-]
REMARK SMILES IDX 4 1 5 2 6 3 7 4 8 5 3 6 2 7 1 8
REMARK H PARENT
REMARK Flexibility Score: inf
ROOT
ATOM      1  C   UNL     1      19.764   5.771 -10.597  1.00  0.00     0.006 C 
ENDROOT
BRANCH   1   2
ATOM      2  C   UNL     1      20.480   6.433 -11.778  1.00  0.00     0.053 C 
BRANCH   2   3
ATOM      3  C   UNL     1      21.167   5.404 -12.619  1.00  0.00     0.041 C 
ATOM      4  O   UNL     1      22.415   5.255 -12.544  1.00  0.00    -0.550 OA
ATOM      5  O   UNL     1      20.423   4.576 -13.450  1.00  0.00    -0.550 OA
ENDBRANCH   2   3
ENDBRANCH   1   2
BRANCH   1   6
ATOM      6  C   UNL     1      18.251   5.688 -10.850  1.00  0.00     0.000 C 
BRANCH   6   7
ATOM      7  C   UNL     1      17.725   4.245 -10.816  1.00  0.00    -0.003 C 
ATOM      8  C   UNL     1      16.199   4.170 -10.805  1.00  0.00     0.004 C 
ENDBRANCH   6   7
ENDBRANCH   1   6
TORSDOF 4
ENDMDL
MODEL 4
REMARK VINA RESULT:    -3.731      2.572      3.660
REMARK INTER + INTRA:          -4.762
REMARK INTER:                  -4.562
REMARK INTRA:                  -0.200
REMARK UNBOUND:                -0.159
REMARK SMILES CCCCCC(=O)[O-]
REMARK SMILES IDX 4 1 5 2 6 3 7 4 8 5 3 6 2 7 1 8
REMARK H PARENT
REMARK Flexibility Score: inf
ROOT
ATOM      1  C   UNL     1      20.614   6.407 -12.284  1.00  0.00     0.006 C 
ENDROOT
BRANCH   1   2
ATOM      2  C   UNL     1      19.717   5.167 -12.343  1.00  0.00     0.053 C 
BRANCH   2   3
ATOM      3  C   UNL     1      18.595   5.284 -11.358  1.00  0.00     0.041 C 
ATOM      4  O   UNL     1      18.119   6.414 -11.072  1.00  0.00    -0.550 OA
ATOM      5  O   UNL     1      18.043   4.141 -10.794  1.00  0.00    -0.550 OA
ENDBRANCH   2   3
ENDBRANCH   1   2
BRANCH   1   6
ATOM      6  C   UNL     1      21.805   6.177 -11.342  1.00  0.00     0.000 C 
BRANCH   6   7
ATOM      7  C   UNL     1      21.542   6.695  -9.921  1.00  0.00    -0.003 C 
ATOM      8  C   UNL     1      21.396   5.569  -8.898  1.00  0.00     0.004 C 
ENDBRANCH   6   7
ENDBRANCH   1   6
TORSDOF 4
ENDMDL
MODEL 5
REMARK VINA RESULT:    -3.645      1.885      2.703
REMARK INTER + INTRA:          -4.656
REMARK INTER:                  -4.426
REMARK INTRA:                  -0.230
REMARK UNBOUND:                -0.159
REMARK SMILES CCCCCC(=O)[O-]
REMARK SMILES IDX 4 1 5 2 6 3 7 4 8 5 3 6 2 7 1 8
REMARK H PARENT
REMARK Flexibility Score: inf
ROOT
ATOM      1  C   UNL     1      18.862   6.099 -11.409  1.00  0.00     0.006 C 
ENDROOT
BRANCH   1   2
ATOM      2  C   UNL     1      19.770   6.435 -12.595  1.00  0.00     0.053 C 
BRANCH   2   3
ATOM      3  C   UNL     1      20.649   5.270 -12.928  1.00  0.00     0.041 C 
ATOM      4  O   UNL     1      20.181   4.280 -13.551  1.00  0.00    -0.550 OA
ATOM      5  O   UNL     1      21.997   5.299 -12.594  1.00  0.00    -0.550 OA
ENDBRANCH   2   3
ENDBRANCH   1   2
BRANCH   1   6
ATOM      6  C   UNL     1      19.423   6.688 -10.105  1.00  0.00     0.000 C 
BRANCH   6   7
ATOM      7  C   UNL     1      20.215   5.658  -9.287  1.00  0.00    -0.003 C 
ATOM      8  C   UNL     1      21.687   6.037  -9.124  1.00  0.00     0.004 C 
ENDBRANCH   6   7
ENDBRANCH   1   6
TORSDOF 4
ENDMDL
MODEL 6
REMARK VINA RESULT:    -3.620      1.809      3.172
REMARK INTER + INTRA:          -4.625
REMARK INTER:                  -4.378
REMARK INTRA:                  -0.247
REMARK UNBOUND:                -0.159
REMARK SMILES CCCCCC(=O)[O-]
REMARK SMILES IDX 4 1 5 2 6 3 7 4 8 5 3 6 2 7 1 8
REMARK H PARENT
REMARK Flexibility Score: inf
ROOT
ATOM      1  C   UNL     1      18.915   5.750 -11.002  1.00  0.00     0.006 C 
ENDROOT
BRANCH   1   2
ATOM      2  C   UNL     1      19.475   6.588  -9.849  1.00  0.00     0.053 C 
BRANCH   2   3
ATOM      3  C   UNL     1      20.848   6.121  -9.480  1.00  0.00     0.041 C 
ATOM      4  O   UNL     1      21.005   5.020  -8.888  1.00  0.00    -0.550 OA
ATOM      5  O   UNL     1      21.958   6.877  -9.834  1.00  0.00    -0.550 OA
ENDBRANCH   2   3
ENDBRANCH   1   2
BRANCH   1   6
ATOM      6  C   UNL     1      19.557   6.156 -12.337  1.00  0.00     0.000 C 
BRANCH   6   7
ATOM      7  C   UNL     1      20.315   4.997 -13.003  1.00  0.00    -0.003 C 
ATOM      8  C   UNL     1      21.833   5.144 -12.897  1.00  0.00     0.004 C 
ENDBRANCH   6   7
ENDBRANCH   1   6
TORSDOF 4
ENDMDL
MODEL 7
REMARK VINA RESULT:    -3.589      2.753      4.154
REMARK INTER + INTRA:          -4.587
REMARK INTER:                  -4.475
REMARK INTRA:                  -0.111
REMARK UNBOUND:                -0.159
REMARK SMILES CCCCCC(=O)[O-]
REMARK SMILES IDX 4 1 5 2 6 3 7 4 8 5 3 6 2 7 1 8
REMARK H PARENT
REMARK Flexibility Score: inf
ROOT
ATOM      1  C   UNL     1      18.866   6.653 -11.805  1.00  0.00     0.006 C 
ENDROOT
BRANCH   1   2
ATOM      2  C   UNL     1      18.603   5.813 -10.552  1.00  0.00     0.053 C 
BRANCH   2   3
ATOM      3  C   UNL     1      17.568   4.768 -10.829  1.00  0.00     0.041 C 
ATOM      4  O   UNL     1      16.359   4.984 -10.553  1.00  0.00    -0.550 OA
ATOM      5  O   UNL     1      17.933   3.573 -11.437  1.00  0.00    -0.550 OA
ENDBRANCH   2   3
ENDBRANCH   1   2
BRANCH   1   6
ATOM      6  C   UNL     1      20.019   6.062 -12.630  1.00  0.00     0.000 C 
BRANCH   6   7
ATOM      7  C   UNL     1      21.348   6.047 -11.860  1.00  0.00    -0.003 C 
ATOM      8  C   UNL     1      22.450   5.286 -12.595  1.00  0.00     0.004 C 
ENDBRANCH   6   7
ENDBRANCH   1   6
TORSDOF 4
ENDMDL
MODEL 8
REMARK VINA RESULT:    -3.427     11.915     12.965
REMARK INTER + INTRA:          -4.387
REMARK INTER:                  -4.326
REMARK INTRA:                  -0.062
REMARK UNBOUND:                -0.159
REMARK SMILES CCCCCC(=O)[O-]
REMARK SMILES IDX 4 1 5 2 6 3 7 4 8 5 3 6 2 7 1 8
REMARK H PARENT
REMARK Flexibility Score: inf
ROOT
ATOM      1  C   UNL     1      24.640  -2.690 -19.131  1.00  0.00     0.006 C 
ENDROOT
BRANCH   1   2
ATOM      2  C   UNL     1      25.842  -2.998 -20.028  1.00  0.00     0.053 C 
BRANCH   2   3
ATOM      3  C   UNL     1      25.816  -4.429 -20.467  1.00  0.00     0.041 C 
ATOM      4  O   UNL     1      25.182  -5.286 -19.796  1.00  0.00    -0.550 OA
ATOM      5  O   UNL     1      26.451  -4.807 -21.643  1.00  0.00    -0.550 OA
ENDBRANCH   2   3
ENDBRANCH   1   2
BRANCH   1   6
ATOM      6  C   UNL     1      25.037  -2.732 -17.647  1.00  0.00     0.000 C 
BRANCH   6   7
ATOM      7  C   UNL     1      24.348  -1.637 -16.821  1.00  0.00    -0.003 C 
ATOM      8  C   UNL     1      23.724  -0.544 -17.688  1.00  0.00     0.004 C 
ENDBRANCH   6   7
ENDBRANCH   1   6
TORSDOF 4
ENDMDL
MODEL 9
REMARK VINA RESULT:    -3.310     12.797     13.859
REMARK INTER + INTRA:          -4.242
REMARK INTER:                  -4.168
REMARK INTRA:                  -0.074
REMARK UNBOUND:                -0.159
REMARK SMILES CCCCCC(=O)[O-]
REMARK SMILES IDX 4 1 5 2 6 3 7 4 8 5 3 6 2 7 1 8
REMARK H PARENT
REMARK Flexibility Score: inf
ROOT
ATOM      1  C   UNL     1      25.109  -4.300 -18.908  1.00  0.00     0.006 C 
ENDROOT
BRANCH   1   2
ATOM      2  C   UNL     1      25.741  -3.961 -20.261  1.00  0.00     0.053 C 
BRANCH   2   3
ATOM      3  C   UNL     1      26.096  -5.212 -21.002  1.00  0.00     0.041 C 
ATOM      4  O   UNL     1      26.746  -5.148 -22.079  1.00  0.00    -0.550 OA
ATOM      5  O   UNL     1      25.752  -6.452 -20.478  1.00  0.00    -0.550 OA
ENDBRANCH   2   3
ENDBRANCH   1   2
BRANCH   1   6
ATOM      6  C   UNL     1      25.062  -3.062 -17.999  1.00  0.00     0.000 C 
BRANCH   6   7
ATOM      7  C   UNL     1      24.307  -1.888 -18.640  1.00  0.00    -0.003 C 
ATOM      8  C   UNL     1      23.933  -0.803 -17.631  1.00  0.00     0.004 C 
ENDBRANCH   6   7
ENDBRANCH   1   6
TORSDOF 4
ENDMDL
