MODEL 1
REMARK VINA RESULT:    -5.943      0.000      0.000
REMARK INTER + INTRA:         -10.016
REMARK INTER:                  -8.375
REMARK INTRA:                  -1.641
REMARK UNBOUND:                -1.641
REMARK SMILES OC[C@@H]1O[C@H](O[C@@H]2OC=C[C@@H]3[C@@H](O)[C@@H]4O[C@]4(CO)[C@@H]23)[C@@H](O)[C@@H](O)[C@@H]1O
REMARK SMILES IDX 6 1 7 2 10 3 9 4 11 5 8 6 19 7 12 8 16 9 14 10 15 11 13 12
REMARK SMILES IDX 17 14 18 15 5 17 20 18 4 19 22 20 3 21 24 22 21 23 23 25
REMARK SMILES IDX 2 27 1 28 25 30
REMARK H PARENT 13 13 18 16 21 24 23 26 1 29 25 31
REMARK Flexibility Score: inf
ROOT
ATOM      1  O   UNL     1     -14.789 -30.936 -10.620  1.00  0.00    -0.310 OA
ENDROOT
BRANCH   1   2
ATOM      2  C   UNL     1     -13.969 -32.081 -10.439  1.00  0.00     0.315 C 
ATOM      3  C   UNL     1     -11.386 -33.308  -9.973  1.00  0.00     0.018 C 
ATOM      4  C   UNL     1     -11.991 -32.623  -8.985  1.00  0.00     0.186 C 
ATOM      5  C   UNL     1     -12.167 -33.556 -11.229  1.00  0.00     0.059 C 
ATOM      6  O   UNL     1     -13.259 -32.027  -9.182  1.00  0.00    -0.472 OA
ATOM      7  C   UNL     1     -12.952 -32.310 -11.579  1.00  0.00     0.105 C 
ATOM      8  C   UNL     1     -11.419 -33.880 -12.512  1.00  0.00     0.154 C 
ATOM      9  C   UNL     1     -13.426 -32.587 -13.001  1.00  0.00     0.130 C 
ATOM     10  C   UNL     1     -12.467 -33.563 -13.593  1.00  0.00     0.183 C 
ATOM     11  O   UNL     1     -12.508 -32.212 -14.005  1.00  0.00    -0.360 OA
BRANCH   8  12
ATOM     12  O   UNL     1     -11.064 -35.236 -12.543  1.00  0.00    -0.390 OA
ATOM     13  H   UNL     1     -10.094 -35.274 -12.338  1.00  0.00     0.211 HD
ENDBRANCH   8  12
BRANCH   9  14
ATOM     14  C   UNL     1     -14.899 -32.718 -13.414  1.00  0.00     0.195 C 
BRANCH  14  15
ATOM     15  O   UNL     1     -15.466 -31.472 -13.720  1.00  0.00    -0.393 OA
ATOM     16  H   UNL     1     -16.121 -31.630 -14.450  1.00  0.00     0.210 HD
ENDBRANCH  14  15
ENDBRANCH   9  14
ENDBRANCH   1   2
BRANCH   1  17
ATOM     17  C   UNL     1     -14.055 -29.758 -10.909  1.00  0.00     0.286 C 
ATOM     18  C   UNL     1     -14.319 -28.742  -9.786  1.00  0.00     0.202 C 
ATOM     19  O   UNL     1     -14.496 -29.260 -12.166  1.00  0.00    -0.341 OA
ATOM     20  C   UNL     1     -13.502 -27.442 -10.015  1.00  0.00     0.179 C 
ATOM     21  C   UNL     1     -14.102 -27.922 -12.476  1.00  0.00     0.178 C 
ATOM     22  C   UNL     1     -13.060 -27.302 -11.496  1.00  0.00     0.177 C 
BRANCH  18  23
ATOM     23  O   UNL     1     -14.013 -29.321  -8.542  1.00  0.00    -0.385 OA
ATOM     24  H   UNL     1     -14.831 -29.240  -7.983  1.00  0.00     0.211 HD
ENDBRANCH  18  23
BRANCH  20  25
ATOM     25  O   UNL     1     -12.380 -27.369  -9.168  1.00  0.00    -0.387 OA
ATOM     26  H   UNL     1     -11.581 -27.219  -9.739  1.00  0.00     0.211 HD
ENDBRANCH  20  25
BRANCH  21  27
ATOM     27  C   UNL     1     -15.373 -27.069 -12.632  1.00  0.00     0.191 C 
BRANCH  27  28
ATOM     28  O   UNL     1     -15.062 -25.827 -13.205  1.00  0.00    -0.394 OA
ATOM     29  H   UNL     1     -15.838 -25.584 -13.773  1.00  0.00     0.210 HD
ENDBRANCH  27  28
ENDBRANCH  21  27
BRANCH  22  30
ATOM     30  O   UNL     1     -12.743 -25.971 -11.830  1.00  0.00    -0.387 OA
ATOM     31  H   UNL     1     -12.678 -25.904 -12.817  1.00  0.00     0.211 HD
ENDBRANCH  22  30
ENDBRANCH   1  17
TORSDOF 10
ENDMDL
MODEL 2
REMARK VINA RESULT:    -5.847      2.431      6.133
REMARK INTER + INTRA:          -9.880
REMARK INTER:                  -8.182
REMARK INTRA:                  -1.698
REMARK UNBOUND:                -1.641
REMARK SMILES OC[C@@H]1O[C@H](O[C@@H]2OC=C[C@@H]3[C@@H](O)[C@@H]4O[C@]4(CO)[C@@H]23)[C@@H](O)[C@@H](O)[C@@H]1O
REMARK SMILES IDX 6 1 7 2 10 3 9 4 11 5 8 6 19 7 12 8 16 9 14 10 15 11 13 12
REMARK SMILES IDX 17 14 18 15 5 17 20 18 4 19 22 20 3 21 24 22 21 23 23 25
REMARK SMILES IDX 2 27 1 28 25 30
REMARK H PARENT 13 13 18 16 21 24 23 26 1 29 25 31
REMARK Flexibility Score: inf
ROOT
ATOM      1  O   UNL     1     -13.375 -30.567  -8.537  1.00  0.00    -0.310 OA
ENDROOT
BRANCH   1   2
ATOM      2  C   UNL     1     -13.414 -29.349  -7.809  1.00  0.00     0.315 C 
ATOM      3  C   UNL     1     -13.970 -26.511  -7.632  1.00  0.00     0.018 C 
ATOM      4  C   UNL     1     -14.985 -27.388  -7.731  1.00  0.00     0.186 C 
ATOM      5  C   UNL     1     -12.590 -27.062  -7.438  1.00  0.00     0.059 C 
ATOM      6  O   UNL     1     -14.741 -28.781  -7.804  1.00  0.00    -0.472 OA
ATOM      7  C   UNL     1     -12.415 -28.284  -8.315  1.00  0.00     0.105 C 
ATOM      8  C   UNL     1     -11.392 -26.195  -7.791  1.00  0.00     0.154 C 
ATOM      9  C   UNL     1     -10.913 -28.538  -8.260  1.00  0.00     0.130 C 
ATOM     10  C   UNL     1     -10.266 -27.234  -7.941  1.00  0.00     0.183 C 
ATOM     11  O   UNL     1     -10.166 -27.823  -9.222  1.00  0.00    -0.360 OA
BRANCH   8  12
ATOM     12  O   UNL     1     -11.110 -25.301  -6.749  1.00  0.00    -0.390 OA
ATOM     13  H   UNL     1     -11.069 -24.399  -7.160  1.00  0.00     0.211 HD
ENDBRANCH   8  12
BRANCH   9  14
ATOM     14  C   UNL     1     -10.267 -29.800  -7.671  1.00  0.00     0.195 C 
BRANCH  14  15
ATOM     15  O   UNL     1     -10.373 -30.894  -8.543  1.00  0.00    -0.393 OA
ATOM     16  H   UNL     1      -9.453 -31.248  -8.666  1.00  0.00     0.210 HD
ENDBRANCH  14  15
ENDBRANCH   9  14
ENDBRANCH   1   2
BRANCH   1  17
ATOM     17  C   UNL     1     -13.640 -30.404  -9.921  1.00  0.00     0.286 C 
ATOM     18  C   UNL     1     -14.764 -31.378 -10.311  1.00  0.00     0.202 C 
ATOM     19  O   UNL     1     -12.444 -30.687 -10.636  1.00  0.00    -0.341 OA
ATOM     20  C   UNL     1     -15.139 -31.215 -11.808  1.00  0.00     0.179 C 
ATOM     21  C   UNL     1     -12.594 -30.882 -12.044  1.00  0.00     0.178 C 
ATOM     22  C   UNL     1     -14.003 -30.525 -12.608  1.00  0.00     0.177 C 
BRANCH  18  23
ATOM     23  O   UNL     1     -15.879 -31.171  -9.482  1.00  0.00    -0.385 OA
ATOM     24  H   UNL     1     -15.672 -30.377  -8.921  1.00  0.00     0.211 HD
ENDBRANCH  18  23
BRANCH  20  25
ATOM     25  O   UNL     1     -16.345 -30.507 -11.974  1.00  0.00    -0.387 OA
ATOM     26  H   UNL     1     -16.826 -30.911 -12.744  1.00  0.00     0.211 HD
ENDBRANCH  20  25
BRANCH  21  27
ATOM     27  C   UNL     1     -12.148 -32.315 -12.383  1.00  0.00     0.191 C 
BRANCH  27  28
ATOM     28  O   UNL     1     -11.616 -32.368 -13.679  1.00  0.00    -0.394 OA
ATOM     29  H   UNL     1     -10.644 -32.191 -13.585  1.00  0.00     0.210 HD
ENDBRANCH  27  28
ENDBRANCH  21  27
BRANCH  22  30
ATOM     30  O   UNL     1     -14.101 -30.776 -13.990  1.00  0.00    -0.387 OA
ATOM     31  H   UNL     1     -13.630 -30.049 -14.474  1.00  0.00     0.211 HD
ENDBRANCH  22  30
ENDBRANCH   1  17
TORSDOF 10
ENDMDL
MODEL 3
REMARK VINA RESULT:    -5.812      1.641      6.218
REMARK INTER + INTRA:          -9.831
REMARK INTER:                  -8.665
REMARK INTRA:                  -1.166
REMARK UNBOUND:                -1.641
REMARK SMILES OC[C@@H]1O[C@H](O[C@@H]2OC=C[C@@H]3[C@@H](O)[C@@H]4O[C@]4(CO)[C@@H]23)[C@@H](O)[C@@H](O)[C@@H]1O
REMARK SMILES IDX 6 1 7 2 10 3 9 4 11 5 8 6 19 7 12 8 16 9 14 10 15 11 13 12
REMARK SMILES IDX 17 14 18 15 5 17 20 18 4 19 22 20 3 21 24 22 21 23 23 25
REMARK SMILES IDX 2 27 1 28 25 30
REMARK H PARENT 13 13 18 16 21 24 23 26 1 29 25 31
REMARK Flexibility Score: inf
ROOT
ATOM      1  O   UNL     1     -13.898 -30.929 -12.828  1.00  0.00    -0.310 OA
ENDROOT
BRANCH   1   2
ATOM      2  C   UNL     1     -13.632 -30.301 -11.583  1.00  0.00     0.315 C 
ATOM      3  C   UNL     1     -14.466 -29.425  -8.950  1.00  0.00     0.018 C 
ATOM      4  C   UNL     1     -14.319 -30.738  -9.204  1.00  0.00     0.186 C 
ATOM      5  C   UNL     1     -14.016 -28.457 -10.003  1.00  0.00     0.059 C 
ATOM      6  O   UNL     1     -13.898 -31.191 -10.477  1.00  0.00    -0.472 OA
ATOM      7  C   UNL     1     -14.412 -28.985 -11.365  1.00  0.00     0.105 C 
ATOM      8  C   UNL     1     -14.574 -27.043  -9.992  1.00  0.00     0.154 C 
ATOM      9  C   UNL     1     -14.188 -27.788 -12.280  1.00  0.00     0.130 C 
ATOM     10  C   UNL     1     -14.296 -26.568 -11.430  1.00  0.00     0.183 C 
ATOM     11  O   UNL     1     -15.291 -26.911 -12.373  1.00  0.00    -0.360 OA
BRANCH   8  12
ATOM     12  O   UNL     1     -13.885 -26.251  -9.063  1.00  0.00    -0.390 OA
ATOM     13  H   UNL     1     -14.307 -26.425  -8.182  1.00  0.00     0.211 HD
ENDBRANCH   8  12
BRANCH   9  14
ATOM     14  C   UNL     1     -13.168 -27.751 -13.427  1.00  0.00     0.195 C 
BRANCH  14  15
ATOM     15  O   UNL     1     -13.620 -28.460 -14.549  1.00  0.00    -0.393 OA
ATOM     16  H   UNL     1     -14.471 -28.032 -14.831  1.00  0.00     0.210 HD
ENDBRANCH  14  15
ENDBRANCH   9  14
ENDBRANCH   1   2
BRANCH   1  17
ATOM     17  C   UNL     1     -12.862 -31.800 -13.252  1.00  0.00     0.286 C 
ATOM     18  C   UNL     1     -13.379 -33.244 -13.146  1.00  0.00     0.202 C 
ATOM     19  O   UNL     1     -11.738 -31.593 -12.406  1.00  0.00    -0.341 OA
ATOM     20  C   UNL     1     -12.306 -34.251 -13.645  1.00  0.00     0.179 C 
ATOM     21  C   UNL     1     -10.717 -32.591 -12.476  1.00  0.00     0.178 C 
ATOM     22  C   UNL     1     -10.887 -33.623 -13.632  1.00  0.00     0.177 C 
BRANCH  18  23
ATOM     23  O   UNL     1     -14.574 -33.374 -13.873  1.00  0.00    -0.385 OA
ATOM     24  H   UNL     1     -14.323 -33.703 -14.776  1.00  0.00     0.211 HD
ENDBRANCH  18  23
BRANCH  20  25
ATOM     25  O   UNL     1     -12.605 -34.744 -14.929  1.00  0.00    -0.387 OA
ATOM     26  H   UNL     1     -11.975 -34.317 -15.568  1.00  0.00     0.211 HD
ENDBRANCH  20  25
BRANCH  21  27
ATOM     27  C   UNL     1     -10.588 -33.247 -11.090  1.00  0.00     0.191 C 
BRANCH  27  28
ATOM     28  O   UNL     1     -11.410 -32.592 -10.161  1.00  0.00    -0.394 OA
ATOM     29  H   UNL     1     -10.827 -31.943  -9.687  1.00  0.00     0.210 HD
ENDBRANCH  27  28
ENDBRANCH  21  27
BRANCH  22  30
ATOM     30  O   UNL     1      -9.875 -34.602 -13.623  1.00  0.00    -0.387 OA
ATOM     31  H   UNL     1      -9.552 -34.709 -12.692  1.00  0.00     0.211 HD
ENDBRANCH  22  30
ENDBRANCH   1  17
TORSDOF 10
ENDMDL
MODEL 4
REMARK VINA RESULT:    -5.763      1.471      1.925
REMARK INTER + INTRA:          -9.762
REMARK INTER:                  -8.353
REMARK INTRA:                  -1.409
REMARK UNBOUND:                -1.641
REMARK SMILES OC[C@@H]1O[C@H](O[C@@H]2OC=C[C@@H]3[C@@H](O)[C@@H]4O[C@]4(CO)[C@@H]23)[C@@H](O)[C@@H](O)[C@@H]1O
REMARK SMILES IDX 6 1 7 2 10 3 9 4 11 5 8 6 19 7 12 8 16 9 14 10 15 11 13 12
REMARK SMILES IDX 17 14 18 15 5 17 20 18 4 19 22 20 3 21 24 22 21 23 23 25
REMARK SMILES IDX 2 27 1 28 25 30
REMARK H PARENT 13 13 18 16 21 24 23 26 1 29 25 31
REMARK Flexibility Score: inf
ROOT
ATOM      1  O   UNL     1     -14.121 -29.733  -9.516  1.00  0.00    -0.310 OA
ENDROOT
BRANCH   1   2
ATOM      2  C   UNL     1     -13.231 -30.708  -8.993  1.00  0.00     0.315 C 
ATOM      3  C   UNL     1     -10.554 -31.702  -8.505  1.00  0.00     0.018 C 
ATOM      4  C   UNL     1     -10.999 -30.621  -7.839  1.00  0.00     0.186 C 
ATOM      5  C   UNL     1     -11.538 -32.454  -9.349  1.00  0.00     0.059 C 
ATOM      6  O   UNL     1     -12.309 -30.125  -8.047  1.00  0.00    -0.472 OA
ATOM      7  C   UNL     1     -12.430 -31.467 -10.073  1.00  0.00     0.105 C 
ATOM      8  C   UNL     1     -11.022 -33.352 -10.462  1.00  0.00     0.154 C 
ATOM      9  C   UNL     1     -13.141 -32.334 -11.104  1.00  0.00     0.130 C 
ATOM     10  C   UNL     1     -12.263 -33.512 -11.358  1.00  0.00     0.183 C 
ATOM     11  O   UNL     1     -12.438 -32.490 -12.319  1.00  0.00    -0.360 OA
BRANCH   8  12
ATOM     12  O   UNL     1     -10.618 -34.591  -9.944  1.00  0.00    -0.390 OA
ATOM     13  H   UNL     1     -11.373 -34.921  -9.392  1.00  0.00     0.211 HD
ENDBRANCH   8  12
BRANCH   9  14
ATOM     14  C   UNL     1     -14.657 -32.575 -11.139  1.00  0.00     0.195 C 
BRANCH  14  15
ATOM     15  O   UNL     1     -15.331 -31.549 -11.818  1.00  0.00    -0.393 OA
ATOM     16  H   UNL     1     -15.383 -31.826 -12.770  1.00  0.00     0.210 HD
ENDBRANCH  14  15
ENDBRANCH   9  14
ENDBRANCH   1   2
BRANCH   1  17
ATOM     17  C   UNL     1     -13.538 -28.921 -10.522  1.00  0.00     0.286 C 
ATOM     18  C   UNL     1     -13.491 -27.475 -10.001  1.00  0.00     0.202 C 
ATOM     19  O   UNL     1     -14.343 -29.020 -11.691  1.00  0.00    -0.341 OA
ATOM     20  C   UNL     1     -12.815 -26.538 -11.039  1.00  0.00     0.179 C 
ATOM     21  C   UNL     1     -14.096 -28.038 -12.698  1.00  0.00     0.178 C 
ATOM     22  C   UNL     1     -12.831 -27.158 -12.461  1.00  0.00     0.177 C 
BRANCH  18  23
ATOM     23  O   UNL     1     -12.818 -27.437  -8.769  1.00  0.00    -0.385 OA
ATOM     24  H   UNL     1     -12.178 -28.198  -8.772  1.00  0.00     0.211 HD
ENDBRANCH  18  23
BRANCH  20  25
ATOM     25  O   UNL     1     -11.496 -26.209 -10.670  1.00  0.00    -0.387 OA
ATOM     26  H   UNL     1     -11.545 -25.469 -10.010  1.00  0.00     0.211 HD
ENDBRANCH  20  25
BRANCH  21  27
ATOM     27  C   UNL     1     -15.381 -27.215 -12.895  1.00  0.00     0.191 C 
BRANCH  27  28
ATOM     28  O   UNL     1     -16.489 -28.063 -13.035  1.00  0.00    -0.394 OA
ATOM     29  H   UNL     1     -16.208 -28.945 -12.676  1.00  0.00     0.210 HD
ENDBRANCH  27  28
ENDBRANCH  21  27
BRANCH  22  30
ATOM     30  O   UNL     1     -12.664 -26.185 -13.465  1.00  0.00    -0.387 OA
ATOM     31  H   UNL     1     -13.253 -25.415 -13.255  1.00  0.00     0.211 HD
ENDBRANCH  22  30
ENDBRANCH   1  17
TORSDOF 10
ENDMDL
MODEL 5
REMARK VINA RESULT:    -5.741      1.482      2.754
REMARK INTER + INTRA:          -9.731
REMARK INTER:                  -8.655
REMARK INTRA:                  -1.076
REMARK UNBOUND:                -1.641
REMARK SMILES OC[C@@H]1O[C@H](O[C@@H]2OC=C[C@@H]3[C@@H](O)[C@@H]4O[C@]4(CO)[C@@H]23)[C@@H](O)[C@@H](O)[C@@H]1O
REMARK SMILES IDX 6 1 7 2 10 3 9 4 11 5 8 6 19 7 12 8 16 9 14 10 15 11 13 12
REMARK SMILES IDX 17 14 18 15 5 17 20 18 4 19 22 20 3 21 24 22 21 23 23 25
REMARK SMILES IDX 2 27 1 28 25 30
REMARK H PARENT 13 13 18 16 21 24 23 26 1 29 25 31
REMARK Flexibility Score: inf
ROOT
ATOM      1  O   UNL     1     -13.280 -30.537 -10.674  1.00  0.00    -0.310 OA
ENDROOT
BRANCH   1   2
ATOM      2  C   UNL     1     -13.463 -31.162 -11.937  1.00  0.00     0.315 C 
ATOM      3  C   UNL     1     -14.627 -33.224 -13.605  1.00  0.00     0.018 C 
ATOM      4  C   UNL     1     -15.406 -32.250 -13.102  1.00  0.00     0.186 C 
ATOM      5  C   UNL     1     -13.145 -33.096 -13.421  1.00  0.00     0.059 C 
ATOM      6  O   UNL     1     -14.860 -31.222 -12.297  1.00  0.00    -0.472 OA
ATOM      7  C   UNL     1     -12.860 -32.582 -12.025  1.00  0.00     0.105 C 
ATOM      8  C   UNL     1     -12.277 -34.339 -13.527  1.00  0.00     0.154 C 
ATOM      9  C   UNL     1     -11.360 -32.801 -11.874  1.00  0.00     0.130 C 
ATOM     10  C   UNL     1     -10.989 -33.905 -12.805  1.00  0.00     0.183 C 
ATOM     11  O   UNL     1     -11.004 -34.084 -11.403  1.00  0.00    -0.360 OA
BRANCH   8  12
ATOM     12  O   UNL     1     -12.017 -34.642 -14.871  1.00  0.00    -0.390 OA
ATOM     13  H   UNL     1     -11.667 -35.571 -14.884  1.00  0.00     0.211 HD
ENDBRANCH   8  12
BRANCH   9  14
ATOM     14  C   UNL     1     -10.333 -31.676 -11.681  1.00  0.00     0.195 C 
BRANCH  14  15
ATOM     15  O   UNL     1     -10.335 -31.190 -10.366  1.00  0.00    -0.393 OA
ATOM     16  H   UNL     1     -11.217 -31.427  -9.977  1.00  0.00     0.210 HD
ENDBRANCH  14  15
ENDBRANCH   9  14
ENDBRANCH   1   2
BRANCH   1  17
ATOM     17  C   UNL     1     -13.290 -29.120 -10.741  1.00  0.00     0.286 C 
ATOM     18  C   UNL     1     -14.400 -28.606  -9.809  1.00  0.00     0.202 C 
ATOM     19  O   UNL     1     -13.536 -28.743 -12.090  1.00  0.00    -0.341 OA
ATOM     20  C   UNL     1     -14.432 -27.054  -9.796  1.00  0.00     0.179 C 
ATOM     21  C   UNL     1     -13.893 -27.375 -12.296  1.00  0.00     0.178 C 
ATOM     22  C   UNL     1     -13.729 -26.459 -11.045  1.00  0.00     0.177 C 
BRANCH  18  23
ATOM     23  O   UNL     1     -14.208 -29.121  -8.516  1.00  0.00    -0.385 OA
ATOM     24  H   UNL     1     -13.564 -28.516  -8.062  1.00  0.00     0.211 HD
ENDBRANCH  18  23
BRANCH  20  25
ATOM     25  O   UNL     1     -13.860 -26.525  -8.623  1.00  0.00    -0.387 OA
ATOM     26  H   UNL     1     -14.592 -26.123  -8.086  1.00  0.00     0.211 HD
ENDBRANCH  20  25
BRANCH  21  27
ATOM     27  C   UNL     1     -15.307 -27.331 -12.902  1.00  0.00     0.191 C 
BRANCH  27  28
ATOM     28  O   UNL     1     -15.850 -28.622 -12.972  1.00  0.00    -0.394 OA
ATOM     29  H   UNL     1     -16.605 -28.568 -13.613  1.00  0.00     0.210 HD
ENDBRANCH  27  28
ENDBRANCH  21  27
BRANCH  22  30
ATOM     30  O   UNL     1     -14.133 -25.135 -11.300  1.00  0.00    -0.387 OA
ATOM     31  H   UNL     1     -15.084 -25.146 -11.582  1.00  0.00     0.211 HD
ENDBRANCH  22  30
ENDBRANCH   1  17
TORSDOF 10
ENDMDL
MODEL 6
REMARK VINA RESULT:    -5.532      1.808      2.968
REMARK INTER + INTRA:          -9.437
REMARK INTER:                  -8.243
REMARK INTRA:                  -1.195
REMARK UNBOUND:                -1.641
REMARK SMILES OC[C@@H]1O[C@H](O[C@@H]2OC=C[C@@H]3[C@@H](O)[C@@H]4O[C@]4(CO)[C@@H]23)[C@@H](O)[C@@H](O)[C@@H]1O
REMARK SMILES IDX 6 1 7 2 10 3 9 4 11 5 8 6 19 7 12 8 16 9 14 10 15 11 13 12
REMARK SMILES IDX 17 14 18 15 5 17 20 18 4 19 22 20 3 21 24 22 21 23 23 25
REMARK SMILES IDX 2 27 1 28 25 30
REMARK H PARENT 13 13 18 16 21 24 23 26 1 29 25 31
REMARK Flexibility Score: inf
ROOT
ATOM      1  O   UNL     1     -11.624 -29.852 -11.070  1.00  0.00    -0.310 OA
ENDROOT
BRANCH   1   2
ATOM      2  C   UNL     1     -11.559 -31.163 -10.529  1.00  0.00     0.315 C 
ATOM      3  C   UNL     1     -10.078 -33.555  -9.837  1.00  0.00     0.018 C 
ATOM      4  C   UNL     1      -9.878 -32.420  -9.144  1.00  0.00     0.186 C 
ATOM      5  C   UNL     1     -11.199 -33.576 -10.832  1.00  0.00     0.059 C 
ATOM      6  O   UNL     1     -10.599 -31.241  -9.452  1.00  0.00    -0.472 OA
ATOM      7  C   UNL     1     -11.232 -32.256 -11.571  1.00  0.00     0.105 C 
ATOM      8  C   UNL     1     -11.177 -34.609 -11.947  1.00  0.00     0.154 C 
ATOM      9  C   UNL     1     -12.180 -32.532 -12.732  1.00  0.00     0.130 C 
ATOM     10  C   UNL     1     -12.145 -34.002 -12.978  1.00  0.00     0.183 C 
ATOM     11  O   UNL     1     -11.558 -33.080 -13.875  1.00  0.00    -0.360 OA
BRANCH   8  12
ATOM     12  O   UNL     1     -11.655 -35.843 -11.482  1.00  0.00    -0.390 OA
ATOM     13  H   UNL     1     -12.415 -36.087 -12.071  1.00  0.00     0.211 HD
ENDBRANCH   8  12
BRANCH   9  14
ATOM     14  C   UNL     1     -13.524 -31.821 -12.943  1.00  0.00     0.195 C 
BRANCH  14  15
ATOM     15  O   UNL     1     -13.368 -30.601 -13.616  1.00  0.00    -0.393 OA
ATOM     16  H   UNL     1     -13.500 -30.791 -14.582  1.00  0.00     0.210 HD
ENDBRANCH  14  15
ENDBRANCH   9  14
ENDBRANCH   1   2
BRANCH   1  17
ATOM     17  C   UNL     1     -12.641 -29.053 -10.488  1.00  0.00     0.286 C 
ATOM     18  C   UNL     1     -12.771 -27.765 -11.319  1.00  0.00     0.202 C 
ATOM     19  O   UNL     1     -12.263 -28.764  -9.148  1.00  0.00    -0.341 OA
ATOM     20  C   UNL     1     -13.906 -26.864 -10.763  1.00  0.00     0.179 C 
ATOM     21  C   UNL     1     -12.999 -27.720  -8.508  1.00  0.00     0.178 C 
ATOM     22  C   UNL     1     -14.251 -27.222  -9.294  1.00  0.00     0.177 C 
BRANCH  18  23
ATOM     23  O   UNL     1     -12.994 -28.092 -12.667  1.00  0.00    -0.385 OA
ATOM     24  H   UNL     1     -13.861 -28.576 -12.701  1.00  0.00     0.211 HD
ENDBRANCH  18  23
BRANCH  20  25
ATOM     25  O   UNL     1     -15.066 -26.928 -11.560  1.00  0.00    -0.387 OA
ATOM     26  H   UNL     1     -15.624 -27.674 -11.218  1.00  0.00     0.211 HD
ENDBRANCH  20  25
BRANCH  21  27
ATOM     27  C   UNL     1     -12.019 -26.590  -8.146  1.00  0.00     0.191 C 
BRANCH  27  28
ATOM     28  O   UNL     1     -12.564 -25.771  -7.147  1.00  0.00    -0.394 OA
ATOM     29  H   UNL     1     -13.469 -25.515  -7.463  1.00  0.00     0.210 HD
ENDBRANCH  27  28
ENDBRANCH  21  27
BRANCH  22  30
ATOM     30  O   UNL     1     -14.909 -26.169  -8.632  1.00  0.00    -0.387 OA
ATOM     31  H   UNL     1     -15.122 -26.464  -7.709  1.00  0.00     0.211 HD
ENDBRANCH  22  30
ENDBRANCH   1  17
TORSDOF 10
ENDMDL
MODEL 7
REMARK VINA RESULT:    -5.501      1.568      6.187
REMARK INTER + INTRA:          -9.393
REMARK INTER:                  -8.684
REMARK INTRA:                  -0.709
REMARK UNBOUND:                -1.641
REMARK SMILES OC[C@@H]1O[C@H](O[C@@H]2OC=C[C@@H]3[C@@H](O)[C@@H]4O[C@]4(CO)[C@@H]23)[C@@H](O)[C@@H](O)[C@@H]1O
REMARK SMILES IDX 6 1 7 2 10 3 9 4 11 5 8 6 19 7 12 8 16 9 14 10 15 11 13 12
REMARK SMILES IDX 17 14 18 15 5 17 20 18 4 19 22 20 3 21 24 22 21 23 23 25
REMARK SMILES IDX 2 27 1 28 25 30
REMARK H PARENT 13 13 18 16 21 24 23 26 1 29 25 31
REMARK Flexibility Score: inf
ROOT
ATOM      1  O   UNL     1     -13.798 -30.390  -9.789  1.00  0.00    -0.310 OA
ENDROOT
BRANCH   1   2
ATOM      2  C   UNL     1     -13.564 -28.991  -9.853  1.00  0.00     0.315 C 
ATOM      3  C   UNL     1     -14.356 -26.256  -9.319  1.00  0.00     0.018 C 
ATOM      4  C   UNL     1     -13.990 -27.058  -8.303  1.00  0.00     0.186 C 
ATOM      5  C   UNL     1     -14.166 -26.769 -10.715  1.00  0.00     0.059 C 
ATOM      6  O   UNL     1     -13.584 -28.394  -8.539  1.00  0.00    -0.472 OA
ATOM      7  C   UNL     1     -14.553 -28.232 -10.764  1.00  0.00     0.105 C 
ATOM      8  C   UNL     1     -14.970 -26.148 -11.846  1.00  0.00     0.154 C 
ATOM      9  C   UNL     1     -14.617 -28.523 -12.258  1.00  0.00     0.130 C 
ATOM     10  C   UNL     1     -14.885 -27.226 -12.941  1.00  0.00     0.183 C 
ATOM     11  O   UNL     1     -15.865 -28.241 -12.855  1.00  0.00    -0.360 OA
BRANCH   8  12
ATOM     12  O   UNL     1     -14.374 -24.954 -12.273  1.00  0.00    -0.390 OA
ATOM     13  H   UNL     1     -15.047 -24.239 -12.129  1.00  0.00     0.211 HD
ENDBRANCH   8  12
BRANCH   9  14
ATOM     14  C   UNL     1     -13.704 -29.520 -12.988  1.00  0.00     0.195 C 
BRANCH  14  15
ATOM     15  O   UNL     1     -14.437 -30.545 -13.602  1.00  0.00    -0.393 OA
ATOM     16  H   UNL     1     -14.692 -31.181 -12.883  1.00  0.00     0.210 HD
ENDBRANCH  14  15
ENDBRANCH   9  14
ENDBRANCH   1   2
BRANCH   1  17
ATOM     17  C   UNL     1     -12.773 -31.161 -10.397  1.00  0.00     0.286 C 
ATOM     18  C   UNL     1     -13.351 -32.547 -10.727  1.00  0.00     0.202 C 
ATOM     19  O   UNL     1     -11.691 -31.259  -9.480  1.00  0.00    -0.341 OA
ATOM     20  C   UNL     1     -12.292 -33.428 -11.444  1.00  0.00     0.179 C 
ATOM     21  C   UNL     1     -10.708 -32.251  -9.786  1.00  0.00     0.178 C 
ATOM     22  C   UNL     1     -10.853 -32.906 -11.193  1.00  0.00     0.177 C 
BRANCH  18  23
ATOM     23  O   UNL     1     -14.508 -32.404 -11.511  1.00  0.00    -0.385 OA
ATOM     24  H   UNL     1     -15.231 -32.898 -11.042  1.00  0.00     0.211 HD
ENDBRANCH  18  23
BRANCH  20  25
ATOM     25  O   UNL     1     -12.537 -33.524 -12.827  1.00  0.00    -0.387 OA
ATOM     26  H   UNL     1     -11.657 -33.539 -13.287  1.00  0.00     0.211 HD
ENDBRANCH  20  25
BRANCH  21  27
ATOM     27  C   UNL     1     -10.683 -33.275  -8.638  1.00  0.00     0.191 C 
BRANCH  27  28
ATOM     28  O   UNL     1     -10.573 -32.622  -7.402  1.00  0.00    -0.394 OA
ATOM     29  H   UNL     1     -10.548 -31.650  -7.604  1.00  0.00     0.210 HD
ENDBRANCH  27  28
ENDBRANCH  21  27
BRANCH  22  30
ATOM     30  O   UNL     1      -9.882 -33.900 -11.418  1.00  0.00    -0.387 OA
ATOM     31  H   UNL     1     -10.057 -34.314 -12.302  1.00  0.00     0.211 HD
ENDBRANCH  22  30
ENDBRANCH   1  17
TORSDOF 10
ENDMDL
MODEL 8
REMARK VINA RESULT:    -5.483      1.557      5.739
REMARK INTER + INTRA:          -9.368
REMARK INTER:                  -8.339
REMARK INTRA:                  -1.029
REMARK UNBOUND:                -1.641
REMARK SMILES OC[C@@H]1O[C@H](O[C@@H]2OC=C[C@@H]3[C@@H](O)[C@@H]4O[C@]4(CO)[C@@H]23)[C@@H](O)[C@@H](O)[C@@H]1O
REMARK SMILES IDX 6 1 7 2 10 3 9 4 11 5 8 6 19 7 12 8 16 9 14 10 15 11 13 12
REMARK SMILES IDX 17 14 18 15 5 17 20 18 4 19 22 20 3 21 24 22 21 23 23 25
REMARK SMILES IDX 2 27 1 28 25 30
REMARK H PARENT 13 13 18 16 21 24 23 26 1 29 25 31
REMARK Flexibility Score: inf
ROOT
ATOM      1  O   UNL     1     -13.644 -30.369  -9.933  1.00  0.00    -0.310 OA
ENDROOT
BRANCH   1   2
ATOM      2  C   UNL     1     -12.901 -29.361 -10.602  1.00  0.00     0.315 C 
ATOM      3  C   UNL     1     -11.955 -26.632 -10.829  1.00  0.00     0.018 C 
ATOM      4  C   UNL     1     -11.480 -27.427  -9.853  1.00  0.00     0.186 C 
ATOM      5  C   UNL     1     -12.831 -27.257 -11.872  1.00  0.00     0.059 C 
ATOM      6  O   UNL     1     -11.915 -28.769  -9.729  1.00  0.00    -0.472 OA
ATOM      7  C   UNL     1     -13.773 -28.238 -11.208  1.00  0.00     0.105 C 
ATOM      8  C   UNL     1     -13.757 -26.369 -12.688  1.00  0.00     0.154 C 
ATOM      9  C   UNL     1     -14.784 -28.545 -12.305  1.00  0.00     0.130 C 
ATOM     10  C   UNL     1     -14.785 -27.377 -13.231  1.00  0.00     0.183 C 
ATOM     11  O   UNL     1     -15.870 -27.645 -12.365  1.00  0.00    -0.360 OA
BRANCH   8  12
ATOM     12  O   UNL     1     -13.053 -25.761 -13.737  1.00  0.00    -0.390 OA
ATOM     13  H   UNL     1     -12.642 -24.941 -13.357  1.00  0.00     0.211 HD
ENDBRANCH   8  12
BRANCH   9  14
ATOM     14  C   UNL     1     -14.992 -29.932 -12.931  1.00  0.00     0.195 C 
BRANCH  14  15
ATOM     15  O   UNL     1     -15.874 -30.718 -12.176  1.00  0.00    -0.393 OA
ATOM     16  H   UNL     1     -15.462 -31.619 -12.106  1.00  0.00     0.210 HD
ENDBRANCH  14  15
ENDBRANCH   9  14
ENDBRANCH   1   2
BRANCH   1  17
ATOM     17  C   UNL     1     -13.183 -31.683 -10.206  1.00  0.00     0.286 C 
ATOM     18  C   UNL     1     -11.744 -31.803  -9.678  1.00  0.00     0.202 C 
ATOM     19  O   UNL     1     -13.233 -31.884 -11.613  1.00  0.00    -0.341 OA
ATOM     20  C   UNL     1     -11.194 -33.237  -9.901  1.00  0.00     0.179 C 
ATOM     21  C   UNL     1     -12.518 -33.021 -12.102  1.00  0.00     0.178 C 
ATOM     22  C   UNL     1     -11.992 -33.989 -10.999  1.00  0.00     0.177 C 
BRANCH  18  23
ATOM     23  O   UNL     1     -11.707 -31.450  -8.319  1.00  0.00    -0.385 OA
ATOM     24  H   UNL     1     -11.982 -30.497  -8.266  1.00  0.00     0.211 HD
ENDBRANCH  18  23
BRANCH  20  25
ATOM     25  O   UNL     1     -11.186 -33.989  -8.710  1.00  0.00    -0.387 OA
ATOM     26  H   UNL     1     -12.111 -33.991  -8.350  1.00  0.00     0.211 HD
ENDBRANCH  20  25
BRANCH  21  27
ATOM     27  C   UNL     1     -11.414 -32.524 -13.053  1.00  0.00     0.191 C 
BRANCH  27  28
ATOM     28  O   UNL     1     -11.218 -33.441 -14.095  1.00  0.00    -0.394 OA
ATOM     29  H   UNL     1     -10.593 -33.005 -14.731  1.00  0.00     0.210 HD
ENDBRANCH  27  28
ENDBRANCH  21  27
BRANCH  22  30
ATOM     30  O   UNL     1     -11.263 -35.065 -11.540  1.00  0.00    -0.387 OA
ATOM     31  H   UNL     1     -11.905 -35.712 -11.931  1.00  0.00     0.211 HD
ENDBRANCH  22  30
ENDBRANCH   1  17
TORSDOF 10
ENDMDL
