MODEL 1
REMARK VINA RESULT:    -1.945      0.000      0.000
REMARK INTER + INTRA:          -2.827
REMARK INTER:                  -2.400
REMARK INTRA:                  -0.427
REMARK UNBOUND:                -0.427
REMARK SMILES CCCCC=CC(C)=O
REMARK SMILES IDX 4 1 3 2 2 3 1 4 5 5 6 6 7 7 9 8 8 9
REMARK H PARENT
REMARK Flexibility Score: inf
ROOT
ATOM      1  C   UNL     1      30.568  56.037  12.081  1.00  0.00     0.027 C 
ENDROOT
BRANCH   1   2
ATOM      2  C   UNL     1      31.050  56.359  10.657  1.00  0.00     0.004 C 
BRANCH   2   3
ATOM      3  C   UNL     1      31.221  57.868  10.433  1.00  0.00    -0.003 C 
ATOM      4  C   UNL     1      32.122  58.148   9.235  1.00  0.00     0.004 C 
ENDBRANCH   2   3
ENDBRANCH   1   2
BRANCH   1   5
ATOM      5  C   UNL     1      31.685  56.096  13.092  1.00  0.00    -0.023 C 
ATOM      6  C   UNL     1      31.799  56.989  14.088  1.00  0.00     0.042 C 
BRANCH   6   7
ATOM      7  C   UNL     1      30.888  58.124  14.364  1.00  0.00     0.152 C 
ATOM      8  O   UNL     1      29.820  57.971  15.016  1.00  0.00    -0.295 OA
ATOM      9  C   UNL     1      31.201  59.469  13.793  1.00  0.00     0.093 C 
ENDBRANCH   6   7
ENDBRANCH   1   5
TORSDOF 4
ENDMDL
MODEL 2
REMARK VINA RESULT:    -1.934      2.547      4.080
REMARK INTER + INTRA:          -2.813
REMARK INTER:                  -2.438
REMARK INTRA:                  -0.375
REMARK UNBOUND:                -0.427
REMARK SMILES CCCCC=CC(C)=O
REMARK SMILES IDX 4 1 3 2 2 3 1 4 5 5 6 6 7 7 9 8 8 9
REMARK H PARENT
REMARK Flexibility Score: inf
ROOT
ATOM      1  C   UNL     1      30.524  56.733  10.322  1.00  0.00     0.027 C 
ENDROOT
BRANCH   1   2
ATOM      2  C   UNL     1      30.892  55.939  11.586  1.00  0.00     0.004 C 
BRANCH   2   3
ATOM      3  C   UNL     1      31.326  56.856  12.738  1.00  0.00    -0.003 C 
ATOM      4  C   UNL     1      32.085  56.075  13.807  1.00  0.00     0.004 C 
ENDBRANCH   2   3
ENDBRANCH   1   2
BRANCH   1   5
ATOM      5  C   UNL     1      31.736  57.296   9.625  1.00  0.00    -0.023 C 
ATOM      6  C   UNL     1      31.973  58.596   9.383  1.00  0.00     0.042 C 
BRANCH   6   7
ATOM      7  C   UNL     1      31.076  59.730   9.702  1.00  0.00     0.152 C 
ATOM      8  O   UNL     1      30.168  60.098   8.909  1.00  0.00    -0.295 OA
ATOM      9  C   UNL     1      31.299  60.507  10.959  1.00  0.00     0.093 C 
ENDBRANCH   6   7
ENDBRANCH   1   5
TORSDOF 4
ENDMDL
MODEL 3
REMARK VINA RESULT:    -1.890      2.395      4.168
REMARK INTER + INTRA:          -2.760
REMARK INTER:                  -2.298
REMARK INTRA:                  -0.462
REMARK UNBOUND:                -0.427
REMARK SMILES CCCCC=CC(C)=O
REMARK SMILES IDX 4 1 3 2 2 3 1 4 5 5 6 6 7 7 9 8 8 9
REMARK H PARENT
REMARK Flexibility Score: inf
ROOT
ATOM      1  C   UNL     1      30.356  56.644  11.811  1.00  0.00     0.027 C 
ENDROOT
BRANCH   1   2
ATOM      2  C   UNL     1      31.355  56.798  12.969  1.00  0.00     0.004 C 
BRANCH   2   3
ATOM      3  C   UNL     1      31.239  58.167  13.653  1.00  0.00    -0.003 C 
ATOM      4  C   UNL     1      30.679  59.215  12.697  1.00  0.00     0.004 C 
ENDBRANCH   2   3
ENDBRANCH   1   2
BRANCH   1   5
ATOM      5  C   UNL     1      30.935  55.875  10.651  1.00  0.00    -0.023 C 
ATOM      6  C   UNL     1      31.231  56.377   9.441  1.00  0.00     0.042 C 
BRANCH   6   7
ATOM      7  C   UNL     1      31.003  57.767   8.983  1.00  0.00     0.152 C 
ATOM      8  O   UNL     1      29.947  58.099   8.381  1.00  0.00    -0.295 OA
ATOM      9  C   UNL     1      32.079  58.786   9.173  1.00  0.00     0.093 C 
ENDBRANCH   6   7
ENDBRANCH   1   5
TORSDOF 4
ENDMDL
MODEL 4
REMARK VINA RESULT:    -1.857      1.398      2.617
REMARK INTER + INTRA:          -2.718
REMARK INTER:                  -2.125
REMARK INTRA:                  -0.593
REMARK UNBOUND:                -0.427
REMARK SMILES CCCCC=CC(C)=O
REMARK SMILES IDX 4 1 3 2 2 3 1 4 5 5 6 6 7 7 9 8 8 9
REMARK H PARENT
REMARK Flexibility Score: inf
ROOT
ATOM      1  C   UNL     1      30.562  58.396  10.298  1.00  0.00     0.027 C 
ENDROOT
BRANCH   1   2
ATOM      2  C   UNL     1      31.750  57.648   9.672  1.00  0.00     0.004 C 
BRANCH   2   3
ATOM      3  C   UNL     1      31.401  56.194   9.328  1.00  0.00    -0.003 C 
ATOM      4  C   UNL     1      29.953  55.875   9.687  1.00  0.00     0.004 C 
ENDBRANCH   2   3
ENDBRANCH   1   2
BRANCH   1   5
ATOM      5  C   UNL     1      30.929  59.075  11.593  1.00  0.00    -0.023 C 
ATOM      6  C   UNL     1      30.974  58.493  12.802  1.00  0.00     0.042 C 
BRANCH   6   7
ATOM      7  C   UNL     1      30.625  57.089  13.119  1.00  0.00     0.152 C 
ATOM      8  O   UNL     1      29.427  56.715  13.233  1.00  0.00    -0.295 OA
ATOM      9  C   UNL     1      31.718  56.105  13.383  1.00  0.00     0.093 C 
ENDBRANCH   6   7
ENDBRANCH   1   5
TORSDOF 4
ENDMDL
MODEL 5
REMARK VINA RESULT:    -1.822      2.445      4.535
REMARK INTER + INTRA:          -2.675
REMARK INTER:                  -2.140
REMARK INTRA:                  -0.535
REMARK UNBOUND:                -0.427
REMARK SMILES CCCCC=CC(C)=O
REMARK SMILES IDX 4 1 3 2 2 3 1 4 5 5 6 6 7 7 9 8 8 9
REMARK H PARENT
REMARK Flexibility Score: inf
ROOT
ATOM      1  C   UNL     1      30.777  59.610   9.928  1.00  0.00     0.027 C 
ENDROOT
BRANCH   1   2
ATOM      2  C   UNL     1      31.022  60.102  11.363  1.00  0.00     0.004 C 
BRANCH   2   3
ATOM      3  C   UNL     1      30.177  59.334  12.389  1.00  0.00    -0.003 C 
ATOM      4  C   UNL     1      31.039  58.821  13.539  1.00  0.00     0.004 C 
ENDBRANCH   2   3
ENDBRANCH   1   2
BRANCH   1   5
ATOM      5  C   UNL     1      31.904  58.749   9.415  1.00  0.00    -0.023 C 
ATOM      6  C   UNL     1      31.895  57.409   9.327  1.00  0.00     0.042 C 
BRANCH   6   7
ATOM      7  C   UNL     1      30.806  56.504   9.762  1.00  0.00     0.152 C 
ATOM      8  O   UNL     1      29.793  56.296   9.042  1.00  0.00    -0.295 OA
ATOM      9  C   UNL     1      30.871  55.880  11.118  1.00  0.00     0.093 C 
ENDBRANCH   6   7
ENDBRANCH   1   5
TORSDOF 4
ENDMDL
MODEL 6
REMARK VINA RESULT:    -1.797      2.490      4.322
REMARK INTER + INTRA:          -2.645
REMARK INTER:                  -2.061
REMARK INTRA:                  -0.584
REMARK UNBOUND:                -0.427
REMARK SMILES CCCCC=CC(C)=O
REMARK SMILES IDX 4 1 3 2 2 3 1 4 5 5 6 6 7 7 9 8 8 9
REMARK H PARENT
REMARK Flexibility Score: inf
ROOT
ATOM      1  C   UNL     1      30.263  58.669  12.358  1.00  0.00     0.027 C 
ENDROOT
BRANCH   1   2
ATOM      2  C   UNL     1      31.196  57.809  13.225  1.00  0.00     0.004 C 
BRANCH   2   3
ATOM      3  C   UNL     1      31.342  56.383  12.677  1.00  0.00    -0.003 C 
ATOM      4  C   UNL     1      30.126  55.985  11.845  1.00  0.00     0.004 C 
ENDBRANCH   2   3
ENDBRANCH   1   2
BRANCH   1   5
ATOM      5  C   UNL     1      30.992  59.798  11.675  1.00  0.00    -0.023 C 
ATOM      6  C   UNL     1      31.314  59.854  10.372  1.00  0.00     0.042 C 
BRANCH   6   7
ATOM      7  C   UNL     1      31.068  58.804   9.357  1.00  0.00     0.152 C 
ATOM      8  O   UNL     1      29.966  58.712   8.754  1.00  0.00    -0.295 OA
ATOM      9  C   UNL     1      32.125  57.780   9.094  1.00  0.00     0.093 C 
ENDBRANCH   6   7
ENDBRANCH   1   5
TORSDOF 4
ENDMDL
MODEL 7
REMARK VINA RESULT:    -1.686      3.357      4.256
REMARK INTER + INTRA:          -2.507
REMARK INTER:                  -1.969
REMARK INTRA:                  -0.538
REMARK UNBOUND:                -0.427
REMARK SMILES CCCCC=CC(C)=O
REMARK SMILES IDX 4 1 3 2 2 3 1 4 5 5 6 6 7 7 9 8 8 9
REMARK H PARENT
REMARK Flexibility Score: inf
ROOT
ATOM      1  C   UNL     1      31.391  57.261  10.498  1.00  0.00     0.027 C 
ENDROOT
BRANCH   1   2
ATOM      2  C   UNL     1      32.125  57.851   9.284  1.00  0.00     0.004 C 
BRANCH   2   3
ATOM      3  C   UNL     1      32.098  59.387   9.283  1.00  0.00    -0.003 C 
ATOM      4  C   UNL     1      31.258  59.923  10.438  1.00  0.00     0.004 C 
ENDBRANCH   2   3
ENDBRANCH   1   2
BRANCH   1   5
ATOM      5  C   UNL     1      30.517  56.090  10.127  1.00  0.00    -0.023 C 
ATOM      6  C   UNL     1      29.287  56.162   9.592  1.00  0.00     0.042 C 
BRANCH   6   7
ATOM      7  C   UNL     1      28.521  57.397   9.307  1.00  0.00     0.152 C 
ATOM      8  O   UNL     1      28.630  58.004   8.209  1.00  0.00    -0.295 OA
ATOM      9  C   UNL     1      27.654  57.981  10.375  1.00  0.00     0.093 C 
ENDBRANCH   6   7
ENDBRANCH   1   5
TORSDOF 4
ENDMDL
MODEL 8
REMARK VINA RESULT:    -0.749      1.964      3.514
REMARK INTER + INTRA:          -1.352
REMARK INTER:                  -1.131
REMARK INTRA:                  -0.221
REMARK UNBOUND:                -0.427
REMARK SMILES CCCCC=CC(C)=O
REMARK SMILES IDX 4 1 3 2 2 3 1 4 5 5 6 6 7 7 9 8 8 9
REMARK H PARENT
REMARK Flexibility Score: inf
ROOT
ATOM      1  C   UNL     1      31.267  58.686  10.214  1.00  0.00     0.027 C 
ENDROOT
BRANCH   1   2
ATOM      2  C   UNL     1      32.125  59.638   9.367  1.00  0.00     0.004 C 
BRANCH   2   3
ATOM      3  C   UNL     1      31.972  61.101   9.808  1.00  0.00    -0.003 C 
ATOM      4  C   UNL     1      31.372  61.194  11.208  1.00  0.00     0.004 C 
ENDBRANCH   2   3
ENDBRANCH   1   2
BRANCH   1   5
ATOM      5  C   UNL     1      31.372  57.254   9.754  1.00  0.00    -0.023 C 
ATOM      6  C   UNL     1      31.006  56.171  10.458  1.00  0.00     0.042 C 
BRANCH   6   7
ATOM      7  C   UNL     1      30.478  56.156  11.842  1.00  0.00     0.152 C 
ATOM      8  O   UNL     1      29.244  56.252  12.079  1.00  0.00    -0.295 OA
ATOM      9  C   UNL     1      31.434  56.100  12.989  1.00  0.00     0.093 C 
ENDBRANCH   6   7
ENDBRANCH   1   5
TORSDOF 4
ENDMDL
