MODEL 1
REMARK VINA RESULT:    29.062      0.000      0.000
REMARK INTER + INTRA:          31.425
REMARK INTER:                  31.611
REMARK INTRA:                  -0.186
REMARK UNBOUND:                -0.186
REMARK SMILES C[C@H]1[C@@H](C)CC[C@@]2(C(=O)[O-])CC[C@@]3(C)C(=CC[C@@H]4[C@]5(C)CC[C@@H](O)C(C)(C)[C@H]5CC[C@]43C)[C@@H]12
REMARK SMILES IDX 7 1 6 2 11 3 33 4 5 5 12 6 15 7 2 8 3 9 13 10 16 11 1 12
REMARK SMILES IDX 4 13 14 14 31 15 17 16 18 17 30 18 32 19 19 20 29 21 28 22
REMARK SMILES IDX 21 23 20 24 25 25 22 26 23 27 26 28 27 29 8 30 9 31 10 32
REMARK SMILES IDX 24 33
REMARK H PARENT 24 34
REMARK Flexibility Score: inf
ROOT
ATOM      1  C   UNL     1      18.291  33.226  39.972  1.00  0.00     0.017 C 
ATOM      2  C   UNL     1      18.216  31.889  39.133  1.00  0.00     0.014 C 
ATOM      3  C   UNL     1      19.209  33.053  41.197  1.00  0.00     0.014 C 
ATOM      4  C   UNL     1      18.755  34.459  39.088  1.00  0.00     0.030 C 
ATOM      5  C   UNL     1      19.064  31.879  37.857  1.00  0.00     0.004 C 
ATOM      6  C   UNL     1      20.683  32.896  40.828  1.00  0.00     0.013 C 
ATOM      7  C   UNL     1      20.258  34.855  39.193  1.00  0.00    -0.063 C 
ATOM      8  C   UNL     1      18.162  34.278  37.642  1.00  0.00    -0.003 C 
ATOM      9  C   UNL     1      18.692  33.021  36.889  1.00  0.00    -0.011 C 
ATOM     10  C   UNL     1      21.315  34.115  40.076  1.00  0.00    -0.006 C 
ATOM     11  C   UNL     1      20.644  36.032  38.633  1.00  0.00    -0.027 C 
ATOM     12  C   UNL     1      18.074  35.542  36.765  1.00  0.00     0.008 C 
ATOM     13  C   UNL     1      19.848  33.310  35.914  1.00  0.00     0.008 C 
ATOM     14  C   UNL     1      22.313  33.494  39.023  1.00  0.00     0.017 C 
ATOM     15  C   UNL     1      22.110  35.140  41.113  1.00  0.00    -0.020 C 
ATOM     16  C   UNL     1      21.899  36.736  39.080  1.00  0.00     0.032 C 
ATOM     17  C   UNL     1      21.936  36.633  40.613  1.00  0.00     0.006 C 
ATOM     18  C   UNL     1      21.544  35.192  42.587  1.00  0.00     0.008 C 
ATOM     19  C   UNL     1      23.607  34.669  41.239  1.00  0.00     0.012 C 
ATOM     20  C   UNL     1      22.678  37.813  41.383  1.00  0.00    -0.025 C 
ATOM     21  C   UNL     1      21.989  36.420  43.459  1.00  0.00     0.005 C 
ATOM     22  C   UNL     1      23.075  37.334  42.820  1.00  0.00     0.003 C 
ATOM     23  C   UNL     1      23.969  38.297  40.641  1.00  0.00     0.010 C 
ATOM     24  C   UNL     1      21.666  39.005  41.435  1.00  0.00     0.012 C 
ATOM     25  C   UNL     1      23.736  38.429  43.755  1.00  0.00    -0.006 C 
ATOM     26  C   UNL     1      25.123  38.762  41.567  1.00  0.00     0.033 C 
ATOM     27  C   UNL     1      24.671  39.389  42.910  1.00  0.00     0.120 C 
ATOM     28  C   UNL     1      24.640  37.714  44.804  1.00  0.00     0.014 C 
ATOM     29  C   UNL     1      22.688  39.229  44.574  1.00  0.00     0.014 C 
ENDROOT
BRANCH   1  30
ATOM     30  C   UNL     1      16.893  33.474  40.554  1.00  0.00     0.048 C 
ATOM     31  O   UNL     1      16.473  34.653  40.712  1.00  0.00    -0.550 OA
ATOM     32  O   UNL     1      16.012  32.425  40.802  1.00  0.00    -0.550 OA
ENDBRANCH   1  30
BRANCH  27  33
ATOM     33  O   UNL     1      24.079  40.643  42.684  1.00  0.00    -0.393 OA
ATOM     34  H   UNL     1      23.190  40.482  42.272  1.00  0.00     0.210 HD
ENDBRANCH  27  33
TORSDOF 2
ENDMDL
