MODEL 1
REMARK VINA RESULT:    -3.785      0.000      0.000
REMARK INTER + INTRA:          -4.268
REMARK INTER:                  -4.116
REMARK INTRA:                  -0.151
REMARK UNBOUND:                -0.151
REMARK SMILES CC1=CC[C@@H](C(C)(C)O)CC1
REMARK SMILES IDX 6 1 7 2 8 3 5 4 1 5 2 6 3 7 11 8 4 9 10 10 9 11
REMARK H PARENT 9 12
REMARK Flexibility Score: inf
ROOT
ATOM      1  C   UNL     1     -38.991  22.899   7.041  1.00  0.00     0.062 C 
ATOM      2  C   UNL     1     -37.731  23.420   7.759  1.00  0.00     0.042 C 
ATOM      3  C   UNL     1     -40.042  22.533   8.120  1.00  0.00     0.042 C 
ENDROOT
BRANCH   1   4
ATOM      4  C   UNL     1     -39.511  23.966   6.008  1.00  0.00     0.024 C 
ATOM      5  C   UNL     1     -40.125  27.155   3.047  1.00  0.00     0.039 C 
ATOM      6  C   UNL     1     -39.771  26.104   4.064  1.00  0.00    -0.077 C 
ATOM      7  C   UNL     1     -39.371  24.889   3.640  1.00  0.00    -0.028 C 
ATOM      8  C   UNL     1     -39.996  26.400   5.531  1.00  0.00     0.031 C 
ATOM      9  C   UNL     1     -38.948  23.785   4.578  1.00  0.00     0.034 C 
ATOM     10  C   UNL     1     -39.262  25.423   6.456  1.00  0.00     0.011 C 
ENDBRANCH   1   4
BRANCH   1  11
ATOM     11  O   UNL     1     -38.595  21.739   6.342  1.00  0.00    -0.390 OA
ATOM     12  H   UNL     1     -38.112  22.006   5.517  1.00  0.00     0.211 HD
ENDBRANCH   1  11
TORSDOF 2
ENDMDL
MODEL 2
REMARK VINA RESULT:    -3.124      0.417      1.549
REMARK INTER + INTRA:          -3.549
REMARK INTER:                  -3.404
REMARK INTRA:                  -0.145
REMARK UNBOUND:                -0.151
REMARK SMILES CC1=CC[C@@H](C(C)(C)O)CC1
REMARK SMILES IDX 6 1 7 2 8 3 5 4 1 5 2 6 3 7 11 8 4 9 10 10 9 11
REMARK H PARENT 9 12
REMARK Flexibility Score: inf
ROOT
ATOM      1  C   UNL     1     -38.879  22.807   7.105  1.00  0.00     0.062 C 
ATOM      2  C   UNL     1     -37.598  22.979   7.945  1.00  0.00     0.042 C 
ATOM      3  C   UNL     1     -40.088  22.770   8.075  1.00  0.00     0.042 C 
ENDROOT
BRANCH   1   4
ATOM      4  C   UNL     1     -38.984  23.950   6.029  1.00  0.00     0.024 C 
ATOM      5  C   UNL     1     -40.125  27.115   3.201  1.00  0.00     0.039 C 
ATOM      6  C   UNL     1     -39.881  26.010   4.193  1.00  0.00    -0.077 C 
ATOM      7  C   UNL     1     -39.753  26.318   5.500  1.00  0.00    -0.028 C 
ATOM      8  C   UNL     1     -39.657  24.604   3.683  1.00  0.00     0.031 C 
ATOM      9  C   UNL     1     -39.556  25.280   6.577  1.00  0.00     0.034 C 
ATOM     10  C   UNL     1     -39.794  23.542   4.779  1.00  0.00     0.011 C 
ENDBRANCH   1   4
BRANCH   1  11
ATOM     11  O   UNL     1     -38.753  21.566   6.446  1.00  0.00    -0.390 OA
ATOM     12  H   UNL     1     -38.818  21.711   5.466  1.00  0.00     0.211 HD
ENDBRANCH   1  11
TORSDOF 2
ENDMDL
MODEL 3
REMARK VINA RESULT:    -3.020      1.287      2.209
REMARK INTER + INTRA:          -3.436
REMARK INTER:                  -3.289
REMARK INTRA:                  -0.147
REMARK UNBOUND:                -0.151
REMARK SMILES CC1=CC[C@@H](C(C)(C)O)CC1
REMARK SMILES IDX 6 1 7 2 8 3 5 4 1 5 2 6 3 7 11 8 4 9 10 10 9 11
REMARK H PARENT 9 12
REMARK Flexibility Score: inf
ROOT
ATOM      1  C   UNL     1     -39.022  23.607   6.762  1.00  0.00     0.062 C 
ATOM      2  C   UNL     1     -39.587  22.307   6.155  1.00  0.00     0.042 C 
ATOM      3  C   UNL     1     -37.584  23.319   7.262  1.00  0.00     0.042 C 
ENDROOT
BRANCH   1   4
ATOM      4  C   UNL     1     -39.089  24.774   5.708  1.00  0.00     0.024 C 
ATOM      5  C   UNL     1     -40.125  27.866   2.762  1.00  0.00     0.039 C 
ATOM      6  C   UNL     1     -39.913  26.763   3.763  1.00  0.00    -0.077 C 
ATOM      7  C   UNL     1     -40.104  27.020   5.072  1.00  0.00    -0.028 C 
ATOM      8  C   UNL     1     -39.369  25.434   3.285  1.00  0.00     0.031 C 
ATOM      9  C   UNL     1     -39.965  25.971   6.148  1.00  0.00     0.034 C 
ATOM     10  C   UNL     1     -39.553  24.310   4.310  1.00  0.00     0.011 C 
ENDBRANCH   1   4
BRANCH   1  11
ATOM     11  O   UNL     1     -39.857  23.927   7.853  1.00  0.00    -0.390 OA
ATOM     12  H   UNL     1     -39.418  23.637   8.694  1.00  0.00     0.211 HD
ENDBRANCH   1  11
TORSDOF 2
ENDMDL
