MODEL 1
REMARK VINA RESULT:    -4.556      0.000      0.000
REMARK INTER + INTRA:          -5.978
REMARK INTER:                  -5.622
REMARK INTRA:                  -0.356
REMARK UNBOUND:                -0.356
REMARK SMILES COC(=O)c1ccccc1C(=O)OC
REMARK SMILES IDX 5 1 6 2 7 3 8 4 9 5 10 6 3 7 4 8 2 9 1 10 11 11 12 12 13 13
REMARK SMILES IDX 14 14
REMARK H PARENT
REMARK Flexibility Score: inf
ROOT
ATOM      1  C   UNL     1      94.141  87.160  83.323  1.00  0.00     0.074 A 
ATOM      2  C   UNL     1      92.859  86.607  83.502  1.00  0.00     0.016 A 
ATOM      3  C   UNL     1      92.281  86.542  84.769  1.00  0.00     0.001 A 
ATOM      4  C   UNL     1      92.971  87.029  85.878  1.00  0.00     0.001 A 
ATOM      5  C   UNL     1      94.251  87.562  85.726  1.00  0.00     0.016 A 
ATOM      6  C   UNL     1      94.863  87.617  84.460  1.00  0.00     0.074 A 
ENDROOT
BRANCH   1   7
ATOM      7  C   UNL     1      94.653  87.309  81.941  1.00  0.00     0.338 C 
ATOM      8  O   UNL     1      94.391  88.356  81.286  1.00  0.00    -0.246 OA
BRANCH   7   9
ATOM      9  O   UNL     1      95.470  86.319  81.386  1.00  0.00    -0.465 OA
ATOM     10  C   UNL     1      94.949  85.203  80.674  1.00  0.00     0.282 C 
ENDBRANCH   7   9
ENDBRANCH   1   7
BRANCH   6  11
ATOM     11  C   UNL     1      96.265  88.088  84.388  1.00  0.00     0.338 C 
ATOM     12  O   UNL     1      97.196  87.393  84.881  1.00  0.00    -0.246 OA
BRANCH  11  13
ATOM     13  O   UNL     1      96.544  89.336  83.822  1.00  0.00    -0.465 OA
ATOM     14  C   UNL     1      95.826  90.514  84.170  1.00  0.00     0.282 C 
ENDBRANCH  11  13
ENDBRANCH   6  11
TORSDOF 4
ENDMDL
MODEL 2
REMARK VINA RESULT:    -4.552      6.152      7.996
REMARK INTER + INTRA:          -5.972
REMARK INTER:                  -5.641
REMARK INTRA:                  -0.331
REMARK UNBOUND:                -0.356
REMARK SMILES COC(=O)c1ccccc1C(=O)OC
REMARK SMILES IDX 5 1 6 2 7 3 8 4 9 5 10 6 3 7 4 8 2 9 1 10 11 11 12 12 13 13
REMARK SMILES IDX 14 14
REMARK H PARENT
REMARK Flexibility Score: inf
ROOT
ATOM      1  C   UNL     1      95.026  94.642  84.604  1.00  0.00     0.074 A 
ATOM      2  C   UNL     1      95.141  93.956  85.827  1.00  0.00     0.016 A 
ATOM      3  C   UNL     1      95.709  92.683  85.882  1.00  0.00     0.001 A 
ATOM      4  C   UNL     1      96.174  92.075  84.717  1.00  0.00     0.001 A 
ATOM      5  C   UNL     1      96.052  92.728  83.490  1.00  0.00     0.016 A 
ATOM      6  C   UNL     1      95.461  94.003  83.409  1.00  0.00     0.074 A 
ENDROOT
BRANCH   1   7
ATOM      7  C   UNL     1      94.524  96.035  84.625  1.00  0.00     0.338 C 
ATOM      8  O   UNL     1      95.247  96.954  85.100  1.00  0.00    -0.246 OA
BRANCH   7   9
ATOM      9  O   UNL     1      93.277  96.338  84.070  1.00  0.00    -0.465 OA
ATOM     10  C   UNL     1      92.096  95.612  84.391  1.00  0.00     0.282 C 
ENDBRANCH   7   9
ENDBRANCH   1   7
BRANCH   6  11
ATOM     11  C   UNL     1      95.260  94.588  82.064  1.00  0.00     0.338 C 
ATOM     12  O   UNL     1      94.174  94.407  81.447  1.00  0.00    -0.246 OA
BRANCH  11  13
ATOM     13  O   UNL     1      96.303  95.295  81.457  1.00  0.00    -0.465 OA
ATOM     14  C   UNL     1      97.277  94.666  80.632  1.00  0.00     0.282 C 
ENDBRANCH  11  13
ENDBRANCH   6  11
TORSDOF 4
ENDMDL
MODEL 3
REMARK VINA RESULT:    -4.551      6.218      7.646
REMARK INTER + INTRA:          -5.971
REMARK INTER:                  -5.574
REMARK INTRA:                  -0.397
REMARK UNBOUND:                -0.356
REMARK SMILES COC(=O)c1ccccc1C(=O)OC
REMARK SMILES IDX 5 1 6 2 7 3 8 4 9 5 10 6 3 7 4 8 2 9 1 10 11 11 12 12 13 13
REMARK SMILES IDX 14 14
REMARK H PARENT
REMARK Flexibility Score: inf
ROOT
ATOM      1  C   UNL     1      95.499  94.032  83.390  1.00  0.00     0.074 A 
ATOM      2  C   UNL     1      96.090  92.757  83.477  1.00  0.00     0.016 A 
ATOM      3  C   UNL     1      96.214  92.111  84.706  1.00  0.00     0.001 A 
ATOM      4  C   UNL     1      95.751  92.724  85.869  1.00  0.00     0.001 A 
ATOM      5  C   UNL     1      95.181  93.996  85.809  1.00  0.00     0.016 A 
ATOM      6  C   UNL     1      95.066  94.677  84.582  1.00  0.00     0.074 A 
ENDROOT
BRANCH   1   7
ATOM      7  C   UNL     1      95.287  94.616  82.046  1.00  0.00     0.338 C 
ATOM      8  O   UNL     1      96.247  95.178  81.449  1.00  0.00    -0.246 OA
BRANCH   7   9
ATOM      9  O   UNL     1      94.044  94.494  81.417  1.00  0.00    -0.465 OA
ATOM     10  C   UNL     1      93.509  95.505  80.571  1.00  0.00     0.282 C 
ENDBRANCH   7   9
ENDBRANCH   1   7
BRANCH   6  11
ATOM     11  C   UNL     1      94.558  96.067  84.606  1.00  0.00     0.338 C 
ATOM     12  O   UNL     1      95.246  96.986  85.130  1.00  0.00    -0.246 OA
BRANCH  11  13
ATOM     13  O   UNL     1      93.286  96.345  84.097  1.00  0.00    -0.465 OA
ATOM     14  C   UNL     1      92.145  95.556  84.412  1.00  0.00     0.282 C 
ENDBRANCH  11  13
ENDBRANCH   6  11
TORSDOF 4
ENDMDL
MODEL 4
REMARK VINA RESULT:    -4.484      6.109      7.977
REMARK INTER + INTRA:          -5.889
REMARK INTER:                  -5.528
REMARK INTRA:                  -0.361
REMARK UNBOUND:                -0.356
REMARK SMILES COC(=O)c1ccccc1C(=O)OC
REMARK SMILES IDX 5 1 6 2 7 3 8 4 9 5 10 6 3 7 4 8 2 9 1 10 11 11 12 12 13 13
REMARK SMILES IDX 14 14
REMARK H PARENT
REMARK Flexibility Score: inf
ROOT
ATOM      1  C   UNL     1      87.817  88.001  84.625  1.00  0.00     0.074 A 
ATOM      2  C   UNL     1      87.723  88.636  85.878  1.00  0.00     0.016 A 
ATOM      3  C   UNL     1      87.148  89.901  85.996  1.00  0.00     0.001 A 
ATOM      4  C   UNL     1      86.655  90.552  84.867  1.00  0.00     0.001 A 
ATOM      5  C   UNL     1      86.757  89.951  83.612  1.00  0.00     0.016 A 
ATOM      6  C   UNL     1      87.355  88.685  83.466  1.00  0.00     0.074 A 
ENDROOT
BRANCH   1   7
ATOM      7  C   UNL     1      88.329  86.612  84.580  1.00  0.00     0.338 C 
ATOM      8  O   UNL     1      87.601  85.663  84.981  1.00  0.00    -0.246 OA
BRANCH   7   9
ATOM      9  O   UNL     1      89.593  86.349  84.041  1.00  0.00    -0.465 OA
ATOM     10  C   UNL     1      90.746  87.112  84.378  1.00  0.00     0.282 C 
ENDBRANCH   7   9
ENDBRANCH   1   7
BRANCH   6  11
ATOM     11  C   UNL     1      87.533  88.157  82.095  1.00  0.00     0.338 C 
ATOM     12  O   UNL     1      88.562  88.454  81.427  1.00  0.00    -0.246 OA
BRANCH  11  13
ATOM     13  O   UNL     1      86.527  87.373  81.522  1.00  0.00    -0.465 OA
ATOM     14  C   UNL     1      85.500  87.921  80.704  1.00  0.00     0.282 C 
ENDBRANCH  11  13
ENDBRANCH   6  11
TORSDOF 4
ENDMDL
MODEL 5
REMARK VINA RESULT:    -4.481      0.681      3.430
REMARK INTER + INTRA:          -5.885
REMARK INTER:                  -5.445
REMARK INTRA:                  -0.440
REMARK UNBOUND:                -0.356
REMARK SMILES COC(=O)c1ccccc1C(=O)OC
REMARK SMILES IDX 5 1 6 2 7 3 8 4 9 5 10 6 3 7 4 8 2 9 1 10 11 11 12 12 13 13
REMARK SMILES IDX 14 14
REMARK H PARENT
REMARK Flexibility Score: inf
ROOT
ATOM      1  C   UNL     1      94.849  87.672  84.503  1.00  0.00     0.074 A 
ATOM      2  C   UNL     1      94.198  87.616  85.750  1.00  0.00     0.016 A 
ATOM      3  C   UNL     1      92.922  87.066  85.865  1.00  0.00     0.001 A 
ATOM      4  C   UNL     1      92.275  86.560  84.739  1.00  0.00     0.001 A 
ATOM      5  C   UNL     1      92.893  86.624  83.489  1.00  0.00     0.016 A 
ATOM      6  C   UNL     1      94.171  87.197  83.346  1.00  0.00     0.074 A 
ENDROOT
BRANCH   1   7
ATOM      7  C   UNL     1      96.247  88.159  84.464  1.00  0.00     0.338 C 
ATOM      8  O   UNL     1      97.185  87.402  84.841  1.00  0.00    -0.246 OA
BRANCH   7   9
ATOM      9  O   UNL     1      96.533  89.431  83.957  1.00  0.00    -0.465 OA
ATOM     10  C   UNL     1      95.714  90.564  84.222  1.00  0.00     0.282 C 
ENDBRANCH   7   9
ENDBRANCH   1   7
BRANCH   6  11
ATOM     11  C   UNL     1      94.718  87.336  81.978  1.00  0.00     0.338 C 
ATOM     12  O   UNL     1      95.335  86.376  81.439  1.00  0.00    -0.246 OA
BRANCH  11  13
ATOM     13  O   UNL     1      94.598  88.558  81.309  1.00  0.00    -0.465 OA
ATOM     14  C   UNL     1      95.661  89.125  80.551  1.00  0.00     0.282 C 
ENDBRANCH  11  13
ENDBRANCH   6  11
TORSDOF 4
ENDMDL
MODEL 6
REMARK VINA RESULT:    -4.440      9.193     10.623
REMARK INTER + INTRA:          -5.834
REMARK INTER:                  -5.519
REMARK INTRA:                  -0.315
REMARK UNBOUND:                -0.356
REMARK SMILES COC(=O)c1ccccc1C(=O)OC
REMARK SMILES IDX 5 1 6 2 7 3 8 4 9 5 10 6 3 7 4 8 2 9 1 10 11 11 12 12 13 13
REMARK SMILES IDX 14 14
REMARK H PARENT
REMARK Flexibility Score: inf
ROOT
ATOM      1  C   UNL     1      87.931  94.778  84.707  1.00  0.00     0.074 A 
ATOM      2  C   UNL     1      88.546  94.820  85.973  1.00  0.00     0.016 A 
ATOM      3  C   UNL     1      89.820  95.365  86.129  1.00  0.00     0.001 A 
ATOM      4  C   UNL     1      90.501  95.877  85.027  1.00  0.00     0.001 A 
ATOM      5  C   UNL     1      89.919  95.827  83.759  1.00  0.00     0.016 A 
ATOM      6  C   UNL     1      88.644  95.261  83.575  1.00  0.00     0.074 A 
ENDROOT
BRANCH   1   7
ATOM      7  C   UNL     1      86.533  94.297  84.623  1.00  0.00     0.338 C 
ATOM      8  O   UNL     1      85.591  95.037  85.021  1.00  0.00    -0.246 OA
BRANCH   7   9
ATOM      9  O   UNL     1      86.254  93.051  84.053  1.00  0.00    -0.465 OA
ATOM     10  C   UNL     1      86.985  91.875  84.379  1.00  0.00     0.282 C 
ENDBRANCH   7   9
ENDBRANCH   1   7
BRANCH   6  11
ATOM     11  C   UNL     1      88.136  95.136  82.190  1.00  0.00     0.338 C 
ATOM     12  O   UNL     1      88.233  94.038  81.574  1.00  0.00    -0.246 OA
BRANCH  11  13
ATOM     13  O   UNL     1      87.601  96.257  81.548  1.00  0.00    -0.465 OA
ATOM     14  C   UNL     1      87.182  96.235  80.189  1.00  0.00     0.282 C 
ENDBRANCH  11  13
ENDBRANCH   6  11
TORSDOF 4
ENDMDL
MODEL 7
REMARK VINA RESULT:    -4.425      6.094      7.513
REMARK INTER + INTRA:          -5.816
REMARK INTER:                  -5.483
REMARK INTRA:                  -0.332
REMARK UNBOUND:                -0.356
REMARK SMILES COC(=O)c1ccccc1C(=O)OC
REMARK SMILES IDX 5 1 6 2 7 3 8 4 9 5 10 6 3 7 4 8 2 9 1 10 11 11 12 12 13 13
REMARK SMILES IDX 14 14
REMARK H PARENT
REMARK Flexibility Score: inf
ROOT
ATOM      1  C   UNL     1      87.328  88.692  83.431  1.00  0.00     0.074 A 
ATOM      2  C   UNL     1      86.740  89.963  83.568  1.00  0.00     0.016 A 
ATOM      3  C   UNL     1      86.622  90.563  84.822  1.00  0.00     0.001 A 
ATOM      4  C   UNL     1      87.091  89.907  85.958  1.00  0.00     0.001 A 
ATOM      5  C   UNL     1      87.659  88.637  85.847  1.00  0.00     0.016 A 
ATOM      6  C   UNL     1      87.767  88.003  84.595  1.00  0.00     0.074 A 
ENDROOT
BRANCH   1   7
ATOM      7  C   UNL     1      87.532  88.159  82.064  1.00  0.00     0.338 C 
ATOM      8  O   UNL     1      88.609  88.399  81.452  1.00  0.00    -0.246 OA
BRANCH   7   9
ATOM      9  O   UNL     1      86.558  87.344  81.478  1.00  0.00    -0.465 OA
ATOM     10  C   UNL     1      86.117  87.518  80.136  1.00  0.00     0.282 C 
ENDBRANCH   7   9
ENDBRANCH   1   7
BRANCH   6  11
ATOM     11  C   UNL     1      88.274  86.613  84.565  1.00  0.00     0.338 C 
ATOM     12  O   UNL     1      87.588  85.674  85.057  1.00  0.00    -0.246 OA
BRANCH  11  13
ATOM     13  O   UNL     1      89.543  86.353  84.039  1.00  0.00    -0.465 OA
ATOM     14  C   UNL     1      90.701  87.079  84.435  1.00  0.00     0.282 C 
ENDBRANCH  11  13
ENDBRANCH   6  11
TORSDOF 4
ENDMDL
MODEL 8
REMARK VINA RESULT:    -4.395      9.195     10.612
REMARK INTER + INTRA:          -5.779
REMARK INTER:                  -5.487
REMARK INTRA:                  -0.292
REMARK UNBOUND:                -0.356
REMARK SMILES COC(=O)c1ccccc1C(=O)OC
REMARK SMILES IDX 5 1 6 2 7 3 8 4 9 5 10 6 3 7 4 8 2 9 1 10 11 11 12 12 13 13
REMARK SMILES IDX 14 14
REMARK H PARENT
REMARK Flexibility Score: inf
ROOT
ATOM      1  C   UNL     1      88.738  95.273  83.462  1.00  0.00     0.074 A 
ATOM      2  C   UNL     1      90.008  95.844  83.670  1.00  0.00     0.016 A 
ATOM      3  C   UNL     1      90.575  95.878  84.944  1.00  0.00     0.001 A 
ATOM      4  C   UNL     1      89.886  95.343  86.030  1.00  0.00     0.001 A 
ATOM      5  C   UNL     1      88.617  94.791  85.851  1.00  0.00     0.016 A 
ATOM      6  C   UNL     1      88.016  94.766  84.578  1.00  0.00     0.074 A 
ENDROOT
BRANCH   1   7
ATOM      7  C   UNL     1      88.241  95.159  82.072  1.00  0.00     0.338 C 
ATOM      8  O   UNL     1      88.544  94.149  81.379  1.00  0.00    -0.246 OA
BRANCH   7   9
ATOM      9  O   UNL     1      87.391  96.139  81.550  1.00  0.00    -0.465 OA
ATOM     10  C   UNL     1      87.293  96.407  80.156  1.00  0.00     0.282 C 
ENDBRANCH   7   9
ENDBRANCH   1   7
BRANCH   6  11
ATOM     11  C   UNL     1      86.625  94.271  84.479  1.00  0.00     0.338 C 
ATOM     12  O   UNL     1      85.679  94.924  85.000  1.00  0.00    -0.246 OA
BRANCH  11  13
ATOM     13  O   UNL     1      86.372  93.045  83.856  1.00  0.00    -0.465 OA
ATOM     14  C   UNL     1      86.810  91.805  84.397  1.00  0.00     0.282 C 
ENDBRANCH  11  13
ENDBRANCH   6  11
TORSDOF 4
ENDMDL
MODEL 9
REMARK VINA RESULT:    -4.253      9.901     11.541
REMARK INTER + INTRA:          -5.604
REMARK INTER:                  -5.297
REMARK INTRA:                  -0.307
REMARK UNBOUND:                -0.356
REMARK SMILES COC(=O)c1ccccc1C(=O)OC
REMARK SMILES IDX 5 1 6 2 7 3 8 4 9 5 10 6 3 7 4 8 2 9 1 10 11 11 12 12 13 13
REMARK SMILES IDX 14 14
REMARK H PARENT
REMARK Flexibility Score: inf
ROOT
ATOM      1  C   UNL     1      89.564  96.223  81.351  1.00  0.00     0.074 A 
ATOM      2  C   UNL     1      90.373  95.953  82.471  1.00  0.00     0.016 A 
ATOM      3  C   UNL     1      89.823  95.420  83.637  1.00  0.00     0.001 A 
ATOM      4  C   UNL     1      88.458  95.147  83.705  1.00  0.00     0.001 A 
ATOM      5  C   UNL     1      87.634  95.427  82.614  1.00  0.00     0.016 A 
ATOM      6  C   UNL     1      88.164  95.985  81.436  1.00  0.00     0.074 A 
ENDROOT
BRANCH   1   7
ATOM      7  C   UNL     1      90.222  96.675  80.104  1.00  0.00     0.338 C 
ATOM      8  O   UNL     1      90.483  95.840  79.195  1.00  0.00    -0.246 OA
BRANCH   7   9
ATOM      9  O   UNL     1      90.501  98.033  79.912  1.00  0.00    -0.465 OA
ATOM     10  C   UNL     1      91.825  98.553  79.917  1.00  0.00     0.282 C 
ENDBRANCH   7   9
ENDBRANCH   1   7
BRANCH   6  11
ATOM     11  C   UNL     1      87.217  96.362  80.362  1.00  0.00     0.338 C 
ATOM     12  O   UNL     1      86.583  97.452  80.426  1.00  0.00    -0.246 OA
BRANCH  11  13
ATOM     13  O   UNL     1      86.987  95.477  79.304  1.00  0.00    -0.465 OA
ATOM     14  C   UNL     1      85.964  95.687  78.338  1.00  0.00     0.282 C 
ENDBRANCH  11  13
ENDBRANCH   6  11
TORSDOF 4
ENDMDL
