MODEL 1
REMARK VINA RESULT:    -4.049      0.000      0.000
REMARK INTER + INTRA:          -9.272
REMARK INTER:                  -7.362
REMARK INTRA:                  -1.910
REMARK UNBOUND:                -1.910
REMARK SMILES CCCCCCCCCCCCCCCC(=O)[O-]
REMARK SMILES IDX 9 1 10 2 11 3 12 4 13 5 14 6 15 7 16 8 17 9 18 10 8 11 7 12
REMARK SMILES IDX 6 13 5 14 4 15 3 16 2 17 1 18
REMARK H PARENT
REMARK Flexibility Score: inf
ROOT
ATOM      1  C   UNL     1      12.884  -1.163 -17.139  1.00  0.00     0.000 C 
ENDROOT
BRANCH   1   2
ATOM      2  C   UNL     1      12.194   0.160 -17.493  1.00  0.00     0.000 C 
BRANCH   2   3
ATOM      3  C   UNL     1      10.668   0.021 -17.428  1.00  0.00     0.000 C 
BRANCH   3   4
ATOM      4  C   UNL     1      10.081  -0.247 -18.822  1.00  0.00     0.000 C 
BRANCH   4   5
ATOM      5  C   UNL     1       9.889  -1.745 -19.108  1.00  0.00     0.000 C 
BRANCH   5   6
ATOM      6  C   UNL     1       9.293  -2.009 -20.502  1.00  0.00     0.006 C 
BRANCH   6   7
ATOM      7  C   UNL     1       9.989  -3.175 -21.218  1.00  0.00     0.053 C 
BRANCH   7   8
ATOM      8  C   UNL     1       9.983  -3.002 -22.705  1.00  0.00     0.041 C 
ATOM      9  O   UNL     1       9.549  -3.921 -23.448  1.00  0.00    -0.550 OA
ATOM     10  O   UNL     1      10.428  -1.814 -23.271  1.00  0.00    -0.550 OA
ENDBRANCH   7   8
ENDBRANCH   6   7
ENDBRANCH   5   6
ENDBRANCH   4   5
ENDBRANCH   3   4
ENDBRANCH   2   3
ENDBRANCH   1   2
BRANCH   1  11
ATOM     11  C   UNL     1      13.185  -1.981 -18.404  1.00  0.00     0.000 C 
BRANCH  11  12
ATOM     12  C   UNL     1      14.506  -1.571 -19.080  1.00  0.00    -0.000 C 
BRANCH  12  13
ATOM     13  C   UNL     1      14.355  -0.957 -20.486  1.00  0.00    -0.000 C 
BRANCH  13  14
ATOM     14  C   UNL     1      12.919  -0.953 -21.047  1.00  0.00    -0.000 C 
BRANCH  14  15
ATOM     15  C   UNL     1      12.312   0.444 -21.269  1.00  0.00    -0.000 C 
BRANCH  15  16
ATOM     16  C   UNL     1      13.308   1.579 -20.990  1.00  0.00    -0.000 C 
BRANCH  16  17
ATOM     17  C   UNL     1      12.820   2.464 -19.838  1.00  0.00    -0.003 C 
ATOM     18  C   UNL     1      13.105   3.937 -20.117  1.00  0.00     0.004 C 
ENDBRANCH  16  17
ENDBRANCH  15  16
ENDBRANCH  14  15
ENDBRANCH  13  14
ENDBRANCH  12  13
ENDBRANCH  11  12
ENDBRANCH   1  11
TORSDOF 14
ENDMDL
MODEL 2
REMARK VINA RESULT:    -3.922      3.370      5.585
REMARK INTER + INTRA:          -9.041
REMARK INTER:                  -7.568
REMARK INTRA:                  -1.473
REMARK UNBOUND:                -1.910
REMARK SMILES CCCCCCCCCCCCCCCC(=O)[O-]
REMARK SMILES IDX 9 1 10 2 11 3 12 4 13 5 14 6 15 7 16 8 17 9 18 10 8 11 7 12
REMARK SMILES IDX 6 13 5 14 4 15 3 16 2 17 1 18
REMARK H PARENT
REMARK Flexibility Score: inf
ROOT
ATOM      1  C   UNL     1      13.001  -1.967 -18.281  1.00  0.00     0.000 C 
ENDROOT
BRANCH   1   2
ATOM      2  C   UNL     1      11.922  -0.918 -17.983  1.00  0.00     0.000 C 
BRANCH   2   3
ATOM      3  C   UNL     1      12.183  -0.223 -16.642  1.00  0.00     0.000 C 
BRANCH   3   4
ATOM      4  C   UNL     1      12.688   1.212 -16.855  1.00  0.00     0.000 C 
BRANCH   4   5
ATOM      5  C   UNL     1      12.380   1.747 -18.263  1.00  0.00     0.000 C 
BRANCH   5   6
ATOM      6  C   UNL     1      13.122   3.059 -18.572  1.00  0.00     0.006 C 
BRANCH   6   7
ATOM      7  C   UNL     1      13.033   3.437 -20.058  1.00  0.00     0.053 C 
BRANCH   7   8
ATOM      8  C   UNL     1      13.467   4.849 -20.302  1.00  0.00     0.041 C 
ATOM      9  O   UNL     1      14.692   5.141 -20.322  1.00  0.00    -0.550 OA
ATOM     10  O   UNL     1      12.521   5.839 -20.536  1.00  0.00    -0.550 OA
ENDBRANCH   7   8
ENDBRANCH   6   7
ENDBRANCH   5   6
ENDBRANCH   4   5
ENDBRANCH   3   4
ENDBRANCH   2   3
ENDBRANCH   1   2
BRANCH   1  11
ATOM     11  C   UNL     1      14.179  -1.343 -19.044  1.00  0.00     0.000 C 
BRANCH  11  12
ATOM     12  C   UNL     1      13.930  -1.259 -20.561  1.00  0.00    -0.000 C 
BRANCH  12  13
ATOM     13  C   UNL     1      13.252   0.041 -21.038  1.00  0.00    -0.000 C 
BRANCH  13  14
ATOM     14  C   UNL     1      11.823  -0.130 -21.590  1.00  0.00    -0.000 C 
BRANCH  14  15
ATOM     15  C   UNL     1      11.416  -1.582 -21.903  1.00  0.00    -0.000 C 
BRANCH  15  16
ATOM     16  C   UNL     1      10.473  -2.178 -20.847  1.00  0.00    -0.000 C 
BRANCH  16  17
ATOM     17  C   UNL     1       9.604  -3.285 -21.453  1.00  0.00    -0.003 C 
ATOM     18  C   UNL     1      10.023  -3.592 -22.888  1.00  0.00     0.004 C 
ENDBRANCH  16  17
ENDBRANCH  15  16
ENDBRANCH  14  15
ENDBRANCH  13  14
ENDBRANCH  12  13
ENDBRANCH  11  12
ENDBRANCH   1  11
TORSDOF 14
ENDMDL
MODEL 3
REMARK VINA RESULT:    -3.761      3.326      5.893
REMARK INTER + INTRA:          -8.750
REMARK INTER:                  -7.035
REMARK INTRA:                  -1.714
REMARK UNBOUND:                -1.910
REMARK SMILES CCCCCCCCCCCCCCCC(=O)[O-]
REMARK SMILES IDX 9 1 10 2 11 3 12 4 13 5 14 6 15 7 16 8 17 9 18 10 8 11 7 12
REMARK SMILES IDX 6 13 5 14 4 15 3 16 2 17 1 18
REMARK H PARENT
REMARK Flexibility Score: inf
ROOT
ATOM      1  C   UNL     1      13.319  -2.108 -18.491  1.00  0.00     0.000 C 
ENDROOT
BRANCH   1   2
ATOM      2  C   UNL     1      14.029  -0.906 -19.127  1.00  0.00     0.000 C 
BRANCH   2   3
ATOM      3  C   UNL     1      14.056  -1.027 -20.655  1.00  0.00     0.000 C 
BRANCH   3   4
ATOM      4  C   UNL     1      13.238   0.097 -21.310  1.00  0.00     0.000 C 
BRANCH   4   5
ATOM      5  C   UNL     1      12.878   1.221 -20.324  1.00  0.00     0.000 C 
BRANCH   5   6
ATOM      6  C   UNL     1      13.259   2.615 -20.854  1.00  0.00     0.006 C 
BRANCH   6   7
ATOM      7  C   UNL     1      13.058   3.709 -19.795  1.00  0.00     0.053 C 
BRANCH   7   8
ATOM      8  C   UNL     1      13.528   5.046 -20.278  1.00  0.00     0.041 C 
ATOM      9  O   UNL     1      12.695   5.954 -20.538  1.00  0.00    -0.550 OA
ATOM     10  O   UNL     1      14.887   5.301 -20.414  1.00  0.00    -0.550 OA
ENDBRANCH   7   8
ENDBRANCH   6   7
ENDBRANCH   5   6
ENDBRANCH   4   5
ENDBRANCH   3   4
ENDBRANCH   2   3
ENDBRANCH   1   2
BRANCH   1  11
ATOM     11  C   UNL     1      12.600  -1.700 -17.197  1.00  0.00     0.000 C 
BRANCH  11  12
ATOM     12  C   UNL     1      12.564  -0.175 -16.989  1.00  0.00    -0.000 C 
BRANCH  12  13
ATOM     13  C   UNL     1      11.374   0.545 -17.655  1.00  0.00    -0.000 C 
BRANCH  13  14
ATOM     14  C   UNL     1      10.181  -0.362 -18.017  1.00  0.00    -0.000 C 
BRANCH  14  15
ATOM     15  C   UNL     1       9.982  -0.602 -19.525  1.00  0.00    -0.000 C 
BRANCH  15  16
ATOM     16  C   UNL     1       9.830  -2.089 -19.877  1.00  0.00    -0.000 C 
BRANCH  16  17
ATOM     17  C   UNL     1      10.615  -2.435 -21.147  1.00  0.00    -0.003 C 
ATOM     18  C   UNL     1       9.794  -3.325 -22.076  1.00  0.00     0.004 C 
ENDBRANCH  16  17
ENDBRANCH  15  16
ENDBRANCH  14  15
ENDBRANCH  13  14
ENDBRANCH  12  13
ENDBRANCH  11  12
ENDBRANCH   1  11
TORSDOF 14
ENDMDL
MODEL 4
REMARK VINA RESULT:    -3.723      1.002      2.700
REMARK INTER + INTRA:          -8.679
REMARK INTER:                  -7.046
REMARK INTRA:                  -1.633
REMARK UNBOUND:                -1.910
REMARK SMILES CCCCCCCCCCCCCCCC(=O)[O-]
REMARK SMILES IDX 9 1 10 2 11 3 12 4 13 5 14 6 15 7 16 8 17 9 18 10 8 11 7 12
REMARK SMILES IDX 6 13 5 14 4 15 3 16 2 17 1 18
REMARK H PARENT
REMARK Flexibility Score: inf
ROOT
ATOM      1  C   UNL     1      12.486   0.283 -16.688  1.00  0.00     0.000 C 
ENDROOT
BRANCH   1   2
ATOM      2  C   UNL     1      11.027   0.056 -17.104  1.00  0.00     0.000 C 
BRANCH   2   3
ATOM      3  C   UNL     1      10.911  -1.106 -18.096  1.00  0.00     0.000 C 
BRANCH   3   4
ATOM      4  C   UNL     1       9.957  -0.753 -19.247  1.00  0.00     0.000 C 
BRANCH   4   5
ATOM      5  C   UNL     1       9.525  -1.985 -20.059  1.00  0.00     0.000 C 
BRANCH   5   6
ATOM      6  C   UNL     1      10.660  -2.543 -20.937  1.00  0.00     0.006 C 
BRANCH   6   7
ATOM      7  C   UNL     1      10.294  -2.536 -22.428  1.00  0.00     0.053 C 
BRANCH   7   8
ATOM      8  C   UNL     1       9.666  -3.826 -22.855  1.00  0.00     0.041 C 
ATOM      9  O   UNL     1       9.543  -4.773 -22.033  1.00  0.00    -0.550 OA
ATOM     10  O   UNL     1       9.190  -3.975 -24.152  1.00  0.00    -0.550 OA
ENDBRANCH   7   8
ENDBRANCH   6   7
ENDBRANCH   5   6
ENDBRANCH   4   5
ENDBRANCH   3   4
ENDBRANCH   2   3
ENDBRANCH   1   2
BRANCH   1  11
ATOM     11  C   UNL     1      13.036   1.581 -17.299  1.00  0.00     0.000 C 
BRANCH  11  12
ATOM     12  C   UNL     1      12.260   2.026 -18.552  1.00  0.00    -0.000 C 
BRANCH  12  13
ATOM     13  C   UNL     1      13.119   2.686 -19.649  1.00  0.00    -0.000 C 
BRANCH  13  14
ATOM     14  C   UNL     1      13.291   1.854 -20.935  1.00  0.00    -0.000 C 
BRANCH  14  15
ATOM     15  C   UNL     1      12.499   0.534 -20.966  1.00  0.00    -0.000 C 
BRANCH  15  16
ATOM     16  C   UNL     1      13.380  -0.683 -21.281  1.00  0.00    -0.000 C 
BRANCH  16  17
ATOM     17  C   UNL     1      14.453  -0.876 -20.203  1.00  0.00    -0.003 C 
ATOM     18  C   UNL     1      13.933  -1.739 -19.057  1.00  0.00     0.004 C 
ENDBRANCH  16  17
ENDBRANCH  15  16
ENDBRANCH  14  15
ENDBRANCH  13  14
ENDBRANCH  12  13
ENDBRANCH  11  12
ENDBRANCH   1  11
TORSDOF 14
ENDMDL
MODEL 5
REMARK VINA RESULT:    -3.670      1.099      2.939
REMARK INTER + INTRA:          -8.584
REMARK INTER:                  -7.626
REMARK INTRA:                  -0.958
REMARK UNBOUND:                -1.910
REMARK SMILES CCCCCCCCCCCCCCCC(=O)[O-]
REMARK SMILES IDX 9 1 10 2 11 3 12 4 13 5 14 6 15 7 16 8 17 9 18 10 8 11 7 12
REMARK SMILES IDX 6 13 5 14 4 15 3 16 2 17 1 18
REMARK H PARENT
REMARK Flexibility Score: inf
ROOT
ATOM      1  C   UNL     1      13.221  -2.098 -18.453  1.00  0.00     0.000 C 
ENDROOT
BRANCH   1   2
ATOM      2  C   UNL     1      14.367  -1.274 -19.053  1.00  0.00     0.000 C 
BRANCH   2   3
ATOM      3  C   UNL     1      14.233  -1.171 -20.577  1.00  0.00     0.000 C 
BRANCH   3   4
ATOM      4  C   UNL     1      13.220  -0.083 -20.967  1.00  0.00     0.000 C 
BRANCH   4   5
ATOM      5  C   UNL     1      12.018  -0.642 -21.746  1.00  0.00     0.000 C 
BRANCH   5   6
ATOM      6  C   UNL     1      10.857  -1.055 -20.823  1.00  0.00     0.006 C 
BRANCH   6   7
ATOM      7  C   UNL     1      10.568  -2.561 -20.897  1.00  0.00     0.053 C 
BRANCH   7   8
ATOM      8  C   UNL     1      10.055  -2.965 -22.245  1.00  0.00     0.041 C 
ATOM      9  O   UNL     1      10.209  -2.204 -23.236  1.00  0.00    -0.550 OA
ATOM     10  O   UNL     1       9.434  -4.196 -22.414  1.00  0.00    -0.550 OA
ENDBRANCH   7   8
ENDBRANCH   6   7
ENDBRANCH   5   6
ENDBRANCH   4   5
ENDBRANCH   3   4
ENDBRANCH   2   3
ENDBRANCH   1   2
BRANCH   1  11
ATOM     11  C   UNL     1      12.756  -1.502 -17.116  1.00  0.00     0.000 C 
BRANCH  11  12
ATOM     12  C   UNL     1      11.884  -0.246 -17.294  1.00  0.00    -0.000 C 
BRANCH  12  13
ATOM     13  C   UNL     1      12.423   1.024 -16.604  1.00  0.00    -0.000 C 
BRANCH  13  14
ATOM     14  C   UNL     1      13.098   2.042 -17.544  1.00  0.00    -0.000 C 
BRANCH  14  15
ATOM     15  C   UNL     1      12.356   2.297 -18.868  1.00  0.00    -0.000 C 
BRANCH  15  16
ATOM     16  C   UNL     1      13.257   2.909 -19.950  1.00  0.00    -0.000 C 
BRANCH  16  17
ATOM     17  C   UNL     1      13.065   4.428 -20.028  1.00  0.00    -0.003 C 
ATOM     18  C   UNL     1      14.332   5.119 -20.524  1.00  0.00     0.004 C 
ENDBRANCH  16  17
ENDBRANCH  15  16
ENDBRANCH  14  15
ENDBRANCH  13  14
ENDBRANCH  12  13
ENDBRANCH  11  12
ENDBRANCH   1  11
TORSDOF 14
ENDMDL
MODEL 6
REMARK VINA RESULT:    -3.586      1.750      3.360
REMARK INTER + INTRA:          -8.431
REMARK INTER:                  -7.644
REMARK INTRA:                  -0.787
REMARK UNBOUND:                -1.910
REMARK SMILES CCCCCCCCCCCCCCCC(=O)[O-]
REMARK SMILES IDX 9 1 10 2 11 3 12 4 13 5 14 6 15 7 16 8 17 9 18 10 8 11 7 12
REMARK SMILES IDX 6 13 5 14 4 15 3 16 2 17 1 18
REMARK H PARENT
REMARK Flexibility Score: inf
ROOT
ATOM      1  C   UNL     1      14.015  -0.979 -20.499  1.00  0.00     0.000 C 
ENDROOT
BRANCH   1   2
ATOM      2  C   UNL     1      13.895  -1.017 -18.970  1.00  0.00     0.000 C 
BRANCH   2   3
ATOM      3  C   UNL     1      12.783  -1.975 -18.528  1.00  0.00     0.000 C 
BRANCH   3   4
ATOM      4  C   UNL     1      11.488  -1.208 -18.218  1.00  0.00     0.000 C 
BRANCH   4   5
ATOM      5  C   UNL     1      10.407  -1.409 -19.293  1.00  0.00     0.000 C 
BRANCH   5   6
ATOM      6  C   UNL     1      10.899  -2.267 -20.472  1.00  0.00     0.006 C 
BRANCH   6   7
ATOM      7  C   UNL     1       9.739  -2.941 -21.218  1.00  0.00     0.053 C 
BRANCH   7   8
ATOM      8  C   UNL     1       9.959  -2.952 -22.699  1.00  0.00     0.041 C 
ATOM      9  O   UNL     1      10.441  -1.941 -23.275  1.00  0.00    -0.550 OA
ATOM     10  O   UNL     1       9.661  -4.088 -23.441  1.00  0.00    -0.550 OA
ENDBRANCH   7   8
ENDBRANCH   6   7
ENDBRANCH   5   6
ENDBRANCH   4   5
ENDBRANCH   3   4
ENDBRANCH   2   3
ENDBRANCH   1   2
BRANCH   1  11
ATOM     11  C   UNL     1      13.206   0.187 -21.085  1.00  0.00     0.000 C 
BRANCH  11  12
ATOM     12  C   UNL     1      13.079   1.374 -20.112  1.00  0.00    -0.000 C 
BRANCH  12  13
ATOM     13  C   UNL     1      13.005   2.760 -20.783  1.00  0.00    -0.000 C 
BRANCH  13  14
ATOM     14  C   UNL     1      13.374   3.948 -19.873  1.00  0.00    -0.000 C 
BRANCH  14  15
ATOM     15  C   UNL     1      13.653   5.270 -20.611  1.00  0.00    -0.000 C 
BRANCH  15  16
ATOM     16  C   UNL     1      15.121   5.710 -20.513  1.00  0.00    -0.000 C 
BRANCH  16  17
ATOM     17  C   UNL     1      15.749   5.837 -21.905  1.00  0.00    -0.003 C 
ATOM     18  C   UNL     1      17.212   5.403 -21.890  1.00  0.00     0.004 C 
ENDBRANCH  16  17
ENDBRANCH  15  16
ENDBRANCH  14  15
ENDBRANCH  13  14
ENDBRANCH  12  13
ENDBRANCH  11  12
ENDBRANCH   1  11
TORSDOF 14
ENDMDL
MODEL 7
REMARK VINA RESULT:    -3.578      1.720      3.403
REMARK INTER + INTRA:          -8.416
REMARK INTER:                  -7.053
REMARK INTRA:                  -1.363
REMARK UNBOUND:                -1.910
REMARK SMILES CCCCCCCCCCCCCCCC(=O)[O-]
REMARK SMILES IDX 9 1 10 2 11 3 12 4 13 5 14 6 15 7 16 8 17 9 18 10 8 11 7 12
REMARK SMILES IDX 6 13 5 14 4 15 3 16 2 17 1 18
REMARK H PARENT
REMARK Flexibility Score: inf
ROOT
ATOM      1  C   UNL     1      11.863  -0.195 -17.477  1.00  0.00     0.000 C 
ENDROOT
BRANCH   1   2
ATOM      2  C   UNL     1      12.574  -1.552 -17.392  1.00  0.00     0.000 C 
BRANCH   2   3
ATOM      3  C   UNL     1      12.885  -2.100 -18.789  1.00  0.00     0.000 C 
BRANCH   3   4
ATOM      4  C   UNL     1      13.953  -1.245 -19.490  1.00  0.00     0.000 C 
BRANCH   4   5
ATOM      5  C   UNL     1      13.526  -0.798 -20.897  1.00  0.00     0.000 C 
BRANCH   5   6
ATOM      6  C   UNL     1      12.002  -0.621 -21.024  1.00  0.00     0.006 C 
BRANCH   6   7
ATOM      7  C   UNL     1      11.391  -1.592 -22.045  1.00  0.00     0.053 C 
BRANCH   7   8
ATOM      8  C   UNL     1      10.271  -2.391 -21.455  1.00  0.00     0.041 C 
ATOM      9  O   UNL     1       9.808  -3.385 -22.073  1.00  0.00    -0.550 OA
ATOM     10  O   UNL     1       9.757  -2.057 -20.208  1.00  0.00    -0.550 OA
ENDBRANCH   7   8
ENDBRANCH   6   7
ENDBRANCH   5   6
ENDBRANCH   4   5
ENDBRANCH   3   4
ENDBRANCH   2   3
ENDBRANCH   1   2
BRANCH   1  11
ATOM     11  C   UNL     1      12.480   0.812 -16.496  1.00  0.00     0.000 C 
BRANCH  11  12
ATOM     12  C   UNL     1      13.120   2.020 -17.205  1.00  0.00    -0.000 C 
BRANCH  12  13
ATOM     13  C   UNL     1      12.854   2.101 -18.721  1.00  0.00    -0.000 C 
BRANCH  13  14
ATOM     14  C   UNL     1      12.687   3.527 -19.281  1.00  0.00    -0.000 C 
BRANCH  14  15
ATOM     15  C   UNL     1      13.660   3.898 -20.415  1.00  0.00    -0.000 C 
BRANCH  15  16
ATOM     16  C   UNL     1      13.829   5.415 -20.585  1.00  0.00    -0.000 C 
BRANCH  16  17
ATOM     17  C   UNL     1      15.307   5.812 -20.519  1.00  0.00    -0.003 C 
ATOM     18  C   UNL     1      16.034   5.442 -21.809  1.00  0.00     0.004 C 
ENDBRANCH  16  17
ENDBRANCH  15  16
ENDBRANCH  14  15
ENDBRANCH  13  14
ENDBRANCH  12  13
ENDBRANCH  11  12
ENDBRANCH   1  11
TORSDOF 14
ENDMDL
MODEL 8
REMARK VINA RESULT:    -3.403      3.035      4.753
REMARK INTER + INTRA:          -8.097
REMARK INTER:                  -7.247
REMARK INTRA:                  -0.850
REMARK UNBOUND:                -1.910
REMARK SMILES CCCCCCCCCCCCCCCC(=O)[O-]
REMARK SMILES IDX 9 1 10 2 11 3 12 4 13 5 14 6 15 7 16 8 17 9 18 10 8 11 7 12
REMARK SMILES IDX 6 13 5 14 4 15 3 16 2 17 1 18
REMARK H PARENT
REMARK Flexibility Score: inf
ROOT
ATOM      1  C   UNL     1      12.448   1.814 -18.682  1.00  0.00     0.000 C 
ENDROOT
BRANCH   1   2
ATOM      2  C   UNL     1      12.796   1.181 -17.328  1.00  0.00     0.000 C 
BRANCH   2   3
ATOM      3  C   UNL     1      11.956  -0.076 -17.075  1.00  0.00     0.000 C 
BRANCH   3   4
ATOM      4  C   UNL     1      10.565   0.055 -17.713  1.00  0.00     0.000 C 
BRANCH   4   5
ATOM      5  C   UNL     1      10.370  -0.887 -18.912  1.00  0.00     0.000 C 
BRANCH   5   6
ATOM      6  C   UNL     1      11.610  -1.756 -19.189  1.00  0.00     0.006 C 
BRANCH   6   7
ATOM      7  C   UNL     1      12.153  -1.550 -20.610  1.00  0.00     0.053 C 
BRANCH   7   8
ATOM      8  C   UNL     1      13.429  -0.766 -20.612  1.00  0.00     0.041 C 
ATOM      9  O   UNL     1      13.577   0.199 -21.408  1.00  0.00    -0.550 OA
ATOM     10  O   UNL     1      14.443  -1.081 -19.717  1.00  0.00    -0.550 OA
ENDBRANCH   7   8
ENDBRANCH   6   7
ENDBRANCH   5   6
ENDBRANCH   4   5
ENDBRANCH   3   4
ENDBRANCH   2   3
ENDBRANCH   1   2
BRANCH   1  11
ATOM     11  C   UNL     1      13.189   3.146 -18.872  1.00  0.00     0.000 C 
BRANCH  11  12
ATOM     12  C   UNL     1      13.213   3.610 -20.340  1.00  0.00    -0.000 C 
BRANCH  12  13
ATOM     13  C   UNL     1      13.533   5.105 -20.544  1.00  0.00    -0.000 C 
BRANCH  13  14
ATOM     14  C   UNL     1      15.030   5.468 -20.490  1.00  0.00    -0.000 C 
BRANCH  14  15
ATOM     15  C   UNL     1      15.587   6.119 -21.769  1.00  0.00    -0.000 C 
BRANCH  15  16
ATOM     16  C   UNL     1      16.811   5.381 -22.331  1.00  0.00    -0.000 C 
BRANCH  16  17
ATOM     17  C   UNL     1      16.490   4.744 -23.688  1.00  0.00    -0.003 C 
ATOM     18  C   UNL     1      17.226   5.458 -24.819  1.00  0.00     0.004 C 
ENDBRANCH  16  17
ENDBRANCH  15  16
ENDBRANCH  14  15
ENDBRANCH  13  14
ENDBRANCH  12  13
ENDBRANCH  11  12
ENDBRANCH   1  11
TORSDOF 14
ENDMDL
MODEL 9
REMARK VINA RESULT:    -3.376      2.165      3.918
REMARK INTER + INTRA:          -8.049
REMARK INTER:                  -7.020
REMARK INTRA:                  -1.029
REMARK UNBOUND:                -1.910
REMARK SMILES CCCCCCCCCCCCCCCC(=O)[O-]
REMARK SMILES IDX 9 1 10 2 11 3 12 4 13 5 14 6 15 7 16 8 17 9 18 10 8 11 7 12
REMARK SMILES IDX 6 13 5 14 4 15 3 16 2 17 1 18
REMARK H PARENT
REMARK Flexibility Score: inf
ROOT
ATOM      1  C   UNL     1      13.290   0.191 -21.237  1.00  0.00     0.000 C 
ENDROOT
BRANCH   1   2
ATOM      2  C   UNL     1      13.800  -1.001 -20.417  1.00  0.00     0.000 C 
BRANCH   2   3
ATOM      3  C   UNL     1      13.298  -0.929 -18.970  1.00  0.00     0.000 C 
BRANCH   3   4
ATOM      4  C   UNL     1      12.175  -1.949 -18.727  1.00  0.00     0.000 C 
BRANCH   4   5
ATOM      5  C   UNL     1      10.774  -1.320 -18.804  1.00  0.00     0.000 C 
BRANCH   5   6
ATOM      6  C   UNL     1      10.172  -1.392 -20.218  1.00  0.00     0.006 C 
BRANCH   6   7
ATOM      7  C   UNL     1       9.923  -2.839 -20.667  1.00  0.00     0.053 C 
BRANCH   7   8
ATOM      8  C   UNL     1       9.961  -2.976 -22.158  1.00  0.00     0.041 C 
ATOM      9  O   UNL     1       9.535  -4.025 -22.709  1.00  0.00    -0.550 OA
ATOM     10  O   UNL     1      10.440  -1.934 -22.942  1.00  0.00    -0.550 OA
ENDBRANCH   7   8
ENDBRANCH   6   7
ENDBRANCH   5   6
ENDBRANCH   4   5
ENDBRANCH   3   4
ENDBRANCH   2   3
ENDBRANCH   1   2
BRANCH   1  11
ATOM     11  C   UNL     1      12.870   1.349 -20.320  1.00  0.00     0.000 C 
BRANCH  11  12
ATOM     12  C   UNL     1      13.247   2.729 -20.891  1.00  0.00    -0.000 C 
BRANCH  12  13
ATOM     13  C   UNL     1      13.237   3.881 -19.867  1.00  0.00    -0.000 C 
BRANCH  13  14
ATOM     14  C   UNL     1      13.857   5.203 -20.363  1.00  0.00    -0.000 C 
BRANCH  14  15
ATOM     15  C   UNL     1      15.151   5.047 -21.183  1.00  0.00    -0.000 C 
BRANCH  15  16
ATOM     16  C   UNL     1      16.224   6.079 -20.806  1.00  0.00    -0.000 C 
BRANCH  16  17
ATOM     17  C   UNL     1      17.334   6.125 -21.861  1.00  0.00    -0.003 C 
ATOM     18  C   UNL     1      17.256   4.920 -22.795  1.00  0.00     0.004 C 
ENDBRANCH  16  17
ENDBRANCH  15  16
ENDBRANCH  14  15
ENDBRANCH  13  14
ENDBRANCH  12  13
ENDBRANCH  11  12
ENDBRANCH   1  11
TORSDOF 14
ENDMDL
