MODEL 1
REMARK VINA RESULT:    -4.205      0.000      0.000
REMARK INTER + INTRA:          -8.922
REMARK INTER:                  -7.154
REMARK INTRA:                  -1.768
REMARK UNBOUND:                -1.768
REMARK SMILES CCCCCCCCCCCCCC(=O)[O-]
REMARK SMILES IDX 8 1 9 2 10 3 11 4 12 5 13 6 14 7 15 8 16 9 7 10 6 11 5 12
REMARK SMILES IDX 4 13 3 14 2 15 1 16
REMARK H PARENT
REMARK Flexibility Score: inf
ROOT
ATOM      1  C   UNL     1      16.283  55.833 156.316  1.00  0.00     0.000 C 
ENDROOT
BRANCH   1   2
ATOM      2  C   UNL     1      16.544  56.322 157.745  1.00  0.00     0.000 C 
BRANCH   2   3
ATOM      3  C   UNL     1      17.126  55.199 158.617  1.00  0.00     0.000 C 
BRANCH   3   4
ATOM      4  C   UNL     1      18.270  54.444 157.906  1.00  0.00     0.000 C 
BRANCH   4   5
ATOM      5  C   UNL     1      19.252  53.762 158.874  1.00  0.00     0.006 C 
BRANCH   5   6
ATOM      6  C   UNL     1      18.762  53.773 160.327  1.00  0.00     0.053 C 
BRANCH   6   7
ATOM      7  C   UNL     1      19.639  54.645 161.167  1.00  0.00     0.041 C 
ATOM      8  O   UNL     1      19.940  55.804 160.779  1.00  0.00    -0.550 OA
ATOM      9  O   UNL     1      20.086  54.196 162.404  1.00  0.00    -0.550 OA
ENDBRANCH   6   7
ENDBRANCH   5   6
ENDBRANCH   4   5
ENDBRANCH   3   4
ENDBRANCH   2   3
ENDBRANCH   1   2
BRANCH   1  10
ATOM     10  C   UNL     1      14.794  55.520 156.106  1.00  0.00     0.000 C 
BRANCH  10  11
ATOM     11  C   UNL     1      14.509  54.013 155.994  1.00  0.00    -0.000 C 
BRANCH  11  12
ATOM     12  C   UNL     1      13.677  53.420 157.149  1.00  0.00    -0.000 C 
BRANCH  12  13
ATOM     13  C   UNL     1      14.476  52.602 158.182  1.00  0.00    -0.000 C 
BRANCH  13  14
ATOM     14  C   UNL     1      15.711  51.876 157.619  1.00  0.00    -0.000 C 
BRANCH  14  15
ATOM     15  C   UNL     1      16.529  51.162 158.705  1.00  0.00    -0.003 C 
ATOM     16  C   UNL     1      15.684  50.908 159.950  1.00  0.00     0.004 C 
ENDBRANCH  14  15
ENDBRANCH  13  14
ENDBRANCH  12  13
ENDBRANCH  11  12
ENDBRANCH  10  11
ENDBRANCH   1  10
TORSDOF 12
ENDMDL
MODEL 2
REMARK VINA RESULT:    -4.141      1.589      3.462
REMARK INTER + INTRA:          -8.813
REMARK INTER:                  -7.391
REMARK INTRA:                  -1.422
REMARK UNBOUND:                -1.768
REMARK SMILES CCCCCCCCCCCCCC(=O)[O-]
REMARK SMILES IDX 8 1 9 2 10 3 11 4 12 5 13 6 14 7 15 8 16 9 7 10 6 11 5 12
REMARK SMILES IDX 4 13 3 14 2 15 1 16
REMARK H PARENT
REMARK Flexibility Score: inf
ROOT
ATOM      1  C   UNL     1      16.347  51.669 158.590  1.00  0.00     0.000 C 
ENDROOT
BRANCH   1   2
ATOM      2  C   UNL     1      17.535  52.602 158.854  1.00  0.00     0.000 C 
BRANCH   2   3
ATOM      3  C   UNL     1      17.391  53.310 160.210  1.00  0.00     0.000 C 
BRANCH   3   4
ATOM      4  C   UNL     1      18.706  53.987 160.654  1.00  0.00     0.000 C 
BRANCH   4   5
ATOM      5  C   UNL     1      19.822  53.915 159.599  1.00  0.00     0.006 C 
BRANCH   5   6
ATOM      6  C   UNL     1      21.152  53.409 160.170  1.00  0.00     0.053 C 
BRANCH   6   7
ATOM      7  C   UNL     1      22.076  54.555 160.433  1.00  0.00     0.041 C 
ATOM      8  O   UNL     1      21.649  55.738 160.385  1.00  0.00    -0.550 OA
ATOM      9  O   UNL     1      23.400  54.315 160.781  1.00  0.00    -0.550 OA
ENDBRANCH   6   7
ENDBRANCH   5   6
ENDBRANCH   4   5
ENDBRANCH   3   4
ENDBRANCH   2   3
ENDBRANCH   1   2
BRANCH   1  10
ATOM     10  C   UNL     1      15.098  52.140 159.350  1.00  0.00     0.000 C 
BRANCH  10  11
ATOM     11  C   UNL     1      14.023  52.732 158.423  1.00  0.00    -0.000 C 
BRANCH  11  12
ATOM     12  C   UNL     1      14.386  52.739 156.925  1.00  0.00    -0.000 C 
BRANCH  12  13
ATOM     13  C   UNL     1      14.346  54.122 156.246  1.00  0.00    -0.000 C 
BRANCH  13  14
ATOM     14  C   UNL     1      15.688  54.874 156.226  1.00  0.00    -0.000 C 
BRANCH  14  15
ATOM     15  C   UNL     1      15.669  56.152 157.077  1.00  0.00    -0.003 C 
ATOM     16  C   UNL     1      16.858  56.192 158.033  1.00  0.00     0.004 C 
ENDBRANCH  14  15
ENDBRANCH  13  14
ENDBRANCH  12  13
ENDBRANCH  11  12
ENDBRANCH  10  11
ENDBRANCH   1  10
TORSDOF 12
ENDMDL
MODEL 3
REMARK VINA RESULT:    -4.136      1.181      3.452
REMARK INTER + INTRA:          -8.805
REMARK INTER:                  -7.124
REMARK INTRA:                  -1.681
REMARK UNBOUND:                -1.768
REMARK SMILES CCCCCCCCCCCCCC(=O)[O-]
REMARK SMILES IDX 8 1 9 2 10 3 11 4 12 5 13 6 14 7 15 8 16 9 7 10 6 11 5 12
REMARK SMILES IDX 4 13 3 14 2 15 1 16
REMARK H PARENT
REMARK Flexibility Score: inf
ROOT
ATOM      1  C   UNL     1      14.391  52.241 159.008  1.00  0.00     0.000 C 
ENDROOT
BRANCH   1   2
ATOM      2  C   UNL     1      15.695  51.703 159.608  1.00  0.00     0.000 C 
BRANCH   2   3
ATOM      3  C   UNL     1      16.905  52.102 158.749  1.00  0.00     0.000 C 
BRANCH   3   4
ATOM      4  C   UNL     1      17.663  53.311 159.338  1.00  0.00     0.000 C 
BRANCH   4   5
ATOM      5  C   UNL     1      19.021  53.573 158.664  1.00  0.00     0.006 C 
BRANCH   5   6
ATOM      6  C   UNL     1      19.827  54.678 159.357  1.00  0.00     0.053 C 
BRANCH   6   7
ATOM      7  C   UNL     1      20.683  54.099 160.438  1.00  0.00     0.041 C 
ATOM      8  O   UNL     1      21.820  53.632 160.165  1.00  0.00    -0.550 OA
ATOM      9  O   UNL     1      20.246  54.119 161.756  1.00  0.00    -0.550 OA
ENDBRANCH   6   7
ENDBRANCH   5   6
ENDBRANCH   4   5
ENDBRANCH   3   4
ENDBRANCH   2   3
ENDBRANCH   1   2
BRANCH   1  10
ATOM     10  C   UNL     1      14.529  52.455 157.494  1.00  0.00     0.000 C 
BRANCH  10  11
ATOM     11  C   UNL     1      13.654  53.607 156.970  1.00  0.00    -0.000 C 
BRANCH  11  12
ATOM     12  C   UNL     1      14.402  54.662 156.129  1.00  0.00    -0.000 C 
BRANCH  12  13
ATOM     13  C   UNL     1      15.899  54.378 155.900  1.00  0.00    -0.000 C 
BRANCH  13  14
ATOM     14  C   UNL     1      16.851  55.481 156.393  1.00  0.00    -0.000 C 
BRANCH  14  15
ATOM     15  C   UNL     1      16.153  56.514 157.291  1.00  0.00    -0.003 C 
ATOM     16  C   UNL     1      17.064  56.950 158.435  1.00  0.00     0.004 C 
ENDBRANCH  14  15
ENDBRANCH  13  14
ENDBRANCH  12  13
ENDBRANCH  11  12
ENDBRANCH  10  11
ENDBRANCH   1  10
TORSDOF 12
ENDMDL
MODEL 4
REMARK VINA RESULT:    -4.130      1.639      2.930
REMARK INTER + INTRA:          -8.795
REMARK INTER:                  -6.882
REMARK INTRA:                  -1.913
REMARK UNBOUND:                -1.768
REMARK SMILES CCCCCCCCCCCCCC(=O)[O-]
REMARK SMILES IDX 8 1 9 2 10 3 11 4 12 5 13 6 14 7 15 8 16 9 7 10 6 11 5 12
REMARK SMILES IDX 4 13 3 14 2 15 1 16
REMARK H PARENT
REMARK Flexibility Score: inf
ROOT
ATOM      1  C   UNL     1      18.460  53.680 157.562  1.00  0.00     0.000 C 
ENDROOT
BRANCH   1   2
ATOM      2  C   UNL     1      19.535  54.077 158.580  1.00  0.00     0.000 C 
BRANCH   2   3
ATOM      3  C   UNL     1      19.308  53.374 159.928  1.00  0.00     0.000 C 
BRANCH   3   4
ATOM      4  C   UNL     1      18.203  54.058 160.761  1.00  0.00     0.000 C 
BRANCH   4   5
ATOM      5  C   UNL     1      18.592  55.456 161.270  1.00  0.00     0.006 C 
BRANCH   5   6
ATOM      6  C   UNL     1      17.725  56.571 160.674  1.00  0.00     0.053 C 
BRANCH   6   7
ATOM      7  C   UNL     1      18.559  57.490 159.840  1.00  0.00     0.041 C 
ATOM      8  O   UNL     1      19.809  57.348 159.796  1.00  0.00    -0.550 OA
ATOM      9  O   UNL     1      17.952  58.475 159.071  1.00  0.00    -0.550 OA
ENDBRANCH   6   7
ENDBRANCH   5   6
ENDBRANCH   4   5
ENDBRANCH   3   4
ENDBRANCH   2   3
ENDBRANCH   1   2
BRANCH   1  10
ATOM     10  C   UNL     1      17.600  54.891 157.170  1.00  0.00     0.000 C 
BRANCH  10  11
ATOM     11  C   UNL     1      16.195  54.853 157.795  1.00  0.00    -0.000 C 
BRANCH  11  12
ATOM     12  C   UNL     1      15.140  54.079 156.978  1.00  0.00    -0.000 C 
BRANCH  12  13
ATOM     13  C   UNL     1      14.955  52.602 157.377  1.00  0.00    -0.000 C 
BRANCH  13  14
ATOM     14  C   UNL     1      14.418  52.377 158.801  1.00  0.00    -0.000 C 
BRANCH  14  15
ATOM     15  C   UNL     1      15.432  51.677 159.717  1.00  0.00    -0.003 C 
ATOM     16  C   UNL     1      16.462  50.901 158.902  1.00  0.00     0.004 C 
ENDBRANCH  14  15
ENDBRANCH  13  14
ENDBRANCH  12  13
ENDBRANCH  11  12
ENDBRANCH  10  11
ENDBRANCH   1  10
TORSDOF 12
ENDMDL
MODEL 5
REMARK VINA RESULT:    -4.120      0.937      1.502
REMARK INTER + INTRA:          -8.778
REMARK INTER:                  -7.000
REMARK INTRA:                  -1.778
REMARK UNBOUND:                -1.768
REMARK SMILES CCCCCCCCCCCCCC(=O)[O-]
REMARK SMILES IDX 8 1 9 2 10 3 11 4 12 5 13 6 14 7 15 8 16 9 7 10 6 11 5 12
REMARK SMILES IDX 4 13 3 14 2 15 1 16
REMARK H PARENT
REMARK Flexibility Score: inf
ROOT
ATOM      1  C   UNL     1      16.664  55.896 157.743  1.00  0.00     0.000 C 
ENDROOT
BRANCH   1   2
ATOM      2  C   UNL     1      17.785  54.998 157.207  1.00  0.00     0.000 C 
BRANCH   2   3
ATOM      3  C   UNL     1      18.490  54.251 158.351  1.00  0.00     0.000 C 
BRANCH   3   4
ATOM      4  C   UNL     1      17.724  54.374 159.685  1.00  0.00     0.000 C 
BRANCH   4   5
ATOM      5  C   UNL     1      18.575  54.022 160.918  1.00  0.00     0.006 C 
BRANCH   5   6
ATOM      6  C   UNL     1      20.025  53.673 160.562  1.00  0.00     0.053 C 
BRANCH   6   7
ATOM      7  C   UNL     1      20.955  54.728 161.070  1.00  0.00     0.041 C 
ATOM      8  O   UNL     1      21.118  54.887 162.307  1.00  0.00    -0.550 OA
ATOM      9  O   UNL     1      21.681  55.505 160.175  1.00  0.00    -0.550 OA
ENDBRANCH   6   7
ENDBRANCH   5   6
ENDBRANCH   4   5
ENDBRANCH   3   4
ENDBRANCH   2   3
ENDBRANCH   1   2
BRANCH   1  10
ATOM     10  C   UNL     1      15.458  55.897 156.792  1.00  0.00     0.000 C 
BRANCH  10  11
ATOM     11  C   UNL     1      15.117  54.496 156.257  1.00  0.00    -0.000 C 
BRANCH  11  12
ATOM     12  C   UNL     1      14.007  53.756 157.031  1.00  0.00    -0.000 C 
BRANCH  12  13
ATOM     13  C   UNL     1      14.495  52.633 157.967  1.00  0.00    -0.000 C 
BRANCH  13  14
ATOM     14  C   UNL     1      15.753  51.889 157.486  1.00  0.00    -0.000 C 
BRANCH  14  15
ATOM     15  C   UNL     1      16.468  51.135 158.617  1.00  0.00    -0.003 C 
ATOM     16  C   UNL     1      15.678  51.222 159.919  1.00  0.00     0.004 C 
ENDBRANCH  14  15
ENDBRANCH  13  14
ENDBRANCH  12  13
ENDBRANCH  11  12
ENDBRANCH  10  11
ENDBRANCH   1  10
TORSDOF 12
ENDMDL
MODEL 6
REMARK VINA RESULT:    -4.078      1.979      4.413
REMARK INTER + INTRA:          -8.706
REMARK INTER:                  -7.036
REMARK INTRA:                  -1.670
REMARK UNBOUND:                -1.768
REMARK SMILES CCCCCCCCCCCCCC(=O)[O-]
REMARK SMILES IDX 8 1 9 2 10 3 11 4 12 5 13 6 14 7 15 8 16 9 7 10 6 11 5 12
REMARK SMILES IDX 4 13 3 14 2 15 1 16
REMARK H PARENT
REMARK Flexibility Score: inf
ROOT
ATOM      1  C   UNL     1      13.988  52.808 158.386  1.00  0.00     0.000 C 
ENDROOT
BRANCH   1   2
ATOM      2  C   UNL     1      14.370  52.654 156.909  1.00  0.00     0.000 C 
BRANCH   2   3
ATOM      3  C   UNL     1      14.764  54.007 156.295  1.00  0.00     0.000 C 
BRANCH   3   4
ATOM      4  C   UNL     1      16.249  54.045 155.875  1.00  0.00     0.000 C 
BRANCH   4   5
ATOM      5  C   UNL     1      16.968  55.345 156.275  1.00  0.00     0.006 C 
BRANCH   5   6
ATOM      6  C   UNL     1      16.303  56.054 157.460  1.00  0.00     0.053 C 
BRANCH   6   7
ATOM      7  C   UNL     1      17.181  57.154 157.968  1.00  0.00     0.041 C 
ATOM      8  O   UNL     1      18.431  57.071 157.855  1.00  0.00    -0.550 OA
ATOM      9  O   UNL     1      16.614  58.295 158.524  1.00  0.00    -0.550 OA
ENDBRANCH   6   7
ENDBRANCH   5   6
ENDBRANCH   4   5
ENDBRANCH   3   4
ENDBRANCH   2   3
ENDBRANCH   1   2
BRANCH   1  10
ATOM     10  C   UNL     1      14.858  51.908 159.275  1.00  0.00     0.000 C 
BRANCH  10  11
ATOM     11  C   UNL     1      16.187  51.512 158.608  1.00  0.00    -0.000 C 
BRANCH  11  12
ATOM     12  C   UNL     1      17.356  52.486 158.858  1.00  0.00    -0.000 C 
BRANCH  12  13
ATOM     13  C   UNL     1      17.254  53.316 160.153  1.00  0.00    -0.000 C 
BRANCH  13  14
ATOM     14  C   UNL     1      18.400  54.319 160.372  1.00  0.00    -0.000 C 
BRANCH  14  15
ATOM     15  C   UNL     1      19.571  54.107 159.401  1.00  0.00    -0.003 C 
ATOM     16  C   UNL     1      20.780  53.516 160.121  1.00  0.00     0.004 C 
ENDBRANCH  14  15
ENDBRANCH  13  14
ENDBRANCH  12  13
ENDBRANCH  11  12
ENDBRANCH  10  11
ENDBRANCH   1  10
TORSDOF 12
ENDMDL
MODEL 7
REMARK VINA RESULT:    -3.981      1.904      3.690
REMARK INTER + INTRA:          -8.541
REMARK INTER:                  -7.114
REMARK INTRA:                  -1.427
REMARK UNBOUND:                -1.768
REMARK SMILES CCCCCCCCCCCCCC(=O)[O-]
REMARK SMILES IDX 8 1 9 2 10 3 11 4 12 5 13 6 14 7 15 8 16 9 7 10 6 11 5 12
REMARK SMILES IDX 4 13 3 14 2 15 1 16
REMARK H PARENT
REMARK Flexibility Score: inf
ROOT
ATOM      1  C   UNL     1      14.613  54.077 156.892  1.00  0.00     0.000 C 
ENDROOT
BRANCH   1   2
ATOM      2  C   UNL     1      15.844  54.309 156.008  1.00  0.00     0.000 C 
BRANCH   2   3
ATOM      3  C   UNL     1      16.677  55.495 156.519  1.00  0.00     0.000 C 
BRANCH   3   4
ATOM      4  C   UNL     1      15.792  56.668 156.991  1.00  0.00     0.000 C 
BRANCH   4   5
ATOM      5  C   UNL     1      16.571  57.770 157.728  1.00  0.00     0.006 C 
BRANCH   5   6
ATOM      6  C   UNL     1      17.434  57.227 158.873  1.00  0.00     0.053 C 
BRANCH   6   7
ATOM      7  C   UNL     1      17.648  58.283 159.910  1.00  0.00     0.041 C 
ATOM      8  O   UNL     1      18.469  58.094 160.846  1.00  0.00    -0.550 OA
ATOM      9  O   UNL     1      16.978  59.496 159.816  1.00  0.00    -0.550 OA
ENDBRANCH   6   7
ENDBRANCH   5   6
ENDBRANCH   4   5
ENDBRANCH   3   4
ENDBRANCH   2   3
ENDBRANCH   1   2
BRANCH   1  10
ATOM     10  C   UNL     1      14.520  52.608 157.330  1.00  0.00     0.000 C 
BRANCH  10  11
ATOM     11  C   UNL     1      14.285  52.449 158.842  1.00  0.00    -0.000 C 
BRANCH  11  12
ATOM     12  C   UNL     1      15.419  51.736 159.606  1.00  0.00    -0.000 C 
BRANCH  12  13
ATOM     13  C   UNL     1      16.779  51.705 158.882  1.00  0.00    -0.000 C 
BRANCH  13  14
ATOM     14  C   UNL     1      17.621  52.985 159.029  1.00  0.00    -0.000 C 
BRANCH  14  15
ATOM     15  C   UNL     1      17.380  53.707 160.363  1.00  0.00    -0.003 C 
ATOM     16  C   UNL     1      18.699  54.120 161.008  1.00  0.00     0.004 C 
ENDBRANCH  14  15
ENDBRANCH  13  14
ENDBRANCH  12  13
ENDBRANCH  11  12
ENDBRANCH  10  11
ENDBRANCH   1  10
TORSDOF 12
ENDMDL
MODEL 8
REMARK VINA RESULT:    -3.964      2.512      4.778
REMARK INTER + INTRA:          -8.513
REMARK INTER:                  -6.814
REMARK INTRA:                  -1.699
REMARK UNBOUND:                -1.768
REMARK SMILES CCCCCCCCCCCCCC(=O)[O-]
REMARK SMILES IDX 8 1 9 2 10 3 11 4 12 5 13 6 14 7 15 8 16 9 7 10 6 11 5 12
REMARK SMILES IDX 4 13 3 14 2 15 1 16
REMARK H PARENT
REMARK Flexibility Score: inf
ROOT
ATOM      1  C   UNL     1      16.685  56.483 157.000  1.00  0.00     0.000 C 
ENDROOT
BRANCH   1   2
ATOM      2  C   UNL     1      15.445  55.588 156.901  1.00  0.00     0.000 C 
BRANCH   2   3
ATOM      3  C   UNL     1      15.708  54.375 155.994  1.00  0.00     0.000 C 
BRANCH   3   4
ATOM      4  C   UNL     1      15.948  53.084 156.804  1.00  0.00     0.000 C 
BRANCH   4   5
ATOM      5  C   UNL     1      15.194  53.050 158.145  1.00  0.00     0.006 C 
BRANCH   5   6
ATOM      6  C   UNL     1      16.067  52.564 159.308  1.00  0.00     0.053 C 
BRANCH   6   7
ATOM      7  C   UNL     1      15.759  51.136 159.631  1.00  0.00     0.041 C 
ATOM      8  O   UNL     1      14.656  50.829 160.154  1.00  0.00    -0.550 OA
ATOM      9  O   UNL     1      16.669  50.138 159.308  1.00  0.00    -0.550 OA
ENDBRANCH   6   7
ENDBRANCH   5   6
ENDBRANCH   4   5
ENDBRANCH   3   4
ENDBRANCH   2   3
ENDBRANCH   1   2
BRANCH   1  10
ATOM     10  C   UNL     1      17.026  56.790 158.466  1.00  0.00     0.000 C 
BRANCH  10  11
ATOM     11  C   UNL     1      18.183  55.931 159.003  1.00  0.00    -0.000 C 
BRANCH  11  12
ATOM     12  C   UNL     1      18.903  55.072 157.944  1.00  0.00    -0.000 C 
BRANCH  12  13
ATOM     13  C   UNL     1      19.645  53.838 158.493  1.00  0.00    -0.000 C 
BRANCH  13  14
ATOM     14  C   UNL     1      19.497  53.613 160.008  1.00  0.00    -0.000 C 
BRANCH  14  15
ATOM     15  C   UNL     1      20.820  53.785 160.769  1.00  0.00    -0.003 C 
ATOM     16  C   UNL     1      20.792  55.037 161.641  1.00  0.00     0.004 C 
ENDBRANCH  14  15
ENDBRANCH  13  14
ENDBRANCH  12  13
ENDBRANCH  11  12
ENDBRANCH  10  11
ENDBRANCH   1  10
TORSDOF 12
ENDMDL
MODEL 9
REMARK VINA RESULT:    -3.937      2.470      4.131
REMARK INTER + INTRA:          -8.466
REMARK INTER:                  -7.040
REMARK INTRA:                  -1.425
REMARK UNBOUND:                -1.768
REMARK SMILES CCCCCCCCCCCCCC(=O)[O-]
REMARK SMILES IDX 8 1 9 2 10 3 11 4 12 5 13 6 14 7 15 8 16 9 7 10 6 11 5 12
REMARK SMILES IDX 4 13 3 14 2 15 1 16
REMARK H PARENT
REMARK Flexibility Score: inf
ROOT
ATOM      1  C   UNL     1      18.234  53.467 157.833  1.00  0.00     0.000 C 
ENDROOT
BRANCH   1   2
ATOM      2  C   UNL     1      18.280  54.465 156.670  1.00  0.00     0.000 C 
BRANCH   2   3
ATOM      3  C   UNL     1      16.968  55.259 156.570  1.00  0.00     0.000 C 
BRANCH   3   4
ATOM      4  C   UNL     1      17.208  56.784 156.602  1.00  0.00     0.000 C 
BRANCH   4   5
ATOM      5  C   UNL     1      16.485  57.497 157.757  1.00  0.00     0.006 C 
BRANCH   5   6
ATOM      6  C   UNL     1      17.381  57.707 158.983  1.00  0.00     0.053 C 
BRANCH   6   7
ATOM      7  C   UNL     1      17.552  59.167 159.259  1.00  0.00     0.041 C 
ATOM      8  O   UNL     1      16.636  59.817 159.827  1.00  0.00    -0.550 OA
ATOM      9  O   UNL     1      18.745  59.801 158.933  1.00  0.00    -0.550 OA
ENDBRANCH   6   7
ENDBRANCH   5   6
ENDBRANCH   4   5
ENDBRANCH   3   4
ENDBRANCH   2   3
ENDBRANCH   1   2
BRANCH   1  10
ATOM     10  C   UNL     1      17.493  54.062 159.039  1.00  0.00     0.000 C 
BRANCH  10  11
ATOM     11  C   UNL     1      17.013  52.991 160.033  1.00  0.00    -0.000 C 
BRANCH  11  12
ATOM     12  C   UNL     1      16.391  51.735 159.388  1.00  0.00    -0.000 C 
BRANCH  12  13
ATOM     13  C   UNL     1      14.871  51.579 159.588  1.00  0.00    -0.000 C 
BRANCH  13  14
ATOM     14  C   UNL     1      14.008  52.598 158.822  1.00  0.00    -0.000 C 
BRANCH  14  15
ATOM     15  C   UNL     1      14.371  52.685 157.332  1.00  0.00    -0.003 C 
ATOM     16  C   UNL     1      13.584  53.794 156.640  1.00  0.00     0.004 C 
ENDBRANCH  14  15
ENDBRANCH  13  14
ENDBRANCH  12  13
ENDBRANCH  11  12
ENDBRANCH  10  11
ENDBRANCH   1  10
TORSDOF 12
ENDMDL
