MODEL 1
REMARK VINA RESULT:    -2.470      0.000      0.000
REMARK INTER + INTRA:          -2.790
REMARK INTER:                  -2.759
REMARK INTRA:                  -0.031
REMARK UNBOUND:                -0.031
REMARK SMILES CCCC(=O)[O-]
REMARK SMILES IDX 3 1 4 2 5 3 6 4 2 5 1 6
REMARK H PARENT
REMARK Flexibility Score: inf
ROOT
ATOM      1  C   UNL     1      58.428  17.983  50.011  1.00  0.00     0.052 C 
ENDROOT
BRANCH   1   2
ATOM      2  C   UNL     1      57.315  18.514  50.857  1.00  0.00     0.041 C 
ATOM      3  O   UNL     1      56.119  18.228  50.585  1.00  0.00    -0.550 OA
ATOM      4  O   UNL     1      57.595  19.366  51.917  1.00  0.00    -0.550 OA
ENDBRANCH   1   2
BRANCH   1   5
ATOM      5  C   UNL     1      58.184  16.511  49.667  1.00  0.00     0.003 C 
ATOM      6  C   UNL     1      58.393  16.250  48.178  1.00  0.00     0.004 C 
ENDBRANCH   1   5
TORSDOF 2
ENDMDL
MODEL 2
REMARK VINA RESULT:    -2.465      0.189      1.329
REMARK INTER + INTRA:          -2.784
REMARK INTER:                  -2.762
REMARK INTRA:                  -0.022
REMARK UNBOUND:                -0.031
REMARK SMILES CCCC(=O)[O-]
REMARK SMILES IDX 3 1 4 2 5 3 6 4 2 5 1 6
REMARK H PARENT
REMARK Flexibility Score: inf
ROOT
ATOM      1  C   UNL     1      58.542  17.956  49.953  1.00  0.00     0.052 C 
ENDROOT
BRANCH   1   2
ATOM      2  C   UNL     1      57.523  18.608  50.832  1.00  0.00     0.041 C 
ATOM      3  O   UNL     1      57.887  19.354  51.780  1.00  0.00    -0.550 OA
ATOM      4  O   UNL     1      56.172  18.354  50.636  1.00  0.00    -0.550 OA
ENDBRANCH   1   2
BRANCH   1   5
ATOM      5  C   UNL     1      58.108  16.533  49.594  1.00  0.00     0.003 C 
ATOM      6  C   UNL     1      58.455  16.200  48.145  1.00  0.00     0.004 C 
ENDBRANCH   1   5
TORSDOF 2
ENDMDL
MODEL 3
REMARK VINA RESULT:    -2.421      8.975     10.257
REMARK INTER + INTRA:          -2.735
REMARK INTER:                  -2.725
REMARK INTRA:                  -0.010
REMARK UNBOUND:                -0.031
REMARK SMILES CCCC(=O)[O-]
REMARK SMILES IDX 3 1 4 2 5 3 6 4 2 5 1 6
REMARK H PARENT
REMARK Flexibility Score: inf
ROOT
ATOM      1  C   UNL     1      55.156  27.638  50.619  1.00  0.00     0.052 C 
ENDROOT
BRANCH   1   2
ATOM      2  C   UNL     1      55.474  26.214  50.293  1.00  0.00     0.041 C 
ATOM      3  O   UNL     1      56.554  25.699  50.686  1.00  0.00    -0.550 OA
ATOM      4  O   UNL     1      54.599  25.468  49.513  1.00  0.00    -0.550 OA
ENDBRANCH   1   2
BRANCH   1   5
ATOM      5  C   UNL     1      53.720  27.975  50.207  1.00  0.00     0.003 C 
ATOM      6  C   UNL     1      53.390  29.436  50.502  1.00  0.00     0.004 C 
ENDBRANCH   1   5
TORSDOF 2
ENDMDL
MODEL 4
REMARK VINA RESULT:    -2.410      2.516      3.468
REMARK INTER + INTRA:          -2.723
REMARK INTER:                  -2.695
REMARK INTRA:                  -0.028
REMARK UNBOUND:                -0.031
REMARK SMILES CCCC(=O)[O-]
REMARK SMILES IDX 3 1 4 2 5 3 6 4 2 5 1 6
REMARK H PARENT
REMARK Flexibility Score: inf
ROOT
ATOM      1  C   UNL     1      58.562  17.947  49.957  1.00  0.00     0.052 C 
ENDROOT
BRANCH   1   2
ATOM      2  C   UNL     1      58.832  16.626  49.310  1.00  0.00     0.041 C 
ATOM      3  O   UNL     1      59.739  15.875  49.757  1.00  0.00    -0.550 OA
ATOM      4  O   UNL     1      58.115  16.245  48.184  1.00  0.00    -0.550 OA
ENDBRANCH   1   2
BRANCH   1   5
ATOM      5  C   UNL     1      57.563  17.787  51.106  1.00  0.00     0.003 C 
ATOM      6  C   UNL     1      56.248  18.496  50.796  1.00  0.00     0.004 C 
ENDBRANCH   1   5
TORSDOF 2
ENDMDL
MODEL 5
REMARK VINA RESULT:    -2.378      2.533      3.251
REMARK INTER + INTRA:          -2.686
REMARK INTER:                  -2.647
REMARK INTRA:                  -0.039
REMARK UNBOUND:                -0.031
REMARK SMILES CCCC(=O)[O-]
REMARK SMILES IDX 3 1 4 2 5 3 6 4 2 5 1 6
REMARK H PARENT
REMARK Flexibility Score: inf
ROOT
ATOM      1  C   UNL     1      58.587  18.011  49.802  1.00  0.00     0.052 C 
ENDROOT
BRANCH   1   2
ATOM      2  C   UNL     1      58.828  16.681  49.163  1.00  0.00     0.041 C 
ATOM      3  O   UNL     1      58.052  16.259  48.265  1.00  0.00    -0.550 OA
ATOM      4  O   UNL     1      59.881  15.884  49.594  1.00  0.00    -0.550 OA
ENDBRANCH   1   2
BRANCH   1   5
ATOM      5  C   UNL     1      57.730  17.854  51.061  1.00  0.00     0.003 C 
ATOM      6  C   UNL     1      56.272  18.210  50.782  1.00  0.00     0.004 C 
ENDBRANCH   1   5
TORSDOF 2
ENDMDL
MODEL 6
REMARK VINA RESULT:    -2.341      9.736     10.923
REMARK INTER + INTRA:          -2.646
REMARK INTER:                  -2.637
REMARK INTRA:                  -0.008
REMARK UNBOUND:                -0.031
REMARK SMILES CCCC(=O)[O-]
REMARK SMILES IDX 3 1 4 2 5 3 6 4 2 5 1 6
REMARK H PARENT
REMARK Flexibility Score: inf
ROOT
ATOM      1  C   UNL     1      59.024  28.794  49.865  1.00  0.00     0.052 C 
ENDROOT
BRANCH   1   2
ATOM      2  C   UNL     1      59.836  27.538  49.831  1.00  0.00     0.041 C 
ATOM      3  O   UNL     1      61.087  27.595  49.699  1.00  0.00    -0.550 OA
ATOM      4  O   UNL     1      59.206  26.302  49.896  1.00  0.00    -0.550 OA
ENDBRANCH   1   2
BRANCH   1   5
ATOM      5  C   UNL     1      57.713  28.565  50.621  1.00  0.00     0.003 C 
ATOM      6  C   UNL     1      57.004  29.885  50.908  1.00  0.00     0.004 C 
ENDBRANCH   1   5
TORSDOF 2
ENDMDL
MODEL 7
REMARK VINA RESULT:    -2.334     21.204     21.737
REMARK INTER + INTRA:          -2.638
REMARK INTER:                  -2.653
REMARK INTRA:                   0.015
REMARK UNBOUND:                -0.031
REMARK SMILES CCCC(=O)[O-]
REMARK SMILES IDX 3 1 4 2 5 3 6 4 2 5 1 6
REMARK H PARENT
REMARK Flexibility Score: inf
ROOT
ATOM      1  C   UNL     1      64.295  34.249  60.871  1.00  0.00     0.052 C 
ENDROOT
BRANCH   1   2
ATOM      2  C   UNL     1      64.933  35.389  61.599  1.00  0.00     0.041 C 
ATOM      3  O   UNL     1      65.948  35.960  61.119  1.00  0.00    -0.550 OA
ATOM      4  O   UNL     1      64.438  35.789  62.834  1.00  0.00    -0.550 OA
ENDBRANCH   1   2
BRANCH   1   5
ATOM      5  C   UNL     1      63.377  34.769  59.761  1.00  0.00     0.003 C 
ATOM      6  C   UNL     1      62.285  35.672  60.327  1.00  0.00     0.004 C 
ENDBRANCH   1   5
TORSDOF 2
ENDMDL
MODEL 8
REMARK VINA RESULT:    -2.222      2.317      2.604
REMARK INTER + INTRA:          -2.513
REMARK INTER:                  -2.475
REMARK INTRA:                  -0.038
REMARK UNBOUND:                -0.031
REMARK SMILES CCCC(=O)[O-]
REMARK SMILES IDX 3 1 4 2 5 3 6 4 2 5 1 6
REMARK H PARENT
REMARK Flexibility Score: inf
ROOT
ATOM      1  C   UNL     1      58.620  18.068  49.864  1.00  0.00     0.052 C 
ENDROOT
BRANCH   1   2
ATOM      2  C   UNL     1      59.842  18.057  50.725  1.00  0.00     0.041 C 
ATOM      3  O   UNL     1      60.501  19.115  50.905  1.00  0.00    -0.550 OA
ATOM      4  O   UNL     1      60.283  16.867  51.289  1.00  0.00    -0.550 OA
ENDBRANCH   1   2
BRANCH   1   5
ATOM      5  C   UNL     1      58.127  16.640  49.613  1.00  0.00     0.003 C 
ATOM      6  C   UNL     1      58.407  16.205  48.178  1.00  0.00     0.004 C 
ENDBRANCH   1   5
TORSDOF 2
ENDMDL
MODEL 9
REMARK VINA RESULT:    -2.217      8.226      9.272
REMARK INTER + INTRA:          -2.507
REMARK INTER:                  -2.472
REMARK INTRA:                  -0.035
REMARK UNBOUND:                -0.031
REMARK SMILES CCCC(=O)[O-]
REMARK SMILES IDX 3 1 4 2 5 3 6 4 2 5 1 6
REMARK H PARENT
REMARK Flexibility Score: inf
ROOT
ATOM      1  C   UNL     1      59.834  26.816  50.857  1.00  0.00     0.052 C 
ENDROOT
BRANCH   1   2
ATOM      2  C   UNL     1      58.989  25.595  50.683  1.00  0.00     0.041 C 
ATOM      3  O   UNL     1      57.776  25.703  50.363  1.00  0.00    -0.550 OA
ATOM      4  O   UNL     1      59.528  24.337  50.921  1.00  0.00    -0.550 OA
ENDBRANCH   1   2
BRANCH   1   5
ATOM      5  C   UNL     1      59.735  27.717  49.622  1.00  0.00     0.003 C 
ATOM      6  C   UNL     1      58.976  29.002  49.937  1.00  0.00     0.004 C 
ENDBRANCH   1   5
TORSDOF 2
ENDMDL
