MODEL 1
REMARK VINA RESULT:    -6.670      0.000      0.000
REMARK INTER + INTRA:         -14.115
REMARK INTER:                 -12.129
REMARK INTRA:                  -1.986
REMARK UNBOUND:                -1.986
REMARK SMILES CCCCCC=CCC=CCCCCCCCC(=O)[O-]
REMARK SMILES IDX 11 1 12 2 13 3 14 4 15 5 16 6 17 7 18 8 19 9 20 10 10 11
REMARK SMILES IDX 9 12 8 13 7 14 6 15 5 16 4 17 3 18 2 19 1 20
REMARK H PARENT
REMARK Flexibility Score: inf
ROOT
ATOM      1  C   UNL     1       4.034  10.864  19.799  1.00  0.00     0.027 C 
ENDROOT
BRANCH   1   2
ATOM      2  C   UNL     1       5.203  11.861  19.792  1.00  0.00     0.004 C 
BRANCH   2   3
ATOM      3  C   UNL     1       6.454  11.305  19.092  1.00  0.00     0.000 C 
BRANCH   3   4
ATOM      4  C   UNL     1       6.411  11.497  17.566  1.00  0.00     0.000 C 
BRANCH   4   5
ATOM      5  C   UNL     1       5.822  12.856  17.150  1.00  0.00     0.000 C 
BRANCH   5   6
ATOM      6  C   UNL     1       5.462  12.992  15.657  1.00  0.00     0.006 C 
BRANCH   6   7
ATOM      7  C   UNL     1       3.952  13.130  15.385  1.00  0.00     0.053 C 
BRANCH   7   8
ATOM      8  C   UNL     1       3.420  12.031  14.515  1.00  0.00     0.041 C 
ATOM      9  O   UNL     1       2.257  12.103  14.039  1.00  0.00    -0.550 OA
ATOM     10  O   UNL     1       4.226  10.945  14.194  1.00  0.00    -0.550 OA
ENDBRANCH   7   8
ENDBRANCH   6   7
ENDBRANCH   5   6
ENDBRANCH   4   5
ENDBRANCH   3   4
ENDBRANCH   2   3
ENDBRANCH   1   2
BRANCH   1  11
ATOM     11  C   UNL     1       3.034  11.210  18.726  1.00  0.00    -0.031 C 
ATOM     12  C   UNL     1       2.687  10.385  17.722  1.00  0.00    -0.027 C 
BRANCH  12  13
ATOM     13  C   UNL     1       3.304   9.023  17.514  1.00  0.00     0.054 C 
BRANCH  13  14
ATOM     14  C   UNL     1       2.352   7.932  17.917  1.00  0.00    -0.027 C 
ATOM     15  C   UNL     1       1.093   8.205  18.290  1.00  0.00    -0.031 C 
BRANCH  15  16
ATOM     16  C   UNL     1       0.141   7.118  18.708  1.00  0.00     0.027 C 
BRANCH  16  17
ATOM     17  C   UNL     1       0.109   5.985  17.673  1.00  0.00     0.004 C 
BRANCH  17  18
ATOM     18  C   UNL     1       0.700   4.668  18.209  1.00  0.00     0.000 C 
BRANCH  18  19
ATOM     19  C   UNL     1       1.148   4.714  19.681  1.00  0.00    -0.003 C 
ATOM     20  C   UNL     1       2.609   4.311  19.874  1.00  0.00     0.004 C 
ENDBRANCH  18  19
ENDBRANCH  17  18
ENDBRANCH  16  17
ENDBRANCH  15  16
ENDBRANCH  13  14
ENDBRANCH  12  13
ENDBRANCH   1  11
TORSDOF 14
ENDMDL
MODEL 2
REMARK VINA RESULT:    -6.654      1.611      2.824
REMARK INTER + INTRA:         -14.086
REMARK INTER:                 -12.239
REMARK INTRA:                  -1.847
REMARK UNBOUND:                -1.986
REMARK SMILES CCCCCC=CCC=CCCCCCCCC(=O)[O-]
REMARK SMILES IDX 11 1 12 2 13 3 14 4 15 5 16 6 17 7 18 8 19 9 20 10 10 11
REMARK SMILES IDX 9 12 8 13 7 14 6 15 5 16 4 17 3 18 2 19 1 20
REMARK H PARENT
REMARK Flexibility Score: inf
ROOT
ATOM      1  C   UNL     1       6.033  11.540  17.687  1.00  0.00     0.027 C 
ENDROOT
BRANCH   1   2
ATOM      2  C   UNL     1       5.987  12.959  17.102  1.00  0.00     0.004 C 
BRANCH   2   3
ATOM      3  C   UNL     1       5.393  12.998  15.684  1.00  0.00     0.000 C 
BRANCH   3   4
ATOM      4  C   UNL     1       3.855  13.038  15.689  1.00  0.00     0.000 C 
BRANCH   4   5
ATOM      5  C   UNL     1       3.221  11.794  15.043  1.00  0.00     0.000 C 
BRANCH   5   6
ATOM      6  C   UNL     1       4.213  10.803  14.402  1.00  0.00     0.006 C 
BRANCH   6   7
ATOM      7  C   UNL     1       4.355   9.473  15.167  1.00  0.00     0.053 C 
BRANCH   7   8
ATOM      8  C   UNL     1       4.827   8.351  14.291  1.00  0.00     0.041 C 
ATOM      9  O   UNL     1       4.116   7.324  14.136  1.00  0.00    -0.550 OA
ATOM     10  O   UNL     1       6.034   8.459  13.611  1.00  0.00    -0.550 OA
ENDBRANCH   7   8
ENDBRANCH   6   7
ENDBRANCH   5   6
ENDBRANCH   4   5
ENDBRANCH   3   4
ENDBRANCH   2   3
ENDBRANCH   1   2
BRANCH   1  11
ATOM     11  C   UNL     1       5.546  11.537  19.114  1.00  0.00    -0.031 C 
ATOM     12  C   UNL     1       4.310  11.165  19.490  1.00  0.00    -0.027 C 
BRANCH  12  13
ATOM     13  C   UNL     1       3.232  10.755  18.515  1.00  0.00     0.054 C 
BRANCH  13  14
ATOM     14  C   UNL     1       3.124   9.258  18.428  1.00  0.00    -0.027 C 
ATOM     15  C   UNL     1       1.973   8.659  18.088  1.00  0.00    -0.031 C 
BRANCH  15  16
ATOM     16  C   UNL     1       1.855   7.162  18.014  1.00  0.00     0.027 C 
BRANCH  16  17
ATOM     17  C   UNL     1       0.630   6.666  18.795  1.00  0.00     0.004 C 
BRANCH  17  18
ATOM     18  C   UNL     1       0.473   5.135  18.752  1.00  0.00     0.000 C 
BRANCH  18  19
ATOM     19  C   UNL     1       1.795   4.348  18.827  1.00  0.00    -0.003 C 
ATOM     20  C   UNL     1       2.431   4.381  20.216  1.00  0.00     0.004 C 
ENDBRANCH  18  19
ENDBRANCH  17  18
ENDBRANCH  16  17
ENDBRANCH  15  16
ENDBRANCH  13  14
ENDBRANCH  12  13
ENDBRANCH   1  11
TORSDOF 14
ENDMDL
MODEL 3
REMARK VINA RESULT:    -6.585      1.344      2.004
REMARK INTER + INTRA:         -13.960
REMARK INTER:                 -12.099
REMARK INTRA:                  -1.861
REMARK UNBOUND:                -1.986
REMARK SMILES CCCCCC=CCC=CCCCCCCCC(=O)[O-]
REMARK SMILES IDX 11 1 12 2 13 3 14 4 15 5 16 6 17 7 18 8 19 9 20 10 10 11
REMARK SMILES IDX 9 12 8 13 7 14 6 15 5 16 4 17 3 18 2 19 1 20
REMARK H PARENT
REMARK Flexibility Score: inf
ROOT
ATOM      1  C   UNL     1       4.993  11.291  19.212  1.00  0.00     0.027 C 
ENDROOT
BRANCH   1   2
ATOM      2  C   UNL     1       5.813  12.336  18.442  1.00  0.00     0.004 C 
BRANCH   2   3
ATOM      3  C   UNL     1       5.860  12.060  16.930  1.00  0.00     0.000 C 
BRANCH   3   4
ATOM      4  C   UNL     1       5.279  13.218  16.100  1.00  0.00     0.000 C 
BRANCH   4   5
ATOM      5  C   UNL     1       4.537  12.739  14.841  1.00  0.00     0.000 C 
BRANCH   5   6
ATOM      6  C   UNL     1       3.841  11.370  14.963  1.00  0.00     0.006 C 
BRANCH   6   7
ATOM      7  C   UNL     1       4.101  10.424  13.775  1.00  0.00     0.053 C 
BRANCH   7   8
ATOM      8  C   UNL     1       4.531   9.055  14.210  1.00  0.00     0.041 C 
ATOM      9  O   UNL     1       5.259   8.911  15.228  1.00  0.00    -0.550 OA
ATOM     10  O   UNL     1       4.093   7.934  13.516  1.00  0.00    -0.550 OA
ENDBRANCH   7   8
ENDBRANCH   6   7
ENDBRANCH   5   6
ENDBRANCH   4   5
ENDBRANCH   3   4
ENDBRANCH   2   3
ENDBRANCH   1   2
BRANCH   1  11
ATOM     11  C   UNL     1       3.517  11.498  18.983  1.00  0.00    -0.031 C 
ATOM     12  C   UNL     1       2.706  10.590  18.410  1.00  0.00    -0.027 C 
BRANCH  12  13
ATOM     13  C   UNL     1       3.190   9.265  17.873  1.00  0.00     0.054 C 
BRANCH  13  14
ATOM     14  C   UNL     1       2.292   8.143  18.315  1.00  0.00    -0.027 C 
ATOM     15  C   UNL     1       0.957   8.265  18.290  1.00  0.00    -0.031 C 
BRANCH  15  16
ATOM     16  C   UNL     1       0.055   7.151  18.744  1.00  0.00     0.027 C 
BRANCH  16  17
ATOM     17  C   UNL     1      -0.009   6.031  17.695  1.00  0.00     0.004 C 
BRANCH  17  18
ATOM     18  C   UNL     1       0.826   4.797  18.086  1.00  0.00     0.000 C 
BRANCH  18  19
ATOM     19  C   UNL     1       1.153   4.689  19.587  1.00  0.00    -0.003 C 
ATOM     20  C   UNL     1       2.626   4.387  19.857  1.00  0.00     0.004 C 
ENDBRANCH  18  19
ENDBRANCH  17  18
ENDBRANCH  16  17
ENDBRANCH  15  16
ENDBRANCH  13  14
ENDBRANCH  12  13
ENDBRANCH   1  11
TORSDOF 14
ENDMDL
MODEL 4
REMARK VINA RESULT:    -6.581      2.290      3.893
REMARK INTER + INTRA:         -13.953
REMARK INTER:                 -12.093
REMARK INTRA:                  -1.860
REMARK UNBOUND:                -1.986
REMARK SMILES CCCCCC=CCC=CCCCCCCCC(=O)[O-]
REMARK SMILES IDX 11 1 12 2 13 3 14 4 15 5 16 6 17 7 18 8 19 9 20 10 10 11
REMARK SMILES IDX 9 12 8 13 7 14 6 15 5 16 4 17 3 18 2 19 1 20
REMARK H PARENT
REMARK Flexibility Score: inf
ROOT
ATOM      1  C   UNL     1       3.786  11.478  14.342  1.00  0.00     0.027 C 
ENDROOT
BRANCH   1   2
ATOM      2  C   UNL     1       4.795  12.616  14.555  1.00  0.00     0.004 C 
BRANCH   2   3
ATOM      3  C   UNL     1       4.805  13.137  16.002  1.00  0.00     0.000 C 
BRANCH   3   4
ATOM      4  C   UNL     1       3.388  13.345  16.564  1.00  0.00     0.000 C 
BRANCH   4   5
ATOM      5  C   UNL     1       3.063  12.402  17.734  1.00  0.00     0.000 C 
BRANCH   5   6
ATOM      6  C   UNL     1       3.845  12.668  19.035  1.00  0.00     0.006 C 
BRANCH   6   7
ATOM      7  C   UNL     1       4.471  11.406  19.661  1.00  0.00     0.053 C 
BRANCH   7   8
ATOM      8  C   UNL     1       5.968  11.398  19.569  1.00  0.00     0.041 C 
ATOM      9  O   UNL     1       6.537  11.606  18.465  1.00  0.00    -0.550 OA
ATOM     10  O   UNL     1       6.735  11.204  20.711  1.00  0.00    -0.550 OA
ENDBRANCH   7   8
ENDBRANCH   6   7
ENDBRANCH   5   6
ENDBRANCH   4   5
ENDBRANCH   3   4
ENDBRANCH   2   3
ENDBRANCH   1   2
BRANCH   1  11
ATOM     11  C   UNL     1       4.499  10.181  14.054  1.00  0.00    -0.031 C 
ATOM     12  C   UNL     1       4.778   9.250  14.982  1.00  0.00    -0.027 C 
BRANCH  12  13
ATOM     13  C   UNL     1       4.457   9.415  16.448  1.00  0.00     0.054 C 
BRANCH  13  14
ATOM     14  C   UNL     1       3.317   8.524  16.855  1.00  0.00    -0.027 C 
ATOM     15  C   UNL     1       2.698   8.676  18.036  1.00  0.00    -0.031 C 
BRANCH  15  16
ATOM     16  C   UNL     1       1.567   7.778  18.453  1.00  0.00     0.027 C 
BRANCH  16  17
ATOM     17  C   UNL     1       1.801   6.338  17.975  1.00  0.00     0.004 C 
BRANCH  17  18
ATOM     18  C   UNL     1       0.733   5.355  18.492  1.00  0.00     0.000 C 
BRANCH  18  19
ATOM     19  C   UNL     1       1.157   4.530  19.721  1.00  0.00    -0.003 C 
ATOM     20  C   UNL     1       2.671   4.351  19.827  1.00  0.00     0.004 C 
ENDBRANCH  18  19
ENDBRANCH  17  18
ENDBRANCH  16  17
ENDBRANCH  15  16
ENDBRANCH  13  14
ENDBRANCH  12  13
ENDBRANCH   1  11
TORSDOF 14
ENDMDL
MODEL 5
REMARK VINA RESULT:    -6.562      2.251      3.630
REMARK INTER + INTRA:         -13.919
REMARK INTER:                 -11.846
REMARK INTRA:                  -2.073
REMARK UNBOUND:                -1.986
REMARK SMILES CCCCCC=CCC=CCCCCCCCC(=O)[O-]
REMARK SMILES IDX 11 1 12 2 13 3 14 4 15 5 16 6 17 7 18 8 19 9 20 10 10 11
REMARK SMILES IDX 9 12 8 13 7 14 6 15 5 16 4 17 3 18 2 19 1 20
REMARK H PARENT
REMARK Flexibility Score: inf
ROOT
ATOM      1  C   UNL     1       3.878  10.381  14.368  1.00  0.00     0.027 C 
ENDROOT
BRANCH   1   2
ATOM      2  C   UNL     1       4.325  11.850  14.320  1.00  0.00     0.004 C 
BRANCH   2   3
ATOM      3  C   UNL     1       3.446  12.766  15.188  1.00  0.00     0.000 C 
BRANCH   3   4
ATOM      4  C   UNL     1       4.251  13.494  16.279  1.00  0.00     0.000 C 
BRANCH   4   5
ATOM      5  C   UNL     1       5.713  13.024  16.360  1.00  0.00     0.000 C 
BRANCH   5   6
ATOM      6  C   UNL     1       6.102  12.288  17.657  1.00  0.00     0.006 C 
BRANCH   6   7
ATOM      7  C   UNL     1       5.078  12.444  18.799  1.00  0.00     0.053 C 
BRANCH   7   8
ATOM      8  C   UNL     1       5.292  11.453  19.904  1.00  0.00     0.041 C 
ATOM      9  O   UNL     1       4.332  10.760  20.331  1.00  0.00    -0.550 OA
ATOM     10  O   UNL     1       6.563  11.264  20.434  1.00  0.00    -0.550 OA
ENDBRANCH   7   8
ENDBRANCH   6   7
ENDBRANCH   5   6
ENDBRANCH   4   5
ENDBRANCH   3   4
ENDBRANCH   2   3
ENDBRANCH   1   2
BRANCH   1  11
ATOM     11  C   UNL     1       4.738   9.595  15.324  1.00  0.00    -0.031 C 
ATOM     12  C   UNL     1       4.366   9.257  16.571  1.00  0.00    -0.027 C 
BRANCH  12  13
ATOM     13  C   UNL     1       3.054   9.674  17.190  1.00  0.00     0.054 C 
BRANCH  13  14
ATOM     14  C   UNL     1       2.431   8.539  17.954  1.00  0.00    -0.027 C 
ATOM     15  C   UNL     1       1.109   8.487  18.174  1.00  0.00    -0.031 C 
BRANCH  15  16
ATOM     16  C   UNL     1       0.484   7.361  18.950  1.00  0.00     0.027 C 
BRANCH  16  17
ATOM     17  C   UNL     1       0.055   6.219  18.017  1.00  0.00     0.004 C 
BRANCH  17  18
ATOM     18  C   UNL     1       1.000   5.005  18.086  1.00  0.00     0.000 C 
BRANCH  18  19
ATOM     19  C   UNL     1       1.195   4.418  19.496  1.00  0.00    -0.003 C 
ATOM     20  C   UNL     1       2.657   4.399  19.938  1.00  0.00     0.004 C 
ENDBRANCH  18  19
ENDBRANCH  17  18
ENDBRANCH  16  17
ENDBRANCH  15  16
ENDBRANCH  13  14
ENDBRANCH  12  13
ENDBRANCH   1  11
TORSDOF 14
ENDMDL
MODEL 6
REMARK VINA RESULT:    -6.361      3.039      6.498
REMARK INTER + INTRA:         -13.553
REMARK INTER:                 -11.573
REMARK INTRA:                  -1.980
REMARK UNBOUND:                -1.986
REMARK SMILES CCCCCC=CCC=CCCCCCCCC(=O)[O-]
REMARK SMILES IDX 11 1 12 2 13 3 14 4 15 5 16 6 17 7 18 8 19 9 20 10 10 11
REMARK SMILES IDX 9 12 8 13 7 14 6 15 5 16 4 17 3 18 2 19 1 20
REMARK H PARENT
REMARK Flexibility Score: inf
ROOT
ATOM      1  C   UNL     1       3.632  11.850  19.238  1.00  0.00     0.027 C 
ENDROOT
BRANCH   1   2
ATOM      2  C   UNL     1       2.771  10.919  18.372  1.00  0.00     0.004 C 
BRANCH   2   3
ATOM      3  C   UNL     1       3.429   9.549  18.135  1.00  0.00     0.000 C 
BRANCH   3   4
ATOM      4  C   UNL     1       2.436   8.502  17.603  1.00  0.00     0.000 C 
BRANCH   4   5
ATOM      5  C   UNL     1       1.033   8.640  18.216  1.00  0.00     0.000 C 
BRANCH   5   6
ATOM      6  C   UNL     1       0.389   7.326  18.700  1.00  0.00     0.006 C 
BRANCH   6   7
ATOM      7  C   UNL     1       1.347   6.408  19.482  1.00  0.00     0.053 C 
BRANCH   7   8
ATOM      8  C   UNL     1       1.412   5.022  18.912  1.00  0.00     0.041 C 
ATOM      9  O   UNL     1       0.746   4.726  17.885  1.00  0.00    -0.550 OA
ATOM     10  O   UNL     1       2.242   4.069  19.489  1.00  0.00    -0.550 OA
ENDBRANCH   7   8
ENDBRANCH   6   7
ENDBRANCH   5   6
ENDBRANCH   4   5
ENDBRANCH   3   4
ENDBRANCH   2   3
ENDBRANCH   1   2
BRANCH   1  11
ATOM     11  C   UNL     1       4.918  11.169  19.634  1.00  0.00    -0.031 C 
ATOM     12  C   UNL     1       6.133  11.524  19.179  1.00  0.00    -0.027 C 
BRANCH  12  13
ATOM     13  C   UNL     1       6.352  12.621  18.166  1.00  0.00     0.054 C 
BRANCH  13  14
ATOM     14  C   UNL     1       5.903  12.191  16.797  1.00  0.00    -0.027 C 
ATOM     15  C   UNL     1       5.071  12.947  16.065  1.00  0.00    -0.031 C 
BRANCH  15  16
ATOM     16  C   UNL     1       4.607  12.513  14.702  1.00  0.00     0.027 C 
BRANCH  16  17
ATOM     17  C   UNL     1       3.779  11.222  14.786  1.00  0.00     0.004 C 
BRANCH  17  18
ATOM     18  C   UNL     1       4.339  10.094  13.899  1.00  0.00     0.000 C 
BRANCH  18  19
ATOM     19  C   UNL     1       4.862   8.868  14.669  1.00  0.00    -0.003 C 
ATOM     20  C   UNL     1       4.273   7.551  14.164  1.00  0.00     0.004 C 
ENDBRANCH  18  19
ENDBRANCH  17  18
ENDBRANCH  16  17
ENDBRANCH  15  16
ENDBRANCH  13  14
ENDBRANCH  12  13
ENDBRANCH   1  11
TORSDOF 14
ENDMDL
MODEL 7
REMARK VINA RESULT:    -6.296      2.901      6.848
REMARK INTER + INTRA:         -13.435
REMARK INTER:                 -11.430
REMARK INTRA:                  -2.006
REMARK UNBOUND:                -1.986
REMARK SMILES CCCCCC=CCC=CCCCCCCCC(=O)[O-]
REMARK SMILES IDX 11 1 12 2 13 3 14 4 15 5 16 6 17 7 18 8 19 9 20 10 10 11
REMARK SMILES IDX 9 12 8 13 7 14 6 15 5 16 4 17 3 18 2 19 1 20
REMARK H PARENT
REMARK Flexibility Score: inf
ROOT
ATOM      1  C   UNL     1       4.566  10.079  14.537  1.00  0.00     0.027 C 
ENDROOT
BRANCH   1   2
ATOM      2  C   UNL     1       4.272   8.838  15.391  1.00  0.00     0.004 C 
BRANCH   2   3
ATOM      3  C   UNL     1       3.681   9.189  16.766  1.00  0.00     0.000 C 
BRANCH   3   4
ATOM      4  C   UNL     1       2.879   8.026  17.378  1.00  0.00     0.000 C 
BRANCH   4   5
ATOM      5  C   UNL     1       1.633   8.497  18.146  1.00  0.00     0.000 C 
BRANCH   5   6
ATOM      6  C   UNL     1       0.715   7.375  18.670  1.00  0.00     0.006 C 
BRANCH   6   7
ATOM      7  C   UNL     1       1.460   6.248  19.412  1.00  0.00     0.053 C 
BRANCH   7   8
ATOM      8  C   UNL     1       1.288   4.912  18.754  1.00  0.00     0.041 C 
ATOM      9  O   UNL     1       0.481   4.774  17.797  1.00  0.00    -0.550 OA
ATOM     10  O   UNL     1       2.051   3.828  19.169  1.00  0.00    -0.550 OA
ENDBRANCH   7   8
ENDBRANCH   6   7
ENDBRANCH   5   6
ENDBRANCH   4   5
ENDBRANCH   3   4
ENDBRANCH   2   3
ENDBRANCH   1   2
BRANCH   1  11
ATOM     11  C   UNL     1       3.520  11.141  14.764  1.00  0.00    -0.031 C 
ATOM     12  C   UNL     1       3.795  12.420  15.072  1.00  0.00    -0.027 C 
BRANCH  12  13
ATOM     13  C   UNL     1       5.196  12.941  15.283  1.00  0.00     0.054 C 
BRANCH  13  14
ATOM     14  C   UNL     1       5.591  12.858  16.731  1.00  0.00    -0.027 C 
ATOM     15  C   UNL     1       6.027  11.711  17.272  1.00  0.00    -0.031 C 
BRANCH  15  16
ATOM     16  C   UNL     1       6.409  11.620  18.724  1.00  0.00     0.027 C 
BRANCH  16  17
ATOM     17  C   UNL     1       5.281  12.144  19.625  1.00  0.00     0.004 C 
BRANCH  17  18
ATOM     18  C   UNL     1       4.068  11.196  19.676  1.00  0.00     0.000 C 
BRANCH  18  19
ATOM     19  C   UNL     1       2.821  11.703  18.930  1.00  0.00    -0.003 C 
ATOM     20  C   UNL     1       2.712  13.227  18.916  1.00  0.00     0.004 C 
ENDBRANCH  18  19
ENDBRANCH  17  18
ENDBRANCH  16  17
ENDBRANCH  15  16
ENDBRANCH  13  14
ENDBRANCH  12  13
ENDBRANCH   1  11
TORSDOF 14
ENDMDL
MODEL 8
REMARK VINA RESULT:    -6.065      3.212      6.935
REMARK INTER + INTRA:         -13.016
REMARK INTER:                 -11.130
REMARK INTRA:                  -1.886
REMARK UNBOUND:                -1.986
REMARK SMILES CCCCCC=CCC=CCCCCCCCC(=O)[O-]
REMARK SMILES IDX 11 1 12 2 13 3 14 4 15 5 16 6 17 7 18 8 19 9 20 10 10 11
REMARK SMILES IDX 9 12 8 13 7 14 6 15 5 16 4 17 3 18 2 19 1 20
REMARK H PARENT
REMARK Flexibility Score: inf
ROOT
ATOM      1  C   UNL     1       4.961   9.730  15.942  1.00  0.00     0.027 C 
ENDROOT
BRANCH   1   2
ATOM      2  C   UNL     1       4.005   8.971  16.874  1.00  0.00     0.004 C 
BRANCH   2   3
ATOM      3  C   UNL     1       2.726   9.765  17.189  1.00  0.00     0.000 C 
BRANCH   3   4
ATOM      4  C   UNL     1       1.877   9.104  18.288  1.00  0.00     0.000 C 
BRANCH   4   5
ATOM      5  C   UNL     1       1.951   7.568  18.260  1.00  0.00     0.000 C 
BRANCH   5   6
ATOM      6  C   UNL     1       0.867   6.838  19.078  1.00  0.00     0.006 C 
BRANCH   6   7
ATOM      7  C   UNL     1       0.571   5.406  18.593  1.00  0.00     0.053 C 
BRANCH   7   8
ATOM      8  C   UNL     1       1.586   4.413  19.075  1.00  0.00     0.041 C 
ATOM      9  O   UNL     1       1.878   3.410  18.372  1.00  0.00    -0.550 OA
ATOM     10  O   UNL     1       2.242   4.617  20.283  1.00  0.00    -0.550 OA
ENDBRANCH   7   8
ENDBRANCH   6   7
ENDBRANCH   5   6
ENDBRANCH   4   5
ENDBRANCH   3   4
ENDBRANCH   2   3
ENDBRANCH   1   2
BRANCH   1  11
ATOM     11  C   UNL     1       4.413   9.774  14.538  1.00  0.00    -0.031 C 
ATOM     12  C   UNL     1       4.256  10.902  13.823  1.00  0.00    -0.027 C 
BRANCH  12  13
ATOM     13  C   UNL     1       4.561  12.278  14.363  1.00  0.00     0.054 C 
BRANCH  13  14
ATOM     14  C   UNL     1       3.501  12.726  15.330  1.00  0.00    -0.027 C 
ATOM     15  C   UNL     1       3.817  13.190  16.548  1.00  0.00    -0.031 C 
BRANCH  15  16
ATOM     16  C   UNL     1       2.759  13.626  17.524  1.00  0.00     0.027 C 
BRANCH  16  17
ATOM     17  C   UNL     1       2.936  12.924  18.879  1.00  0.00     0.004 C 
BRANCH  17  18
ATOM     18  C   UNL     1       4.405  12.576  19.184  1.00  0.00     0.000 C 
BRANCH  18  19
ATOM     19  C   UNL     1       4.616  11.216  19.874  1.00  0.00    -0.003 C 
ATOM     20  C   UNL     1       5.929  11.138  20.652  1.00  0.00     0.004 C 
ENDBRANCH  18  19
ENDBRANCH  17  18
ENDBRANCH  16  17
ENDBRANCH  15  16
ENDBRANCH  13  14
ENDBRANCH  12  13
ENDBRANCH   1  11
TORSDOF 14
ENDMDL
MODEL 9
REMARK VINA RESULT:    -5.981      3.098      7.149
REMARK INTER + INTRA:         -12.863
REMARK INTER:                 -11.075
REMARK INTRA:                  -1.787
REMARK UNBOUND:                -1.986
REMARK SMILES CCCCCC=CCC=CCCCCCCCC(=O)[O-]
REMARK SMILES IDX 11 1 12 2 13 3 14 4 15 5 16 6 17 7 18 8 19 9 20 10 10 11
REMARK SMILES IDX 9 12 8 13 7 14 6 15 5 16 4 17 3 18 2 19 1 20
REMARK H PARENT
REMARK Flexibility Score: inf
ROOT
ATOM      1  C   UNL     1       3.947   8.365  15.621  1.00  0.00     0.027 C 
ENDROOT
BRANCH   1   2
ATOM      2  C   UNL     1       4.091   9.211  16.894  1.00  0.00     0.004 C 
BRANCH   2   3
ATOM      3  C   UNL     1       2.755   9.413  17.628  1.00  0.00     0.000 C 
BRANCH   3   4
ATOM      4  C   UNL     1       2.206   8.105  18.225  1.00  0.00     0.000 C 
BRANCH   4   5
ATOM      5  C   UNL     1       0.671   8.088  18.322  1.00  0.00     0.000 C 
BRANCH   5   6
ATOM      6  C   UNL     1       0.044   6.719  18.650  1.00  0.00     0.006 C 
BRANCH   6   7
ATOM      7  C   UNL     1       0.733   5.529  17.955  1.00  0.00     0.053 C 
BRANCH   7   8
ATOM      8  C   UNL     1       1.494   4.663  18.915  1.00  0.00     0.041 C 
ATOM      9  O   UNL     1       1.661   5.031  20.108  1.00  0.00    -0.550 OA
ATOM     10  O   UNL     1       1.981   3.428  18.504  1.00  0.00    -0.550 OA
ENDBRANCH   7   8
ENDBRANCH   6   7
ENDBRANCH   5   6
ENDBRANCH   4   5
ENDBRANCH   3   4
ENDBRANCH   2   3
ENDBRANCH   1   2
BRANCH   1  11
ATOM     11  C   UNL     1       4.997   8.746  14.608  1.00  0.00    -0.031 C 
ATOM     12  C   UNL     1       4.828   9.685  13.661  1.00  0.00    -0.027 C 
BRANCH  12  13
ATOM     13  C   UNL     1       3.536  10.441  13.460  1.00  0.00     0.054 C 
BRANCH  13  14
ATOM     14  C   UNL     1       3.429  11.592  14.421  1.00  0.00    -0.027 C 
ATOM     15  C   UNL     1       4.518  12.234  14.867  1.00  0.00    -0.031 C 
BRANCH  15  16
ATOM     16  C   UNL     1       4.416  13.377  15.840  1.00  0.00     0.027 C 
BRANCH  16  17
ATOM     17  C   UNL     1       4.637  12.895  17.281  1.00  0.00     0.004 C 
BRANCH  17  18
ATOM     18  C   UNL     1       6.047  12.318  17.509  1.00  0.00     0.000 C 
BRANCH  18  19
ATOM     19  C   UNL     1       6.194  11.454  18.775  1.00  0.00    -0.003 C 
ATOM     20  C   UNL     1       4.996  11.567  19.717  1.00  0.00     0.004 C 
ENDBRANCH  18  19
ENDBRANCH  17  18
ENDBRANCH  16  17
ENDBRANCH  15  16
ENDBRANCH  13  14
ENDBRANCH  12  13
ENDBRANCH   1  11
TORSDOF 14
ENDMDL
