MODEL 1
REMARK VINA RESULT:    -4.897      0.000      0.000
REMARK INTER + INTRA:          -7.190
REMARK INTER:                  -6.902
REMARK INTRA:                  -0.289
REMARK UNBOUND:                -0.289
REMARK SMILES CCCCCCCCC(=O)[O-]
REMARK SMILES IDX 6 1 7 2 8 3 9 4 10 5 11 6 5 7 4 8 3 9 2 10 1 11
REMARK H PARENT
REMARK Flexibility Score: inf
ROOT
ATOM      1  C   UNL     1      20.675  22.735  40.007  1.00  0.00     0.000 C 
ENDROOT
BRANCH   1   2
ATOM      2  C   UNL     1      21.927  23.470  39.512  1.00  0.00     0.006 C 
BRANCH   2   3
ATOM      3  C   UNL     1      23.134  23.163  40.403  1.00  0.00     0.053 C 
BRANCH   3   4
ATOM      4  C   UNL     1      24.367  23.811  39.858  1.00  0.00     0.041 C 
ATOM      5  O   UNL     1      24.466  24.047  38.626  1.00  0.00    -0.550 OA
ATOM      6  O   UNL     1      25.428  24.108  40.704  1.00  0.00    -0.550 OA
ENDBRANCH   3   4
ENDBRANCH   2   3
ENDBRANCH   1   2
BRANCH   1   7
ATOM      7  C   UNL     1      20.026  23.483  41.180  1.00  0.00     0.000 C 
BRANCH   7   8
ATOM      8  C   UNL     1      19.029  22.614  41.962  1.00  0.00    -0.000 C 
BRANCH   8   9
ATOM      9  C   UNL     1      18.640  21.334  41.203  1.00  0.00    -0.000 C 
BRANCH   9  10
ATOM     10  C   UNL     1      17.957  20.297  42.109  1.00  0.00    -0.003 C 
ATOM     11  C   UNL     1      17.169  20.935  43.253  1.00  0.00     0.004 C 
ENDBRANCH   9  10
ENDBRANCH   8   9
ENDBRANCH   7   8
ENDBRANCH   1   7
TORSDOF 7
ENDMDL
MODEL 2
REMARK VINA RESULT:    -4.687      4.049      6.223
REMARK INTER + INTRA:          -6.894
REMARK INTER:                  -6.521
REMARK INTRA:                  -0.373
REMARK UNBOUND:                -0.289
REMARK SMILES CCCCCCCCC(=O)[O-]
REMARK SMILES IDX 6 1 7 2 8 3 9 4 10 5 11 6 5 7 4 8 3 9 2 10 1 11
REMARK H PARENT
REMARK Flexibility Score: inf
ROOT
ATOM      1  C   UNL     1      19.522  21.487  40.196  1.00  0.00     0.000 C 
ENDROOT
BRANCH   1   2
ATOM      2  C   UNL     1      18.512  20.489  40.776  1.00  0.00     0.006 C 
BRANCH   2   3
ATOM      3  C   UNL     1      17.566  21.177  41.765  1.00  0.00     0.053 C 
BRANCH   3   4
ATOM      4  C   UNL     1      17.605  20.489  43.093  1.00  0.00     0.041 C 
ATOM      5  O   UNL     1      17.781  21.156  44.146  1.00  0.00    -0.550 OA
ATOM      6  O   UNL     1      17.497  19.106  43.162  1.00  0.00    -0.550 OA
ENDBRANCH   3   4
ENDBRANCH   2   3
ENDBRANCH   1   2
BRANCH   1   7
ATOM      7  C   UNL     1      19.656  22.722  41.099  1.00  0.00     0.000 C 
BRANCH   7   8
ATOM      8  C   UNL     1      21.019  23.417  40.959  1.00  0.00    -0.000 C 
BRANCH   8   9
ATOM      9  C   UNL     1      21.459  23.563  39.492  1.00  0.00    -0.000 C 
BRANCH   9  10
ATOM     10  C   UNL     1      22.943  23.219  39.286  1.00  0.00    -0.003 C 
ATOM     11  C   UNL     1      23.746  23.253  40.586  1.00  0.00     0.004 C 
ENDBRANCH   9  10
ENDBRANCH   8   9
ENDBRANCH   7   8
ENDBRANCH   1   7
TORSDOF 7
ENDMDL
MODEL 3
REMARK VINA RESULT:    -4.595     12.333     13.781
REMARK INTER + INTRA:          -6.764
REMARK INTER:                  -5.901
REMARK INTRA:                  -0.863
REMARK UNBOUND:                -0.289
REMARK SMILES CCCCCCCCC(=O)[O-]
REMARK SMILES IDX 6 1 7 2 8 3 9 4 10 5 11 6 5 7 4 8 3 9 2 10 1 11
REMARK H PARENT
REMARK Flexibility Score: inf
ROOT
ATOM      1  C   UNL     1      14.901  10.782  32.816  1.00  0.00     0.000 C 
ENDROOT
BRANCH   1   2
ATOM      2  C   UNL     1      15.628  11.122  34.124  1.00  0.00     0.006 C 
BRANCH   2   3
ATOM      3  C   UNL     1      16.842  12.018  33.862  1.00  0.00     0.053 C 
BRANCH   3   4
ATOM      4  C   UNL     1      16.639  13.368  34.472  1.00  0.00     0.041 C 
ATOM      5  O   UNL     1      16.036  14.269  33.832  1.00  0.00    -0.550 OA
ATOM      6  O   UNL     1      17.160  13.649  35.730  1.00  0.00    -0.550 OA
ENDBRANCH   3   4
ENDBRANCH   2   3
ENDBRANCH   1   2
BRANCH   1   7
ATOM      7  C   UNL     1      13.551  11.510  32.733  1.00  0.00     0.000 C 
BRANCH   7   8
ATOM      8  C   UNL     1      13.039  11.973  34.107  1.00  0.00    -0.000 C 
BRANCH   8   9
ATOM      9  C   UNL     1      12.594  13.445  34.104  1.00  0.00    -0.000 C 
BRANCH   9  10
ATOM     10  C   UNL     1      12.907  14.156  35.431  1.00  0.00    -0.003 C 
ATOM     11  C   UNL     1      13.485  13.215  36.488  1.00  0.00     0.004 C 
ENDBRANCH   9  10
ENDBRANCH   8   9
ENDBRANCH   7   8
ENDBRANCH   1   7
TORSDOF 7
ENDMDL
MODEL 4
REMARK VINA RESULT:    -4.545     13.986     15.255
REMARK INTER + INTRA:          -6.693
REMARK INTER:                  -6.112
REMARK INTRA:                  -0.581
REMARK UNBOUND:                -0.289
REMARK SMILES CCCCCCCCC(=O)[O-]
REMARK SMILES IDX 6 1 7 2 8 3 9 4 10 5 11 6 5 7 4 8 3 9 2 10 1 11
REMARK H PARENT
REMARK Flexibility Score: inf
ROOT
ATOM      1  C   UNL     1      12.567  13.859  35.210  1.00  0.00     0.000 C 
ENDROOT
BRANCH   1   2
ATOM      2  C   UNL     1      12.993  13.085  36.464  1.00  0.00     0.006 C 
BRANCH   2   3
ATOM      3  C   UNL     1      12.073  11.884  36.709  1.00  0.00     0.053 C 
BRANCH   3   4
ATOM      4  C   UNL     1      11.485  11.945  38.082  1.00  0.00     0.041 C 
ATOM      5  O   UNL     1      11.969  11.245  39.010  1.00  0.00    -0.550 OA
ATOM      6  O   UNL     1      10.371  12.738  38.327  1.00  0.00    -0.550 OA
ENDBRANCH   3   4
ENDBRANCH   2   3
ENDBRANCH   1   2
BRANCH   1   7
ATOM      7  C   UNL     1      13.334  13.365  33.974  1.00  0.00     0.000 C 
BRANCH   7   8
ATOM      8  C   UNL     1      14.827  13.131  34.254  1.00  0.00    -0.000 C 
BRANCH   8   9
ATOM      9  C   UNL     1      15.343  11.816  33.643  1.00  0.00    -0.000 C 
BRANCH   9  10
ATOM     10  C   UNL     1      14.254  11.066  32.858  1.00  0.00    -0.003 C 
ATOM     11  C   UNL     1      13.854   9.744  33.513  1.00  0.00     0.004 C 
ENDBRANCH   9  10
ENDBRANCH   8   9
ENDBRANCH   7   8
ENDBRANCH   1   7
TORSDOF 7
ENDMDL
MODEL 5
REMARK VINA RESULT:    -4.488     13.811     15.161
REMARK INTER + INTRA:          -6.613
REMARK INTER:                  -6.049
REMARK INTRA:                  -0.564
REMARK UNBOUND:                -0.289
REMARK SMILES CCCCCCCCC(=O)[O-]
REMARK SMILES IDX 6 1 7 2 8 3 9 4 10 5 11 6 5 7 4 8 3 9 2 10 1 11
REMARK H PARENT
REMARK Flexibility Score: inf
ROOT
ATOM      1  C   UNL     1      13.543  13.763  35.558  1.00  0.00     0.000 C 
ENDROOT
BRANCH   1   2
ATOM      2  C   UNL     1      13.300  12.938  36.828  1.00  0.00     0.006 C 
BRANCH   2   3
ATOM      3  C   UNL     1      11.952  12.211  36.762  1.00  0.00     0.053 C 
BRANCH   3   4
ATOM      4  C   UNL     1      11.406  11.993  38.137  1.00  0.00     0.041 C 
ATOM      5  O   UNL     1      10.374  12.608  38.513  1.00  0.00    -0.550 OA
ATOM      6  O   UNL     1      12.066  11.147  39.021  1.00  0.00    -0.550 OA
ENDBRANCH   3   4
ENDBRANCH   2   3
ENDBRANCH   1   2
BRANCH   1   7
ATOM      7  C   UNL     1      12.584  13.340  34.436  1.00  0.00     0.000 C 
BRANCH   7   8
ATOM      8  C   UNL     1      13.309  12.681  33.251  1.00  0.00    -0.000 C 
BRANCH   8   9
ATOM      9  C   UNL     1      13.864  11.289  33.600  1.00  0.00    -0.000 C 
BRANCH   9  10
ATOM     10  C   UNL     1      15.293  11.078  33.075  1.00  0.00    -0.003 C 
ATOM     11  C   UNL     1      16.325  11.943  33.800  1.00  0.00     0.004 C 
ENDBRANCH   9  10
ENDBRANCH   8   9
ENDBRANCH   7   8
ENDBRANCH   1   7
TORSDOF 7
ENDMDL
MODEL 6
REMARK VINA RESULT:    -4.458     13.828     14.706
REMARK INTER + INTRA:          -6.571
REMARK INTER:                  -5.775
REMARK INTRA:                  -0.796
REMARK UNBOUND:                -0.289
REMARK SMILES CCCCCCCCC(=O)[O-]
REMARK SMILES IDX 6 1 7 2 8 3 9 4 10 5 11 6 5 7 4 8 3 9 2 10 1 11
REMARK H PARENT
REMARK Flexibility Score: inf
ROOT
ATOM      1  C   UNL     1      16.555  11.147  35.404  1.00  0.00     0.000 C 
ENDROOT
BRANCH   1   2
ATOM      2  C   UNL     1      16.021  12.009  34.253  1.00  0.00     0.006 C 
BRANCH   2   3
ATOM      3  C   UNL     1      15.673  11.147  33.035  1.00  0.00     0.053 C 
BRANCH   3   4
ATOM      4  C   UNL     1      14.206  10.859  32.998  1.00  0.00     0.041 C 
ATOM      5  O   UNL     1      13.393  11.757  32.653  1.00  0.00    -0.550 OA
ATOM      6  O   UNL     1      13.731   9.614  33.392  1.00  0.00    -0.550 OA
ENDBRANCH   3   4
ENDBRANCH   2   3
ENDBRANCH   1   2
BRANCH   1   7
ATOM      7  C   UNL     1      15.574  11.141  36.586  1.00  0.00     0.000 C 
BRANCH   7   8
ATOM      8  C   UNL     1      14.688  12.396  36.631  1.00  0.00    -0.000 C 
BRANCH   8   9
ATOM      9  C   UNL     1      13.190  12.058  36.716  1.00  0.00    -0.000 C 
BRANCH   9  10
ATOM     10  C   UNL     1      12.328  12.983  35.841  1.00  0.00    -0.003 C 
ATOM     11  C   UNL     1      13.103  14.188  35.309  1.00  0.00     0.004 C 
ENDBRANCH   9  10
ENDBRANCH   8   9
ENDBRANCH   7   8
ENDBRANCH   1   7
TORSDOF 7
ENDMDL
MODEL 7
REMARK VINA RESULT:    -4.457     13.674     14.680
REMARK INTER + INTRA:          -6.570
REMARK INTER:                  -6.019
REMARK INTRA:                  -0.551
REMARK UNBOUND:                -0.289
REMARK SMILES CCCCCCCCC(=O)[O-]
REMARK SMILES IDX 6 1 7 2 8 3 9 4 10 5 11 6 5 7 4 8 3 9 2 10 1 11
REMARK H PARENT
REMARK Flexibility Score: inf
ROOT
ATOM      1  C   UNL     1      12.461  13.367  34.504  1.00  0.00     0.000 C 
ENDROOT
BRANCH   1   2
ATOM      2  C   UNL     1      13.580  13.030  33.509  1.00  0.00     0.006 C 
BRANCH   2   3
ATOM      3  C   UNL     1      13.483  11.573  33.045  1.00  0.00     0.053 C 
BRANCH   3   4
ATOM      4  C   UNL     1      14.726  10.824  33.406  1.00  0.00     0.041 C 
ATOM      5  O   UNL     1      14.676   9.875  34.232  1.00  0.00    -0.550 OA
ATOM      6  O   UNL     1      15.949  11.206  32.869  1.00  0.00    -0.550 OA
ENDBRANCH   3   4
ENDBRANCH   2   3
ENDBRANCH   1   2
BRANCH   1   7
ATOM      7  C   UNL     1      13.041  13.750  35.873  1.00  0.00     0.000 C 
BRANCH   7   8
ATOM      8  C   UNL     1      13.479  12.529  36.697  1.00  0.00    -0.000 C 
BRANCH   8   9
ATOM      9  C   UNL     1      12.314  11.568  36.992  1.00  0.00    -0.000 C 
BRANCH   9  10
ATOM     10  C   UNL     1      11.650  11.848  38.350  1.00  0.00    -0.003 C 
ATOM     11  C   UNL     1      10.331  12.611  38.220  1.00  0.00     0.004 C 
ENDBRANCH   9  10
ENDBRANCH   8   9
ENDBRANCH   7   8
ENDBRANCH   1   7
TORSDOF 7
ENDMDL
MODEL 8
REMARK VINA RESULT:    -4.363     13.914     15.251
REMARK INTER + INTRA:          -6.436
REMARK INTER:                  -5.625
REMARK INTRA:                  -0.811
REMARK UNBOUND:                -0.289
REMARK SMILES CCCCCCCCC(=O)[O-]
REMARK SMILES IDX 6 1 7 2 8 3 9 4 10 5 11 6 5 7 4 8 3 9 2 10 1 11
REMARK H PARENT
REMARK Flexibility Score: inf
ROOT
ATOM      1  C   UNL     1      13.000  13.385  36.232  1.00  0.00     0.000 C 
ENDROOT
BRANCH   1   2
ATOM      2  C   UNL     1      11.986  12.620  37.090  1.00  0.00     0.006 C 
BRANCH   2   3
ATOM      3  C   UNL     1      12.642  11.418  37.778  1.00  0.00     0.053 C 
BRANCH   3   4
ATOM      4  C   UNL     1      13.166  10.454  36.762  1.00  0.00     0.041 C 
ATOM      5  O   UNL     1      14.383  10.133  36.762  1.00  0.00    -0.550 OA
ATOM      6  O   UNL     1      12.319   9.947  35.784  1.00  0.00    -0.550 OA
ENDBRANCH   3   4
ENDBRANCH   2   3
ENDBRANCH   1   2
BRANCH   1   7
ATOM      7  C   UNL     1      12.434  13.663  34.831  1.00  0.00     0.000 C 
BRANCH   7   8
ATOM      8  C   UNL     1      13.223  12.953  33.719  1.00  0.00    -0.000 C 
BRANCH   8   9
ATOM      9  C   UNL     1      14.705  12.755  34.081  1.00  0.00    -0.000 C 
BRANCH   9  10
ATOM     10  C   UNL     1      15.244  11.389  33.625  1.00  0.00    -0.003 C 
ATOM     11  C   UNL     1      14.190  10.543  32.911  1.00  0.00     0.004 C 
ENDBRANCH   9  10
ENDBRANCH   8   9
ENDBRANCH   7   8
ENDBRANCH   1   7
TORSDOF 7
ENDMDL
MODEL 9
REMARK VINA RESULT:    -4.311     13.584     15.120
REMARK INTER + INTRA:          -6.364
REMARK INTER:                  -5.675
REMARK INTRA:                  -0.690
REMARK UNBOUND:                -0.289
REMARK SMILES CCCCCCCCC(=O)[O-]
REMARK SMILES IDX 6 1 7 2 8 3 9 4 10 5 11 6 5 7 4 8 3 9 2 10 1 11
REMARK H PARENT
REMARK Flexibility Score: inf
ROOT
ATOM      1  C   UNL     1      13.450  14.097  35.258  1.00  0.00     0.000 C 
ENDROOT
BRANCH   1   2
ATOM      2  C   UNL     1      12.405  12.976  35.328  1.00  0.00     0.006 C 
BRANCH   2   3
ATOM      3  C   UNL     1      12.066  12.629  36.782  1.00  0.00     0.053 C 
BRANCH   3   4
ATOM      4  C   UNL     1      12.413  11.205  37.076  1.00  0.00     0.041 C 
ATOM      5  O   UNL     1      13.341  10.933  37.883  1.00  0.00    -0.550 OA
ATOM      6  O   UNL     1      11.746  10.177  36.421  1.00  0.00    -0.550 OA
ENDBRANCH   3   4
ENDBRANCH   2   3
ENDBRANCH   1   2
BRANCH   1   7
ATOM      7  C   UNL     1      14.697  13.637  34.488  1.00  0.00     0.000 C 
BRANCH   7   8
ATOM      8  C   UNL     1      15.389  12.430  35.142  1.00  0.00    -0.000 C 
BRANCH   8   9
ATOM      9  C   UNL     1      15.883  11.403  34.110  1.00  0.00    -0.000 C 
BRANCH   9  10
ATOM     10  C   UNL     1      14.835  11.109  33.025  1.00  0.00    -0.003 C 
ATOM     11  C   UNL     1      13.893   9.966  33.402  1.00  0.00     0.004 C 
ENDBRANCH   9  10
ENDBRANCH   8   9
ENDBRANCH   7   8
ENDBRANCH   1   7
TORSDOF 7
ENDMDL
