MODEL 1
REMARK VINA RESULT:    -6.188      0.000      0.000
REMARK INTER + INTRA:          -6.942
REMARK INTER:                  -6.731
REMARK INTRA:                  -0.210
REMARK UNBOUND:                -0.210
REMARK SMILES C[C@@H]1[C@@H](C)CC[C@@]2(C(=O)[O-])CC[C@]3(C)C(=CC[C@@H]4[C@]5(C)CC[C@@H](O)C(C)(C)[C@H]5CC[C@@]43C)[C@@H]12
REMARK SMILES IDX 7 1 6 2 11 3 33 4 5 5 12 6 15 7 2 8 3 9 13 10 16 11 1 12
REMARK SMILES IDX 4 13 14 14 31 15 17 16 18 17 30 18 32 19 19 20 29 21 28 22
REMARK SMILES IDX 21 23 20 24 25 25 22 26 23 27 26 28 27 29 8 30 9 31 10 32
REMARK SMILES IDX 24 33
REMARK H PARENT 24 34
REMARK Flexibility Score: inf
ROOT
ATOM      1  C   UNL     1      41.179  19.416  -4.389  1.00  0.00     0.017 C 
ATOM      2  C   UNL     1      41.750  20.865  -4.227  1.00  0.00     0.014 C 
ATOM      3  C   UNL     1      41.872  18.804  -5.636  1.00  0.00     0.014 C 
ATOM      4  C   UNL     1      41.442  18.528  -3.086  1.00  0.00     0.030 C 
ATOM      5  C   UNL     1      43.005  20.882  -3.362  1.00  0.00     0.004 C 
ATOM      6  C   UNL     1      41.679  17.293  -5.728  1.00  0.00     0.013 C 
ATOM      7  C   UNL     1      42.516  17.425  -3.324  1.00  0.00    -0.063 C 
ATOM      8  C   UNL     1      41.581  19.410  -1.782  1.00  0.00    -0.003 C 
ATOM      9  C   UNL     1      42.640  20.565  -1.903  1.00  0.00    -0.011 C 
ATOM     10  C   UNL     1      42.335  16.494  -4.538  1.00  0.00    -0.006 C 
ATOM     11  C   UNL     1      43.353  17.038  -2.346  1.00  0.00    -0.027 C 
ATOM     12  C   UNL     1      40.210  19.972  -1.350  1.00  0.00     0.008 C 
ATOM     13  C   UNL     1      43.910  20.292  -1.087  1.00  0.00     0.008 C 
ATOM     14  C   UNL     1      41.298  15.414  -4.082  1.00  0.00     0.017 C 
ATOM     15  C   UNL     1      43.714  15.786  -4.985  1.00  0.00    -0.020 C 
ATOM     16  C   UNL     1      44.448  16.034  -2.493  1.00  0.00     0.032 C 
ATOM     17  C   UNL     1      44.426  15.098  -3.739  1.00  0.00     0.006 C 
ATOM     18  C   UNL     1      44.723  16.826  -5.577  1.00  0.00     0.008 C 
ATOM     19  C   UNL     1      43.365  14.717  -6.091  1.00  0.00     0.012 C 
ATOM     20  C   UNL     1      45.884  14.485  -4.035  1.00  0.00    -0.025 C 
ATOM     21  C   UNL     1      46.119  16.250  -5.913  1.00  0.00     0.005 C 
ATOM     22  C   UNL     1      46.798  15.600  -4.682  1.00  0.00     0.003 C 
ATOM     23  C   UNL     1      46.570  14.011  -2.705  1.00  0.00     0.010 C 
ATOM     24  C   UNL     1      45.716  13.206  -4.924  1.00  0.00     0.012 C 
ATOM     25  C   UNL     1      48.328  15.225  -4.868  1.00  0.00    -0.006 C 
ATOM     26  C   UNL     1      48.041  13.593  -2.876  1.00  0.00     0.033 C 
ATOM     27  C   UNL     1      48.886  14.714  -3.496  1.00  0.00     0.120 C 
ATOM     28  C   UNL     1      48.593  14.195  -5.992  1.00  0.00     0.014 C 
ATOM     29  C   UNL     1      49.136  16.495  -5.248  1.00  0.00     0.014 C 
ENDROOT
BRANCH   1  30
ATOM     30  C   UNL     1      39.678  19.502  -4.686  1.00  0.00     0.048 C 
ATOM     31  O   UNL     1      38.875  18.686  -4.154  1.00  0.00    -0.550 OA
ATOM     32  O   UNL     1      39.174  20.452  -5.573  1.00  0.00    -0.550 OA
ENDBRANCH   1  30
BRANCH  27  33
ATOM     33  O   UNL     1      50.209  14.251  -3.631  1.00  0.00    -0.393 OA
ATOM     34  H   UNL     1      50.658  14.370  -2.754  1.00  0.00     0.210 HD
ENDBRANCH  27  33
TORSDOF 2
ENDMDL
MODEL 2
REMARK VINA RESULT:    -5.877      1.776      8.149
REMARK INTER + INTRA:          -6.603
REMARK INTER:                  -6.397
REMARK INTRA:                  -0.206
REMARK UNBOUND:                -0.210
REMARK SMILES C[C@@H]1[C@@H](C)CC[C@@]2(C(=O)[O-])CC[C@]3(C)C(=CC[C@@H]4[C@]5(C)CC[C@@H](O)C(C)(C)[C@H]5CC[C@@]43C)[C@@H]12
REMARK SMILES IDX 7 1 6 2 11 3 33 4 5 5 12 6 15 7 2 8 3 9 13 10 16 11 1 12
REMARK SMILES IDX 4 13 14 14 31 15 17 16 18 17 30 18 32 19 19 20 29 21 28 22
REMARK SMILES IDX 21 23 20 24 25 25 22 26 23 27 26 28 27 29 8 30 9 31 10 32
REMARK SMILES IDX 24 33
REMARK H PARENT 24 34
REMARK Flexibility Score: inf
ROOT
ATOM      1  C   UNL     1      48.158  12.367  -4.848  1.00  0.00     0.017 C 
ATOM      2  C   UNL     1      47.500  10.952  -4.971  1.00  0.00     0.014 C 
ATOM      3  C   UNL     1      47.593  13.221  -6.015  1.00  0.00     0.014 C 
ATOM      4  C   UNL     1      47.849  13.043  -3.433  1.00  0.00     0.030 C 
ATOM      5  C   UNL     1      46.185  10.875  -4.202  1.00  0.00     0.004 C 
ATOM      6  C   UNL     1      47.874  14.710  -5.837  1.00  0.00     0.013 C 
ATOM      7  C   UNL     1      46.856  14.238  -3.549  1.00  0.00    -0.063 C 
ATOM      8  C   UNL     1      47.566  11.968  -2.308  1.00  0.00    -0.003 C 
ATOM      9  C   UNL     1      46.458  10.922  -2.690  1.00  0.00    -0.011 C 
ATOM     10  C   UNL     1      47.177  15.343  -4.573  1.00  0.00    -0.006 C 
ATOM     11  C   UNL     1      45.972  14.512  -2.574  1.00  0.00    -0.027 C 
ATOM     12  C   UNL     1      48.869  11.254  -1.892  1.00  0.00     0.008 C 
ATOM     13  C   UNL     1      45.148  11.139  -1.922  1.00  0.00     0.008 C 
ATOM     14  C   UNL     1      48.235  16.262  -3.875  1.00  0.00     0.017 C 
ATOM     15  C   UNL     1      45.875  16.204  -4.980  1.00  0.00    -0.020 C 
ATOM     16  C   UNL     1      44.947  15.597  -2.618  1.00  0.00     0.032 C 
ATOM     17  C   UNL     1      45.112  16.723  -3.683  1.00  0.00     0.006 C 
ATOM     18  C   UNL     1      44.858  15.345  -5.803  1.00  0.00     0.008 C 
ATOM     19  C   UNL     1      46.361  17.416  -5.865  1.00  0.00     0.012 C 
ATOM     20  C   UNL     1      43.714  17.470  -3.964  1.00  0.00    -0.025 C 
ATOM     21  C   UNL     1      43.523  16.059  -6.125  1.00  0.00     0.005 C 
ATOM     22  C   UNL     1      42.792  16.540  -4.847  1.00  0.00     0.003 C 
ATOM     23  C   UNL     1      42.959  17.762  -2.619  1.00  0.00     0.010 C 
ATOM     24  C   UNL     1      44.016  18.865  -4.610  1.00  0.00     0.012 C 
ATOM     25  C   UNL     1      41.302  17.041  -5.064  1.00  0.00    -0.006 C 
ATOM     26  C   UNL     1      41.529  18.299  -2.810  1.00  0.00     0.033 C 
ATOM     27  C   UNL     1      40.673  17.353  -3.663  1.00  0.00     0.120 C 
ATOM     28  C   UNL     1      41.176  18.257  -6.012  1.00  0.00     0.014 C 
ATOM     29  C   UNL     1      40.457  15.907  -5.704  1.00  0.00     0.014 C 
ENDROOT
BRANCH   1  30
ATOM     30  C   UNL     1      49.670  12.233  -5.059  1.00  0.00     0.048 C 
ATOM     31  O   UNL     1      50.148  11.203  -5.611  1.00  0.00    -0.550 OA
ATOM     32  O   UNL     1      50.549  13.221  -4.617  1.00  0.00    -0.550 OA
ENDBRANCH   1  30
BRANCH  27  33
ATOM     33  O   UNL     1      39.391  17.919  -3.802  1.00  0.00    -0.393 OA
ATOM     34  H   UNL     1      39.327  18.293  -4.719  1.00  0.00     0.210 HD
ENDBRANCH  27  33
TORSDOF 2
ENDMDL
MODEL 3
REMARK VINA RESULT:    -5.798      1.602      7.706
REMARK INTER + INTRA:          -6.517
REMARK INTER:                  -6.255
REMARK INTRA:                  -0.262
REMARK UNBOUND:                -0.210
REMARK SMILES C[C@@H]1[C@@H](C)CC[C@@]2(C(=O)[O-])CC[C@]3(C)C(=CC[C@@H]4[C@]5(C)CC[C@@H](O)C(C)(C)[C@H]5CC[C@@]43C)[C@@H]12
REMARK SMILES IDX 7 1 6 2 11 3 33 4 5 5 12 6 15 7 2 8 3 9 13 10 16 11 1 12
REMARK SMILES IDX 4 13 14 14 31 15 17 16 18 17 30 18 32 19 19 20 29 21 28 22
REMARK SMILES IDX 21 23 20 24 25 25 22 26 23 27 26 28 27 29 8 30 9 31 10 32
REMARK SMILES IDX 24 33
REMARK H PARENT 24 34
REMARK Flexibility Score: inf
ROOT
ATOM      1  C   UNL     1      47.165  13.240  -3.401  1.00  0.00     0.017 C 
ATOM      2  C   UNL     1      48.490  13.920  -2.920  1.00  0.00     0.014 C 
ATOM      3  C   UNL     1      46.065  13.642  -2.382  1.00  0.00     0.014 C 
ATOM      4  C   UNL     1      46.773  13.691  -4.884  1.00  0.00     0.030 C 
ATOM      5  C   UNL     1      48.653  15.316  -3.511  1.00  0.00     0.004 C 
ATOM      6  C   UNL     1      44.659  13.342  -2.891  1.00  0.00     0.013 C 
ATOM      7  C   UNL     1      45.530  14.630  -4.911  1.00  0.00    -0.063 C 
ATOM      8  C   UNL     1      48.036  14.132  -5.726  1.00  0.00    -0.003 C 
ATOM      9  C   UNL     1      48.926  15.218  -5.021  1.00  0.00    -0.011 C 
ATOM     10  C   UNL     1      44.258  14.162  -4.177  1.00  0.00    -0.006 C 
ATOM     11  C   UNL     1      45.412  15.612  -5.821  1.00  0.00    -0.027 C 
ATOM     12  C   UNL     1      48.885  12.906  -6.124  1.00  0.00     0.008 C 
ATOM     13  C   UNL     1      48.801  16.601  -5.673  1.00  0.00     0.008 C 
ATOM     14  C   UNL     1      43.554  13.166  -5.157  1.00  0.00     0.017 C 
ATOM     15  C   UNL     1      43.268  15.384  -3.818  1.00  0.00    -0.020 C 
ATOM     16  C   UNL     1      44.290  16.594  -5.891  1.00  0.00     0.032 C 
ATOM     17  C   UNL     1      42.982  16.276  -5.105  1.00  0.00     0.006 C 
ATOM     18  C   UNL     1      43.890  16.323  -2.732  1.00  0.00     0.008 C 
ATOM     19  C   UNL     1      41.929  14.764  -3.258  1.00  0.00     0.012 C 
ATOM     20  C   UNL     1      42.123  17.610  -4.836  1.00  0.00    -0.025 C 
ATOM     21  C   UNL     1      43.059  17.591  -2.424  1.00  0.00     0.005 C 
ATOM     22  C   UNL     1      42.807  18.451  -3.687  1.00  0.00     0.003 C 
ATOM     23  C   UNL     1      42.070  18.506  -6.124  1.00  0.00     0.010 C 
ATOM     24  C   UNL     1      40.644  17.196  -4.527  1.00  0.00     0.012 C 
ATOM     25  C   UNL     1      42.198  19.890  -3.420  1.00  0.00    -0.006 C 
ATOM     26  C   UNL     1      41.432  19.889  -5.896  1.00  0.00     0.033 C 
ATOM     27  C   UNL     1      42.142  20.667  -4.780  1.00  0.00     0.120 C 
ATOM     28  C   UNL     1      40.811  19.872  -2.735  1.00  0.00     0.014 C 
ATOM     29  C   UNL     1      43.135  20.689  -2.474  1.00  0.00     0.014 C 
ENDROOT
BRANCH   1  30
ATOM     30  C   UNL     1      47.331  11.719  -3.330  1.00  0.00     0.048 C 
ATOM     31  O   UNL     1      48.070  11.199  -2.448  1.00  0.00    -0.550 OA
ATOM     32  O   UNL     1      46.704  10.882  -4.253  1.00  0.00    -0.550 OA
ENDBRANCH   1  30
BRANCH  27  33
ATOM     33  O   UNL     1      41.495  21.909  -4.624  1.00  0.00    -0.393 OA
ATOM     34  H   UNL     1      41.091  22.146  -5.499  1.00  0.00     0.210 HD
ENDBRANCH  27  33
TORSDOF 2
ENDMDL
MODEL 4
REMARK VINA RESULT:    -4.413      1.945      2.808
REMARK INTER + INTRA:          -5.010
REMARK INTER:                  -4.796
REMARK INTRA:                  -0.214
REMARK UNBOUND:                -0.210
REMARK SMILES C[C@@H]1[C@@H](C)CC[C@@]2(C(=O)[O-])CC[C@]3(C)C(=CC[C@@H]4[C@]5(C)CC[C@@H](O)C(C)(C)[C@H]5CC[C@@]43C)[C@@H]12
REMARK SMILES IDX 7 1 6 2 11 3 33 4 5 5 12 6 15 7 2 8 3 9 13 10 16 11 1 12
REMARK SMILES IDX 4 13 14 14 31 15 17 16 18 17 30 18 32 19 19 20 29 21 28 22
REMARK SMILES IDX 21 23 20 24 25 25 22 26 23 27 26 28 27 29 8 30 9 31 10 32
REMARK SMILES IDX 24 33
REMARK H PARENT 24 34
REMARK Flexibility Score: inf
ROOT
ATOM      1  C   UNL     1      42.586  19.787  -4.128  1.00  0.00     0.017 C 
ATOM      2  C   UNL     1      42.856  20.665  -2.860  1.00  0.00     0.014 C 
ATOM      3  C   UNL     1      43.970  19.282  -4.620  1.00  0.00     0.014 C 
ATOM      4  C   UNL     1      41.606  18.567  -3.805  1.00  0.00     0.030 C 
ATOM      5  C   UNL     1      42.846  19.829  -1.585  1.00  0.00     0.004 C 
ATOM      6  C   UNL     1      43.850  18.149  -5.635  1.00  0.00     0.013 C 
ATOM      7  C   UNL     1      42.341  17.194  -3.817  1.00  0.00    -0.063 C 
ATOM      8  C   UNL     1      40.657  18.874  -2.578  1.00  0.00    -0.003 C 
ATOM      9  C   UNL     1      41.417  19.347  -1.286  1.00  0.00    -0.011 C 
ATOM     10  C   UNL     1      43.188  16.841  -5.055  1.00  0.00    -0.006 C 
ATOM     11  C   UNL     1      41.979  16.197  -2.991  1.00  0.00    -0.027 C 
ATOM     12  C   UNL     1      39.565  19.891  -2.969  1.00  0.00     0.008 C 
ATOM     13  C   UNL     1      41.439  18.277  -0.186  1.00  0.00     0.008 C 
ATOM     14  C   UNL     1      42.167  16.329  -6.125  1.00  0.00     0.017 C 
ATOM     15  C   UNL     1      44.289  15.704  -4.746  1.00  0.00    -0.020 C 
ATOM     16  C   UNL     1      42.656  14.870  -2.890  1.00  0.00     0.032 C 
ATOM     17  C   UNL     1      43.619  14.445  -4.040  1.00  0.00     0.006 C 
ATOM     18  C   UNL     1      45.404  16.235  -3.785  1.00  0.00     0.008 C 
ATOM     19  C   UNL     1      44.946  15.291  -6.120  1.00  0.00     0.012 C 
ATOM     20  C   UNL     1      44.646  13.307  -3.551  1.00  0.00    -0.025 C 
ATOM     21  C   UNL     1      46.431  15.168  -3.337  1.00  0.00     0.005 C 
ATOM     22  C   UNL     1      45.757  13.961  -2.638  1.00  0.00     0.003 C 
ATOM     23  C   UNL     1      43.903  12.215  -2.701  1.00  0.00     0.010 C 
ATOM     24  C   UNL     1      45.211  12.571  -4.813  1.00  0.00     0.012 C 
ATOM     25  C   UNL     1      46.746  12.954  -1.916  1.00  0.00    -0.006 C 
ATOM     26  C   UNL     1      44.845  11.196  -2.034  1.00  0.00     0.033 C 
ATOM     27  C   UNL     1      45.895  11.883  -1.151  1.00  0.00     0.120 C 
ATOM     28  C   UNL     1      47.764  12.278  -2.864  1.00  0.00     0.014 C 
ATOM     29  C   UNL     1      47.586  13.715  -0.855  1.00  0.00     0.014 C 
ENDROOT
BRANCH   1  30
ATOM     30  C   UNL     1      41.996  20.672  -5.231  1.00  0.00     0.048 C 
ATOM     31  O   UNL     1      42.451  21.833  -5.428  1.00  0.00    -0.550 OA
ATOM     32  O   UNL     1      40.926  20.234  -6.010  1.00  0.00    -0.550 OA
ENDBRANCH   1  30
BRANCH  27  33
ATOM     33  O   UNL     1      46.722  10.889  -0.590  1.00  0.00    -0.393 OA
ATOM     34  H   UNL     1      46.599  10.062  -1.125  1.00  0.00     0.210 HD
ENDBRANCH  27  33
TORSDOF 2
ENDMDL
MODEL 5
REMARK VINA RESULT:    -4.144      1.734      3.544
REMARK INTER + INTRA:          -4.718
REMARK INTER:                  -4.471
REMARK INTRA:                  -0.248
REMARK UNBOUND:                -0.210
REMARK SMILES C[C@@H]1[C@@H](C)CC[C@@]2(C(=O)[O-])CC[C@]3(C)C(=CC[C@@H]4[C@]5(C)CC[C@@H](O)C(C)(C)[C@H]5CC[C@@]43C)[C@@H]12
REMARK SMILES IDX 7 1 6 2 11 3 33 4 5 5 12 6 15 7 2 8 3 9 13 10 16 11 1 12
REMARK SMILES IDX 4 13 14 14 31 15 17 16 18 17 30 18 32 19 19 20 29 21 28 22
REMARK SMILES IDX 21 23 20 24 25 25 22 26 23 27 26 28 27 29 8 30 9 31 10 32
REMARK SMILES IDX 24 33
REMARK H PARENT 24 34
REMARK Flexibility Score: inf
ROOT
ATOM      1  C   UNL     1      41.555  18.231  -2.859  1.00  0.00     0.017 C 
ATOM      2  C   UNL     1      40.854  17.608  -1.606  1.00  0.00     0.014 C 
ATOM      3  C   UNL     1      43.037  18.471  -2.463  1.00  0.00     0.014 C 
ATOM      4  C   UNL     1      41.444  17.276  -4.135  1.00  0.00     0.030 C 
ATOM      5  C   UNL     1      40.952  16.086  -1.605  1.00  0.00     0.004 C 
ATOM      6  C   UNL     1      43.925  18.756  -3.671  1.00  0.00     0.013 C 
ATOM      7  C   UNL     1      42.808  16.625  -4.512  1.00  0.00    -0.063 C 
ATOM      8  C   UNL     1      40.181  16.328  -4.062  1.00  0.00    -0.003 C 
ATOM      9  C   UNL     1      40.078  15.504  -2.728  1.00  0.00    -0.011 C 
ATOM     10  C   UNL     1      44.025  17.553  -4.685  1.00  0.00    -0.006 C 
ATOM     11  C   UNL     1      42.875  15.387  -5.031  1.00  0.00    -0.027 C 
ATOM     12  C   UNL     1      38.882  17.123  -4.312  1.00  0.00     0.008 C 
ATOM     13  C   UNL     1      40.392  14.015  -2.925  1.00  0.00     0.008 C 
ATOM     14  C   UNL     1      43.890  18.152  -6.125  1.00  0.00     0.017 C 
ATOM     15  C   UNL     1      45.427  16.768  -4.539  1.00  0.00    -0.020 C 
ATOM     16  C   UNL     1      44.134  14.659  -5.370  1.00  0.00     0.032 C 
ATOM     17  C   UNL     1      45.454  15.481  -5.476  1.00  0.00     0.006 C 
ATOM     18  C   UNL     1      45.656  16.277  -3.071  1.00  0.00     0.008 C 
ATOM     19  C   UNL     1      46.579  17.771  -4.933  1.00  0.00     0.012 C 
ATOM     20  C   UNL     1      46.746  14.537  -5.305  1.00  0.00    -0.025 C 
ATOM     21  C   UNL     1      46.917  15.404  -2.873  1.00  0.00     0.005 C 
ATOM     22  C   UNL     1      46.913  14.150  -3.782  1.00  0.00     0.003 C 
ATOM     23  C   UNL     1      46.577  13.209  -6.125  1.00  0.00     0.010 C 
ATOM     24  C   UNL     1      47.986  15.275  -5.914  1.00  0.00     0.012 C 
ATOM     25  C   UNL     1      48.028  13.070  -3.457  1.00  0.00    -0.006 C 
ATOM     26  C   UNL     1      47.680  12.168  -5.861  1.00  0.00     0.033 C 
ATOM     27  C   UNL     1      47.792  11.820  -4.371  1.00  0.00     0.120 C 
ATOM     28  C   UNL     1      49.476  13.595  -3.600  1.00  0.00     0.014 C 
ATOM     29  C   UNL     1      47.885  12.597  -1.985  1.00  0.00     0.014 C 
ENDROOT
BRANCH   1  30
ATOM     30  C   UNL     1      40.926  19.597  -3.154  1.00  0.00     0.048 C 
ATOM     31  O   UNL     1      40.368  20.254  -2.232  1.00  0.00    -0.550 OA
ATOM     32  O   UNL     1      40.922  20.123  -4.445  1.00  0.00    -0.550 OA
ENDBRANCH   1  30
BRANCH  27  33
ATOM     33  O   UNL     1      48.827  10.877  -4.212  1.00  0.00    -0.393 OA
ATOM     34  H   UNL     1      49.227  11.021  -3.315  1.00  0.00     0.210 HD
ENDBRANCH  27  33
TORSDOF 2
ENDMDL
MODEL 6
REMARK VINA RESULT:    -3.373      1.819      7.783
REMARK INTER + INTRA:          -3.879
REMARK INTER:                  -3.619
REMARK INTRA:                  -0.261
REMARK UNBOUND:                -0.210
REMARK SMILES C[C@@H]1[C@@H](C)CC[C@@]2(C(=O)[O-])CC[C@]3(C)C(=CC[C@@H]4[C@]5(C)CC[C@@H](O)C(C)(C)[C@H]5CC[C@@]43C)[C@@H]12
REMARK SMILES IDX 7 1 6 2 11 3 33 4 5 5 12 6 15 7 2 8 3 9 13 10 16 11 1 12
REMARK SMILES IDX 4 13 14 14 31 15 17 16 18 17 30 18 32 19 19 20 29 21 28 22
REMARK SMILES IDX 21 23 20 24 25 25 22 26 23 27 26 28 27 29 8 30 9 31 10 32
REMARK SMILES IDX 24 33
REMARK H PARENT 24 34
REMARK Flexibility Score: inf
ROOT
ATOM      1  C   UNL     1      46.344  12.686  -4.708  1.00  0.00     0.017 C 
ATOM      2  C   UNL     1      45.433  11.473  -5.094  1.00  0.00     0.014 C 
ATOM      3  C   UNL     1      46.160  13.750  -5.823  1.00  0.00     0.014 C 
ATOM      4  C   UNL     1      45.965  13.278  -3.273  1.00  0.00     0.030 C 
ATOM      5  C   UNL     1      44.027  11.622  -4.522  1.00  0.00     0.004 C 
ATOM      6  C   UNL     1      46.714  15.115  -5.424  1.00  0.00     0.013 C 
ATOM      7  C   UNL     1      45.275  14.671  -3.368  1.00  0.00    -0.063 C 
ATOM      8  C   UNL     1      45.292  12.194  -2.340  1.00  0.00    -0.003 C 
ATOM      9  C   UNL     1      44.064  11.464  -2.993  1.00  0.00    -0.011 C 
ATOM     10  C   UNL     1      45.975  15.767  -4.194  1.00  0.00    -0.006 C 
ATOM     11  C   UNL     1      44.326  15.045  -2.493  1.00  0.00    -0.027 C 
ATOM     12  C   UNL     1      46.336  11.170  -1.847  1.00  0.00     0.008 C 
ATOM     13  C   UNL     1      42.724  11.897  -2.384  1.00  0.00     0.008 C 
ATOM     14  C   UNL     1      47.079  16.356  -3.253  1.00  0.00     0.017 C 
ATOM     15  C   UNL     1      44.961  16.933  -4.659  1.00  0.00    -0.020 C 
ATOM     16  C   UNL     1      43.569  16.331  -2.536  1.00  0.00     0.032 C 
ATOM     17  C   UNL     1      44.130  17.486  -3.420  1.00  0.00     0.006 C 
ATOM     18  C   UNL     1      43.929  16.406  -5.710  1.00  0.00     0.008 C 
ATOM     19  C   UNL     1      45.823  18.082  -5.313  1.00  0.00     0.012 C 
ATOM     20  C   UNL     1      42.981  18.552  -3.787  1.00  0.00    -0.025 C 
ATOM     21  C   UNL     1      42.841  17.428  -6.113  1.00  0.00     0.005 C 
ATOM     22  C   UNL     1      42.035  17.940  -4.894  1.00  0.00     0.003 C 
ATOM     23  C   UNL     1      42.102  18.878  -2.527  1.00  0.00     0.010 C 
ATOM     24  C   UNL     1      43.665  19.897  -4.207  1.00  0.00     0.012 C 
ATOM     25  C   UNL     1      40.735  18.780  -5.241  1.00  0.00    -0.006 C 
ATOM     26  C   UNL     1      40.864  19.739  -2.837  1.00  0.00     0.033 C 
ATOM     27  C   UNL     1      39.974  19.094  -3.908  1.00  0.00     0.120 C 
ATOM     28  C   UNL     1      41.016  20.077  -6.037  1.00  0.00     0.014 C 
ATOM     29  C   UNL     1      39.782  17.930  -6.125  1.00  0.00     0.014 C 
ENDROOT
BRANCH   1  30
ATOM     30  C   UNL     1      47.809  12.236  -4.733  1.00  0.00     0.048 C 
ATOM     31  O   UNL     1      48.194  11.362  -5.560  1.00  0.00    -0.550 OA
ATOM     32  O   UNL     1      48.735  12.749  -3.826  1.00  0.00    -0.550 OA
ENDBRANCH   1  30
BRANCH  27  33
ATOM     33  O   UNL     1      38.875  19.944  -4.143  1.00  0.00    -0.393 OA
ATOM     34  H   UNL     1      39.113  20.842  -3.794  1.00  0.00     0.210 HD
ENDBRANCH  27  33
TORSDOF 2
ENDMDL
