MODEL 1
REMARK VINA RESULT:    -7.075      0.000      0.000
REMARK INTER + INTRA:         -11.864
REMARK INTER:                 -10.178
REMARK INTRA:                  -1.686
REMARK UNBOUND:                -1.686
REMARK SMILES O=c1c(O[C@@H]2O[C@@H](CO)[C@H](O)[C@H](O)[C@H]2O)c(-c2ccc(O)cc2)oc2cc(O)cc(O)c12
REMARK SMILES IDX 4 1 3 2 16 3 24 4 2 5 25 6 1 7 32 8 26 9 30 10 27 11 29 12
REMARK SMILES IDX 17 13 18 14 19 15 20 16 23 17 22 18 21 19 31 21 28 23 5 25
REMARK SMILES IDX 14 26 6 27 12 28 7 29 10 30 15 31 13 33 8 35 9 36 11 38
REMARK H PARENT 21 20 31 22 28 24 15 32 13 34 9 37 11 39
REMARK Flexibility Score: inf
ROOT
ATOM      1  O   UNL     1      10.573 -31.593 -15.923  1.00  0.00    -0.454 OA
ENDROOT
BRANCH   1   2
ATOM      2  C   UNL     1      10.035 -30.311 -15.687  1.00  0.00     0.214 A 
ATOM      3  C   UNL     1       9.004 -29.834 -16.534  1.00  0.00     0.180 A 
ATOM      4  O   UNL     1       8.360 -28.711 -16.215  1.00  0.00    -0.452 OA
ATOM      5  C   UNL     1      10.449 -29.489 -14.616  1.00  0.00     0.239 A 
ATOM      6  C   UNL     1       8.653 -27.969 -15.159  1.00  0.00     0.146 A 
ATOM      7  O   UNL     1      11.466 -29.791 -13.937  1.00  0.00    -0.285 OA
ATOM      8  C   UNL     1       9.733 -28.307 -14.319  1.00  0.00     0.111 A 
ATOM      9  C   UNL     1       7.874 -26.842 -14.888  1.00  0.00     0.094 A 
ATOM     10  C   UNL     1      10.022 -27.486 -13.208  1.00  0.00     0.134 A 
ATOM     11  C   UNL     1       8.135 -26.052 -13.761  1.00  0.00     0.123 A 
ATOM     12  C   UNL     1       9.214 -26.370 -12.931  1.00  0.00     0.093 A 
BRANCH   3  13
ATOM     13  C   UNL     1       8.570 -30.524 -17.783  1.00  0.00     0.021 A 
ATOM     14  C   UNL     1       7.674 -31.612 -17.785  1.00  0.00     0.016 A 
ATOM     15  C   UNL     1       7.342 -32.259 -18.972  1.00  0.00     0.047 A 
ATOM     16  C   UNL     1       7.979 -31.907 -20.170  1.00  0.00     0.115 A 
ATOM     17  C   UNL     1       9.181 -30.153 -19.005  1.00  0.00     0.016 A 
ATOM     18  C   UNL     1       8.902 -30.852 -20.184  1.00  0.00     0.047 A 
BRANCH  16  19
ATOM     19  O   UNL     1       7.701 -32.622 -21.339  1.00  0.00    -0.508 OA
ATOM     20  H   UNL     1       7.309 -33.557 -21.302  1.00  0.00     0.293 HD
ENDBRANCH  16  19
ENDBRANCH   3  13
BRANCH  10  21
ATOM     21  O   UNL     1      11.091 -27.784 -12.365  1.00  0.00    -0.507 OA
ATOM     22  H   UNL     1      11.409 -28.721 -12.198  1.00  0.00     0.293 HD
ENDBRANCH  10  21
BRANCH  11  23
ATOM     23  O   UNL     1       7.318 -24.957 -13.477  1.00  0.00    -0.508 OA
ATOM     24  H   UNL     1       6.323 -25.071 -13.324  1.00  0.00     0.293 HD
ENDBRANCH  11  23
ENDBRANCH   1   2
BRANCH   1  25
ATOM     25  C   UNL     1      11.754 -31.908 -16.682  1.00  0.00     0.339 C 
ATOM     26  C   UNL     1      12.796 -32.686 -15.834  1.00  0.00     0.214 C 
ATOM     27  O   UNL     1      11.400 -32.633 -17.851  1.00  0.00    -0.332 OA
ATOM     28  C   UNL     1      12.286 -34.102 -15.506  1.00  0.00     0.180 C 
ATOM     29  C   UNL     1      10.799 -33.880 -17.550  1.00  0.00     0.179 C 
ATOM     30  C   UNL     1      11.778 -34.802 -16.778  1.00  0.00     0.177 C 
BRANCH  26  31
ATOM     31  O   UNL     1      14.037 -32.735 -16.486  1.00  0.00    -0.384 OA
ATOM     32  H   UNL     1      14.012 -33.447 -17.182  1.00  0.00     0.211 HD
ENDBRANCH  26  31
BRANCH  28  33
ATOM     33  O   UNL     1      11.247 -34.027 -14.560  1.00  0.00    -0.387 OA
ATOM     34  H   UNL     1      11.350 -34.806 -13.944  1.00  0.00     0.211 HD
ENDBRANCH  28  33
BRANCH  29  35
ATOM     35  C   UNL     1      10.380 -34.544 -18.863  1.00  0.00     0.191 C 
BRANCH  35  36
ATOM     36  O   UNL     1      11.241 -35.609 -19.161  1.00  0.00    -0.394 OA
ATOM     37  H   UNL     1      12.115 -35.211 -19.412  1.00  0.00     0.210 HD
ENDBRANCH  35  36
ENDBRANCH  29  35
BRANCH  30  38
ATOM     38  O   UNL     1      11.132 -35.999 -16.421  1.00  0.00    -0.387 OA
ATOM     39  H   UNL     1      10.200 -35.759 -16.162  1.00  0.00     0.211 HD
ENDBRANCH  30  38
ENDBRANCH   1  25
TORSDOF 11
ENDMDL
MODEL 2
REMARK VINA RESULT:    -7.058      3.533      7.800
REMARK INTER + INTRA:         -11.839
REMARK INTER:                 -10.298
REMARK INTRA:                  -1.541
REMARK UNBOUND:                -1.686
REMARK SMILES O=c1c(O[C@@H]2O[C@@H](CO)[C@H](O)[C@H](O)[C@H]2O)c(-c2ccc(O)cc2)oc2cc(O)cc(O)c12
REMARK SMILES IDX 4 1 3 2 16 3 24 4 2 5 25 6 1 7 32 8 26 9 30 10 27 11 29 12
REMARK SMILES IDX 17 13 18 14 19 15 20 16 23 17 22 18 21 19 31 21 28 23 5 25
REMARK SMILES IDX 14 26 6 27 12 28 7 29 10 30 15 31 13 33 8 35 9 36 11 38
REMARK H PARENT 21 20 31 22 28 24 15 32 13 34 9 37 11 39
REMARK Flexibility Score: inf
ROOT
ATOM      1  O   UNL     1      11.240 -31.488 -18.854  1.00  0.00    -0.454 OA
ENDROOT
BRANCH   1   2
ATOM      2  C   UNL     1      12.582 -31.823 -19.136  1.00  0.00     0.214 A 
ATOM      3  C   UNL     1      13.160 -32.942 -18.488  1.00  0.00     0.180 A 
ATOM      4  O   UNL     1      14.357 -33.379 -18.879  1.00  0.00    -0.452 OA
ATOM      5  C   UNL     1      13.369 -31.114 -20.070  1.00  0.00     0.239 A 
ATOM      6  C   UNL     1      15.080 -32.801 -19.825  1.00  0.00     0.146 A 
ATOM      7  O   UNL     1      12.963 -30.023 -20.550  1.00  0.00    -0.285 OA
ATOM      8  C   UNL     1      14.633 -31.620 -20.451  1.00  0.00     0.111 A 
ATOM      9  C   UNL     1      16.295 -33.380 -20.196  1.00  0.00     0.094 A 
ATOM     10  C   UNL     1      15.435 -31.026 -21.449  1.00  0.00     0.134 A 
ATOM     11  C   UNL     1      17.071 -32.814 -21.215  1.00  0.00     0.123 A 
ATOM     12  C   UNL     1      16.644 -31.633 -21.831  1.00  0.00     0.093 A 
BRANCH   3  13
ATOM     13  C   UNL     1      12.502 -33.689 -17.378  1.00  0.00     0.021 A 
ATOM     14  C   UNL     1      11.795 -34.892 -17.579  1.00  0.00     0.016 A 
ATOM     15  C   UNL     1      11.150 -35.525 -16.519  1.00  0.00     0.047 A 
ATOM     16  C   UNL     1      11.103 -34.916 -15.257  1.00  0.00     0.115 A 
ATOM     17  C   UNL     1      12.478 -33.102 -16.091  1.00  0.00     0.016 A 
ATOM     18  C   UNL     1      11.768 -33.701 -15.044  1.00  0.00     0.047 A 
BRANCH  16  19
ATOM     19  O   UNL     1      10.379 -35.519 -14.224  1.00  0.00    -0.508 OA
ATOM     20  H   UNL     1       9.420 -35.821 -14.362  1.00  0.00     0.293 HD
ENDBRANCH  16  19
ENDBRANCH   3  13
BRANCH  10  21
ATOM     21  O   UNL     1      15.030 -29.851 -22.078  1.00  0.00    -0.507 OA
ATOM     22  H   UNL     1      15.671 -29.236 -22.548  1.00  0.00     0.293 HD
ENDBRANCH  10  21
BRANCH  11  23
ATOM     23  O   UNL     1      18.259 -33.431 -21.607  1.00  0.00    -0.508 OA
ATOM     24  H   UNL     1      18.303 -34.003 -22.441  1.00  0.00     0.293 HD
ENDBRANCH  11  23
ENDBRANCH   1   2
BRANCH   1  25
ATOM     25  C   UNL     1      10.075 -31.892 -19.594  1.00  0.00     0.339 C 
ATOM     26  C   UNL     1       9.104 -32.739 -18.730  1.00  0.00     0.214 C 
ATOM     27  O   UNL     1       9.422 -30.750 -20.130  1.00  0.00    -0.332 OA
ATOM     28  C   UNL     1       8.455 -31.876 -17.631  1.00  0.00     0.180 C 
ATOM     29  C   UNL     1       8.945 -29.879 -19.118  1.00  0.00     0.179 C 
ATOM     30  C   UNL     1       7.884 -30.579 -18.231  1.00  0.00     0.177 C 
BRANCH  26  31
ATOM     31  O   UNL     1       8.130 -33.357 -19.528  1.00  0.00    -0.384 OA
ATOM     32  H   UNL     1       7.576 -32.656 -19.967  1.00  0.00     0.211 HD
ENDBRANCH  26  31
BRANCH  28  33
ATOM     33  O   UNL     1       9.409 -31.563 -16.646  1.00  0.00    -0.387 OA
ATOM     34  H   UNL     1       8.931 -31.084 -15.912  1.00  0.00     0.211 HD
ENDBRANCH  28  33
BRANCH  29  35
ATOM     35  C   UNL     1       8.335 -28.647 -19.790  1.00  0.00     0.191 C 
BRANCH  35  36
ATOM     36  O   UNL     1       6.941 -28.771 -19.850  1.00  0.00    -0.394 OA
ATOM     37  H   UNL     1       6.605 -28.698 -18.918  1.00  0.00     0.210 HD
ENDBRANCH  35  36
ENDBRANCH  29  35
BRANCH  30  38
ATOM     38  O   UNL     1       7.488 -29.723 -17.188  1.00  0.00    -0.387 OA
ATOM     39  H   UNL     1       8.157 -28.984 -17.150  1.00  0.00     0.211 HD
ENDBRANCH  30  38
ENDBRANCH   1  25
TORSDOF 11
ENDMDL
MODEL 3
REMARK VINA RESULT:    -7.041      4.216      5.967
REMARK INTER + INTRA:         -11.815
REMARK INTER:                 -10.271
REMARK INTRA:                  -1.544
REMARK UNBOUND:                -1.686
REMARK SMILES O=c1c(O[C@@H]2O[C@@H](CO)[C@H](O)[C@H](O)[C@H]2O)c(-c2ccc(O)cc2)oc2cc(O)cc(O)c12
REMARK SMILES IDX 4 1 3 2 16 3 24 4 2 5 25 6 1 7 32 8 26 9 30 10 27 11 29 12
REMARK SMILES IDX 17 13 18 14 19 15 20 16 23 17 22 18 21 19 31 21 28 23 5 25
REMARK SMILES IDX 14 26 6 27 12 28 7 29 10 30 15 31 13 33 8 35 9 36 11 38
REMARK H PARENT 21 20 31 22 28 24 15 32 13 34 9 37 11 39
REMARK Flexibility Score: inf
ROOT
ATOM      1  O   UNL     1      12.847 -30.990 -19.051  1.00  0.00    -0.454 OA
ENDROOT
BRANCH   1   2
ATOM      2  C   UNL     1      11.551 -30.639 -19.486  1.00  0.00     0.214 A 
ATOM      3  C   UNL     1      10.472 -31.510 -19.199  1.00  0.00     0.180 A 
ATOM      4  O   UNL     1       9.224 -31.107 -19.438  1.00  0.00    -0.452 OA
ATOM      5  C   UNL     1      11.271 -29.432 -20.164  1.00  0.00     0.239 A 
ATOM      6  C   UNL     1       8.917 -29.938 -19.978  1.00  0.00     0.146 A 
ATOM      7  O   UNL     1      12.208 -28.704 -20.585  1.00  0.00    -0.285 OA
ATOM      8  C   UNL     1       9.929 -29.051 -20.394  1.00  0.00     0.111 A 
ATOM      9  C   UNL     1       7.572 -29.596 -20.128  1.00  0.00     0.094 A 
ATOM     10  C   UNL     1       9.564 -27.817 -20.974  1.00  0.00     0.134 A 
ATOM     11  C   UNL     1       7.210 -28.354 -20.665  1.00  0.00     0.123 A 
ATOM     12  C   UNL     1       8.207 -27.473 -21.097  1.00  0.00     0.093 A 
BRANCH   3  13
ATOM     13  C   UNL     1      10.639 -32.876 -18.625  1.00  0.00     0.021 A 
ATOM     14  C   UNL     1      10.894 -33.105 -17.258  1.00  0.00     0.016 A 
ATOM     15  C   UNL     1      11.097 -34.397 -16.778  1.00  0.00     0.047 A 
ATOM     16  C   UNL     1      11.157 -35.479 -17.668  1.00  0.00     0.115 A 
ATOM     17  C   UNL     1      10.666 -33.980 -19.509  1.00  0.00     0.016 A 
ATOM     18  C   UNL     1      10.943 -35.268 -19.037  1.00  0.00     0.047 A 
BRANCH  16  19
ATOM     19  O   UNL     1      11.448 -36.758 -17.184  1.00  0.00    -0.508 OA
ATOM     20  H   UNL     1      12.099 -37.367 -17.669  1.00  0.00     0.293 HD
ENDBRANCH  16  19
ENDBRANCH   3  13
BRANCH  10  21
ATOM     21  O   UNL     1      10.539 -26.921 -21.409  1.00  0.00    -0.507 OA
ATOM     22  H   UNL     1      11.491 -27.192 -21.579  1.00  0.00     0.293 HD
ENDBRANCH  10  21
BRANCH  11  23
ATOM     23  O   UNL     1       5.863 -28.007 -20.765  1.00  0.00    -0.508 OA
ATOM     24  H   UNL     1       5.526 -27.111 -20.437  1.00  0.00     0.293 HD
ENDBRANCH  11  23
ENDBRANCH   1   2
BRANCH   1  25
ATOM     25  C   UNL     1      13.744 -31.923 -19.676  1.00  0.00     0.339 C 
ATOM     26  C   UNL     1      14.747 -31.215 -20.626  1.00  0.00     0.214 C 
ATOM     27  O   UNL     1      14.424 -32.682 -18.685  1.00  0.00    -0.332 OA
ATOM     28  C   UNL     1      15.746 -30.357 -19.825  1.00  0.00     0.180 C 
ATOM     29  C   UNL     1      15.238 -31.872 -17.853  1.00  0.00     0.179 C 
ATOM     30  C   UNL     1      16.354 -31.173 -18.671  1.00  0.00     0.177 C 
BRANCH  26  31
ATOM     31  O   UNL     1      15.416 -32.145 -21.434  1.00  0.00    -0.384 OA
ATOM     32  H   UNL     1      14.748 -32.751 -21.855  1.00  0.00     0.211 HD
ENDBRANCH  26  31
BRANCH  28  33
ATOM     33  O   UNL     1      15.092 -29.222 -19.310  1.00  0.00    -0.387 OA
ATOM     34  H   UNL     1      15.326 -28.452 -19.900  1.00  0.00     0.211 HD
ENDBRANCH  28  33
BRANCH  29  35
ATOM     35  C   UNL     1      15.858 -32.761 -16.774  1.00  0.00     0.191 C 
BRANCH  35  36
ATOM     36  O   UNL     1      16.366 -31.973 -15.733  1.00  0.00    -0.394 OA
ATOM     37  H   UNL     1      16.620 -31.100 -16.131  1.00  0.00     0.210 HD
ENDBRANCH  35  36
ENDBRANCH  29  35
BRANCH  30  38
ATOM     38  O   UNL     1      17.095 -30.315 -17.839  1.00  0.00    -0.387 OA
ATOM     39  H   UNL     1      16.459 -29.946 -17.164  1.00  0.00     0.211 HD
ENDBRANCH  30  38
ENDBRANCH   1  25
TORSDOF 11
ENDMDL
MODEL 4
REMARK VINA RESULT:    -6.965      2.616      7.784
REMARK INTER + INTRA:         -11.705
REMARK INTER:                 -10.315
REMARK INTRA:                  -1.390
REMARK UNBOUND:                -1.686
REMARK SMILES O=c1c(O[C@@H]2O[C@@H](CO)[C@H](O)[C@H](O)[C@H]2O)c(-c2ccc(O)cc2)oc2cc(O)cc(O)c12
REMARK SMILES IDX 4 1 3 2 16 3 24 4 2 5 25 6 1 7 32 8 26 9 30 10 27 11 29 12
REMARK SMILES IDX 17 13 18 14 19 15 20 16 23 17 22 18 21 19 31 21 28 23 5 25
REMARK SMILES IDX 14 26 6 27 12 28 7 29 10 30 15 31 13 33 8 35 9 36 11 38
REMARK H PARENT 21 20 31 22 28 24 15 32 13 34 9 37 11 39
REMARK Flexibility Score: inf
ROOT
ATOM      1  O   UNL     1       9.945 -27.460 -14.453  1.00  0.00    -0.454 OA
ENDROOT
BRANCH   1   2
ATOM      2  C   UNL     1       9.285 -28.006 -15.574  1.00  0.00     0.214 A 
ATOM      3  C   UNL     1       8.520 -27.149 -16.404  1.00  0.00     0.180 A 
ATOM      4  O   UNL     1       8.046 -27.610 -17.562  1.00  0.00    -0.452 OA
ATOM      5  C   UNL     1       9.382 -29.368 -15.934  1.00  0.00     0.239 A 
ATOM      6  C   UNL     1       8.208 -28.855 -17.981  1.00  0.00     0.146 A 
ATOM      7  O   UNL     1       9.910 -30.199 -15.149  1.00  0.00    -0.285 OA
ATOM      8  C   UNL     1       8.862 -29.807 -17.173  1.00  0.00     0.111 A 
ATOM      9  C   UNL     1       7.719 -29.213 -19.239  1.00  0.00     0.094 A 
ATOM     10  C   UNL     1       9.007 -31.128 -17.649  1.00  0.00     0.134 A 
ATOM     11  C   UNL     1       7.900 -30.513 -19.728  1.00  0.00     0.123 A 
ATOM     12  C   UNL     1       8.533 -31.469 -18.928  1.00  0.00     0.093 A 
BRANCH   3  13
ATOM     13  C   UNL     1       8.210 -25.730 -16.069  1.00  0.00     0.021 A 
ATOM     14  C   UNL     1       8.836 -24.639 -16.705  1.00  0.00     0.016 A 
ATOM     15  C   UNL     1       8.553 -23.331 -16.319  1.00  0.00     0.047 A 
ATOM     16  C   UNL     1       7.722 -23.085 -15.216  1.00  0.00     0.115 A 
ATOM     17  C   UNL     1       7.345 -25.468 -14.980  1.00  0.00     0.016 A 
ATOM     18  C   UNL     1       7.118 -24.157 -14.546  1.00  0.00     0.047 A 
BRANCH  16  19
ATOM     19  O   UNL     1       7.515 -21.772 -14.785  1.00  0.00    -0.508 OA
ATOM     20  H   UNL     1       8.296 -21.162 -14.565  1.00  0.00     0.293 HD
ENDBRANCH  16  19
ENDBRANCH   3  13
BRANCH  10  21
ATOM     21  O   UNL     1       9.637 -32.097 -16.871  1.00  0.00    -0.507 OA
ATOM     22  H   UNL     1       9.392 -33.070 -16.910  1.00  0.00     0.293 HD
ENDBRANCH  10  21
BRANCH  11  23
ATOM     23  O   UNL     1       7.448 -30.842 -21.006  1.00  0.00    -0.508 OA
ATOM     24  H   UNL     1       7.413 -30.150 -21.745  1.00  0.00     0.293 HD
ENDBRANCH  11  23
ENDBRANCH   1   2
BRANCH   1  25
ATOM     25  C   UNL     1       9.567 -27.604 -13.073  1.00  0.00     0.339 C 
ATOM     26  C   UNL     1      10.680 -28.289 -12.236  1.00  0.00     0.214 C 
ATOM     27  O   UNL     1       9.222 -26.338 -12.530  1.00  0.00    -0.332 OA
ATOM     28  C   UNL     1      11.906 -27.366 -12.097  1.00  0.00     0.180 C 
ATOM     29  C   UNL     1      10.317 -25.436 -12.532  1.00  0.00     0.179 C 
ATOM     30  C   UNL     1      11.475 -25.960 -11.644  1.00  0.00     0.177 C 
BRANCH  26  31
ATOM     31  O   UNL     1      10.196 -28.676 -10.978  1.00  0.00    -0.384 OA
ATOM     32  H   UNL     1      10.119 -29.668 -10.950  1.00  0.00     0.211 HD
ENDBRANCH  26  31
BRANCH  28  33
ATOM     33  O   UNL     1      12.580 -27.281 -13.330  1.00  0.00    -0.387 OA
ATOM     34  H   UNL     1      13.285 -27.987 -13.331  1.00  0.00     0.211 HD
ENDBRANCH  28  33
BRANCH  29  35
ATOM     35  C   UNL     1       9.828 -24.084 -12.009  1.00  0.00     0.191 C 
BRANCH  35  36
ATOM     36  O   UNL     1      10.645 -23.055 -12.494  1.00  0.00    -0.394 OA
ATOM     37  H   UNL     1      11.502 -23.109 -11.995  1.00  0.00     0.210 HD
ENDBRANCH  35  36
ENDBRANCH  29  35
BRANCH  30  38
ATOM     38  O   UNL     1      12.576 -25.090 -11.727  1.00  0.00    -0.387 OA
ATOM     39  H   UNL     1      13.331 -25.531 -11.247  1.00  0.00     0.211 HD
ENDBRANCH  30  38
ENDBRANCH   1  25
TORSDOF 11
ENDMDL
MODEL 5
REMARK VINA RESULT:    -6.917      2.794      4.342
REMARK INTER + INTRA:         -11.636
REMARK INTER:                  -9.990
REMARK INTRA:                  -1.646
REMARK UNBOUND:                -1.686
REMARK SMILES O=c1c(O[C@@H]2O[C@@H](CO)[C@H](O)[C@H](O)[C@H]2O)c(-c2ccc(O)cc2)oc2cc(O)cc(O)c12
REMARK SMILES IDX 4 1 3 2 16 3 24 4 2 5 25 6 1 7 32 8 26 9 30 10 27 11 29 12
REMARK SMILES IDX 17 13 18 14 19 15 20 16 23 17 22 18 21 19 31 21 28 23 5 25
REMARK SMILES IDX 14 26 6 27 12 28 7 29 10 30 15 31 13 33 8 35 9 36 11 38
REMARK H PARENT 21 20 31 22 28 24 15 32 13 34 9 37 11 39
REMARK Flexibility Score: inf
ROOT
ATOM      1  O   UNL     1       8.438 -28.744 -17.541  1.00  0.00    -0.454 OA
ENDROOT
BRANCH   1   2
ATOM      2  C   UNL     1       8.545 -27.389 -17.163  1.00  0.00     0.214 A 
ATOM      3  C   UNL     1       8.963 -26.439 -18.127  1.00  0.00     0.180 A 
ATOM      4  O   UNL     1       8.891 -25.139 -17.840  1.00  0.00    -0.452 OA
ATOM      5  C   UNL     1       8.215 -26.924 -15.870  1.00  0.00     0.239 A 
ATOM      6  C   UNL     1       8.487 -24.663 -16.673  1.00  0.00     0.146 A 
ATOM      7  O   UNL     1       7.996 -27.740 -14.936  1.00  0.00    -0.285 OA
ATOM      8  C   UNL     1       8.154 -25.535 -15.617  1.00  0.00     0.111 A 
ATOM      9  C   UNL     1       8.395 -23.280 -16.503  1.00  0.00     0.094 A 
ATOM     10  C   UNL     1       7.736 -24.991 -14.383  1.00  0.00     0.134 A 
ATOM     11  C   UNL     1       7.941 -22.742 -15.292  1.00  0.00     0.123 A 
ATOM     12  C   UNL     1       7.623 -23.598 -14.233  1.00  0.00     0.093 A 
BRANCH   3  13
ATOM     13  C   UNL     1       9.481 -26.801 -19.477  1.00  0.00     0.021 A 
ATOM     14  C   UNL     1       8.642 -27.205 -20.535  1.00  0.00     0.016 A 
ATOM     15  C   UNL     1       9.177 -27.587 -21.763  1.00  0.00     0.047 A 
ATOM     16  C   UNL     1      10.567 -27.677 -21.930  1.00  0.00     0.115 A 
ATOM     17  C   UNL     1      10.882 -26.862 -19.668  1.00  0.00     0.016 A 
ATOM     18  C   UNL     1      11.419 -27.315 -20.878  1.00  0.00     0.047 A 
BRANCH  16  19
ATOM     19  O   UNL     1      11.090 -28.144 -23.139  1.00  0.00    -0.508 OA
ATOM     20  H   UNL     1      12.072 -28.384 -23.228  1.00  0.00     0.293 HD
ENDBRANCH  16  19
ENDBRANCH   3  13
BRANCH  10  21
ATOM     21  O   UNL     1       7.412 -25.824 -13.314  1.00  0.00    -0.507 OA
ATOM     22  H   UNL     1       7.381 -25.502 -12.363  1.00  0.00     0.293 HD
ENDBRANCH  10  21
BRANCH  11  23
ATOM     23  O   UNL     1       7.809 -21.360 -15.153  1.00  0.00    -0.508 OA
ATOM     24  H   UNL     1       6.940 -20.891 -15.377  1.00  0.00     0.293 HD
ENDBRANCH  11  23
ENDBRANCH   1   2
BRANCH   1  25
ATOM     25  C   UNL     1       9.461 -29.750 -17.447  1.00  0.00     0.339 C 
ATOM     26  C   UNL     1       9.018 -30.946 -16.562  1.00  0.00     0.214 C 
ATOM     27  O   UNL     1       9.835 -30.185 -18.747  1.00  0.00    -0.332 OA
ATOM     28  C   UNL     1       7.896 -31.748 -17.249  1.00  0.00     0.180 C 
ATOM     29  C   UNL     1       8.760 -30.799 -19.438  1.00  0.00     0.179 C 
ATOM     30  C   UNL     1       8.279 -32.077 -18.702  1.00  0.00     0.177 C 
BRANCH  26  31
ATOM     31  O   UNL     1      10.108 -31.770 -16.250  1.00  0.00    -0.384 OA
ATOM     32  H   UNL     1       9.840 -32.722 -16.362  1.00  0.00     0.211 HD
ENDBRANCH  26  31
BRANCH  28  33
ATOM     33  O   UNL     1       6.700 -31.006 -17.230  1.00  0.00    -0.387 OA
ATOM     34  H   UNL     1       5.946 -31.660 -17.218  1.00  0.00     0.211 HD
ENDBRANCH  28  33
BRANCH  29  35
ATOM     35  C   UNL     1       9.235 -31.155 -20.848  1.00  0.00     0.191 C 
BRANCH  35  36
ATOM     36  O   UNL     1       9.520 -32.525 -20.930  1.00  0.00    -0.394 OA
ATOM     37  H   UNL     1       9.142 -32.946 -20.115  1.00  0.00     0.210 HD
ENDBRANCH  35  36
ENDBRANCH  29  35
BRANCH  30  38
ATOM     38  O   UNL     1       7.163 -32.620 -19.363  1.00  0.00    -0.387 OA
ATOM     39  H   UNL     1       6.848 -33.391 -18.813  1.00  0.00     0.211 HD
ENDBRANCH  30  38
ENDBRANCH   1  25
TORSDOF 11
ENDMDL
MODEL 6
REMARK VINA RESULT:    -6.860      4.494      6.728
REMARK INTER + INTRA:         -11.553
REMARK INTER:                 -10.134
REMARK INTRA:                  -1.419
REMARK UNBOUND:                -1.686
REMARK SMILES O=c1c(O[C@@H]2O[C@@H](CO)[C@H](O)[C@H](O)[C@H]2O)c(-c2ccc(O)cc2)oc2cc(O)cc(O)c12
REMARK SMILES IDX 4 1 3 2 16 3 24 4 2 5 25 6 1 7 32 8 26 9 30 10 27 11 29 12
REMARK SMILES IDX 17 13 18 14 19 15 20 16 23 17 22 18 21 19 31 21 28 23 5 25
REMARK SMILES IDX 14 26 6 27 12 28 7 29 10 30 15 31 13 33 8 35 9 36 11 38
REMARK H PARENT 21 20 31 22 28 24 15 32 13 34 9 37 11 39
REMARK Flexibility Score: inf
ROOT
ATOM      1  O   UNL     1      12.587 -32.856 -17.479  1.00  0.00    -0.454 OA
ENDROOT
BRANCH   1   2
ATOM      2  C   UNL     1      13.478 -33.018 -16.397  1.00  0.00     0.214 A 
ATOM      3  C   UNL     1      14.855 -32.749 -16.596  1.00  0.00     0.180 A 
ATOM      4  O   UNL     1      15.675 -32.718 -15.546  1.00  0.00    -0.452 OA
ATOM      5  C   UNL     1      13.056 -33.401 -15.105  1.00  0.00     0.239 A 
ATOM      6  C   UNL     1      15.292 -32.969 -14.304  1.00  0.00     0.146 A 
ATOM      7  O   UNL     1      11.879 -33.807 -14.913  1.00  0.00    -0.285 OA
ATOM      8  C   UNL     1      13.965 -33.352 -14.024  1.00  0.00     0.111 A 
ATOM      9  C   UNL     1      16.225 -32.849 -13.272  1.00  0.00     0.094 A 
ATOM     10  C   UNL     1      13.596 -33.622 -12.689  1.00  0.00     0.134 A 
ATOM     11  C   UNL     1      15.848 -33.077 -11.943  1.00  0.00     0.123 A 
ATOM     12  C   UNL     1      14.538 -33.473 -11.656  1.00  0.00     0.093 A 
BRANCH   3  13
ATOM     13  C   UNL     1      15.462 -32.481 -17.931  1.00  0.00     0.021 A 
ATOM     14  C   UNL     1      15.640 -31.180 -18.444  1.00  0.00     0.016 A 
ATOM     15  C   UNL     1      16.162 -30.982 -19.720  1.00  0.00     0.047 A 
ATOM     16  C   UNL     1      16.418 -32.079 -20.556  1.00  0.00     0.115 A 
ATOM     17  C   UNL     1      15.758 -33.581 -18.771  1.00  0.00     0.016 A 
ATOM     18  C   UNL     1      16.213 -33.380 -20.079  1.00  0.00     0.047 A 
BRANCH  16  19
ATOM     19  O   UNL     1      16.859 -31.864 -21.865  1.00  0.00    -0.508 OA
ATOM     20  H   UNL     1      17.262 -30.975 -22.144  1.00  0.00     0.293 HD
ENDBRANCH  16  19
ENDBRANCH   3  13
BRANCH  10  21
ATOM     21  O   UNL     1      12.296 -34.015 -12.378  1.00  0.00    -0.507 OA
ATOM     22  H   UNL     1      12.079 -34.619 -11.606  1.00  0.00     0.293 HD
ENDBRANCH  10  21
BRANCH  11  23
ATOM     23  O   UNL     1      16.780 -32.907 -10.919  1.00  0.00    -0.508 OA
ATOM     24  H   UNL     1      16.526 -32.454 -10.049  1.00  0.00     0.293 HD
ENDBRANCH  11  23
ENDBRANCH   1   2
BRANCH   1  25
ATOM     25  C   UNL     1      12.405 -33.752 -18.589  1.00  0.00     0.339 C 
ATOM     26  C   UNL     1      11.486 -34.948 -18.224  1.00  0.00     0.214 C 
ATOM     27  O   UNL     1      11.899 -33.039 -19.709  1.00  0.00    -0.332 OA
ATOM     28  C   UNL     1      10.037 -34.476 -18.003  1.00  0.00     0.180 C 
ATOM     29  C   UNL     1      10.620 -32.481 -19.458  1.00  0.00     0.179 C 
ATOM     30  C   UNL     1       9.573 -33.588 -19.171  1.00  0.00     0.177 C 
BRANCH  26  31
ATOM     31  O   UNL     1      11.547 -35.946 -19.208  1.00  0.00    -0.384 OA
ATOM     32  H   UNL     1      12.480 -36.012 -19.548  1.00  0.00     0.211 HD
ENDBRANCH  26  31
BRANCH  28  33
ATOM     33  O   UNL     1       9.949 -33.757 -16.796  1.00  0.00    -0.387 OA
ATOM     34  H   UNL     1       9.148 -33.166 -16.862  1.00  0.00     0.211 HD
ENDBRANCH  28  33
BRANCH  29  35
ATOM     35  C   UNL     1      10.200 -31.669 -20.685  1.00  0.00     0.191 C 
BRANCH  35  36
ATOM     36  O   UNL     1       9.250 -32.379 -21.432  1.00  0.00    -0.394 OA
ATOM     37  H   UNL     1       9.692 -32.643 -22.281  1.00  0.00     0.210 HD
ENDBRANCH  35  36
ENDBRANCH  29  35
BRANCH  30  38
ATOM     38  O   UNL     1       8.335 -33.006 -18.846  1.00  0.00    -0.387 OA
ATOM     39  H   UNL     1       7.826 -33.684 -18.319  1.00  0.00     0.211 HD
ENDBRANCH  30  38
ENDBRANCH   1  25
TORSDOF 11
ENDMDL
MODEL 7
REMARK VINA RESULT:    -6.826      3.625      8.516
REMARK INTER + INTRA:         -11.505
REMARK INTER:                 -10.440
REMARK INTRA:                  -1.065
REMARK UNBOUND:                -1.686
REMARK SMILES O=c1c(O[C@@H]2O[C@@H](CO)[C@H](O)[C@H](O)[C@H]2O)c(-c2ccc(O)cc2)oc2cc(O)cc(O)c12
REMARK SMILES IDX 4 1 3 2 16 3 24 4 2 5 25 6 1 7 32 8 26 9 30 10 27 11 29 12
REMARK SMILES IDX 17 13 18 14 19 15 20 16 23 17 22 18 21 19 31 21 28 23 5 25
REMARK SMILES IDX 14 26 6 27 12 28 7 29 10 30 15 31 13 33 8 35 9 36 11 38
REMARK H PARENT 21 20 31 22 28 24 15 32 13 34 9 37 11 39
REMARK Flexibility Score: inf
ROOT
ATOM      1  O   UNL     1       8.963 -25.951 -13.572  1.00  0.00    -0.454 OA
ENDROOT
BRANCH   1   2
ATOM      2  C   UNL     1       8.818 -26.289 -14.934  1.00  0.00     0.214 A 
ATOM      3  C   UNL     1       8.363 -25.301 -15.841  1.00  0.00     0.180 A 
ATOM      4  O   UNL     1       8.398 -25.547 -17.151  1.00  0.00    -0.452 OA
ATOM      5  C   UNL     1       9.144 -27.564 -15.447  1.00  0.00     0.239 A 
ATOM      6  C   UNL     1       8.797 -26.696 -17.674  1.00  0.00     0.146 A 
ATOM      7  O   UNL     1       9.396 -28.520 -14.668  1.00  0.00    -0.285 OA
ATOM      8  C   UNL     1       9.166 -27.774 -16.845  1.00  0.00     0.111 A 
ATOM      9  C   UNL     1       8.849 -26.823 -19.064  1.00  0.00     0.094 A 
ATOM     10  C   UNL     1       9.577 -28.987 -17.439  1.00  0.00     0.134 A 
ATOM     11  C   UNL     1       9.297 -28.012 -19.652  1.00  0.00     0.123 A 
ATOM     12  C   UNL     1       9.649 -29.094 -18.838  1.00  0.00     0.093 A 
BRANCH   3  13
ATOM     13  C   UNL     1       7.845 -23.967 -15.423  1.00  0.00     0.021 A 
ATOM     14  C   UNL     1       6.808 -23.809 -14.481  1.00  0.00     0.016 A 
ATOM     15  C   UNL     1       6.321 -22.543 -14.163  1.00  0.00     0.047 A 
ATOM     16  C   UNL     1       6.783 -21.415 -14.856  1.00  0.00     0.115 A 
ATOM     17  C   UNL     1       8.329 -22.816 -16.090  1.00  0.00     0.016 A 
ATOM     18  C   UNL     1       7.788 -21.554 -15.823  1.00  0.00     0.047 A 
BRANCH  16  19
ATOM     19  O   UNL     1       6.224 -20.161 -14.589  1.00  0.00    -0.508 OA
ATOM     20  H   UNL     1       5.325 -20.075 -14.128  1.00  0.00     0.293 HD
ENDBRANCH  16  19
ENDBRANCH   3  13
BRANCH  10  21
ATOM     21  O   UNL     1       9.935 -30.078 -16.649  1.00  0.00    -0.507 OA
ATOM     22  H   UNL     1       9.462 -30.310 -15.795  1.00  0.00     0.293 HD
ENDBRANCH  10  21
BRANCH  11  23
ATOM     23  O   UNL     1       9.388 -28.108 -21.041  1.00  0.00    -0.508 OA
ATOM     24  H   UNL     1       9.572 -28.994 -21.495  1.00  0.00     0.293 HD
ENDBRANCH  11  23
ENDBRANCH   1   2
BRANCH   1  25
ATOM     25  C   UNL     1      10.086 -25.296 -12.959  1.00  0.00     0.339 C 
ATOM     26  C   UNL     1       9.666 -24.000 -12.215  1.00  0.00     0.214 C 
ATOM     27  O   UNL     1      10.756 -26.195 -12.086  1.00  0.00    -0.332 OA
ATOM     28  C   UNL     1       8.822 -24.333 -10.970  1.00  0.00     0.180 C 
ATOM     29  C   UNL     1       9.931 -26.616 -11.013  1.00  0.00     0.179 C 
ATOM     30  C   UNL     1       9.513 -25.416 -10.123  1.00  0.00     0.177 C 
BRANCH  26  31
ATOM     31  O   UNL     1      10.788 -23.232 -11.873  1.00  0.00    -0.384 OA
ATOM     32  H   UNL     1      10.774 -23.052 -10.894  1.00  0.00     0.211 HD
ENDBRANCH  26  31
BRANCH  28  33
ATOM     33  O   UNL     1       7.548 -24.783 -11.366  1.00  0.00    -0.387 OA
ATOM     34  H   UNL     1       7.513 -24.734 -12.362  1.00  0.00     0.211 HD
ENDBRANCH  28  33
BRANCH  29  35
ATOM     35  C   UNL     1      10.708 -27.639 -10.181  1.00  0.00     0.191 C 
BRANCH  35  36
ATOM     36  O   UNL     1      10.332 -28.939 -10.542  1.00  0.00    -0.394 OA
ATOM     37  H   UNL     1      10.546 -29.526  -9.770  1.00  0.00     0.210 HD
ENDBRANCH  35  36
ENDBRANCH  29  35
BRANCH  30  38
ATOM     38  O   UNL     1       8.632 -25.848  -9.116  1.00  0.00    -0.387 OA
ATOM     39  H   UNL     1       8.821 -26.815  -8.961  1.00  0.00     0.211 HD
ENDBRANCH  30  38
ENDBRANCH   1  25
TORSDOF 11
ENDMDL
MODEL 8
REMARK VINA RESULT:    -6.813      1.127      2.230
REMARK INTER + INTRA:         -11.486
REMARK INTER:                  -9.900
REMARK INTRA:                  -1.585
REMARK UNBOUND:                -1.686
REMARK SMILES O=c1c(O[C@@H]2O[C@@H](CO)[C@H](O)[C@H](O)[C@H]2O)c(-c2ccc(O)cc2)oc2cc(O)cc(O)c12
REMARK SMILES IDX 4 1 3 2 16 3 24 4 2 5 25 6 1 7 32 8 26 9 30 10 27 11 29 12
REMARK SMILES IDX 17 13 18 14 19 15 20 16 23 17 22 18 21 19 31 21 28 23 5 25
REMARK SMILES IDX 14 26 6 27 12 28 7 29 10 30 15 31 13 33 8 35 9 36 11 38
REMARK H PARENT 21 20 31 22 28 24 15 32 13 34 9 37 11 39
REMARK Flexibility Score: inf
ROOT
ATOM      1  O   UNL     1      10.598 -30.924 -15.659  1.00  0.00    -0.454 OA
ENDROOT
BRANCH   1   2
ATOM      2  C   UNL     1       9.973 -29.690 -15.382  1.00  0.00     0.214 A 
ATOM      3  C   UNL     1       8.884 -29.276 -16.190  1.00  0.00     0.180 A 
ATOM      4  O   UNL     1       8.169 -28.210 -15.829  1.00  0.00    -0.452 OA
ATOM      5  C   UNL     1      10.357 -28.859 -14.307  1.00  0.00     0.239 A 
ATOM      6  C   UNL     1       8.438 -27.468 -14.767  1.00  0.00     0.146 A 
ATOM      7  O   UNL     1      11.413 -29.097 -13.662  1.00  0.00    -0.285 OA
ATOM      8  C   UNL     1       9.564 -27.739 -13.965  1.00  0.00     0.111 A 
ATOM      9  C   UNL     1       7.585 -26.408 -14.450  1.00  0.00     0.094 A 
ATOM     10  C   UNL     1       9.825 -26.920 -12.846  1.00  0.00     0.134 A 
ATOM     11  C   UNL     1       7.820 -25.621 -13.316  1.00  0.00     0.123 A 
ATOM     12  C   UNL     1       8.945 -25.872 -12.523  1.00  0.00     0.093 A 
BRANCH   3  13
ATOM     13  C   UNL     1       8.466 -29.974 -17.439  1.00  0.00     0.021 A 
ATOM     14  C   UNL     1       7.585 -31.074 -17.444  1.00  0.00     0.016 A 
ATOM     15  C   UNL     1       7.268 -31.728 -18.632  1.00  0.00     0.047 A 
ATOM     16  C   UNL     1       7.906 -31.367 -19.828  1.00  0.00     0.115 A 
ATOM     17  C   UNL     1       9.077 -29.596 -18.658  1.00  0.00     0.016 A 
ATOM     18  C   UNL     1       8.813 -30.300 -19.839  1.00  0.00     0.047 A 
BRANCH  16  19
ATOM     19  O   UNL     1       7.643 -32.088 -20.997  1.00  0.00    -0.508 OA
ATOM     20  H   UNL     1       8.307 -32.104 -21.764  1.00  0.00     0.293 HD
ENDBRANCH  16  19
ENDBRANCH   3  13
BRANCH  10  21
ATOM     21  O   UNL     1      10.937 -27.152 -12.039  1.00  0.00    -0.507 OA
ATOM     22  H   UNL     1      11.196 -26.547 -11.282  1.00  0.00     0.293 HD
ENDBRANCH  10  21
BRANCH  11  23
ATOM     23  O   UNL     1       6.933 -24.596 -12.987  1.00  0.00    -0.508 OA
ATOM     24  H   UNL     1       6.348 -24.162 -13.690  1.00  0.00     0.293 HD
ENDBRANCH  11  23
ENDBRANCH   1   2
BRANCH   1  25
ATOM     25  C   UNL     1      10.526 -32.125 -14.871  1.00  0.00     0.339 C 
ATOM     26  C   UNL     1       9.855 -33.289 -15.649  1.00  0.00     0.214 C 
ATOM     27  O   UNL     1      11.824 -32.489 -14.422  1.00  0.00    -0.332 OA
ATOM     28  C   UNL     1      10.755 -33.764 -16.805  1.00  0.00     0.180 C 
ATOM     29  C   UNL     1      12.699 -32.791 -15.496  1.00  0.00     0.179 C 
ATOM     30  C   UNL     1      12.190 -34.011 -16.307  1.00  0.00     0.177 C 
BRANCH  26  31
ATOM     31  O   UNL     1       9.537 -34.349 -14.789  1.00  0.00    -0.384 OA
ATOM     32  H   UNL     1       8.678 -34.149 -14.328  1.00  0.00     0.211 HD
ENDBRANCH  26  31
BRANCH  28  33
ATOM     33  O   UNL     1      10.768 -32.797 -17.827  1.00  0.00    -0.387 OA
ATOM     34  H   UNL     1      11.518 -32.168 -17.630  1.00  0.00     0.211 HD
ENDBRANCH  28  33
BRANCH  29  35
ATOM     35  C   UNL     1      14.085 -33.088 -14.919  1.00  0.00     0.191 C 
BRANCH  35  36
ATOM     36  O   UNL     1      15.060 -32.961 -15.917  1.00  0.00    -0.394 OA
ATOM     37  H   UNL     1      15.292 -31.997 -15.972  1.00  0.00     0.210 HD
ENDBRANCH  35  36
ENDBRANCH  29  35
BRANCH  30  38
ATOM     38  O   UNL     1      13.030 -34.239 -17.411  1.00  0.00    -0.387 OA
ATOM     39  H   UNL     1      12.820 -33.534 -18.085  1.00  0.00     0.211 HD
ENDBRANCH  30  38
ENDBRANCH   1  25
TORSDOF 11
ENDMDL
MODEL 9
REMARK VINA RESULT:    -6.750      4.233      7.722
REMARK INTER + INTRA:         -11.396
REMARK INTER:                 -10.397
REMARK INTRA:                  -0.999
REMARK UNBOUND:                -1.686
REMARK SMILES O=c1c(O[C@@H]2O[C@@H](CO)[C@H](O)[C@H](O)[C@H]2O)c(-c2ccc(O)cc2)oc2cc(O)cc(O)c12
REMARK SMILES IDX 4 1 3 2 16 3 24 4 2 5 25 6 1 7 32 8 26 9 30 10 27 11 29 12
REMARK SMILES IDX 17 13 18 14 19 15 20 16 23 17 22 18 21 19 31 21 28 23 5 25
REMARK SMILES IDX 14 26 6 27 12 28 7 29 10 30 15 31 13 33 8 35 9 36 11 38
REMARK H PARENT 21 20 31 22 28 24 15 32 13 34 9 37 11 39
REMARK Flexibility Score: inf
ROOT
ATOM      1  O   UNL     1      11.725 -30.342 -19.852  1.00  0.00    -0.454 OA
ENDROOT
BRANCH   1   2
ATOM      2  C   UNL     1      13.120 -30.543 -19.919  1.00  0.00     0.214 A 
ATOM      3  C   UNL     1      13.634 -31.851 -19.736  1.00  0.00     0.180 A 
ATOM      4  O   UNL     1      14.922 -32.088 -19.979  1.00  0.00    -0.452 OA
ATOM      5  C   UNL     1      14.033 -29.503 -20.200  1.00  0.00     0.239 A 
ATOM      6  C   UNL     1      15.787 -31.156 -20.346  1.00  0.00     0.146 A 
ATOM      7  O   UNL     1      13.650 -28.303 -20.210  1.00  0.00    -0.285 OA
ATOM      8  C   UNL     1      15.391 -29.808 -20.449  1.00  0.00     0.111 A 
ATOM      9  C   UNL     1      17.102 -31.529 -20.632  1.00  0.00     0.094 A 
ATOM     10  C   UNL     1      16.343 -28.839 -20.834  1.00  0.00     0.134 A 
ATOM     11  C   UNL     1      18.036 -30.575 -21.054  1.00  0.00     0.123 A 
ATOM     12  C   UNL     1      17.657 -29.232 -21.143  1.00  0.00     0.093 A 
BRANCH   3  13
ATOM     13  C   UNL     1      12.809 -33.011 -19.291  1.00  0.00     0.021 A 
ATOM     14  C   UNL     1      13.263 -33.956 -18.350  1.00  0.00     0.016 A 
ATOM     15  C   UNL     1      12.477 -35.054 -18.006  1.00  0.00     0.047 A 
ATOM     16  C   UNL     1      11.267 -35.292 -18.674  1.00  0.00     0.115 A 
ATOM     17  C   UNL     1      11.569 -33.242 -19.933  1.00  0.00     0.016 A 
ATOM     18  C   UNL     1      10.815 -34.384 -19.640  1.00  0.00     0.047 A 
BRANCH  16  19
ATOM     19  O   UNL     1      10.530 -36.443 -18.382  1.00  0.00    -0.508 OA
ATOM     20  H   UNL     1      10.990 -37.311 -18.128  1.00  0.00     0.293 HD
ENDBRANCH  16  19
ENDBRANCH   3  13
BRANCH  10  21
ATOM     21  O   UNL     1      15.989 -27.496 -20.933  1.00  0.00    -0.507 OA
ATOM     22  H   UNL     1      15.466 -27.126 -21.706  1.00  0.00     0.293 HD
ENDBRANCH  10  21
BRANCH  11  23
ATOM     23  O   UNL     1      19.333 -30.971 -21.381  1.00  0.00    -0.508 OA
ATOM     24  H   UNL     1      19.508 -31.624 -22.135  1.00  0.00     0.293 HD
ENDBRANCH  11  23
ENDBRANCH   1   2
BRANCH   1  25
ATOM     25  C   UNL     1      10.993 -29.718 -18.783  1.00  0.00     0.339 C 
ATOM     26  C   UNL     1      10.398 -28.349 -19.211  1.00  0.00     0.214 C 
ATOM     27  O   UNL     1       9.978 -30.593 -18.314  1.00  0.00    -0.332 OA
ATOM     28  C   UNL     1       9.275 -28.540 -20.248  1.00  0.00     0.180 C 
ATOM     29  C   UNL     1       9.015 -30.885 -19.314  1.00  0.00     0.179 C 
ATOM     30  C   UNL     1       8.272 -29.602 -19.767  1.00  0.00     0.177 C 
BRANCH  26  31
ATOM     31  O   UNL     1       9.940 -27.631 -18.097  1.00  0.00    -0.384 OA
ATOM     32  H   UNL     1       9.474 -28.254 -17.477  1.00  0.00     0.211 HD
ENDBRANCH  26  31
BRANCH  28  33
ATOM     33  O   UNL     1       9.828 -28.934 -21.481  1.00  0.00    -0.387 OA
ATOM     34  H   UNL     1      10.664 -28.404 -21.613  1.00  0.00     0.211 HD
ENDBRANCH  28  33
BRANCH  29  35
ATOM     35  C   UNL     1       8.017 -31.894 -18.742  1.00  0.00     0.191 C 
BRANCH  35  36
ATOM     36  O   UNL     1       6.894 -31.228 -18.236  1.00  0.00    -0.394 OA
ATOM     37  H   UNL     1       6.124 -31.847 -18.335  1.00  0.00     0.210 HD
ENDBRANCH  35  36
ENDBRANCH  29  35
BRANCH  30  38
ATOM     38  O   UNL     1       7.383 -29.905 -20.813  1.00  0.00    -0.387 OA
ATOM     39  H   UNL     1       6.604 -30.376 -20.404  1.00  0.00     0.211 HD
ENDBRANCH  30  38
ENDBRANCH   1  25
TORSDOF 11
ENDMDL
