MODEL 1
REMARK VINA RESULT:    -4.749      0.000      0.000
REMARK INTER + INTRA:          -5.335
REMARK INTER:                  -5.165
REMARK INTRA:                  -0.170
REMARK UNBOUND:                -0.170
REMARK SMILES C=C(C)[C@@H]1CC[C@@H](C)C[C@@H]1O
REMARK SMILES IDX 8 1 7 2 6 3 5 4 4 5 10 6 9 7 11 8 2 10 1 11 3 12
REMARK H PARENT 11 9
REMARK Flexibility Score: inf
ROOT
ATOM      1  C   UNL     1     132.131 136.635 139.171  1.00  0.00     0.008 C 
ATOM      2  C   UNL     1     132.630 137.122 140.536  1.00  0.00    -0.012 C 
ATOM      3  C   UNL     1     133.101 138.587 140.447  1.00  0.00     0.004 C 
ATOM      4  C   UNL     1     133.630 139.081 141.799  1.00  0.00     0.011 C 
ATOM      5  C   UNL     1     134.769 138.170 142.307  1.00  0.00     0.043 C 
ATOM      6  C   UNL     1     134.306 136.697 142.411  1.00  0.00     0.121 C 
ATOM      7  C   UNL     1     133.765 136.213 141.051  1.00  0.00     0.035 C 
ENDROOT
BRANCH   6   8
ATOM      8  O   UNL     1     133.313 136.556 143.396  1.00  0.00    -0.392 OA
ATOM      9  H   UNL     1     132.641 135.919 143.038  1.00  0.00     0.210 HD
ENDBRANCH   6   8
BRANCH   5  10
ATOM     10  C   UNL     1     135.376 138.677 143.612  1.00  0.00    -0.075 C 
ATOM     11  C   UNL     1     134.735 139.561 144.395  1.00  0.00     0.008 C 
ATOM     12  C   UNL     1     136.735 138.190 144.047  1.00  0.00     0.039 C 
ENDBRANCH   5  10
TORSDOF 2
ENDMDL
MODEL 2
REMARK VINA RESULT:    -4.475     20.575     21.274
REMARK INTER + INTRA:          -5.038
REMARK INTER:                  -4.848
REMARK INTRA:                  -0.190
REMARK UNBOUND:                -0.170
REMARK SMILES C=C(C)[C@@H]1CC[C@@H](C)C[C@@H]1O
REMARK SMILES IDX 8 1 7 2 6 3 5 4 4 5 10 6 9 7 11 8 2 10 1 11 3 12
REMARK H PARENT 11 9
REMARK Flexibility Score: inf
ROOT
ATOM      1  C   UNL     1     148.380 149.503 130.103  1.00  0.00     0.008 C 
ATOM      2  C   UNL     1     148.516 147.994 130.335  1.00  0.00    -0.012 C 
ATOM      3  C   UNL     1     149.924 147.653 130.862  1.00  0.00     0.004 C 
ATOM      4  C   UNL     1     150.087 146.142 131.071  1.00  0.00     0.011 C 
ATOM      5  C   UNL     1     149.789 145.374 129.766  1.00  0.00     0.043 C 
ATOM      6  C   UNL     1     148.373 145.698 129.232  1.00  0.00     0.121 C 
ATOM      7  C   UNL     1     148.216 147.219 129.035  1.00  0.00     0.035 C 
ENDROOT
BRANCH   6   8
ATOM      8  O   UNL     1     147.388 145.228 130.117  1.00  0.00    -0.392 OA
ATOM      9  H   UNL     1     146.627 144.916 129.561  1.00  0.00     0.210 HD
ENDBRANCH   6   8
BRANCH   5  10
ATOM     10  C   UNL     1     150.019 143.872 129.914  1.00  0.00    -0.075 C 
ATOM     11  C   UNL     1     150.125 143.063 128.846  1.00  0.00     0.008 C 
ATOM     12  C   UNL     1     150.125 143.260 131.287  1.00  0.00     0.039 C 
ENDBRANCH   5  10
TORSDOF 2
ENDMDL
MODEL 3
REMARK VINA RESULT:    -4.325      1.308      2.042
REMARK INTER + INTRA:          -4.875
REMARK INTER:                  -4.683
REMARK INTRA:                  -0.192
REMARK UNBOUND:                -0.170
REMARK SMILES C=C(C)[C@@H]1CC[C@@H](C)C[C@@H]1O
REMARK SMILES IDX 8 1 7 2 6 3 5 4 4 5 10 6 9 7 11 8 2 10 1 11 3 12
REMARK H PARENT 11 9
REMARK Flexibility Score: inf
ROOT
ATOM      1  C   UNL     1     132.361 137.780 140.485  1.00  0.00     0.008 C 
ATOM      2  C   UNL     1     133.430 137.665 141.577  1.00  0.00    -0.012 C 
ATOM      3  C   UNL     1     133.767 139.056 142.150  1.00  0.00     0.004 C 
ATOM      4  C   UNL     1     134.857 138.963 143.224  1.00  0.00     0.011 C 
ATOM      5  C   UNL     1     136.123 138.280 142.663  1.00  0.00     0.043 C 
ATOM      6  C   UNL     1     135.800 136.878 142.094  1.00  0.00     0.121 C 
ATOM      7  C   UNL     1     134.696 136.980 141.023  1.00  0.00     0.035 C 
ENDROOT
BRANCH   6   8
ATOM      8  O   UNL     1     135.389 136.007 143.119  1.00  0.00    -0.392 OA
ATOM      9  H   UNL     1     134.913 135.254 142.683  1.00  0.00     0.210 HD
ENDBRANCH   6   8
BRANCH   5  10
ATOM     10  C   UNL     1     137.259 138.241 143.681  1.00  0.00    -0.075 C 
ATOM     11  C   UNL     1     138.523 137.959 143.321  1.00  0.00     0.008 C 
ATOM     12  C   UNL     1     136.975 138.517 145.135  1.00  0.00     0.039 C 
ENDBRANCH   5  10
TORSDOF 2
ENDMDL
MODEL 4
REMARK VINA RESULT:    -4.245      1.625      2.377
REMARK INTER + INTRA:          -4.787
REMARK INTER:                  -4.622
REMARK INTRA:                  -0.166
REMARK UNBOUND:                -0.170
REMARK SMILES C=C(C)[C@@H]1CC[C@@H](C)C[C@@H]1O
REMARK SMILES IDX 8 1 7 2 6 3 5 4 4 5 10 6 9 7 11 8 2 10 1 11 3 12
REMARK H PARENT 11 9
REMARK Flexibility Score: inf
ROOT
ATOM      1  C   UNL     1     132.365 137.670 140.532  1.00  0.00     0.008 C 
ATOM      2  C   UNL     1     133.617 138.151 141.273  1.00  0.00    -0.012 C 
ATOM      3  C   UNL     1     134.801 137.200 141.006  1.00  0.00     0.004 C 
ATOM      4  C   UNL     1     136.056 137.651 141.764  1.00  0.00     0.011 C 
ATOM      5  C   UNL     1     135.771 137.760 143.278  1.00  0.00     0.043 C 
ATOM      6  C   UNL     1     134.592 138.721 143.560  1.00  0.00     0.121 C 
ATOM      7  C   UNL     1     133.339 138.265 142.787  1.00  0.00     0.035 C 
ENDROOT
BRANCH   6   8
ATOM      8  O   UNL     1     134.924 140.037 143.198  1.00  0.00    -0.392 OA
ATOM      9  H   UNL     1     134.562 140.184 142.285  1.00  0.00     0.210 HD
ENDBRANCH   6   8
BRANCH   5  10
ATOM     10  C   UNL     1     137.019 138.129 144.075  1.00  0.00    -0.075 C 
ATOM     11  C   UNL     1     136.974 138.342 145.402  1.00  0.00     0.008 C 
ATOM     12  C   UNL     1     138.345 138.271 143.373  1.00  0.00     0.039 C 
ENDBRANCH   5  10
TORSDOF 2
ENDMDL
MODEL 5
REMARK VINA RESULT:    -4.228     14.172     15.594
REMARK INTER + INTRA:          -4.769
REMARK INTER:                  -4.576
REMARK INTRA:                  -0.194
REMARK UNBOUND:                -0.170
REMARK SMILES C=C(C)[C@@H]1CC[C@@H](C)C[C@@H]1O
REMARK SMILES IDX 8 1 7 2 6 3 5 4 4 5 10 6 9 7 11 8 2 10 1 11 3 12
REMARK H PARENT 11 9
REMARK Flexibility Score: inf
ROOT
ATOM      1  C   UNL     1     149.441 143.509 141.389  1.00  0.00     0.008 C 
ATOM      2  C   UNL     1     148.914 142.099 141.100  1.00  0.00    -0.012 C 
ATOM      3  C   UNL     1     149.018 141.215 142.358  1.00  0.00     0.004 C 
ATOM      4  C   UNL     1     148.521 139.791 142.078  1.00  0.00     0.011 C 
ATOM      5  C   UNL     1     149.297 139.163 140.900  1.00  0.00     0.043 C 
ATOM      6  C   UNL     1     149.191 140.036 139.627  1.00  0.00     0.121 C 
ATOM      7  C   UNL     1     149.683 141.467 139.922  1.00  0.00     0.035 C 
ENDROOT
BRANCH   6   8
ATOM      8  O   UNL     1     147.866 140.074 139.159  1.00  0.00    -0.392 OA
ATOM      9  H   UNL     1     147.884 139.755 138.219  1.00  0.00     0.210 HD
ENDBRANCH   6   8
BRANCH   5  10
ATOM     10  C   UNL     1     148.886 137.716 140.643  1.00  0.00    -0.075 C 
ATOM     11  C   UNL     1     147.910 137.121 141.351  1.00  0.00     0.008 C 
ATOM     12  C   UNL     1     149.587 136.914 139.576  1.00  0.00     0.039 C 
ENDBRANCH   5  10
TORSDOF 2
ENDMDL
MODEL 6
REMARK VINA RESULT:    -4.131     14.929     15.235
REMARK INTER + INTRA:          -4.663
REMARK INTER:                  -4.589
REMARK INTRA:                  -0.074
REMARK UNBOUND:                -0.170
REMARK SMILES C=C(C)[C@@H]1CC[C@@H](C)C[C@@H]1O
REMARK SMILES IDX 8 1 7 2 6 3 5 4 4 5 10 6 9 7 11 8 2 10 1 11 3 12
REMARK H PARENT 11 9
REMARK Flexibility Score: inf
ROOT
ATOM      1  C   UNL     1     147.817 140.351 135.940  1.00  0.00     0.008 C 
ATOM      2  C   UNL     1     148.467 140.350 137.328  1.00  0.00    -0.012 C 
ATOM      3  C   UNL     1     148.327 138.965 137.989  1.00  0.00     0.004 C 
ATOM      4  C   UNL     1     148.946 138.955 139.392  1.00  0.00     0.011 C 
ATOM      5  C   UNL     1     148.314 140.050 140.277  1.00  0.00     0.043 C 
ATOM      6  C   UNL     1     148.457 141.449 139.630  1.00  0.00     0.121 C 
ATOM      7  C   UNL     1     147.841 141.445 138.217  1.00  0.00     0.035 C 
ENDROOT
BRANCH   6   8
ATOM      8  O   UNL     1     149.809 141.829 139.560  1.00  0.00    -0.392 OA
ATOM      9  H   UNL     1     150.081 142.094 140.477  1.00  0.00     0.210 HD
ENDBRANCH   6   8
BRANCH   5  10
ATOM     10  C   UNL     1     148.848 140.019 141.706  1.00  0.00    -0.075 C 
ATOM     11  C   UNL     1     149.434 138.924 142.220  1.00  0.00     0.008 C 
ATOM     12  C   UNL     1     148.717 141.238 142.584  1.00  0.00     0.039 C 
ENDBRANCH   5  10
TORSDOF 2
ENDMDL
MODEL 7
REMARK VINA RESULT:    -4.106     13.549     14.613
REMARK INTER + INTRA:          -4.636
REMARK INTER:                  -4.462
REMARK INTRA:                  -0.175
REMARK UNBOUND:                -0.170
REMARK SMILES C=C(C)[C@@H]1CC[C@@H](C)C[C@@H]1O
REMARK SMILES IDX 8 1 7 2 6 3 5 4 4 5 10 6 9 7 11 8 2 10 1 11 3 12
REMARK H PARENT 11 9
REMARK Flexibility Score: inf
ROOT
ATOM      1  C   UNL     1     146.286 139.002 136.878  1.00  0.00     0.008 C 
ATOM      2  C   UNL     1     147.224 139.536 137.966  1.00  0.00    -0.012 C 
ATOM      3  C   UNL     1     146.677 139.192 139.366  1.00  0.00     0.004 C 
ATOM      4  C   UNL     1     147.589 139.744 140.468  1.00  0.00     0.011 C 
ATOM      5  C   UNL     1     147.775 141.269 140.312  1.00  0.00     0.043 C 
ATOM      6  C   UNL     1     148.334 141.627 138.914  1.00  0.00     0.121 C 
ATOM      7  C   UNL     1     147.416 141.059 137.814  1.00  0.00     0.035 C 
ENDROOT
BRANCH   6   8
ATOM      8  O   UNL     1     149.637 141.124 138.755  1.00  0.00    -0.392 OA
ATOM      9  H   UNL     1     150.257 141.812 139.111  1.00  0.00     0.210 HD
ENDBRANCH   6   8
BRANCH   5  10
ATOM     10  C   UNL     1     148.612 141.868 141.438  1.00  0.00    -0.075 C 
ATOM     11  C   UNL     1     148.998 141.138 142.499  1.00  0.00     0.008 C 
ATOM     12  C   UNL     1     149.022 143.317 141.381  1.00  0.00     0.039 C 
ENDBRANCH   5  10
TORSDOF 2
ENDMDL
MODEL 8
REMARK VINA RESULT:    -4.065     14.619     15.516
REMARK INTER + INTRA:          -4.592
REMARK INTER:                  -4.518
REMARK INTRA:                  -0.074
REMARK UNBOUND:                -0.170
REMARK SMILES C=C(C)[C@@H]1CC[C@@H](C)C[C@@H]1O
REMARK SMILES IDX 8 1 7 2 6 3 5 4 4 5 10 6 9 7 11 8 2 10 1 11 3 12
REMARK H PARENT 11 9
REMARK Flexibility Score: inf
ROOT
ATOM      1  C   UNL     1     149.620 137.612 138.071  1.00  0.00     0.008 C 
ATOM      2  C   UNL     1     149.062 138.764 138.914  1.00  0.00    -0.012 C 
ATOM      3  C   UNL     1     148.785 139.996 138.029  1.00  0.00     0.004 C 
ATOM      4  C   UNL     1     148.252 141.168 138.863  1.00  0.00     0.011 C 
ATOM      5  C   UNL     1     149.234 141.520 140.002  1.00  0.00     0.043 C 
ATOM      6  C   UNL     1     149.512 140.294 140.904  1.00  0.00     0.121 C 
ATOM      7  C   UNL     1     150.037 139.119 140.056  1.00  0.00     0.035 C 
ENDROOT
BRANCH   6   8
ATOM      8  O   UNL     1     148.348 139.905 141.589  1.00  0.00    -0.392 OA
ATOM      9  H   UNL     1     147.579 140.156 141.014  1.00  0.00     0.210 HD
ENDBRANCH   6   8
BRANCH   5  10
ATOM     10  C   UNL     1     148.776 142.735 140.804  1.00  0.00    -0.075 C 
ATOM     11  C   UNL     1     147.474 143.009 140.994  1.00  0.00     0.008 C 
ATOM     12  C   UNL     1     149.798 143.669 141.402  1.00  0.00     0.039 C 
ENDBRANCH   5  10
TORSDOF 2
ENDMDL
MODEL 9
REMARK VINA RESULT:    -3.653     14.833     15.727
REMARK INTER + INTRA:          -4.143
REMARK INTER:                  -3.986
REMARK INTRA:                  -0.158
REMARK UNBOUND:                -0.170
REMARK SMILES C=C(C)[C@@H]1CC[C@@H](C)C[C@@H]1O
REMARK SMILES IDX 8 1 7 2 6 3 5 4 4 5 10 6 9 7 11 8 2 10 1 11 3 12
REMARK H PARENT 11 9
REMARK Flexibility Score: inf
ROOT
ATOM      1  C   UNL     1     150.091 136.835 137.647  1.00  0.00     0.008 C 
ATOM      2  C   UNL     1     150.049 138.084 138.534  1.00  0.00    -0.012 C 
ATOM      3  C   UNL     1     149.742 137.699 139.995  1.00  0.00     0.004 C 
ATOM      4  C   UNL     1     149.667 138.941 140.891  1.00  0.00     0.011 C 
ATOM      5  C   UNL     1     148.618 139.940 140.356  1.00  0.00     0.043 C 
ATOM      6  C   UNL     1     148.921 140.343 138.893  1.00  0.00     0.121 C 
ATOM      7  C   UNL     1     149.005 139.088 138.003  1.00  0.00     0.035 C 
ENDROOT
BRANCH   6   8
ATOM      8  O   UNL     1     150.125 141.064 138.815  1.00  0.00    -0.392 OA
ATOM      9  H   UNL     1     150.440 141.200 139.746  1.00  0.00     0.210 HD
ENDBRANCH   6   8
BRANCH   5  10
ATOM     10  C   UNL     1     148.458 141.153 141.268  1.00  0.00    -0.075 C 
ATOM     11  C   UNL     1     149.018 141.201 142.488  1.00  0.00     0.008 C 
ATOM     12  C   UNL     1     147.646 142.337 140.807  1.00  0.00     0.039 C 
ENDBRANCH   5  10
TORSDOF 2
ENDMDL
