MODEL 1
REMARK VINA RESULT:    -3.770      0.000      0.000
REMARK INTER + INTRA:         -15.174
REMARK INTER:                  -9.832
REMARK INTRA:                  -5.343
REMARK UNBOUND:                -5.343
REMARK SMILES CCCCCCCCCCCCCCCCCCCCCCCCCCCCCO
REMARK SMILES IDX 16 1 15 2 14 3 13 4 12 5 11 6 10 7 9 8 8 9 7 10 6 11 5 12
REMARK SMILES IDX 4 13 3 14 2 15 1 16 17 17 18 18 19 19 20 20 21 21 22 22
REMARK SMILES IDX 23 23 24 24 25 25 26 26 27 27 28 28 29 29 30 30
REMARK H PARENT 30 31
REMARK Flexibility Score: inf
ROOT
ATOM      1  C   UNL     1     129.075 145.447 107.498  1.00  0.00     0.000 C 
ENDROOT
BRANCH   1   2
ATOM      2  C   UNL     1     127.916 146.083 108.287  1.00  0.00     0.000 C 
BRANCH   2   3
ATOM      3  C   UNL     1     127.175 145.132 109.251  1.00  0.00     0.000 C 
BRANCH   3   4
ATOM      4  C   UNL     1     128.069 144.150 110.031  1.00  0.00     0.000 C 
BRANCH   4   5
ATOM      5  C   UNL     1     127.482 143.759 111.399  1.00  0.00     0.000 C 
BRANCH   5   6
ATOM      6  C   UNL     1     128.195 144.450 112.576  1.00  0.00     0.000 C 
BRANCH   6   7
ATOM      7  C   UNL     1     129.595 143.904 112.912  1.00  0.00     0.000 C 
BRANCH   7   8
ATOM      8  C   UNL     1     130.125 144.404 114.266  1.00  0.00    -0.000 C 
BRANCH   8   9
ATOM      9  C   UNL     1     129.775 145.878 114.527  1.00  0.00    -0.000 C 
BRANCH   9  10
ATOM     10  C   UNL     1     130.969 146.820 114.294  1.00  0.00    -0.000 C 
BRANCH  10  11
ATOM     11  C   UNL     1     132.303 146.199 114.739  1.00  0.00    -0.000 C 
BRANCH  11  12
ATOM     12  C   UNL     1     133.393 146.298 113.657  1.00  0.00    -0.000 C 
BRANCH  12  13
ATOM     13  C   UNL     1     132.813 146.572 112.261  1.00  0.00    -0.000 C 
BRANCH  13  14
ATOM     14  C   UNL     1     132.744 145.307 111.392  1.00  0.00    -0.000 C 
BRANCH  14  15
ATOM     15  C   UNL     1     131.582 145.388 110.396  1.00  0.00    -0.003 C 
ATOM     16  C   UNL     1     130.704 146.607 110.671  1.00  0.00     0.004 C 
ENDBRANCH  14  15
ENDBRANCH  13  14
ENDBRANCH  12  13
ENDBRANCH  11  12
ENDBRANCH  10  11
ENDBRANCH   9  10
ENDBRANCH   8   9
ENDBRANCH   7   8
ENDBRANCH   6   7
ENDBRANCH   5   6
ENDBRANCH   4   5
ENDBRANCH   3   4
ENDBRANCH   2   3
ENDBRANCH   1   2
BRANCH   1  17
ATOM     17  C   UNL     1     128.917 145.599 105.978  1.00  0.00     0.000 C 
BRANCH  17  18
ATOM     18  C   UNL     1     127.561 145.045 105.514  1.00  0.00     0.000 C 
BRANCH  18  19
ATOM     19  C   UNL     1     127.626 143.546 105.175  1.00  0.00     0.000 C 
BRANCH  19  20
ATOM     20  C   UNL     1     127.047 142.667 106.298  1.00  0.00     0.000 C 
BRANCH  20  21
ATOM     21  C   UNL     1     128.140 141.895 107.057  1.00  0.00     0.000 C 
BRANCH  21  22
ATOM     22  C   UNL     1     129.314 141.441 106.160  1.00  0.00     0.000 C 
BRANCH  22  23
ATOM     23  C   UNL     1     130.631 142.183 106.440  1.00  0.00     0.000 C 
BRANCH  23  24
ATOM     24  C   UNL     1     131.289 142.724 105.159  1.00  0.00     0.000 C 
BRANCH  24  25
ATOM     25  C   UNL     1     132.520 143.601 105.445  1.00  0.00     0.000 C 
BRANCH  25  26
ATOM     26  C   UNL     1     132.416 144.480 106.707  1.00  0.00     0.000 C 
BRANCH  26  27
ATOM     27  C   UNL     1     132.608 145.987 106.436  1.00  0.00     0.002 C 
BRANCH  27  28
ATOM     28  C   UNL     1     133.170 146.730 107.660  1.00  0.00     0.028 C 
BRANCH  28  29
ATOM     29  C   UNL     1     134.574 146.244 108.032  1.00  0.00     0.156 C 
BRANCH  29  30
ATOM     30  O   UNL     1     135.489 146.534 107.010  1.00  0.00    -0.396 OA
ATOM     31  H   UNL     1     135.294 145.911 106.263  1.00  0.00     0.210 HD
ENDBRANCH  29  30
ENDBRANCH  28  29
ENDBRANCH  27  28
ENDBRANCH  26  27
ENDBRANCH  25  26
ENDBRANCH  24  25
ENDBRANCH  23  24
ENDBRANCH  22  23
ENDBRANCH  21  22
ENDBRANCH  20  21
ENDBRANCH  19  20
ENDBRANCH  18  19
ENDBRANCH  17  18
ENDBRANCH   1  17
TORSDOF 28
ENDMDL
MODEL 2
REMARK VINA RESULT:    -3.759      2.321      5.591
REMARK INTER + INTRA:         -15.144
REMARK INTER:                  -9.624
REMARK INTRA:                  -5.520
REMARK UNBOUND:                -5.343
REMARK SMILES CCCCCCCCCCCCCCCCCCCCCCCCCCCCCO
REMARK SMILES IDX 16 1 15 2 14 3 13 4 12 5 11 6 10 7 9 8 8 9 7 10 6 11 5 12
REMARK SMILES IDX 4 13 3 14 2 15 1 16 17 17 18 18 19 19 20 20 21 21 22 22
REMARK SMILES IDX 23 23 24 24 25 25 26 26 27 27 28 28 29 29 30 30
REMARK H PARENT 30 31
REMARK Flexibility Score: inf
ROOT
ATOM      1  C   UNL     1     130.653 143.543 106.936  1.00  0.00     0.000 C 
ENDROOT
BRANCH   1   2
ATOM      2  C   UNL     1     130.599 145.047 107.256  1.00  0.00     0.000 C 
BRANCH   2   3
ATOM      3  C   UNL     1     130.789 145.985 106.045  1.00  0.00     0.000 C 
BRANCH   3   4
ATOM      4  C   UNL     1     132.117 146.766 106.014  1.00  0.00     0.000 C 
BRANCH   4   5
ATOM      5  C   UNL     1     133.353 145.850 106.055  1.00  0.00     0.000 C 
BRANCH   5   6
ATOM      6  C   UNL     1     134.133 145.958 107.378  1.00  0.00     0.000 C 
BRANCH   6   7
ATOM      7  C   UNL     1     133.622 147.027 108.361  1.00  0.00     0.000 C 
BRANCH   7   8
ATOM      8  C   UNL     1     133.036 146.425 109.650  1.00  0.00    -0.000 C 
BRANCH   8   9
ATOM      9  C   UNL     1     133.339 144.924 109.790  1.00  0.00    -0.000 C 
BRANCH   9  10
ATOM     10  C   UNL     1     132.233 144.164 110.542  1.00  0.00    -0.000 C 
BRANCH  10  11
ATOM     11  C   UNL     1     131.137 145.099 111.078  1.00  0.00    -0.000 C 
BRANCH  11  12
ATOM     12  C   UNL     1     130.925 144.954 112.596  1.00  0.00    -0.000 C 
BRANCH  12  13
ATOM     13  C   UNL     1     131.039 146.296 113.337  1.00  0.00    -0.000 C 
BRANCH  13  14
ATOM     14  C   UNL     1     132.491 146.658 113.683  1.00  0.00    -0.000 C 
BRANCH  14  15
ATOM     15  C   UNL     1     132.904 146.042 115.025  1.00  0.00    -0.003 C 
ATOM     16  C   UNL     1     134.177 145.211 114.881  1.00  0.00     0.004 C 
ENDBRANCH  14  15
ENDBRANCH  13  14
ENDBRANCH  12  13
ENDBRANCH  11  12
ENDBRANCH  10  11
ENDBRANCH   9  10
ENDBRANCH   8   9
ENDBRANCH   7   8
ENDBRANCH   6   7
ENDBRANCH   5   6
ENDBRANCH   4   5
ENDBRANCH   3   4
ENDBRANCH   2   3
ENDBRANCH   1   2
BRANCH   1  17
ATOM     17  C   UNL     1     130.051 143.202 105.564  1.00  0.00     0.000 C 
BRANCH  17  18
ATOM     18  C   UNL     1     128.851 142.255 105.716  1.00  0.00     0.000 C 
BRANCH  18  19
ATOM     19  C   UNL     1     127.507 143.000 105.673  1.00  0.00     0.000 C 
BRANCH  19  20
ATOM     20  C   UNL     1     127.621 144.372 104.987  1.00  0.00     0.000 C 
BRANCH  20  21
ATOM     21  C   UNL     1     127.157 145.522 105.900  1.00  0.00     0.000 C 
BRANCH  21  22
ATOM     22  C   UNL     1     126.876 145.081 107.354  1.00  0.00     0.000 C 
BRANCH  22  23
ATOM     23  C   UNL     1     127.169 146.171 108.399  1.00  0.00     0.000 C 
BRANCH  23  24
ATOM     24  C   UNL     1     127.984 145.641 109.592  1.00  0.00     0.000 C 
BRANCH  24  25
ATOM     25  C   UNL     1     127.141 144.795 110.562  1.00  0.00     0.000 C 
BRANCH  25  26
ATOM     26  C   UNL     1     127.812 143.494 111.043  1.00  0.00     0.000 C 
BRANCH  26  27
ATOM     27  C   UNL     1     128.718 142.829 109.984  1.00  0.00     0.002 C 
BRANCH  27  28
ATOM     28  C   UNL     1     127.951 141.813 109.121  1.00  0.00     0.028 C 
BRANCH  28  29
ATOM     29  C   UNL     1     128.644 140.446 109.092  1.00  0.00     0.156 C 
BRANCH  29  30
ATOM     30  O   UNL     1     128.366 139.722 110.260  1.00  0.00    -0.396 OA
ATOM     31  H   UNL     1     128.308 138.765 109.999  1.00  0.00     0.210 HD
ENDBRANCH  29  30
ENDBRANCH  28  29
ENDBRANCH  27  28
ENDBRANCH  26  27
ENDBRANCH  25  26
ENDBRANCH  24  25
ENDBRANCH  23  24
ENDBRANCH  22  23
ENDBRANCH  21  22
ENDBRANCH  20  21
ENDBRANCH  19  20
ENDBRANCH  18  19
ENDBRANCH  17  18
ENDBRANCH   1  17
TORSDOF 28
ENDMDL
MODEL 3
REMARK VINA RESULT:    -3.660      1.769      6.809
REMARK INTER + INTRA:         -14.886
REMARK INTER:                  -9.596
REMARK INTRA:                  -5.290
REMARK UNBOUND:                -5.343
REMARK SMILES CCCCCCCCCCCCCCCCCCCCCCCCCCCCCO
REMARK SMILES IDX 16 1 15 2 14 3 13 4 12 5 11 6 10 7 9 8 8 9 7 10 6 11 5 12
REMARK SMILES IDX 4 13 3 14 2 15 1 16 17 17 18 18 19 19 20 20 21 21 22 22
REMARK SMILES IDX 23 23 24 24 25 25 26 26 27 27 28 28 29 29 30 30
REMARK H PARENT 30 31
REMARK Flexibility Score: inf
ROOT
ATOM      1  C   UNL     1     133.772 143.121 105.595  1.00  0.00     0.000 C 
ENDROOT
BRANCH   1   2
ATOM      2  C   UNL     1     132.408 142.428 105.427  1.00  0.00     0.000 C 
BRANCH   2   3
ATOM      3  C   UNL     1     131.188 143.373 105.400  1.00  0.00     0.000 C 
BRANCH   3   4
ATOM      4  C   UNL     1     131.184 144.481 106.470  1.00  0.00     0.000 C 
BRANCH   4   5
ATOM      5  C   UNL     1     130.207 145.625 106.146  1.00  0.00     0.000 C 
BRANCH   5   6
ATOM      6  C   UNL     1     129.080 145.761 107.187  1.00  0.00     0.000 C 
BRANCH   6   7
ATOM      7  C   UNL     1     127.680 145.339 106.703  1.00  0.00     0.000 C 
BRANCH   7   8
ATOM      8  C   UNL     1     127.655 144.932 105.219  1.00  0.00    -0.000 C 
BRANCH   8   9
ATOM      9  C   UNL     1     127.613 143.407 105.029  1.00  0.00    -0.000 C 
BRANCH   9  10
ATOM     10  C   UNL     1     127.169 142.664 106.301  1.00  0.00    -0.000 C 
BRANCH  10  11
ATOM     11  C   UNL     1     128.225 141.661 106.794  1.00  0.00    -0.000 C 
BRANCH  11  12
ATOM     12  C   UNL     1     128.329 141.616 108.329  1.00  0.00    -0.000 C 
BRANCH  12  13
ATOM     13  C   UNL     1     129.376 142.599 108.876  1.00  0.00    -0.000 C 
BRANCH  13  14
ATOM     14  C   UNL     1     129.201 142.873 110.378  1.00  0.00    -0.000 C 
BRANCH  14  15
ATOM     15  C   UNL     1     128.187 143.997 110.616  1.00  0.00    -0.003 C 
ATOM     16  C   UNL     1     127.857 144.136 112.100  1.00  0.00     0.004 C 
ENDBRANCH  14  15
ENDBRANCH  13  14
ENDBRANCH  12  13
ENDBRANCH  11  12
ENDBRANCH  10  11
ENDBRANCH   9  10
ENDBRANCH   8   9
ENDBRANCH   7   8
ENDBRANCH   6   7
ENDBRANCH   5   6
ENDBRANCH   4   5
ENDBRANCH   3   4
ENDBRANCH   2   3
ENDBRANCH   1   2
BRANCH   1  17
ATOM     17  C   UNL     1     134.429 143.479 104.253  1.00  0.00     0.000 C 
BRANCH  17  18
ATOM     18  C   UNL     1     134.735 144.983 104.181  1.00  0.00     0.000 C 
BRANCH  18  19
ATOM     19  C   UNL     1     134.471 145.699 105.516  1.00  0.00     0.000 C 
BRANCH  19  20
ATOM     20  C   UNL     1     135.773 146.102 106.230  1.00  0.00     0.000 C 
BRANCH  20  21
ATOM     21  C   UNL     1     135.575 146.288 107.746  1.00  0.00     0.000 C 
BRANCH  21  22
ATOM     22  C   UNL     1     134.142 145.966 108.225  1.00  0.00     0.000 C 
BRANCH  22  23
ATOM     23  C   UNL     1     134.093 145.096 109.493  1.00  0.00     0.000 C 
BRANCH  23  24
ATOM     24  C   UNL     1     132.685 144.548 109.780  1.00  0.00     0.000 C 
BRANCH  24  25
ATOM     25  C   UNL     1     131.621 145.654 109.872  1.00  0.00     0.000 C 
BRANCH  25  26
ATOM     26  C   UNL     1     131.693 146.524 111.143  1.00  0.00     0.000 C 
BRANCH  26  27
ATOM     27  C   UNL     1     131.220 145.802 112.422  1.00  0.00     0.002 C 
BRANCH  27  28
ATOM     28  C   UNL     1     132.246 145.909 113.562  1.00  0.00     0.028 C 
BRANCH  28  29
ATOM     29  C   UNL     1     133.553 146.562 113.099  1.00  0.00     0.156 C 
BRANCH  29  30
ATOM     30  O   UNL     1     134.575 145.609 112.988  1.00  0.00    -0.396 OA
ATOM     31  H   UNL     1     134.191 144.740 113.277  1.00  0.00     0.210 HD
ENDBRANCH  29  30
ENDBRANCH  28  29
ENDBRANCH  27  28
ENDBRANCH  26  27
ENDBRANCH  25  26
ENDBRANCH  24  25
ENDBRANCH  23  24
ENDBRANCH  22  23
ENDBRANCH  21  22
ENDBRANCH  20  21
ENDBRANCH  19  20
ENDBRANCH  18  19
ENDBRANCH  17  18
ENDBRANCH   1  17
TORSDOF 28
ENDMDL
MODEL 4
REMARK VINA RESULT:    -3.647      2.838      6.466
REMARK INTER + INTRA:         -14.854
REMARK INTER:                  -9.100
REMARK INTRA:                  -5.754
REMARK UNBOUND:                -5.343
REMARK SMILES CCCCCCCCCCCCCCCCCCCCCCCCCCCCCO
REMARK SMILES IDX 16 1 15 2 14 3 13 4 12 5 11 6 10 7 9 8 8 9 7 10 6 11 5 12
REMARK SMILES IDX 4 13 3 14 2 15 1 16 17 17 18 18 19 19 20 20 21 21 22 22
REMARK SMILES IDX 23 23 24 24 25 25 26 26 27 27 28 28 29 29 30 30
REMARK H PARENT 30 31
REMARK Flexibility Score: inf
ROOT
ATOM      1  C   UNL     1     129.956 141.906 108.099  1.00  0.00     0.000 C 
ENDROOT
BRANCH   1   2
ATOM      2  C   UNL     1     130.799 140.788 107.461  1.00  0.00     0.000 C 
BRANCH   2   3
ATOM      3  C   UNL     1     131.442 141.141 106.102  1.00  0.00     0.000 C 
BRANCH   3   4
ATOM      4  C   UNL     1     131.530 142.646 105.782  1.00  0.00     0.000 C 
BRANCH   4   5
ATOM      5  C   UNL     1     132.491 142.958 104.622  1.00  0.00     0.000 C 
BRANCH   5   6
ATOM      6  C   UNL     1     133.917 143.290 105.099  1.00  0.00     0.000 C 
BRANCH   6   7
ATOM      7  C   UNL     1     134.676 144.321 104.243  1.00  0.00     0.000 C 
BRANCH   7   8
ATOM      8  C   UNL     1     134.536 145.759 104.771  1.00  0.00    -0.000 C 
BRANCH   8   9
ATOM      9  C   UNL     1     135.742 146.194 105.619  1.00  0.00    -0.000 C 
BRANCH   9  10
ATOM     10  C   UNL     1     135.460 146.122 107.130  1.00  0.00    -0.000 C 
BRANCH  10  11
ATOM     11  C   UNL     1     133.960 146.227 107.454  1.00  0.00    -0.000 C 
BRANCH  11  12
ATOM     12  C   UNL     1     133.601 145.590 108.809  1.00  0.00    -0.000 C 
BRANCH  12  13
ATOM     13  C   UNL     1     133.211 144.110 108.678  1.00  0.00    -0.000 C 
BRANCH  13  14
ATOM     14  C   UNL     1     134.420 143.169 108.786  1.00  0.00    -0.000 C 
BRANCH  14  15
ATOM     15  C   UNL     1     133.974 141.703 108.821  1.00  0.00    -0.003 C 
ATOM     16  C   UNL     1     134.786 140.856 107.845  1.00  0.00     0.004 C 
ENDBRANCH  14  15
ENDBRANCH  13  14
ENDBRANCH  12  13
ENDBRANCH  11  12
ENDBRANCH  10  11
ENDBRANCH   9  10
ENDBRANCH   8   9
ENDBRANCH   7   8
ENDBRANCH   6   7
ENDBRANCH   5   6
ENDBRANCH   4   5
ENDBRANCH   3   4
ENDBRANCH   2   3
ENDBRANCH   1   2
BRANCH   1  17
ATOM     17  C   UNL     1     128.472 141.533 108.235  1.00  0.00     0.000 C 
BRANCH  17  18
ATOM     18  C   UNL     1     127.579 142.626 107.631  1.00  0.00     0.000 C 
BRANCH  18  19
ATOM     19  C   UNL     1     127.243 142.359 106.154  1.00  0.00     0.000 C 
BRANCH  19  20
ATOM     20  C   UNL     1     128.072 143.234 105.198  1.00  0.00     0.000 C 
BRANCH  20  21
ATOM     21  C   UNL     1     127.450 144.627 104.993  1.00  0.00     0.000 C 
BRANCH  21  22
ATOM     22  C   UNL     1     128.086 145.724 105.875  1.00  0.00     0.000 C 
BRANCH  22  23
ATOM     23  C   UNL     1     129.614 145.609 106.001  1.00  0.00     0.000 C 
BRANCH  23  24
ATOM     24  C   UNL     1     130.089 145.610 107.464  1.00  0.00     0.000 C 
BRANCH  24  25
ATOM     25  C   UNL     1     128.961 145.936 108.458  1.00  0.00     0.000 C 
BRANCH  25  26
ATOM     26  C   UNL     1     129.050 145.200 109.810  1.00  0.00     0.000 C 
BRANCH  26  27
ATOM     27  C   UNL     1     127.677 144.875 110.435  1.00  0.00     0.002 C 
BRANCH  27  28
ATOM     28  C   UNL     1     127.739 143.653 111.368  1.00  0.00     0.028 C 
BRANCH  28  29
ATOM     29  C   UNL     1     129.182 143.250 111.690  1.00  0.00     0.156 C 
BRANCH  29  30
ATOM     30  O   UNL     1     129.485 143.515 113.033  1.00  0.00    -0.396 OA
ATOM     31  H   UNL     1     129.260 144.468 113.197  1.00  0.00     0.210 HD
ENDBRANCH  29  30
ENDBRANCH  28  29
ENDBRANCH  27  28
ENDBRANCH  26  27
ENDBRANCH  25  26
ENDBRANCH  24  25
ENDBRANCH  23  24
ENDBRANCH  22  23
ENDBRANCH  21  22
ENDBRANCH  20  21
ENDBRANCH  19  20
ENDBRANCH  18  19
ENDBRANCH  17  18
ENDBRANCH   1  17
TORSDOF 28
ENDMDL
MODEL 5
REMARK VINA RESULT:    -3.634      2.610      6.271
REMARK INTER + INTRA:         -14.818
REMARK INTER:                  -8.747
REMARK INTRA:                  -6.070
REMARK UNBOUND:                -5.343
REMARK SMILES CCCCCCCCCCCCCCCCCCCCCCCCCCCCCO
REMARK SMILES IDX 16 1 15 2 14 3 13 4 12 5 11 6 10 7 9 8 8 9 7 10 6 11 5 12
REMARK SMILES IDX 4 13 3 14 2 15 1 16 17 17 18 18 19 19 20 20 21 21 22 22
REMARK SMILES IDX 23 23 24 24 25 25 26 26 27 27 28 28 29 29 30 30
REMARK H PARENT 30 31
REMARK Flexibility Score: inf
ROOT
ATOM      1  C   UNL     1     132.153 142.165 106.313  1.00  0.00     0.000 C 
ENDROOT
BRANCH   1   2
ATOM      2  C   UNL     1     133.105 142.723 105.241  1.00  0.00     0.000 C 
BRANCH   2   3
ATOM      3  C   UNL     1     134.578 142.870 105.679  1.00  0.00     0.000 C 
BRANCH   3   4
ATOM      4  C   UNL     1     135.298 144.134 105.171  1.00  0.00     0.000 C 
BRANCH   4   5
ATOM      5  C   UNL     1     134.371 145.080 104.389  1.00  0.00     0.000 C 
BRANCH   5   6
ATOM      6  C   UNL     1     133.955 146.319 105.204  1.00  0.00     0.000 C 
BRANCH   6   7
ATOM      7  C   UNL     1     132.523 146.288 105.768  1.00  0.00     0.000 C 
BRANCH   7   8
ATOM      8  C   UNL     1     132.475 145.951 107.268  1.00  0.00    -0.000 C 
BRANCH   8   9
ATOM      9  C   UNL     1     133.777 146.324 107.996  1.00  0.00    -0.000 C 
BRANCH   9  10
ATOM     10  C   UNL     1     134.462 145.108 108.643  1.00  0.00    -0.000 C 
BRANCH  10  11
ATOM     11  C   UNL     1     133.452 144.106 109.227  1.00  0.00    -0.000 C 
BRANCH  11  12
ATOM     12  C   UNL     1     133.701 143.814 110.718  1.00  0.00    -0.000 C 
BRANCH  12  13
ATOM     13  C   UNL     1     132.592 144.376 111.621  1.00  0.00    -0.000 C 
BRANCH  13  14
ATOM     14  C   UNL     1     132.461 145.902 111.515  1.00  0.00    -0.000 C 
BRANCH  14  15
ATOM     15  C   UNL     1     131.049 146.359 111.896  1.00  0.00    -0.003 C 
ATOM     16  C   UNL     1     130.525 145.585 113.103  1.00  0.00     0.004 C 
ENDBRANCH  14  15
ENDBRANCH  13  14
ENDBRANCH  12  13
ENDBRANCH  11  12
ENDBRANCH  10  11
ENDBRANCH   9  10
ENDBRANCH   8   9
ENDBRANCH   7   8
ENDBRANCH   6   7
ENDBRANCH   5   6
ENDBRANCH   4   5
ENDBRANCH   3   4
ENDBRANCH   2   3
ENDBRANCH   1   2
BRANCH   1  17
ATOM     17  C   UNL     1     130.707 142.026 105.813  1.00  0.00     0.000 C 
BRANCH  17  18
ATOM     18  C   UNL     1     130.029 143.401 105.721  1.00  0.00     0.000 C 
BRANCH  18  19
ATOM     19  C   UNL     1     128.734 143.362 104.893  1.00  0.00     0.000 C 
BRANCH  19  20
ATOM     20  C   UNL     1     127.564 144.065 105.603  1.00  0.00     0.000 C 
BRANCH  20  21
ATOM     21  C   UNL     1     127.895 145.523 105.971  1.00  0.00     0.000 C 
BRANCH  21  22
ATOM     22  C   UNL     1     127.582 145.875 107.443  1.00  0.00     0.000 C 
BRANCH  22  23
ATOM     23  C   UNL     1     128.828 145.952 108.340  1.00  0.00     0.000 C 
BRANCH  23  24
ATOM     24  C   UNL     1     128.812 144.904 109.466  1.00  0.00     0.000 C 
BRANCH  24  25
ATOM     25  C   UNL     1     129.881 143.813 109.282  1.00  0.00     0.000 C 
BRANCH  25  26
ATOM     26  C   UNL     1     129.342 142.369 109.265  1.00  0.00     0.000 C 
BRANCH  26  27
ATOM     27  C   UNL     1     127.857 142.261 108.860  1.00  0.00     0.002 C 
BRANCH  27  28
ATOM     28  C   UNL     1     127.630 141.211 107.759  1.00  0.00     0.028 C 
BRANCH  28  29
ATOM     29  C   UNL     1     128.104 139.818 108.188  1.00  0.00     0.156 C 
BRANCH  29  30
ATOM     30  O   UNL     1     127.082 138.872 108.027  1.00  0.00    -0.396 OA
ATOM     31  H   UNL     1     126.720 138.992 107.110  1.00  0.00     0.210 HD
ENDBRANCH  29  30
ENDBRANCH  28  29
ENDBRANCH  27  28
ENDBRANCH  26  27
ENDBRANCH  25  26
ENDBRANCH  24  25
ENDBRANCH  23  24
ENDBRANCH  22  23
ENDBRANCH  21  22
ENDBRANCH  20  21
ENDBRANCH  19  20
ENDBRANCH  18  19
ENDBRANCH  17  18
ENDBRANCH   1  17
TORSDOF 28
ENDMDL
MODEL 6
REMARK VINA RESULT:    -3.608      3.083      6.084
REMARK INTER + INTRA:         -14.752
REMARK INTER:                  -9.227
REMARK INTRA:                  -5.525
REMARK UNBOUND:                -5.343
REMARK SMILES CCCCCCCCCCCCCCCCCCCCCCCCCCCCCO
REMARK SMILES IDX 16 1 15 2 14 3 13 4 12 5 11 6 10 7 9 8 8 9 7 10 6 11 5 12
REMARK SMILES IDX 4 13 3 14 2 15 1 16 17 17 18 18 19 19 20 20 21 21 22 22
REMARK SMILES IDX 23 23 24 24 25 25 26 26 27 27 28 28 29 29 30 30
REMARK H PARENT 30 31
REMARK Flexibility Score: inf
ROOT
ATOM      1  C   UNL     1     131.025 145.862 106.410  1.00  0.00     0.000 C 
ENDROOT
BRANCH   1   2
ATOM      2  C   UNL     1     131.007 144.429 105.850  1.00  0.00     0.000 C 
BRANCH   2   3
ATOM      3  C   UNL     1     130.329 143.377 106.753  1.00  0.00     0.000 C 
BRANCH   3   4
ATOM      4  C   UNL     1     129.173 142.592 106.103  1.00  0.00     0.000 C 
BRANCH   4   5
ATOM      5  C   UNL     1     128.488 143.366 104.963  1.00  0.00     0.000 C 
BRANCH   5   6
ATOM      6  C   UNL     1     127.227 144.121 105.425  1.00  0.00     0.000 C 
BRANCH   6   7
ATOM      7  C   UNL     1     127.405 145.636 105.635  1.00  0.00     0.000 C 
BRANCH   7   8
ATOM      8  C   UNL     1     127.231 146.062 107.103  1.00  0.00    -0.000 C 
BRANCH   8   9
ATOM      9  C   UNL     1     127.176 144.861 108.062  1.00  0.00    -0.000 C 
BRANCH   9  10
ATOM     10  C   UNL     1     127.720 145.195 109.461  1.00  0.00    -0.000 C 
BRANCH  10  11
ATOM     11  C   UNL     1     128.974 146.084 109.408  1.00  0.00    -0.000 C 
BRANCH  11  12
ATOM     12  C   UNL     1     130.020 145.698 110.469  1.00  0.00    -0.000 C 
BRANCH  12  13
ATOM     13  C   UNL     1     131.431 145.550 109.878  1.00  0.00    -0.000 C 
BRANCH  13  14
ATOM     14  C   UNL     1     131.890 144.086 109.805  1.00  0.00    -0.000 C 
BRANCH  14  15
ATOM     15  C   UNL     1     133.215 143.965 109.044  1.00  0.00    -0.003 C 
ATOM     16  C   UNL     1     133.586 142.502 108.813  1.00  0.00     0.004 C 
ENDBRANCH  14  15
ENDBRANCH  13  14
ENDBRANCH  12  13
ENDBRANCH  11  12
ENDBRANCH  10  11
ENDBRANCH   9  10
ENDBRANCH   8   9
ENDBRANCH   7   8
ENDBRANCH   6   7
ENDBRANCH   5   6
ENDBRANCH   4   5
ENDBRANCH   3   4
ENDBRANCH   2   3
ENDBRANCH   1   2
BRANCH   1  17
ATOM     17  C   UNL     1     132.138 146.728 105.800  1.00  0.00     0.000 C 
BRANCH  17  18
ATOM     18  C   UNL     1     133.511 146.072 106.004  1.00  0.00     0.000 C 
BRANCH  18  19
ATOM     19  C   UNL     1     134.345 146.043 104.712  1.00  0.00     0.000 C 
BRANCH  19  20
ATOM     20  C   UNL     1     134.714 144.612 104.286  1.00  0.00     0.000 C 
BRANCH  20  21
ATOM     21  C   UNL     1     134.468 143.586 105.408  1.00  0.00     0.000 C 
BRANCH  21  22
ATOM     22  C   UNL     1     133.834 142.268 104.912  1.00  0.00     0.000 C 
BRANCH  22  23
ATOM     23  C   UNL     1     134.546 141.006 105.426  1.00  0.00     0.000 C 
BRANCH  23  24
ATOM     24  C   UNL     1     133.569 139.859 105.733  1.00  0.00     0.000 C 
BRANCH  24  25
ATOM     25  C   UNL     1     132.173 140.357 106.146  1.00  0.00     0.000 C 
BRANCH  25  26
ATOM     26  C   UNL     1     131.276 139.300 106.819  1.00  0.00     0.000 C 
BRANCH  26  27
ATOM     27  C   UNL     1     130.526 139.819 108.065  1.00  0.00     0.002 C 
BRANCH  27  28
ATOM     28  C   UNL     1     129.298 138.957 108.404  1.00  0.00     0.028 C 
BRANCH  28  29
ATOM     29  C   UNL     1     128.180 139.118 107.368  1.00  0.00     0.156 C 
BRANCH  29  30
ATOM     30  O   UNL     1     127.101 139.833 107.906  1.00  0.00    -0.396 OA
ATOM     31  H   UNL     1     126.407 139.883 107.199  1.00  0.00     0.210 HD
ENDBRANCH  29  30
ENDBRANCH  28  29
ENDBRANCH  27  28
ENDBRANCH  26  27
ENDBRANCH  25  26
ENDBRANCH  24  25
ENDBRANCH  23  24
ENDBRANCH  22  23
ENDBRANCH  21  22
ENDBRANCH  20  21
ENDBRANCH  19  20
ENDBRANCH  18  19
ENDBRANCH  17  18
ENDBRANCH   1  17
TORSDOF 28
ENDMDL
MODEL 7
REMARK VINA RESULT:    -3.606      2.746      6.476
REMARK INTER + INTRA:         -14.746
REMARK INTER:                  -9.026
REMARK INTRA:                  -5.719
REMARK UNBOUND:                -5.343
REMARK SMILES CCCCCCCCCCCCCCCCCCCCCCCCCCCCCO
REMARK SMILES IDX 16 1 15 2 14 3 13 4 12 5 11 6 10 7 9 8 8 9 7 10 6 11 5 12
REMARK SMILES IDX 4 13 3 14 2 15 1 16 17 17 18 18 19 19 20 20 21 21 22 22
REMARK SMILES IDX 23 23 24 24 25 25 26 26 27 27 28 28 29 29 30 30
REMARK H PARENT 30 31
REMARK Flexibility Score: inf
ROOT
ATOM      1  C   UNL     1     131.276 145.117 106.323  1.00  0.00     0.000 C 
ENDROOT
BRANCH   1   2
ATOM      2  C   UNL     1     132.636 145.618 105.805  1.00  0.00     0.000 C 
BRANCH   2   3
ATOM      3  C   UNL     1     133.570 144.525 105.242  1.00  0.00     0.000 C 
BRANCH   3   4
ATOM      4  C   UNL     1     134.949 145.014 104.762  1.00  0.00     0.000 C 
BRANCH   4   5
ATOM      5  C   UNL     1     135.353 146.367 105.375  1.00  0.00     0.000 C 
BRANCH   5   6
ATOM      6  C   UNL     1     136.642 146.284 106.213  1.00  0.00     0.000 C 
BRANCH   6   7
ATOM      7  C   UNL     1     136.954 144.898 106.807  1.00  0.00     0.000 C 
BRANCH   7   8
ATOM      8  C   UNL     1     137.381 144.960 108.284  1.00  0.00    -0.000 C 
BRANCH   8   9
ATOM      9  C   UNL     1     136.209 144.703 109.245  1.00  0.00    -0.000 C 
BRANCH   9  10
ATOM     10  C   UNL     1     135.064 143.915 108.586  1.00  0.00    -0.000 C 
BRANCH  10  11
ATOM     11  C   UNL     1     133.683 144.321 109.126  1.00  0.00    -0.000 C 
BRANCH  11  12
ATOM     12  C   UNL     1     133.515 145.847 109.238  1.00  0.00    -0.000 C 
BRANCH  12  13
ATOM     13  C   UNL     1     132.105 146.253 109.692  1.00  0.00    -0.000 C 
BRANCH  13  14
ATOM     14  C   UNL     1     132.117 147.086 110.983  1.00  0.00    -0.000 C 
BRANCH  14  15
ATOM     15  C   UNL     1     131.172 146.487 112.031  1.00  0.00    -0.003 C 
ATOM     16  C   UNL     1     131.436 144.995 112.223  1.00  0.00     0.004 C 
ENDBRANCH  14  15
ENDBRANCH  13  14
ENDBRANCH  12  13
ENDBRANCH  11  12
ENDBRANCH  10  11
ENDBRANCH   9  10
ENDBRANCH   8   9
ENDBRANCH   7   8
ENDBRANCH   6   7
ENDBRANCH   5   6
ENDBRANCH   4   5
ENDBRANCH   3   4
ENDBRANCH   2   3
ENDBRANCH   1   2
BRANCH   1  17
ATOM     17  C   UNL     1     130.890 143.742 105.756  1.00  0.00     0.000 C 
BRANCH  17  18
ATOM     18  C   UNL     1     129.389 143.687 105.437  1.00  0.00     0.000 C 
BRANCH  18  19
ATOM     19  C   UNL     1     128.679 145.021 105.724  1.00  0.00     0.000 C 
BRANCH  19  20
ATOM     20  C   UNL     1     127.231 144.822 106.203  1.00  0.00     0.000 C 
BRANCH  20  21
ATOM     21  C   UNL     1     127.004 145.372 107.623  1.00  0.00     0.000 C 
BRANCH  21  22
ATOM     22  C   UNL     1     128.269 145.998 108.252  1.00  0.00     0.000 C 
BRANCH  22  23
ATOM     23  C   UNL     1     128.481 145.618 109.727  1.00  0.00     0.000 C 
BRANCH  23  24
ATOM     24  C   UNL     1     128.506 144.096 109.948  1.00  0.00     0.000 C 
BRANCH  24  25
ATOM     25  C   UNL     1     129.712 143.416 109.279  1.00  0.00     0.000 C 
BRANCH  25  26
ATOM     26  C   UNL     1     129.432 142.015 108.699  1.00  0.00     0.000 C 
BRANCH  26  27
ATOM     27  C   UNL     1     127.940 141.747 108.408  1.00  0.00     0.002 C 
BRANCH  27  28
ATOM     28  C   UNL     1     127.716 141.194 106.990  1.00  0.00     0.028 C 
BRANCH  28  29
ATOM     29  C   UNL     1     127.684 139.662 106.970  1.00  0.00     0.156 C 
BRANCH  29  30
ATOM     30  O   UNL     1     127.219 139.157 108.192  1.00  0.00    -0.396 OA
ATOM     31  H   UNL     1     126.259 138.937 108.067  1.00  0.00     0.210 HD
ENDBRANCH  29  30
ENDBRANCH  28  29
ENDBRANCH  27  28
ENDBRANCH  26  27
ENDBRANCH  25  26
ENDBRANCH  24  25
ENDBRANCH  23  24
ENDBRANCH  22  23
ENDBRANCH  21  22
ENDBRANCH  20  21
ENDBRANCH  19  20
ENDBRANCH  18  19
ENDBRANCH  17  18
ENDBRANCH   1  17
TORSDOF 28
ENDMDL
MODEL 8
REMARK VINA RESULT:    -3.549      1.711      3.123
REMARK INTER + INTRA:         -14.597
REMARK INTER:                  -9.659
REMARK INTRA:                  -4.938
REMARK UNBOUND:                -5.343
REMARK SMILES CCCCCCCCCCCCCCCCCCCCCCCCCCCCCO
REMARK SMILES IDX 16 1 15 2 14 3 13 4 12 5 11 6 10 7 9 8 8 9 7 10 6 11 5 12
REMARK SMILES IDX 4 13 3 14 2 15 1 16 17 17 18 18 19 19 20 20 21 21 22 22
REMARK SMILES IDX 23 23 24 24 25 25 26 26 27 27 28 28 29 29 30 30
REMARK H PARENT 30 31
REMARK Flexibility Score: inf
ROOT
ATOM      1  C   UNL     1     127.357 145.359 105.640  1.00  0.00     0.000 C 
ENDROOT
BRANCH   1   2
ATOM      2  C   UNL     1     126.917 145.248 107.111  1.00  0.00     0.000 C 
BRANCH   2   3
ATOM      3  C   UNL     1     127.444 146.361 108.042  1.00  0.00     0.000 C 
BRANCH   3   4
ATOM      4  C   UNL     1     127.989 145.886 109.402  1.00  0.00     0.000 C 
BRANCH   4   5
ATOM      5  C   UNL     1     127.654 144.415 109.703  1.00  0.00     0.000 C 
BRANCH   5   6
ATOM      6  C   UNL     1     128.016 144.000 111.141  1.00  0.00     0.000 C 
BRANCH   6   7
ATOM      7  C   UNL     1     129.219 143.048 111.270  1.00  0.00     0.000 C 
BRANCH   7   8
ATOM      8  C   UNL     1     130.481 143.744 111.808  1.00  0.00    -0.000 C 
BRANCH   8   9
ATOM      9  C   UNL     1     130.219 145.204 112.213  1.00  0.00    -0.000 C 
BRANCH   9  10
ATOM     10  C   UNL     1     131.217 146.184 111.572  1.00  0.00    -0.000 C 
BRANCH  10  11
ATOM     11  C   UNL     1     132.082 146.910 112.616  1.00  0.00    -0.000 C 
BRANCH  11  12
ATOM     12  C   UNL     1     133.439 146.220 112.844  1.00  0.00    -0.000 C 
BRANCH  12  13
ATOM     13  C   UNL     1     133.758 146.029 114.336  1.00  0.00    -0.000 C 
BRANCH  13  14
ATOM     14  C   UNL     1     132.881 144.955 114.995  1.00  0.00    -0.000 C 
BRANCH  14  15
ATOM     15  C   UNL     1     132.114 145.532 116.190  1.00  0.00    -0.003 C 
ATOM     16  C   UNL     1     130.629 145.689 115.869  1.00  0.00     0.004 C 
ENDBRANCH  14  15
ENDBRANCH  13  14
ENDBRANCH  12  13
ENDBRANCH  11  12
ENDBRANCH  10  11
ENDBRANCH   9  10
ENDBRANCH   8   9
ENDBRANCH   7   8
ENDBRANCH   6   7
ENDBRANCH   5   6
ENDBRANCH   4   5
ENDBRANCH   3   4
ENDBRANCH   2   3
ENDBRANCH   1   2
BRANCH   1  17
ATOM     17  C   UNL     1     127.634 143.992 104.995  1.00  0.00     0.000 C 
BRANCH  17  18
ATOM     18  C   UNL     1     127.410 142.858 106.007  1.00  0.00     0.000 C 
BRANCH  18  19
ATOM     19  C   UNL     1     128.641 141.946 106.146  1.00  0.00     0.000 C 
BRANCH  19  20
ATOM     20  C   UNL     1     129.505 142.313 107.365  1.00  0.00     0.000 C 
BRANCH  20  21
ATOM     21  C   UNL     1     130.620 143.314 107.010  1.00  0.00     0.000 C 
BRANCH  21  22
ATOM     22  C   UNL     1     131.127 144.129 108.221  1.00  0.00     0.000 C 
BRANCH  22  23
ATOM     23  C   UNL     1     131.296 145.629 107.930  1.00  0.00     0.000 C 
BRANCH  23  24
ATOM     24  C   UNL     1     130.927 145.997 106.483  1.00  0.00     0.000 C 
BRANCH  24  25
ATOM     25  C   UNL     1     132.072 146.698 105.734  1.00  0.00     0.000 C 
BRANCH  25  26
ATOM     26  C   UNL     1     133.482 146.154 106.041  1.00  0.00     0.000 C 
BRANCH  26  27
ATOM     27  C   UNL     1     134.269 145.715 104.789  1.00  0.00     0.002 C 
BRANCH  27  28
ATOM     28  C   UNL     1     134.847 144.297 104.933  1.00  0.00     0.028 C 
BRANCH  28  29
ATOM     29  C   UNL     1     134.289 143.339 103.876  1.00  0.00     0.156 C 
BRANCH  29  30
ATOM     30  O   UNL     1     132.967 142.981 104.176  1.00  0.00    -0.396 OA
ATOM     31  H   UNL     1     132.381 143.515 103.579  1.00  0.00     0.210 HD
ENDBRANCH  29  30
ENDBRANCH  28  29
ENDBRANCH  27  28
ENDBRANCH  26  27
ENDBRANCH  25  26
ENDBRANCH  24  25
ENDBRANCH  23  24
ENDBRANCH  22  23
ENDBRANCH  21  22
ENDBRANCH  20  21
ENDBRANCH  19  20
ENDBRANCH  18  19
ENDBRANCH  17  18
ENDBRANCH   1  17
TORSDOF 28
ENDMDL
MODEL 9
REMARK VINA RESULT:    -3.521      1.647      3.364
REMARK INTER + INTRA:         -14.525
REMARK INTER:                  -9.224
REMARK INTRA:                  -5.301
REMARK UNBOUND:                -5.343
REMARK SMILES CCCCCCCCCCCCCCCCCCCCCCCCCCCCCO
REMARK SMILES IDX 16 1 15 2 14 3 13 4 12 5 11 6 10 7 9 8 8 9 7 10 6 11 5 12
REMARK SMILES IDX 4 13 3 14 2 15 1 16 17 17 18 18 19 19 20 20 21 21 22 22
REMARK SMILES IDX 23 23 24 24 25 25 26 26 27 27 28 28 29 29 30 30
REMARK H PARENT 30 31
REMARK Flexibility Score: inf
ROOT
ATOM      1  C   UNL     1     128.199 142.959 105.683  1.00  0.00     0.000 C 
ENDROOT
BRANCH   1   2
ATOM      2  C   UNL     1     127.539 144.214 105.084  1.00  0.00     0.000 C 
BRANCH   2   3
ATOM      3  C   UNL     1     127.863 145.539 105.808  1.00  0.00     0.000 C 
BRANCH   3   4
ATOM      4  C   UNL     1     129.118 145.516 106.701  1.00  0.00     0.000 C 
BRANCH   4   5
ATOM      5  C   UNL     1     128.823 145.901 108.161  1.00  0.00     0.000 C 
BRANCH   5   6
ATOM      6  C   UNL     1     128.128 144.775 108.948  1.00  0.00     0.000 C 
BRANCH   6   7
ATOM      7  C   UNL     1     127.136 145.241 110.029  1.00  0.00     0.000 C 
BRANCH   7   8
ATOM      8  C   UNL     1     127.244 144.432 111.333  1.00  0.00    -0.000 C 
BRANCH   8   9
ATOM      9  C   UNL     1     128.336 143.351 111.265  1.00  0.00    -0.000 C 
BRANCH   9  10
ATOM     10  C   UNL     1     129.521 143.647 112.201  1.00  0.00    -0.000 C 
BRANCH  10  11
ATOM     11  C   UNL     1     130.703 144.299 111.464  1.00  0.00    -0.000 C 
BRANCH  11  12
ATOM     12  C   UNL     1     130.630 145.837 111.470  1.00  0.00    -0.000 C 
BRANCH  12  13
ATOM     13  C   UNL     1     131.830 146.485 110.763  1.00  0.00    -0.000 C 
BRANCH  13  14
ATOM     14  C   UNL     1     132.322 145.664 109.562  1.00  0.00    -0.000 C 
BRANCH  14  15
ATOM     15  C   UNL     1     133.196 146.517 108.636  1.00  0.00    -0.003 C 
ATOM     16  C   UNL     1     132.482 146.812 107.320  1.00  0.00     0.004 C 
ENDBRANCH  14  15
ENDBRANCH  13  14
ENDBRANCH  12  13
ENDBRANCH  11  12
ENDBRANCH  10  11
ENDBRANCH   9  10
ENDBRANCH   8   9
ENDBRANCH   7   8
ENDBRANCH   6   7
ENDBRANCH   5   6
ENDBRANCH   4   5
ENDBRANCH   3   4
ENDBRANCH   2   3
ENDBRANCH   1   2
BRANCH   1  17
ATOM     17  C   UNL     1     127.238 142.141 106.560  1.00  0.00     0.000 C 
BRANCH  17  18
ATOM     18  C   UNL     1     127.930 140.876 107.089  1.00  0.00     0.000 C 
BRANCH  18  19
ATOM     19  C   UNL     1     129.328 140.674 106.482  1.00  0.00     0.000 C 
BRANCH  19  20
ATOM     20  C   UNL     1     130.395 140.388 107.553  1.00  0.00     0.000 C 
BRANCH  20  21
ATOM     21  C   UNL     1     130.521 141.534 108.573  1.00  0.00     0.000 C 
BRANCH  21  22
ATOM     22  C   UNL     1     131.029 142.857 107.957  1.00  0.00     0.000 C 
BRANCH  22  23
ATOM     23  C   UNL     1     132.358 142.715 107.195  1.00  0.00     0.000 C 
BRANCH  23  24
ATOM     24  C   UNL     1     132.268 143.229 105.748  1.00  0.00     0.000 C 
BRANCH  24  25
ATOM     25  C   UNL     1     133.446 144.139 105.363  1.00  0.00     0.000 C 
BRANCH  25  26
ATOM     26  C   UNL     1     134.755 143.400 105.019  1.00  0.00     0.000 C 
BRANCH  26  27
ATOM     27  C   UNL     1     136.031 144.160 105.441  1.00  0.00     0.002 C 
BRANCH  27  28
ATOM     28  C   UNL     1     135.713 145.544 106.031  1.00  0.00     0.028 C 
BRANCH  28  29
ATOM     29  C   UNL     1     136.753 145.977 107.070  1.00  0.00     0.156 C 
BRANCH  29  30
ATOM     30  O   UNL     1     136.326 147.125 107.753  1.00  0.00    -0.396 OA
ATOM     31  H   UNL     1     136.953 147.855 107.509  1.00  0.00     0.210 HD
ENDBRANCH  29  30
ENDBRANCH  28  29
ENDBRANCH  27  28
ENDBRANCH  26  27
ENDBRANCH  25  26
ENDBRANCH  24  25
ENDBRANCH  23  24
ENDBRANCH  22  23
ENDBRANCH  21  22
ENDBRANCH  20  21
ENDBRANCH  19  20
ENDBRANCH  18  19
ENDBRANCH  17  18
ENDBRANCH   1  17
TORSDOF 28
ENDMDL
