MODEL 1
REMARK VINA RESULT:    -6.086      0.000      0.000
REMARK INTER + INTRA:         -10.253
REMARK INTER:                  -8.933
REMARK INTRA:                  -1.320
REMARK UNBOUND:                -1.320
REMARK SMILES O=c1c(O[C@H]2O[C@H](CO)[C@@H](O)[C@@H](O)[C@@H]2O)c(-c2ccc(O)c(O)c2)oc2cc(O)cc(O)c12
REMARK SMILES IDX 4 1 3 2 16 3 25 4 2 5 26 6 1 7 33 8 27 9 31 10 28 11 30 12
REMARK SMILES IDX 17 13 18 14 19 15 20 16 24 17 22 18 21 19 23 21 32 23 29 25
REMARK SMILES IDX 5 27 14 28 6 29 12 30 7 31 10 32 15 33 13 35 8 37 9 38 11 40
REMARK H PARENT 21 20 23 22 32 24 29 26 15 34 13 36 9 39 11 41
REMARK Flexibility Score: inf
ROOT
ATOM      1  O   UNL     1      -6.062   6.296  14.028  1.00  0.00    -0.454 OA
ENDROOT
BRANCH   1   2
ATOM      2  C   UNL     1      -5.052   5.488  14.586  1.00  0.00     0.214 A 
ATOM      3  C   UNL     1      -3.712   5.807  14.292  1.00  0.00     0.180 A 
ATOM      4  O   UNL     1      -2.725   5.100  14.827  1.00  0.00    -0.452 OA
ATOM      5  C   UNL     1      -5.307   4.387  15.437  1.00  0.00     0.239 A 
ATOM      6  C   UNL     1      -2.918   4.088  15.661  1.00  0.00     0.146 A 
ATOM      7  O   UNL     1      -6.488   3.988  15.604  1.00  0.00    -0.285 OA
ATOM      8  C   UNL     1      -4.227   3.707  16.050  1.00  0.00     0.111 A 
ATOM      9  C   UNL     1      -1.804   3.396  16.143  1.00  0.00     0.094 A 
ATOM     10  C   UNL     1      -4.375   2.653  16.998  1.00  0.00     0.134 A 
ATOM     11  C   UNL     1      -1.966   2.320  17.019  1.00  0.00     0.123 A 
ATOM     12  C   UNL     1      -3.245   1.953  17.438  1.00  0.00     0.093 A 
BRANCH   3  13
ATOM     13  C   UNL     1      -3.354   6.942  13.409  1.00  0.00     0.025 A 
ATOM     14  C   UNL     1      -2.378   7.885  13.783  1.00  0.00     0.016 A 
ATOM     15  C   UNL     1      -2.051   8.939  12.927  1.00  0.00     0.051 A 
ATOM     16  C   UNL     1      -2.705   9.078  11.695  1.00  0.00     0.157 A 
ATOM     17  C   UNL     1      -4.027   7.104  12.186  1.00  0.00     0.062 A 
ATOM     18  C   UNL     1      -3.699   8.162  11.327  1.00  0.00     0.158 A 
BRANCH  16  19
ATOM     19  O   UNL     1      -2.375  10.125  10.836  1.00  0.00    -0.504 OA
ATOM     20  H   UNL     1      -1.703  10.005  10.086  1.00  0.00     0.293 HD
ENDBRANCH  16  19
BRANCH  18  21
ATOM     21  O   UNL     1      -4.355   8.309  10.105  1.00  0.00    -0.504 OA
ATOM     22  H   UNL     1      -4.615   7.506   9.542  1.00  0.00     0.293 HD
ENDBRANCH  18  21
ENDBRANCH   3  13
BRANCH  10  23
ATOM     23  O   UNL     1      -5.599   2.285  17.566  1.00  0.00    -0.507 OA
ATOM     24  H   UNL     1      -5.782   2.268  18.560  1.00  0.00     0.293 HD
ENDBRANCH  10  23
BRANCH  11  25
ATOM     25  O   UNL     1      -0.861   1.615  17.491  1.00  0.00    -0.508 OA
ATOM     26  H   UNL     1      -0.934   0.981  18.279  1.00  0.00     0.293 HD
ENDBRANCH  11  25
ENDBRANCH   1   2
BRANCH   1  27
ATOM     27  C   UNL     1      -6.869   7.269  14.699  1.00  0.00     0.339 C 
ATOM     28  C   UNL     1      -8.346   6.811  14.729  1.00  0.00     0.214 C 
ATOM     29  O   UNL     1      -6.732   8.558  14.117  1.00  0.00    -0.332 OA
ATOM     30  C   UNL     1      -9.035   6.949  13.351  1.00  0.00     0.180 C 
ATOM     31  C   UNL     1      -7.145   8.572  12.759  1.00  0.00     0.179 C 
ATOM     32  C   UNL     1      -8.667   8.283  12.659  1.00  0.00     0.177 C 
BRANCH  28  33
ATOM     33  O   UNL     1      -9.063   7.517  15.714  1.00  0.00    -0.384 OA
ATOM     34  H   UNL     1      -8.420   7.802  16.416  1.00  0.00     0.211 HD
ENDBRANCH  28  33
BRANCH  30  35
ATOM     35  O   UNL     1      -8.759   5.833  12.537  1.00  0.00    -0.387 OA
ATOM     36  H   UNL     1      -9.300   5.069  12.860  1.00  0.00     0.211 HD
ENDBRANCH  30  35
BRANCH  31  37
ATOM     37  C   UNL     1      -6.797   9.952  12.185  1.00  0.00     0.191 C 
BRANCH  37  38
ATOM     38  O   UNL     1      -6.962   9.960  10.792  1.00  0.00    -0.394 OA
ATOM     39  H   UNL     1      -7.942   9.981  10.630  1.00  0.00     0.210 HD
ENDBRANCH  37  38
ENDBRANCH  31  37
BRANCH  32  40
ATOM     40  O   UNL     1      -9.125   8.298  11.330  1.00  0.00    -0.387 OA
ATOM     41  H   UNL     1      -8.837   9.154  10.916  1.00  0.00     0.211 HD
ENDBRANCH  32  40
ENDBRANCH   1  27
TORSDOF 12
ENDMDL
MODEL 2
REMARK VINA RESULT:    -5.978      1.254      2.230
REMARK INTER + INTRA:         -10.095
REMARK INTER:                 -10.510
REMARK INTRA:                   0.416
REMARK UNBOUND:                -1.320
REMARK SMILES O=c1c(O[C@H]2O[C@H](CO)[C@@H](O)[C@@H](O)[C@@H]2O)c(-c2ccc(O)c(O)c2)oc2cc(O)cc(O)c12
REMARK SMILES IDX 4 1 3 2 16 3 25 4 2 5 26 6 1 7 33 8 27 9 31 10 28 11 30 12
REMARK SMILES IDX 17 13 18 14 19 15 20 16 24 17 22 18 21 19 23 21 32 23 29 25
REMARK SMILES IDX 5 27 14 28 6 29 12 30 7 31 10 32 15 33 13 35 8 37 9 38 11 40
REMARK H PARENT 21 20 23 22 32 24 29 26 15 34 13 36 9 39 11 41
REMARK Flexibility Score: inf
ROOT
ATOM      1  O   UNL     1      -5.684   7.270  14.567  1.00  0.00    -0.454 OA
ENDROOT
BRANCH   1   2
ATOM      2  C   UNL     1      -4.815   6.229  14.951  1.00  0.00     0.214 A 
ATOM      3  C   UNL     1      -3.516   6.218  14.408  1.00  0.00     0.180 A 
ATOM      4  O   UNL     1      -2.648   5.281  14.772  1.00  0.00    -0.452 OA
ATOM      5  C   UNL     1      -5.169   5.207  15.863  1.00  0.00     0.239 A 
ATOM      6  C   UNL     1      -2.925   4.330  15.652  1.00  0.00     0.146 A 
ATOM      7  O   UNL     1      -6.360   5.104  16.254  1.00  0.00    -0.285 OA
ATOM      8  C   UNL     1      -4.193   4.273  16.284  1.00  0.00     0.111 A 
ATOM      9  C   UNL     1      -1.944   3.379  15.941  1.00  0.00     0.094 A 
ATOM     10  C   UNL     1      -4.416   3.268  17.271  1.00  0.00     0.134 A 
ATOM     11  C   UNL     1      -2.198   2.358  16.858  1.00  0.00     0.123 A 
ATOM     12  C   UNL     1      -3.428   2.305  17.515  1.00  0.00     0.093 A 
BRANCH   3  13
ATOM     13  C   UNL     1      -3.061   7.249  13.445  1.00  0.00     0.025 A 
ATOM     14  C   UNL     1      -2.186   8.282  13.832  1.00  0.00     0.016 A 
ATOM     15  C   UNL     1      -1.764   9.234  12.902  1.00  0.00     0.051 A 
ATOM     16  C   UNL     1      -2.222   9.181  11.578  1.00  0.00     0.157 A 
ATOM     17  C   UNL     1      -3.540   7.218  12.125  1.00  0.00     0.062 A 
ATOM     18  C   UNL     1      -3.116   8.174  11.191  1.00  0.00     0.158 A 
BRANCH  16  19
ATOM     19  O   UNL     1      -1.796  10.125  10.646  1.00  0.00    -0.504 OA
ATOM     20  H   UNL     1      -2.117  10.105   9.685  1.00  0.00     0.293 HD
ENDBRANCH  16  19
BRANCH  18  21
ATOM     21  O   UNL     1      -3.578   8.129   9.875  1.00  0.00    -0.504 OA
ATOM     22  H   UNL     1      -2.950   7.964   9.097  1.00  0.00     0.293 HD
ENDBRANCH  18  21
ENDBRANCH   3  13
BRANCH  10  23
ATOM     23  O   UNL     1      -5.566   3.198  18.063  1.00  0.00    -0.507 OA
ATOM     24  H   UNL     1      -6.017   4.000  18.482  1.00  0.00     0.293 HD
ENDBRANCH  10  23
BRANCH  11  25
ATOM     25  O   UNL     1      -1.230   1.396  17.138  1.00  0.00    -0.508 OA
ATOM     26  H   UNL     1      -1.421   0.615  17.758  1.00  0.00     0.293 HD
ENDBRANCH  11  25
ENDBRANCH   1   2
BRANCH   1  27
ATOM     27  C   UNL     1      -6.321   7.451  13.299  1.00  0.00     0.339 C 
ATOM     28  C   UNL     1      -7.820   7.776  13.494  1.00  0.00     0.214 C 
ATOM     29  O   UNL     1      -6.135   6.325  12.451  1.00  0.00    -0.332 OA
ATOM     30  C   UNL     1      -8.643   6.536  13.916  1.00  0.00     0.180 C 
ATOM     31  C   UNL     1      -6.694   5.146  13.009  1.00  0.00     0.179 C 
ATOM     32  C   UNL     1      -8.237   5.280  13.110  1.00  0.00     0.177 C 
BRANCH  28  33
ATOM     33  O   UNL     1      -8.357   8.355  12.328  1.00  0.00    -0.384 OA
ATOM     34  H   UNL     1      -7.746   8.147  11.573  1.00  0.00     0.211 HD
ENDBRANCH  28  33
BRANCH  30  35
ATOM     35  O   UNL     1      -8.560   6.327  15.306  1.00  0.00    -0.387 OA
ATOM     36  H   UNL     1      -7.833   6.896  15.666  1.00  0.00     0.211 HD
ENDBRANCH  30  35
BRANCH  31  37
ATOM     37  C   UNL     1      -6.291   3.973  12.106  1.00  0.00     0.191 C 
BRANCH  37  38
ATOM     38  O   UNL     1      -7.302   3.702  11.173  1.00  0.00    -0.394 OA
ATOM     39  H   UNL     1      -7.359   4.502  10.587  1.00  0.00     0.210 HD
ENDBRANCH  37  38
ENDBRANCH  31  37
BRANCH  32  40
ATOM     40  O   UNL     1      -8.837   4.128  13.647  1.00  0.00    -0.387 OA
ATOM     41  H   UNL     1      -8.132   3.437  13.756  1.00  0.00     0.211 HD
ENDBRANCH  32  40
ENDBRANCH   1  27
TORSDOF 12
ENDMDL
MODEL 3
REMARK VINA RESULT:    -5.903      1.846      5.710
REMARK INTER + INTRA:          -9.983
REMARK INTER:                  -9.352
REMARK INTRA:                  -0.631
REMARK UNBOUND:                -1.320
REMARK SMILES O=c1c(O[C@H]2O[C@H](CO)[C@@H](O)[C@@H](O)[C@@H]2O)c(-c2ccc(O)c(O)c2)oc2cc(O)cc(O)c12
REMARK SMILES IDX 4 1 3 2 16 3 25 4 2 5 26 6 1 7 33 8 27 9 31 10 28 11 30 12
REMARK SMILES IDX 17 13 18 14 19 15 20 16 24 17 22 18 21 19 23 21 32 23 29 25
REMARK SMILES IDX 5 27 14 28 6 29 12 30 7 31 10 32 15 33 13 35 8 37 9 38 11 40
REMARK H PARENT 21 20 23 22 32 24 29 26 15 34 13 36 9 39 11 41
REMARK Flexibility Score: inf
ROOT
ATOM      1  O   UNL     1      -5.730   5.604  12.752  1.00  0.00    -0.454 OA
ENDROOT
BRANCH   1   2
ATOM      2  C   UNL     1      -4.591   6.399  12.988  1.00  0.00     0.214 A 
ATOM      3  C   UNL     1      -3.914   6.238  14.212  1.00  0.00     0.180 A 
ATOM      4  O   UNL     1      -2.812   6.935  14.462  1.00  0.00    -0.452 OA
ATOM      5  C   UNL     1      -4.081   7.336  12.059  1.00  0.00     0.239 A 
ATOM      6  C   UNL     1      -2.279   7.793  13.604  1.00  0.00     0.146 A 
ATOM      7  O   UNL     1      -4.740   7.609  11.023  1.00  0.00    -0.285 OA
ATOM      8  C   UNL     1      -2.863   8.003  12.330  1.00  0.00     0.111 A 
ATOM      9  C   UNL     1      -1.131   8.493  13.984  1.00  0.00     0.094 A 
ATOM     10  C   UNL     1      -2.212   8.889  11.421  1.00  0.00     0.134 A 
ATOM     11  C   UNL     1      -0.542   9.410  13.111  1.00  0.00     0.123 A 
ATOM     12  C   UNL     1      -1.083   9.604  11.840  1.00  0.00     0.093 A 
BRANCH   3  13
ATOM     13  C   UNL     1      -4.378   5.280  15.244  1.00  0.00     0.025 A 
ATOM     14  C   UNL     1      -4.206   3.892  15.089  1.00  0.00     0.016 A 
ATOM     15  C   UNL     1      -4.643   3.012  16.081  1.00  0.00     0.051 A 
ATOM     16  C   UNL     1      -5.273   3.502  17.233  1.00  0.00     0.157 A 
ATOM     17  C   UNL     1      -5.037   5.764  16.386  1.00  0.00     0.062 A 
ATOM     18  C   UNL     1      -5.475   4.880  17.383  1.00  0.00     0.158 A 
BRANCH  16  19
ATOM     19  O   UNL     1      -5.703   2.627  18.229  1.00  0.00    -0.504 OA
ATOM     20  H   UNL     1      -6.560   2.789  18.745  1.00  0.00     0.293 HD
ENDBRANCH  16  19
BRANCH  18  21
ATOM     21  O   UNL     1      -6.111   5.365  18.526  1.00  0.00    -0.504 OA
ATOM     22  H   UNL     1      -6.054   4.877  19.413  1.00  0.00     0.293 HD
ENDBRANCH  18  21
ENDBRANCH   3  13
BRANCH  10  23
ATOM     23  O   UNL     1      -2.607   9.067  10.092  1.00  0.00    -0.507 OA
ATOM     24  H   UNL     1      -2.743   8.311   9.433  1.00  0.00     0.293 HD
ENDBRANCH  10  23
BRANCH  11  25
ATOM     25  O   UNL     1       0.593  10.124  13.490  1.00  0.00    -0.508 OA
ATOM     26  H   UNL     1       1.424  10.147  12.907  1.00  0.00     0.293 HD
ENDBRANCH  11  25
ENDBRANCH   1   2
BRANCH   1  27
ATOM     27  C   UNL     1      -6.935   5.556  13.523  1.00  0.00     0.339 C 
ATOM     28  C   UNL     1      -8.057   4.859  12.719  1.00  0.00     0.214 C 
ATOM     29  O   UNL     1      -7.330   6.848  13.963  1.00  0.00    -0.332 OA
ATOM     30  C   UNL     1      -8.620   5.757  11.592  1.00  0.00     0.180 C 
ATOM     31  C   UNL     1      -7.592   7.720  12.876  1.00  0.00     0.179 C 
ATOM     32  C   UNL     1      -8.819   7.215  12.069  1.00  0.00     0.177 C 
BRANCH  28  33
ATOM     33  O   UNL     1      -9.090   4.435  13.577  1.00  0.00    -0.384 OA
ATOM     34  H   UNL     1      -9.395   5.221  14.102  1.00  0.00     0.211 HD
ENDBRANCH  28  33
BRANCH  30  35
ATOM     35  O   UNL     1      -7.816   5.679  10.438  1.00  0.00    -0.387 OA
ATOM     36  H   UNL     1      -7.725   4.725  10.184  1.00  0.00     0.211 HD
ENDBRANCH  30  35
BRANCH  31  37
ATOM     37  C   UNL     1      -7.840   9.119  13.455  1.00  0.00     0.191 C 
BRANCH  37  38
ATOM     38  O   UNL     1      -9.077   9.166  14.113  1.00  0.00    -0.394 OA
ATOM     39  H   UNL     1      -8.964   8.648  14.952  1.00  0.00     0.210 HD
ENDBRANCH  37  38
ENDBRANCH  31  37
BRANCH  32  40
ATOM     40  O   UNL     1      -9.125   8.056  10.985  1.00  0.00    -0.387 OA
ATOM     41  H   UNL     1      -8.428   8.762  10.938  1.00  0.00     0.211 HD
ENDBRANCH  32  40
ENDBRANCH   1  27
TORSDOF 12
ENDMDL
MODEL 4
REMARK VINA RESULT:    -5.701      1.774      4.652
REMARK INTER + INTRA:          -9.688
REMARK INTER:                  -8.535
REMARK INTRA:                  -1.153
REMARK UNBOUND:                -1.320
REMARK SMILES O=c1c(O[C@H]2O[C@H](CO)[C@@H](O)[C@@H](O)[C@@H]2O)c(-c2ccc(O)c(O)c2)oc2cc(O)cc(O)c12
REMARK SMILES IDX 4 1 3 2 16 3 25 4 2 5 26 6 1 7 33 8 27 9 31 10 28 11 30 12
REMARK SMILES IDX 17 13 18 14 19 15 20 16 24 17 22 18 21 19 23 21 32 23 29 25
REMARK SMILES IDX 5 27 14 28 6 29 12 30 7 31 10 32 15 33 13 35 8 37 9 38 11 40
REMARK H PARENT 21 20 23 22 32 24 29 26 15 34 13 36 9 39 11 41
REMARK Flexibility Score: inf
ROOT
ATOM      1  O   UNL     1      -3.590   6.855  13.523  1.00  0.00    -0.454 OA
ENDROOT
BRANCH   1   2
ATOM      2  C   UNL     1      -3.959   5.794  14.374  1.00  0.00     0.214 A 
ATOM      3  C   UNL     1      -5.295   5.352  14.338  1.00  0.00     0.180 A 
ATOM      4  O   UNL     1      -5.680   4.329  15.091  1.00  0.00    -0.452 OA
ATOM      5  C   UNL     1      -3.060   5.139  15.248  1.00  0.00     0.239 A 
ATOM      6  C   UNL     1      -4.862   3.662  15.892  1.00  0.00     0.146 A 
ATOM      7  O   UNL     1      -1.901   5.599  15.411  1.00  0.00    -0.285 OA
ATOM      8  C   UNL     1      -3.489   4.004  15.976  1.00  0.00     0.111 A 
ATOM      9  C   UNL     1      -5.382   2.617  16.661  1.00  0.00     0.094 A 
ATOM     10  C   UNL     1      -2.640   3.213  16.805  1.00  0.00     0.134 A 
ATOM     11  C   UNL     1      -4.555   1.894  17.521  1.00  0.00     0.123 A 
ATOM     12  C   UNL     1      -3.194   2.195  17.591  1.00  0.00     0.093 A 
BRANCH   3  13
ATOM     13  C   UNL     1      -6.304   5.981  13.453  1.00  0.00     0.025 A 
ATOM     14  C   UNL     1      -7.254   6.892  13.952  1.00  0.00     0.016 A 
ATOM     15  C   UNL     1      -8.187   7.478  13.094  1.00  0.00     0.051 A 
ATOM     16  C   UNL     1      -8.197   7.153  11.731  1.00  0.00     0.157 A 
ATOM     17  C   UNL     1      -6.339   5.635  12.091  1.00  0.00     0.062 A 
ATOM     18  C   UNL     1      -7.275   6.225  11.230  1.00  0.00     0.158 A 
BRANCH  16  19
ATOM     19  O   UNL     1      -9.122   7.743  10.871  1.00  0.00    -0.504 OA
ATOM     20  H   UNL     1      -9.382   7.310   9.993  1.00  0.00     0.293 HD
ENDBRANCH  16  19
BRANCH  18  21
ATOM     21  O   UNL     1      -7.294   5.894   9.875  1.00  0.00    -0.504 OA
ATOM     22  H   UNL     1      -8.097   5.445   9.449  1.00  0.00     0.293 HD
ENDBRANCH  18  21
ENDBRANCH   3  13
BRANCH  10  23
ATOM     23  O   UNL     1      -1.251   3.359  16.859  1.00  0.00    -0.507 OA
ATOM     24  H   UNL     1      -0.618   3.041  16.138  1.00  0.00     0.293 HD
ENDBRANCH  10  23
BRANCH  11  25
ATOM     25  O   UNL     1      -5.070   0.862  18.303  1.00  0.00    -0.508 OA
ATOM     26  H   UNL     1      -6.067   0.674  18.342  1.00  0.00     0.293 HD
ENDBRANCH  11  25
ENDBRANCH   1   2
BRANCH   1  27
ATOM     27  C   UNL     1      -3.832   8.252  13.715  1.00  0.00     0.339 C 
ATOM     28  C   UNL     1      -4.561   8.843  12.486  1.00  0.00     0.214 C 
ATOM     29  O   UNL     1      -2.634   8.959  14.005  1.00  0.00    -0.332 OA
ATOM     30  C   UNL     1      -3.624   9.006  11.267  1.00  0.00     0.180 C 
ATOM     31  C   UNL     1      -1.695   8.865  12.945  1.00  0.00     0.179 C 
ATOM     32  C   UNL     1      -2.245   9.574  11.678  1.00  0.00     0.177 C 
BRANCH  28  33
ATOM     33  O   UNL     1      -5.167  10.071  12.814  1.00  0.00    -0.384 OA
ATOM     34  H   UNL     1      -6.043  10.115  12.347  1.00  0.00     0.211 HD
ENDBRANCH  28  33
BRANCH  30  35
ATOM     35  O   UNL     1      -3.511   7.798  10.554  1.00  0.00    -0.387 OA
ATOM     36  H   UNL     1      -3.791   7.959   9.617  1.00  0.00     0.211 HD
ENDBRANCH  30  35
BRANCH  31  37
ATOM     37  C   UNL     1      -0.389   9.510  13.427  1.00  0.00     0.191 C 
BRANCH  37  38
ATOM     38  O   UNL     1      -0.016   8.990  14.675  1.00  0.00    -0.394 OA
ATOM     39  H   UNL     1      -0.518   8.140  14.781  1.00  0.00     0.210 HD
ENDBRANCH  37  38
ENDBRANCH  31  37
BRANCH  32  40
ATOM     40  O   UNL     1      -1.341   9.516  10.603  1.00  0.00    -0.387 OA
ATOM     41  H   UNL     1      -0.927  10.413  10.502  1.00  0.00     0.211 HD
ENDBRANCH  32  40
ENDBRANCH   1  27
TORSDOF 12
ENDMDL
MODEL 5
REMARK VINA RESULT:    -5.660     11.762     15.924
REMARK INTER + INTRA:          -9.628
REMARK INTER:                  -8.364
REMARK INTRA:                  -1.264
REMARK UNBOUND:                -1.320
REMARK SMILES O=c1c(O[C@H]2O[C@H](CO)[C@@H](O)[C@@H](O)[C@@H]2O)c(-c2ccc(O)c(O)c2)oc2cc(O)cc(O)c12
REMARK SMILES IDX 4 1 3 2 16 3 25 4 2 5 26 6 1 7 33 8 27 9 31 10 28 11 30 12
REMARK SMILES IDX 17 13 18 14 19 15 20 16 24 17 22 18 21 19 23 21 32 23 29 25
REMARK SMILES IDX 5 27 14 28 6 29 12 30 7 31 10 32 15 33 13 35 8 37 9 38 11 40
REMARK H PARENT 21 20 23 22 32 24 29 26 15 34 13 36 9 39 11 41
REMARK Flexibility Score: inf
ROOT
ATOM      1  O   UNL     1      -4.703  -7.505  21.370  1.00  0.00    -0.454 OA
ENDROOT
BRANCH   1   2
ATOM      2  C   UNL     1      -4.345  -6.999  22.635  1.00  0.00     0.214 A 
ATOM      3  C   UNL     1      -4.751  -5.691  22.964  1.00  0.00     0.180 A 
ATOM      4  O   UNL     1      -4.474  -5.186  24.160  1.00  0.00    -0.452 OA
ATOM      5  C   UNL     1      -3.619  -7.737  23.600  1.00  0.00     0.239 A 
ATOM      6  C   UNL     1      -3.832  -5.857  25.106  1.00  0.00     0.146 A 
ATOM      7  O   UNL     1      -3.120  -8.848  23.288  1.00  0.00    -0.285 OA
ATOM      8  C   UNL     1      -3.411  -7.194  24.890  1.00  0.00     0.111 A 
ATOM      9  C   UNL     1      -3.570  -5.217  26.320  1.00  0.00     0.094 A 
ATOM     10  C   UNL     1      -2.782  -7.890  25.964  1.00  0.00     0.134 A 
ATOM     11  C   UNL     1      -2.891  -5.887  27.339  1.00  0.00     0.123 A 
ATOM     12  C   UNL     1      -2.500  -7.213  27.157  1.00  0.00     0.093 A 
BRANCH   3  13
ATOM     13  C   UNL     1      -5.514  -4.847  22.014  1.00  0.00     0.025 A 
ATOM     14  C   UNL     1      -4.901  -4.269  20.886  1.00  0.00     0.016 A 
ATOM     15  C   UNL     1      -5.646  -3.487  20.002  1.00  0.00     0.051 A 
ATOM     16  C   UNL     1      -7.008  -3.255  20.238  1.00  0.00     0.157 A 
ATOM     17  C   UNL     1      -6.872  -4.586  22.262  1.00  0.00     0.062 A 
ATOM     18  C   UNL     1      -7.621  -3.800  21.374  1.00  0.00     0.158 A 
BRANCH  16  19
ATOM     19  O   UNL     1      -7.756  -2.481  19.352  1.00  0.00    -0.504 OA
ATOM     20  H   UNL     1      -8.760  -2.380  19.452  1.00  0.00     0.293 HD
ENDBRANCH  16  19
BRANCH  18  21
ATOM     21  O   UNL     1      -8.974  -3.559  21.612  1.00  0.00    -0.504 OA
ATOM     22  H   UNL     1      -9.618  -3.357  20.856  1.00  0.00     0.293 HD
ENDBRANCH  18  21
ENDBRANCH   3  13
BRANCH  10  23
ATOM     23  O   UNL     1      -2.454  -9.249  25.922  1.00  0.00    -0.507 OA
ATOM     24  H   UNL     1      -1.571  -9.630  26.235  1.00  0.00     0.293 HD
ENDBRANCH  10  23
BRANCH  11  25
ATOM     25  O   UNL     1      -2.612  -5.249  28.546  1.00  0.00    -0.508 OA
ATOM     26  H   UNL     1      -2.414  -5.776  29.391  1.00  0.00     0.293 HD
ENDBRANCH  11  25
ENDBRANCH   1   2
BRANCH   1  27
ATOM     27  C   UNL     1      -5.374  -8.735  21.081  1.00  0.00     0.339 C 
ATOM     28  C   UNL     1      -5.756  -8.798  19.583  1.00  0.00     0.214 C 
ATOM     29  O   UNL     1      -6.506  -8.927  21.918  1.00  0.00    -0.332 OA
ATOM     30  C   UNL     1      -6.949  -7.875  19.240  1.00  0.00     0.180 C 
ATOM     31  C   UNL     1      -7.471  -7.901  21.746  1.00  0.00     0.179 C 
ATOM     32  C   UNL     1      -8.061  -7.957  20.311  1.00  0.00     0.177 C 
BRANCH  28  33
ATOM     33  O   UNL     1      -6.027 -10.124  19.197  1.00  0.00    -0.384 OA
ATOM     34  H   UNL     1      -6.899 -10.387  19.594  1.00  0.00     0.211 HD
ENDBRANCH  28  33
BRANCH  30  35
ATOM     35  O   UNL     1      -6.516  -6.553  19.021  1.00  0.00    -0.387 OA
ATOM     36  H   UNL     1      -6.425  -6.411  18.044  1.00  0.00     0.211 HD
ENDBRANCH  30  35
BRANCH  31  37
ATOM     37  C   UNL     1      -8.559  -8.108  22.808  1.00  0.00     0.191 C 
BRANCH  37  38
ATOM     38  O   UNL     1      -9.116  -6.877  23.187  1.00  0.00    -0.394 OA
ATOM     39  H   UNL     1      -8.360  -6.318  23.507  1.00  0.00     0.210 HD
ENDBRANCH  37  38
ENDBRANCH  31  37
BRANCH  32  40
ATOM     40  O   UNL     1      -9.034  -6.964  20.097  1.00  0.00    -0.387 OA
ATOM     41  H   UNL     1      -9.926  -7.369  20.261  1.00  0.00     0.211 HD
ENDBRANCH  32  40
ENDBRANCH   1  27
TORSDOF 12
ENDMDL
MODEL 6
REMARK VINA RESULT:    -5.365     10.621     16.381
REMARK INTER + INTRA:          -9.195
REMARK INTER:                  -8.087
REMARK INTRA:                  -1.108
REMARK UNBOUND:                -1.320
REMARK SMILES O=c1c(O[C@H]2O[C@H](CO)[C@@H](O)[C@@H](O)[C@@H]2O)c(-c2ccc(O)c(O)c2)oc2cc(O)cc(O)c12
REMARK SMILES IDX 4 1 3 2 16 3 25 4 2 5 26 6 1 7 33 8 27 9 31 10 28 11 30 12
REMARK SMILES IDX 17 13 18 14 19 15 20 16 24 17 22 18 21 19 23 21 32 23 29 25
REMARK SMILES IDX 5 27 14 28 6 29 12 30 7 31 10 32 15 33 13 35 8 37 9 38 11 40
REMARK H PARENT 21 20 23 22 32 24 29 26 15 34 13 36 9 39 11 41
REMARK Flexibility Score: inf
ROOT
ATOM      1  O   UNL     1      -7.509  -7.343  20.722  1.00  0.00    -0.454 OA
ENDROOT
BRANCH   1   2
ATOM      2  C   UNL     1      -7.838  -5.976  20.817  1.00  0.00     0.214 A 
ATOM      3  C   UNL     1      -8.093  -5.444  22.095  1.00  0.00     0.180 A 
ATOM      4  O   UNL     1      -8.367  -4.153  22.239  1.00  0.00    -0.452 OA
ATOM      5  C   UNL     1      -7.909  -5.106  19.703  1.00  0.00     0.239 A 
ATOM      6  C   UNL     1      -8.404  -3.297  21.228  1.00  0.00     0.146 A 
ATOM      7  O   UNL     1      -7.830  -5.576  18.539  1.00  0.00    -0.285 OA
ATOM      8  C   UNL     1      -8.127  -3.723  19.905  1.00  0.00     0.111 A 
ATOM      9  C   UNL     1      -8.730  -1.964  21.492  1.00  0.00     0.094 A 
ATOM     10  C   UNL     1      -8.118  -2.747  18.864  1.00  0.00     0.134 A 
ATOM     11  C   UNL     1      -8.784  -1.032  20.454  1.00  0.00     0.123 A 
ATOM     12  C   UNL     1      -8.482  -1.426  19.151  1.00  0.00     0.093 A 
BRANCH   3  13
ATOM     13  C   UNL     1      -8.041  -6.283  23.317  1.00  0.00     0.025 A 
ATOM     14  C   UNL     1      -9.122  -7.103  23.692  1.00  0.00     0.016 A 
ATOM     15  C   UNL     1      -9.043  -7.892  24.841  1.00  0.00     0.051 A 
ATOM     16  C   UNL     1      -7.893  -7.861  25.642  1.00  0.00     0.157 A 
ATOM     17  C   UNL     1      -6.904  -6.233  24.139  1.00  0.00     0.062 A 
ATOM     18  C   UNL     1      -6.824  -7.025  25.294  1.00  0.00     0.158 A 
BRANCH  16  19
ATOM     19  O   UNL     1      -7.808  -8.653  26.786  1.00  0.00    -0.504 OA
ATOM     20  H   UNL     1      -8.608  -8.801  27.390  1.00  0.00     0.293 HD
ENDBRANCH  16  19
BRANCH  18  21
ATOM     21  O   UNL     1      -5.685  -6.988  26.098  1.00  0.00    -0.504 OA
ATOM     22  H   UNL     1      -5.749  -6.905  27.106  1.00  0.00     0.293 HD
ENDBRANCH  18  21
ENDBRANCH   3  13
BRANCH  10  23
ATOM     23  O   UNL     1      -7.720  -3.016  17.551  1.00  0.00    -0.507 OA
ATOM     24  H   UNL     1      -6.801  -3.351  17.293  1.00  0.00     0.293 HD
ENDBRANCH  10  23
BRANCH  11  25
ATOM     25  O   UNL     1      -9.125   0.295  20.708  1.00  0.00    -0.508 OA
ATOM     26  H   UNL     1      -9.001   0.708  21.627  1.00  0.00     0.293 HD
ENDBRANCH  11  25
ENDBRANCH   1   2
BRANCH   1  27
ATOM     27  C   UNL     1      -6.526  -7.946  19.875  1.00  0.00     0.339 C 
ATOM     28  C   UNL     1      -6.233  -9.392  20.339  1.00  0.00     0.214 C 
ATOM     29  O   UNL     1      -5.339  -7.166  19.807  1.00  0.00    -0.332 OA
ATOM     30  C   UNL     1      -5.384  -9.436  21.631  1.00  0.00     0.180 C 
ATOM     31  C   UNL     1      -4.728  -7.023  21.080  1.00  0.00     0.179 C 
ATOM     32  C   UNL     1      -4.234  -8.402  21.595  1.00  0.00     0.177 C 
BRANCH  28  33
ATOM     33  O   UNL     1      -5.610 -10.125  19.311  1.00  0.00    -0.384 OA
ATOM     34  H   UNL     1      -4.644  -9.891  19.309  1.00  0.00     0.211 HD
ENDBRANCH  28  33
BRANCH  30  35
ATOM     35  O   UNL     1      -6.196  -9.290  22.772  1.00  0.00    -0.387 OA
ATOM     36  H   UNL     1      -6.626  -8.397  22.739  1.00  0.00     0.211 HD
ENDBRANCH  30  35
BRANCH  31  37
ATOM     37  C   UNL     1      -3.566  -6.033  20.924  1.00  0.00     0.191 C 
BRANCH  37  38
ATOM     38  O   UNL     1      -2.426  -6.687  20.433  1.00  0.00    -0.394 OA
ATOM     39  H   UNL     1      -2.667  -7.019  19.528  1.00  0.00     0.210 HD
ENDBRANCH  37  38
ENDBRANCH  31  37
BRANCH  32  40
ATOM     40  O   UNL     1      -3.609  -8.308  22.851  1.00  0.00    -0.387 OA
ATOM     41  H   UNL     1      -2.987  -9.076  22.942  1.00  0.00     0.211 HD
ENDBRANCH  32  40
ENDBRANCH   1  27
TORSDOF 12
ENDMDL
MODEL 7
REMARK VINA RESULT:    -5.345     11.860     16.485
REMARK INTER + INTRA:          -9.164
REMARK INTER:                  -7.861
REMARK INTRA:                  -1.304
REMARK UNBOUND:                -1.320
REMARK SMILES O=c1c(O[C@H]2O[C@H](CO)[C@@H](O)[C@@H](O)[C@@H]2O)c(-c2ccc(O)c(O)c2)oc2cc(O)cc(O)c12
REMARK SMILES IDX 4 1 3 2 16 3 25 4 2 5 26 6 1 7 33 8 27 9 31 10 28 11 30 12
REMARK SMILES IDX 17 13 18 14 19 15 20 16 24 17 22 18 21 19 23 21 32 23 29 25
REMARK SMILES IDX 5 27 14 28 6 29 12 30 7 31 10 32 15 33 13 35 8 37 9 38 11 40
REMARK H PARENT 21 20 23 22 32 24 29 26 15 34 13 36 9 39 11 41
REMARK Flexibility Score: inf
ROOT
ATOM      1  O   UNL     1      -7.548  -6.313  22.001  1.00  0.00    -0.454 OA
ENDROOT
BRANCH   1   2
ATOM      2  C   UNL     1      -7.519  -7.046  23.204  1.00  0.00     0.214 A 
ATOM      3  C   UNL     1      -6.783  -8.247  23.229  1.00  0.00     0.180 A 
ATOM      4  O   UNL     1      -6.691  -8.950  24.351  1.00  0.00    -0.452 OA
ATOM      5  C   UNL     1      -8.170  -6.635  24.391  1.00  0.00     0.239 A 
ATOM      6  C   UNL     1      -7.252  -8.581  25.494  1.00  0.00     0.146 A 
ATOM      7  O   UNL     1      -8.950  -5.649  24.364  1.00  0.00    -0.285 OA
ATOM      8  C   UNL     1      -7.984  -7.371  25.585  1.00  0.00     0.111 A 
ATOM      9  C   UNL     1      -7.113  -9.414  26.607  1.00  0.00     0.094 A 
ATOM     10  C   UNL     1      -8.512  -6.990  26.854  1.00  0.00     0.134 A 
ATOM     11  C   UNL     1      -7.693  -9.063  27.828  1.00  0.00     0.123 A 
ATOM     12  C   UNL     1      -8.389  -7.860  27.945  1.00  0.00     0.093 A 
BRANCH   3  13
ATOM     13  C   UNL     1      -6.070  -8.753  22.032  1.00  0.00     0.025 A 
ATOM     14  C   UNL     1      -6.672  -9.671  21.151  1.00  0.00     0.016 A 
ATOM     15  C   UNL     1      -5.982 -10.124  20.025  1.00  0.00     0.051 A 
ATOM     16  C   UNL     1      -4.677  -9.681  19.770  1.00  0.00     0.157 A 
ATOM     17  C   UNL     1      -4.751  -8.336  21.788  1.00  0.00     0.062 A 
ATOM     18  C   UNL     1      -4.058  -8.790  20.656  1.00  0.00     0.158 A 
BRANCH  16  19
ATOM     19  O   UNL     1      -3.989 -10.125  18.641  1.00  0.00    -0.504 OA
ATOM     20  H   UNL     1      -2.978 -10.089  18.588  1.00  0.00     0.293 HD
ENDBRANCH  16  19
BRANCH  18  21
ATOM     21  O   UNL     1      -2.755  -8.359  20.406  1.00  0.00    -0.504 OA
ATOM     22  H   UNL     1      -2.139  -8.069  21.157  1.00  0.00     0.293 HD
ENDBRANCH  18  21
ENDBRANCH   3  13
BRANCH  10  23
ATOM     23  O   UNL     1      -9.125  -5.758  27.103  1.00  0.00    -0.507 OA
ATOM     24  H   UNL     1      -8.638  -4.941  27.447  1.00  0.00     0.293 HD
ENDBRANCH  10  23
BRANCH  11  25
ATOM     25  O   UNL     1      -7.572  -9.896  28.937  1.00  0.00    -0.508 OA
ATOM     26  H   UNL     1      -6.687 -10.014  29.419  1.00  0.00     0.293 HD
ENDBRANCH  11  25
ENDBRANCH   1   2
BRANCH   1  27
ATOM     27  C   UNL     1      -8.566  -6.330  20.995  1.00  0.00     0.339 C 
ATOM     28  C   UNL     1      -8.040  -7.012  19.711  1.00  0.00     0.214 C 
ATOM     29  O   UNL     1      -9.065  -5.026  20.729  1.00  0.00    -0.332 OA
ATOM     30  C   UNL     1      -7.051  -6.115  18.929  1.00  0.00     0.180 C 
ATOM     31  C   UNL     1      -8.049  -4.160  20.247  1.00  0.00     0.179 C 
ATOM     32  C   UNL     1      -7.540  -4.649  18.865  1.00  0.00     0.177 C 
BRANCH  28  33
ATOM     33  O   UNL     1      -9.110  -7.408  18.886  1.00  0.00    -0.384 OA
ATOM     34  H   UNL     1      -9.893  -6.839  19.106  1.00  0.00     0.211 HD
ENDBRANCH  28  33
BRANCH  30  35
ATOM     35  O   UNL     1      -5.750  -6.221  19.457  1.00  0.00    -0.387 OA
ATOM     36  H   UNL     1      -5.101  -6.053  18.728  1.00  0.00     0.211 HD
ENDBRANCH  30  35
BRANCH  31  37
ATOM     37  C   UNL     1      -8.649  -2.750  20.158  1.00  0.00     0.191 C 
BRANCH  37  38
ATOM     38  O   UNL     1      -7.638  -1.781  20.231  1.00  0.00    -0.394 OA
ATOM     39  H   UNL     1      -6.806  -2.225  19.918  1.00  0.00     0.210 HD
ENDBRANCH  37  38
ENDBRANCH  31  37
BRANCH  32  40
ATOM     40  O   UNL     1      -6.538  -3.813  18.341  1.00  0.00    -0.387 OA
ATOM     41  H   UNL     1      -5.656  -4.208  18.574  1.00  0.00     0.211 HD
ENDBRANCH  32  40
ENDBRANCH   1  27
TORSDOF 12
ENDMDL
MODEL 8
REMARK VINA RESULT:    -5.278      1.899      4.505
REMARK INTER + INTRA:          -9.066
REMARK INTER:                  -7.575
REMARK INTRA:                  -1.492
REMARK UNBOUND:                -1.320
REMARK SMILES O=c1c(O[C@H]2O[C@H](CO)[C@@H](O)[C@@H](O)[C@@H]2O)c(-c2ccc(O)c(O)c2)oc2cc(O)cc(O)c12
REMARK SMILES IDX 4 1 3 2 16 3 25 4 2 5 26 6 1 7 33 8 27 9 31 10 28 11 30 12
REMARK SMILES IDX 17 13 18 14 19 15 20 16 24 17 22 18 21 19 23 21 32 23 29 25
REMARK SMILES IDX 5 27 14 28 6 29 12 30 7 31 10 32 15 33 13 35 8 37 9 38 11 40
REMARK H PARENT 21 20 23 22 32 24 29 26 15 34 13 36 9 39 11 41
REMARK Flexibility Score: inf
ROOT
ATOM      1  O   UNL     1      -3.708   7.127  13.938  1.00  0.00    -0.454 OA
ENDROOT
BRANCH   1   2
ATOM      2  C   UNL     1      -3.491   5.984  14.734  1.00  0.00     0.214 A 
ATOM      3  C   UNL     1      -4.459   4.962  14.701  1.00  0.00     0.180 A 
ATOM      4  O   UNL     1      -4.279   3.849  15.402  1.00  0.00    -0.452 OA
ATOM      5  C   UNL     1      -2.349   5.799  15.549  1.00  0.00     0.239 A 
ATOM      6  C   UNL     1      -3.206   3.618  16.145  1.00  0.00     0.146 A 
ATOM      7  O   UNL     1      -1.540   6.747  15.713  1.00  0.00    -0.285 OA
ATOM      8  C   UNL     1      -2.156   4.567  16.219  1.00  0.00     0.111 A 
ATOM      9  C   UNL     1      -3.134   2.422  16.862  1.00  0.00     0.094 A 
ATOM     10  C   UNL     1      -0.996   4.241  16.982  1.00  0.00     0.134 A 
ATOM     11  C   UNL     1      -2.023   2.143  17.661  1.00  0.00     0.123 A 
ATOM     12  C   UNL     1      -0.966   3.051  17.719  1.00  0.00     0.093 A 
BRANCH   3  13
ATOM     13  C   UNL     1      -5.686   5.072  13.876  1.00  0.00     0.025 A 
ATOM     14  C   UNL     1      -6.796   5.823  14.306  1.00  0.00     0.016 A 
ATOM     15  C   UNL     1      -7.935   5.920  13.505  1.00  0.00     0.051 A 
ATOM     16  C   UNL     1      -7.991   5.255  12.272  1.00  0.00     0.157 A 
ATOM     17  C   UNL     1      -5.759   4.384  12.654  1.00  0.00     0.062 A 
ATOM     18  C   UNL     1      -6.903   4.481  11.849  1.00  0.00     0.158 A 
BRANCH  16  19
ATOM     19  O   UNL     1      -9.124   5.356  11.466  1.00  0.00    -0.504 OA
ATOM     20  H   UNL     1     -10.022   5.632  11.845  1.00  0.00     0.293 HD
ENDBRANCH  16  19
BRANCH  18  21
ATOM     21  O   UNL     1      -6.964   3.812  10.626  1.00  0.00    -0.504 OA
ATOM     22  H   UNL     1      -6.232   3.908   9.931  1.00  0.00     0.293 HD
ENDBRANCH  18  21
ENDBRANCH   3  13
BRANCH  10  23
ATOM     23  O   UNL     1       0.159   5.027  17.014  1.00  0.00    -0.507 OA
ATOM     24  H   UNL     1       0.762   5.119  17.821  1.00  0.00     0.293 HD
ENDBRANCH  10  23
BRANCH  11  25
ATOM     25  O   UNL     1      -1.952   0.959  18.393  1.00  0.00    -0.508 OA
ATOM     26  H   UNL     1      -2.457   0.127  18.105  1.00  0.00     0.293 HD
ENDBRANCH  11  25
ENDBRANCH   1   2
BRANCH   1  27
ATOM     27  C   UNL     1      -2.822   7.693  12.968  1.00  0.00     0.339 C 
ATOM     28  C   UNL     1      -2.654   9.210  13.216  1.00  0.00     0.214 C 
ATOM     29  O   UNL     1      -3.253   7.424  11.641  1.00  0.00    -0.332 OA
ATOM     30  C   UNL     1      -3.902  10.019  12.791  1.00  0.00     0.180 C 
ATOM     31  C   UNL     1      -4.533   7.978  11.378  1.00  0.00     0.179 C 
ATOM     32  C   UNL     1      -4.466   9.528  11.436  1.00  0.00     0.177 C 
BRANCH  28  33
ATOM     33  O   UNL     1      -1.504   9.695  12.565  1.00  0.00    -0.384 OA
ATOM     34  H   UNL     1      -0.714   9.236  12.956  1.00  0.00     0.211 HD
ENDBRANCH  28  33
BRANCH  30  35
ATOM     35  O   UNL     1      -4.877  10.012  13.807  1.00  0.00    -0.387 OA
ATOM     36  H   UNL     1      -4.637  10.704  14.475  1.00  0.00     0.211 HD
ENDBRANCH  30  35
BRANCH  31  37
ATOM     37  C   UNL     1      -4.973   7.488   9.992  1.00  0.00     0.191 C 
BRANCH  37  38
ATOM     38  O   UNL     1      -6.372   7.426   9.915  1.00  0.00    -0.394 OA
ATOM     39  H   UNL     1      -6.613   6.470  10.034  1.00  0.00     0.210 HD
ENDBRANCH  37  38
ENDBRANCH  31  37
BRANCH  32  40
ATOM     40  O   UNL     1      -5.712  10.124  11.170  1.00  0.00    -0.387 OA
ATOM     41  H   UNL     1      -5.544  11.016  10.764  1.00  0.00     0.211 HD
ENDBRANCH  32  40
ENDBRANCH   1  27
TORSDOF 12
ENDMDL
MODEL 9
REMARK VINA RESULT:    -5.212     13.230     16.342
REMARK INTER + INTRA:          -8.970
REMARK INTER:                  -8.084
REMARK INTRA:                  -0.886
REMARK UNBOUND:                -1.320
REMARK SMILES O=c1c(O[C@H]2O[C@H](CO)[C@@H](O)[C@@H](O)[C@@H]2O)c(-c2ccc(O)c(O)c2)oc2cc(O)cc(O)c12
REMARK SMILES IDX 4 1 3 2 16 3 25 4 2 5 26 6 1 7 33 8 27 9 31 10 28 11 30 12
REMARK SMILES IDX 17 13 18 14 19 15 20 16 24 17 22 18 21 19 23 21 32 23 29 25
REMARK SMILES IDX 5 27 14 28 6 29 12 30 7 31 10 32 15 33 13 35 8 37 9 38 11 40
REMARK H PARENT 21 20 23 22 32 24 29 26 15 34 13 36 9 39 11 41
REMARK Flexibility Score: inf
ROOT
ATOM      1  O   UNL     1      -6.071  -6.294  23.337  1.00  0.00    -0.454 OA
ENDROOT
BRANCH   1   2
ATOM      2  C   UNL     1      -4.971  -6.760  24.083  1.00  0.00     0.214 A 
ATOM      3  C   UNL     1      -4.181  -7.785  23.528  1.00  0.00     0.180 A 
ATOM      4  O   UNL     1      -3.110  -8.228  24.175  1.00  0.00    -0.452 OA
ATOM      5  C   UNL     1      -4.605  -6.244  25.349  1.00  0.00     0.239 A 
ATOM      6  C   UNL     1      -2.710  -7.745  25.343  1.00  0.00     0.146 A 
ATOM      7  O   UNL     1      -5.367  -5.434  25.936  1.00  0.00    -0.285 OA
ATOM      8  C   UNL     1      -3.414  -6.687  25.971  1.00  0.00     0.111 A 
ATOM      9  C   UNL     1      -1.582  -8.306  25.948  1.00  0.00     0.094 A 
ATOM     10  C   UNL     1      -2.903  -6.163  27.195  1.00  0.00     0.134 A 
ATOM     11  C   UNL     1      -1.131  -7.829  27.180  1.00  0.00     0.123 A 
ATOM     12  C   UNL     1      -1.792  -6.767  27.797  1.00  0.00     0.093 A 
BRANCH   3  13
ATOM     13  C   UNL     1      -4.491  -8.384  22.208  1.00  0.00     0.025 A 
ATOM     14  C   UNL     1      -3.533  -8.430  21.178  1.00  0.00     0.016 A 
ATOM     15  C   UNL     1      -3.848  -9.010  19.947  1.00  0.00     0.051 A 
ATOM     16  C   UNL     1      -5.127  -9.537  19.721  1.00  0.00     0.157 A 
ATOM     17  C   UNL     1      -5.780  -8.886  21.965  1.00  0.00     0.062 A 
ATOM     18  C   UNL     1      -6.097  -9.469  20.729  1.00  0.00     0.158 A 
BRANCH  16  19
ATOM     19  O   UNL     1      -5.441 -10.123  18.496  1.00  0.00    -0.504 OA
ATOM     20  H   UNL     1      -6.331 -10.583  18.341  1.00  0.00     0.293 HD
ENDBRANCH  16  19
BRANCH  18  21
ATOM     21  O   UNL     1      -7.372  -9.985  20.498  1.00  0.00    -0.504 OA
ATOM     22  H   UNL     1      -8.007  -9.553  19.836  1.00  0.00     0.293 HD
ENDBRANCH  18  21
ENDBRANCH   3  13
BRANCH  10  23
ATOM     23  O   UNL     1      -3.423  -5.032  27.833  1.00  0.00    -0.507 OA
ATOM     24  H   UNL     1      -3.726  -4.197  27.351  1.00  0.00     0.293 HD
ENDBRANCH  10  23
BRANCH  11  25
ATOM     25  O   UNL     1      -0.017  -8.394  27.797  1.00  0.00    -0.508 OA
ATOM     26  H   UNL     1      -0.088  -9.251  28.337  1.00  0.00     0.293 HD
ENDBRANCH  11  25
ENDBRANCH   1   2
BRANCH   1  27
ATOM     27  C   UNL     1      -6.322  -4.956  22.897  1.00  0.00     0.339 C 
ATOM     28  C   UNL     1      -7.730  -4.854  22.266  1.00  0.00     0.214 C 
ATOM     29  O   UNL     1      -5.314  -4.497  22.006  1.00  0.00    -0.332 OA
ATOM     30  C   UNL     1      -7.796  -5.503  20.863  1.00  0.00     0.180 C 
ATOM     31  C   UNL     1      -5.245  -5.292  20.832  1.00  0.00     0.179 C 
ATOM     32  C   UNL     1      -6.555  -5.149  20.011  1.00  0.00     0.177 C 
BRANCH  28  33
ATOM     33  O   UNL     1      -8.153  -3.512  22.212  1.00  0.00    -0.384 OA
ATOM     34  H   UNL     1      -7.500  -3.007  21.660  1.00  0.00     0.211 HD
ENDBRANCH  28  33
BRANCH  30  35
ATOM     35  O   UNL     1      -7.997  -6.893  20.961  1.00  0.00    -0.387 OA
ATOM     36  H   UNL     1      -7.188  -7.299  21.363  1.00  0.00     0.211 HD
ENDBRANCH  30  35
BRANCH  31  37
ATOM     37  C   UNL     1      -4.025  -4.821  20.028  1.00  0.00     0.191 C 
BRANCH  37  38
ATOM     38  O   UNL     1      -2.867  -4.876  20.816  1.00  0.00    -0.394 OA
ATOM     39  H   UNL     1      -2.343  -5.652  20.483  1.00  0.00     0.210 HD
ENDBRANCH  37  38
ENDBRANCH  31  37
BRANCH  32  40
ATOM     40  O   UNL     1      -6.528  -5.911  18.830  1.00  0.00    -0.387 OA
ATOM     41  H   UNL     1      -6.072  -6.771  19.030  1.00  0.00     0.211 HD
ENDBRANCH  32  40
ENDBRANCH   1  27
TORSDOF 12
ENDMDL
