MODEL 1
REMARK VINA RESULT:    -4.931      0.000      0.000
REMARK INTER + INTRA:          -8.913
REMARK INTER:                  -7.381
REMARK INTRA:                  -1.532
REMARK UNBOUND:                -1.532
REMARK SMILES COC(=O)C1=CO[C@@H](O[C@@H]2O[C@@H](CO)[C@H](O)[C@H](O)[C@@H]2O)[C@@H]2C(CO)=CC[C@@H]12
REMARK SMILES IDX 9 1 8 2 5 3 6 4 27 5 7 6 21 7 26 8 22 9 25 10 3 11 4 12 2 13
REMARK SMILES IDX 1 14 23 15 24 16 10 18 19 19 11 20 17 21 12 22 15 23 20 24
REMARK SMILES IDX 18 26 13 28 14 29 16 31
REMARK H PARENT 24 17 20 25 18 27 14 30 16 32
REMARK Flexibility Score: inf
ROOT
ATOM      1  O   UNL     1       9.607  25.503  59.459  1.00  0.00    -0.310 OA
ENDROOT
BRANCH   1   2
ATOM      2  C   UNL     1       8.391  25.677  58.739  1.00  0.00     0.316 C 
ATOM      3  C   UNL     1       6.048  27.353  58.206  1.00  0.00     0.076 C 
ATOM      4  C   UNL     1       7.261  27.696  57.724  1.00  0.00     0.202 C 
ATOM      5  C   UNL     1       5.944  25.979  58.819  1.00  0.00     0.047 C 
ATOM      6  O   UNL     1       8.394  26.873  57.926  1.00  0.00    -0.471 OA
ATOM      7  C   UNL     1       7.175  25.712  59.678  1.00  0.00     0.094 C 
ATOM      8  C   UNL     1       4.793  25.605  59.750  1.00  0.00     0.037 C 
ATOM      9  C   UNL     1       6.748  24.491  60.427  1.00  0.00    -0.039 C 
ATOM     10  C   UNL     1       5.415  24.492  60.540  1.00  0.00    -0.024 C 
BRANCH   3  11
ATOM     11  C   UNL     1       4.864  28.204  57.945  1.00  0.00     0.337 C 
ATOM     12  O   UNL     1       4.219  28.081  56.868  1.00  0.00    -0.246 OA
BRANCH  11  13
ATOM     13  O   UNL     1       4.466  29.154  58.894  1.00  0.00    -0.466 OA
ATOM     14  C   UNL     1       5.291  29.542  59.984  1.00  0.00     0.282 C 
ENDBRANCH  11  13
ENDBRANCH   3  11
BRANCH   9  15
ATOM     15  C   UNL     1       7.640  23.610  61.255  1.00  0.00     0.187 C 
BRANCH  15  16
ATOM     16  O   UNL     1       8.586  24.387  61.938  1.00  0.00    -0.392 OA
ATOM     17  H   UNL     1       8.134  25.236  62.183  1.00  0.00     0.211 HD
ENDBRANCH  15  16
ENDBRANCH   9  15
ENDBRANCH   1   2
BRANCH   1  18
ATOM     18  C   UNL     1      10.652  26.359  59.011  1.00  0.00     0.286 C 
ATOM     19  C   UNL     1      11.590  26.745  60.177  1.00  0.00     0.202 C 
ATOM     20  O   UNL     1      11.401  25.758  57.962  1.00  0.00    -0.341 OA
ATOM     21  C   UNL     1      12.377  25.524  60.694  1.00  0.00     0.179 C 
ATOM     22  C   UNL     1      12.015  24.545  58.374  1.00  0.00     0.178 C 
ATOM     23  C   UNL     1      13.050  24.818  59.500  1.00  0.00     0.177 C 
BRANCH  19  24
ATOM     24  O   UNL     1      10.895  27.397  61.210  1.00  0.00    -0.385 OA
ATOM     25  H   UNL     1      11.273  28.307  61.306  1.00  0.00     0.211 HD
ENDBRANCH  19  24
BRANCH  21  26
ATOM     26  O   UNL     1      11.513  24.640  61.367  1.00  0.00    -0.387 OA
ATOM     27  H   UNL     1      11.615  24.815  62.338  1.00  0.00     0.211 HD
ENDBRANCH  21  26
BRANCH  22  28
ATOM     28  C   UNL     1      12.683  23.920  57.138  1.00  0.00     0.191 C 
BRANCH  28  29
ATOM     29  O   UNL     1      12.592  22.521  57.159  1.00  0.00    -0.394 OA
ATOM     30  H   UNL     1      12.575  22.250  58.114  1.00  0.00     0.210 HD
ENDBRANCH  28  29
ENDBRANCH  22  28
BRANCH  23  31
ATOM     31  O   UNL     1      13.702  23.643  59.922  1.00  0.00    -0.387 OA
ATOM     32  H   UNL     1      13.804  23.050  59.132  1.00  0.00     0.211 HD
ENDBRANCH  23  31
ENDBRANCH   1  18
TORSDOF 11
ENDMDL
MODEL 2
REMARK VINA RESULT:    -4.803      1.081      1.448
REMARK INTER + INTRA:          -8.722
REMARK INTER:                  -7.057
REMARK INTRA:                  -1.665
REMARK UNBOUND:                -1.532
REMARK SMILES COC(=O)C1=CO[C@@H](O[C@@H]2O[C@@H](CO)[C@H](O)[C@H](O)[C@@H]2O)[C@@H]2C(CO)=CC[C@@H]12
REMARK SMILES IDX 9 1 8 2 5 3 6 4 27 5 7 6 21 7 26 8 22 9 25 10 3 11 4 12 2 13
REMARK SMILES IDX 1 14 23 15 24 16 10 18 19 19 11 20 17 21 12 22 15 23 20 24
REMARK SMILES IDX 18 26 13 28 14 29 16 31
REMARK H PARENT 24 17 20 25 18 27 14 30 16 32
REMARK Flexibility Score: inf
ROOT
ATOM      1  O   UNL     1       8.981  25.249  59.781  1.00  0.00    -0.310 OA
ENDROOT
BRANCH   1   2
ATOM      2  C   UNL     1       7.858  25.541  58.956  1.00  0.00     0.316 C 
ATOM      3  C   UNL     1       5.781  27.461  58.190  1.00  0.00     0.076 C 
ATOM      4  C   UNL     1       7.063  27.646  57.807  1.00  0.00     0.202 C 
ATOM      5  C   UNL     1       5.465  26.127  58.818  1.00  0.00     0.047 C 
ATOM      6  O   UNL     1       8.070  26.704  58.123  1.00  0.00    -0.471 OA
ATOM      7  C   UNL     1       6.581  25.745  59.786  1.00  0.00     0.094 C 
ATOM      8  C   UNL     1       4.206  25.916  59.655  1.00  0.00     0.037 C 
ATOM      9  C   UNL     1       5.952  24.604  60.520  1.00  0.00    -0.039 C 
ATOM     10  C   UNL     1       4.624  24.763  60.517  1.00  0.00    -0.024 C 
BRANCH   3  11
ATOM     11  C   UNL     1       4.732  28.434  57.811  1.00  0.00     0.337 C 
ATOM     12  O   UNL     1       4.240  29.208  58.678  1.00  0.00    -0.246 OA
BRANCH  11  13
ATOM     13  O   UNL     1       4.280  28.491  56.487  1.00  0.00    -0.466 OA
ATOM     14  C   UNL     1       4.559  29.589  55.627  1.00  0.00     0.282 C 
ENDBRANCH  11  13
ENDBRANCH   3  11
BRANCH   9  15
ATOM     15  C   UNL     1       6.663  23.651  61.438  1.00  0.00     0.187 C 
BRANCH  15  16
ATOM     16  O   UNL     1       7.667  24.323  62.148  1.00  0.00    -0.392 OA
ATOM     17  H   UNL     1       8.334  24.628  61.479  1.00  0.00     0.211 HD
ENDBRANCH  15  16
ENDBRANCH   9  15
ENDBRANCH   1   2
BRANCH   1  18
ATOM     18  C   UNL     1       9.977  26.266  59.753  1.00  0.00     0.286 C 
ATOM     19  C   UNL     1      10.643  26.426  61.138  1.00  0.00     0.202 C 
ATOM     20  O   UNL     1      10.966  25.995  58.767  1.00  0.00    -0.341 OA
ATOM     21  C   UNL     1      11.469  25.180  61.514  1.00  0.00     0.179 C 
ATOM     22  C   UNL     1      11.640  24.769  59.009  1.00  0.00     0.178 C 
ATOM     23  C   UNL     1      12.421  24.838  60.351  1.00  0.00     0.177 C 
BRANCH  19  24
ATOM     24  O   UNL     1       9.704  26.753  62.132  1.00  0.00    -0.385 OA
ATOM     25  H   UNL     1      10.111  27.434  62.725  1.00  0.00     0.211 HD
ENDBRANCH  19  24
BRANCH  21  26
ATOM     26  O   UNL     1      10.613  24.096  61.786  1.00  0.00    -0.387 OA
ATOM     27  H   UNL     1      10.008  24.379  62.520  1.00  0.00     0.211 HD
ENDBRANCH  21  26
BRANCH  22  28
ATOM     28  C   UNL     1      12.585  24.515  57.823  1.00  0.00     0.191 C 
BRANCH  28  29
ATOM     29  O   UNL     1      13.918  24.786  58.164  1.00  0.00    -0.394 OA
ATOM     30  H   UNL     1      14.108  25.711  57.858  1.00  0.00     0.210 HD
ENDBRANCH  28  29
ENDBRANCH  22  28
BRANCH  23  31
ATOM     31  O   UNL     1      13.126  23.649  60.619  1.00  0.00    -0.387 OA
ATOM     32  H   UNL     1      13.822  23.542  59.920  1.00  0.00     0.211 HD
ENDBRANCH  23  31
ENDBRANCH   1  18
TORSDOF 11
ENDMDL
MODEL 3
REMARK VINA RESULT:    -4.685      6.657     10.688
REMARK INTER + INTRA:          -8.546
REMARK INTER:                  -6.605
REMARK INTRA:                  -1.941
REMARK UNBOUND:                -1.532
REMARK SMILES COC(=O)C1=CO[C@@H](O[C@@H]2O[C@@H](CO)[C@H](O)[C@H](O)[C@@H]2O)[C@@H]2C(CO)=CC[C@@H]12
REMARK SMILES IDX 9 1 8 2 5 3 6 4 27 5 7 6 21 7 26 8 22 9 25 10 3 11 4 12 2 13
REMARK SMILES IDX 1 14 23 15 24 16 10 18 19 19 11 20 17 21 12 22 15 23 20 24
REMARK SMILES IDX 18 26 13 28 14 29 16 31
REMARK H PARENT 24 17 20 25 18 27 14 30 16 32
REMARK Flexibility Score: inf
ROOT
ATOM      1  O   UNL     1      10.371  32.942  61.602  1.00  0.00    -0.310 OA
ENDROOT
BRANCH   1   2
ATOM      2  C   UNL     1      11.541  32.146  61.748  1.00  0.00     0.316 C 
ATOM      3  C   UNL     1      13.796  31.346  63.439  1.00  0.00     0.076 C 
ATOM      4  C   UNL     1      12.549  30.902  63.703  1.00  0.00     0.202 C 
ATOM      5  C   UNL     1      13.978  32.066  62.127  1.00  0.00     0.047 C 
ATOM      6  O   UNL     1      11.456  31.235  62.868  1.00  0.00    -0.471 OA
ATOM      7  C   UNL     1      12.802  33.011  61.900  1.00  0.00     0.094 C 
ATOM      8  C   UNL     1      15.187  32.962  61.869  1.00  0.00     0.037 C 
ATOM      9  C   UNL     1      13.309  33.837  60.762  1.00  0.00    -0.039 C 
ATOM     10  C   UNL     1      14.644  33.877  60.811  1.00  0.00    -0.024 C 
BRANCH   3  11
ATOM     11  C   UNL     1      14.935  30.949  64.298  1.00  0.00     0.337 C 
ATOM     12  O   UNL     1      15.700  30.009  63.945  1.00  0.00    -0.246 OA
BRANCH  11  13
ATOM     13  O   UNL     1      15.159  31.614  65.509  1.00  0.00    -0.466 OA
ATOM     14  C   UNL     1      15.047  33.025  65.642  1.00  0.00     0.282 C 
ENDBRANCH  11  13
ENDBRANCH   3  11
BRANCH   9  15
ATOM     15  C   UNL     1      12.490  34.784  59.930  1.00  0.00     0.187 C 
BRANCH  15  16
ATOM     16  O   UNL     1      11.691  35.585  60.758  1.00  0.00    -0.392 OA
ATOM     17  H   UNL     1      12.307  36.182  61.257  1.00  0.00     0.211 HD
ENDBRANCH  15  16
ENDBRANCH   9  15
ENDBRANCH   1   2
BRANCH   1  18
ATOM     18  C   UNL     1       9.623  33.068  62.807  1.00  0.00     0.286 C 
ATOM     19  C   UNL     1       9.159  34.526  63.021  1.00  0.00     0.202 C 
ATOM     20  O   UNL     1       8.502  32.194  62.813  1.00  0.00    -0.341 OA
ATOM     21  C   UNL     1       8.125  34.950  61.959  1.00  0.00     0.179 C 
ATOM     22  C   UNL     1       7.605  32.469  61.746  1.00  0.00     0.178 C 
ATOM     23  C   UNL     1       7.004  33.894  61.898  1.00  0.00     0.177 C 
BRANCH  19  24
ATOM     24  O   UNL     1      10.246  35.415  63.080  1.00  0.00    -0.385 OA
ATOM     25  H   UNL     1      10.177  35.927  63.924  1.00  0.00     0.211 HD
ENDBRANCH  19  24
BRANCH  21  26
ATOM     26  O   UNL     1       8.747  35.081  60.703  1.00  0.00    -0.387 OA
ATOM     27  H   UNL     1       9.507  34.443  60.686  1.00  0.00     0.211 HD
ENDBRANCH  21  26
BRANCH  22  28
ATOM     28  C   UNL     1       6.508  31.392  61.772  1.00  0.00     0.191 C 
BRANCH  28  29
ATOM     29  O   UNL     1       6.007  31.140  60.487  1.00  0.00    -0.394 OA
ATOM     30  H   UNL     1       6.144  30.173  60.312  1.00  0.00     0.210 HD
ENDBRANCH  28  29
ENDBRANCH  22  28
BRANCH  23  31
ATOM     31  O   UNL     1       6.089  34.199  60.872  1.00  0.00    -0.387 OA
ATOM     32  H   UNL     1       6.525  34.843  60.255  1.00  0.00     0.211 HD
ENDBRANCH  23  31
ENDBRANCH   1  18
TORSDOF 11
ENDMDL
MODEL 4
REMARK VINA RESULT:    -4.676      5.237      8.901
REMARK INTER + INTRA:          -8.531
REMARK INTER:                  -7.092
REMARK INTRA:                  -1.439
REMARK UNBOUND:                -1.532
REMARK SMILES COC(=O)C1=CO[C@@H](O[C@@H]2O[C@@H](CO)[C@H](O)[C@H](O)[C@@H]2O)[C@@H]2C(CO)=CC[C@@H]12
REMARK SMILES IDX 9 1 8 2 5 3 6 4 27 5 7 6 21 7 26 8 22 9 25 10 3 11 4 12 2 13
REMARK SMILES IDX 1 14 23 15 24 16 10 18 19 19 11 20 17 21 12 22 15 23 20 24
REMARK SMILES IDX 18 26 13 28 14 29 16 31
REMARK H PARENT 24 17 20 25 18 27 14 30 16 32
REMARK Flexibility Score: inf
ROOT
ATOM      1  O   UNL     1       5.542  32.158  62.121  1.00  0.00    -0.310 OA
ENDROOT
BRANCH   1   2
ATOM      2  C   UNL     1       5.893  30.838  61.718  1.00  0.00     0.316 C 
ATOM      3  C   UNL     1       5.292  28.527  60.021  1.00  0.00     0.076 C 
ATOM      4  C   UNL     1       5.837  29.643  59.492  1.00  0.00     0.202 C 
ATOM      5  C   UNL     1       5.231  28.469  61.526  1.00  0.00     0.047 C 
ATOM      6  O   UNL     1       6.182  30.750  60.304  1.00  0.00    -0.471 OA
ATOM      7  C   UNL     1       4.792  29.826  62.068  1.00  0.00     0.094 C 
ATOM      8  C   UNL     1       4.302  27.498  62.251  1.00  0.00     0.037 C 
ATOM      9  C   UNL     1       4.486  29.485  63.492  1.00  0.00    -0.039 C 
ATOM     10  C   UNL     1       4.124  28.200  63.565  1.00  0.00    -0.024 C 
BRANCH   3  11
ATOM     11  C   UNL     1       4.980  27.361  59.162  1.00  0.00     0.337 C 
ATOM     12  O   UNL     1       5.482  26.233  59.417  1.00  0.00    -0.246 OA
BRANCH  11  13
ATOM     13  O   UNL     1       4.130  27.516  58.060  1.00  0.00    -0.466 OA
ATOM     14  C   UNL     1       4.615  27.766  56.747  1.00  0.00     0.282 C 
ENDBRANCH  11  13
ENDBRANCH   3  11
BRANCH   9  15
ATOM     15  C   UNL     1       4.239  30.471  64.598  1.00  0.00     0.187 C 
BRANCH  15  16
ATOM     16  O   UNL     1       3.413  31.509  64.145  1.00  0.00    -0.392 OA
ATOM     17  H   UNL     1       2.482  31.253  64.374  1.00  0.00     0.211 HD
ENDBRANCH  15  16
ENDBRANCH   9  15
ENDBRANCH   1   2
BRANCH   1  18
ATOM     18  C   UNL     1       6.478  32.737  63.023  1.00  0.00     0.286 C 
ATOM     19  C   UNL     1       7.521  33.591  62.266  1.00  0.00     0.202 C 
ATOM     20  O   UNL     1       5.827  33.527  64.010  1.00  0.00    -0.341 OA
ATOM     21  C   UNL     1       6.874  34.839  61.632  1.00  0.00     0.179 C 
ATOM     22  C   UNL     1       5.095  34.601  63.435  1.00  0.00     0.178 C 
ATOM     23  C   UNL     1       6.056  35.581  62.707  1.00  0.00     0.177 C 
BRANCH  19  24
ATOM     24  O   UNL     1       8.229  32.829  61.320  1.00  0.00    -0.385 OA
ATOM     25  H   UNL     1       8.213  31.884  61.614  1.00  0.00     0.211 HD
ENDBRANCH  19  24
BRANCH  21  26
ATOM     26  O   UNL     1       6.048  34.462  60.556  1.00  0.00    -0.387 OA
ATOM     27  H   UNL     1       6.060  33.471  60.512  1.00  0.00     0.211 HD
ENDBRANCH  21  26
BRANCH  22  28
ATOM     28  C   UNL     1       4.332  35.304  64.571  1.00  0.00     0.191 C 
BRANCH  28  29
ATOM     29  O   UNL     1       3.456  34.423  65.220  1.00  0.00    -0.394 OA
ATOM     30  H   UNL     1       3.629  33.520  64.845  1.00  0.00     0.210 HD
ENDBRANCH  28  29
ENDBRANCH  22  28
BRANCH  23  31
ATOM     31  O   UNL     1       5.373  36.676  62.143  1.00  0.00    -0.387 OA
ATOM     32  H   UNL     1       4.558  36.841  62.686  1.00  0.00     0.211 HD
ENDBRANCH  23  31
ENDBRANCH   1  18
TORSDOF 11
ENDMDL
MODEL 5
REMARK VINA RESULT:    -4.661      1.428      2.356
REMARK INTER + INTRA:          -8.510
REMARK INTER:                  -6.741
REMARK INTRA:                  -1.768
REMARK UNBOUND:                -1.532
REMARK SMILES COC(=O)C1=CO[C@@H](O[C@@H]2O[C@@H](CO)[C@H](O)[C@H](O)[C@@H]2O)[C@@H]2C(CO)=CC[C@@H]12
REMARK SMILES IDX 9 1 8 2 5 3 6 4 27 5 7 6 21 7 26 8 22 9 25 10 3 11 4 12 2 13
REMARK SMILES IDX 1 14 23 15 24 16 10 18 19 19 11 20 17 21 12 22 15 23 20 24
REMARK SMILES IDX 18 26 13 28 14 29 16 31
REMARK H PARENT 24 17 20 25 18 27 14 30 16 32
REMARK Flexibility Score: inf
ROOT
ATOM      1  O   UNL     1       9.528  25.745  59.970  1.00  0.00    -0.310 OA
ENDROOT
BRANCH   1   2
ATOM      2  C   UNL     1       8.397  25.801  59.106  1.00  0.00     0.316 C 
ATOM      3  C   UNL     1       6.009  27.265  58.248  1.00  0.00     0.076 C 
ATOM      4  C   UNL     1       7.240  27.697  57.902  1.00  0.00     0.202 C 
ATOM      5  C   UNL     1       5.942  25.900  58.887  1.00  0.00     0.047 C 
ATOM      6  O   UNL     1       8.402  26.976  58.263  1.00  0.00    -0.471 OA
ATOM      7  C   UNL     1       7.079  25.755  59.893  1.00  0.00     0.094 C 
ATOM      8  C   UNL     1       4.722  25.452  59.687  1.00  0.00     0.037 C 
ATOM      9  C   UNL     1       6.663  24.519  60.625  1.00  0.00    -0.039 C 
ATOM     10  C   UNL     1       5.331  24.412  60.580  1.00  0.00    -0.024 C 
BRANCH   3  11
ATOM     11  C   UNL     1       4.801  28.008  57.822  1.00  0.00     0.337 C 
ATOM     12  O   UNL     1       4.127  28.661  58.665  1.00  0.00    -0.246 OA
BRANCH  11  13
ATOM     13  O   UNL     1       4.403  27.980  56.480  1.00  0.00    -0.466 OA
ATOM     14  C   UNL     1       4.331  29.151  55.676  1.00  0.00     0.282 C 
ENDBRANCH  11  13
ENDBRANCH   3  11
BRANCH   9  15
ATOM     15  C   UNL     1       7.517  23.734  61.579  1.00  0.00     0.187 C 
BRANCH  15  16
ATOM     16  O   UNL     1       8.375  22.881  60.870  1.00  0.00    -0.392 OA
ATOM     17  H   UNL     1       8.868  22.347  61.546  1.00  0.00     0.211 HD
ENDBRANCH  15  16
ENDBRANCH   9  15
ENDBRANCH   1   2
BRANCH   1  18
ATOM     18  C   UNL     1      10.632  25.047  59.405  1.00  0.00     0.286 C 
ATOM     19  C   UNL     1      11.793  26.015  59.083  1.00  0.00     0.202 C 
ATOM     20  O   UNL     1      11.087  24.012  60.267  1.00  0.00    -0.341 OA
ATOM     21  C   UNL     1      12.410  26.601  60.369  1.00  0.00     0.179 C 
ATOM     22  C   UNL     1      11.521  24.515  61.522  1.00  0.00     0.178 C 
ATOM     23  C   UNL     1      12.749  25.449  61.335  1.00  0.00     0.177 C 
BRANCH  19  24
ATOM     24  O   UNL     1      11.398  27.021  58.185  1.00  0.00    -0.385 OA
ATOM     25  H   UNL     1      11.918  27.838  58.392  1.00  0.00     0.211 HD
ENDBRANCH  19  24
BRANCH  21  26
ATOM     26  O   UNL     1      11.510  27.501  60.971  1.00  0.00    -0.387 OA
ATOM     27  H   UNL     1      11.185  28.109  60.258  1.00  0.00     0.211 HD
ENDBRANCH  21  26
BRANCH  22  28
ATOM     28  C   UNL     1      11.864  23.310  62.413  1.00  0.00     0.191 C 
BRANCH  28  29
ATOM     29  O   UNL     1      10.962  22.255  62.218  1.00  0.00    -0.394 OA
ATOM     30  H   UNL     1      10.480  22.129  63.078  1.00  0.00     0.210 HD
ENDBRANCH  28  29
ENDBRANCH  22  28
BRANCH  23  31
ATOM     31  O   UNL     1      13.228  25.952  62.559  1.00  0.00    -0.387 OA
ATOM     32  H   UNL     1      13.920  25.325  62.898  1.00  0.00     0.211 HD
ENDBRANCH  23  31
ENDBRANCH   1  18
TORSDOF 11
ENDMDL
MODEL 6
REMARK VINA RESULT:    -4.609      1.876      6.754
REMARK INTER + INTRA:          -8.432
REMARK INTER:                  -6.825
REMARK INTRA:                  -1.607
REMARK UNBOUND:                -1.532
REMARK SMILES COC(=O)C1=CO[C@@H](O[C@@H]2O[C@@H](CO)[C@H](O)[C@H](O)[C@@H]2O)[C@@H]2C(CO)=CC[C@@H]12
REMARK SMILES IDX 9 1 8 2 5 3 6 4 27 5 7 6 21 7 26 8 22 9 25 10 3 11 4 12 2 13
REMARK SMILES IDX 1 14 23 15 24 16 10 18 19 19 11 20 17 21 12 22 15 23 20 24
REMARK SMILES IDX 18 26 13 28 14 29 16 31
REMARK H PARENT 24 17 20 25 18 27 14 30 16 32
REMARK Flexibility Score: inf
ROOT
ATOM      1  O   UNL     1       7.911  26.636  59.815  1.00  0.00    -0.310 OA
ENDROOT
BRANCH   1   2
ATOM      2  C   UNL     1       9.327  26.527  59.904  1.00  0.00     0.316 C 
ATOM      3  C   UNL     1      11.713  24.877  59.491  1.00  0.00     0.076 C 
ATOM      4  C   UNL     1      11.067  25.425  58.440  1.00  0.00     0.202 C 
ATOM      5  C   UNL     1      11.273  25.346  60.855  1.00  0.00     0.047 C 
ATOM      6  O   UNL     1       9.945  26.266  58.622  1.00  0.00    -0.471 OA
ATOM      7  C   UNL     1       9.751  25.432  60.895  1.00  0.00     0.094 C 
ATOM      8  C   UNL     1      11.600  24.551  62.117  1.00  0.00     0.037 C 
ATOM      9  C   UNL     1       9.507  25.588  62.362  1.00  0.00    -0.039 C 
ATOM     10  C   UNL     1      10.506  25.008  63.035  1.00  0.00    -0.024 C 
BRANCH   3  11
ATOM     11  C   UNL     1      12.914  24.036  59.283  1.00  0.00     0.337 C 
ATOM     12  O   UNL     1      14.064  24.506  59.501  1.00  0.00    -0.246 OA
BRANCH  11  13
ATOM     13  O   UNL     1      12.772  22.716  58.836  1.00  0.00    -0.466 OA
ATOM     14  C   UNL     1      12.976  22.339  57.481  1.00  0.00     0.282 C 
ENDBRANCH  11  13
ENDBRANCH   3  11
BRANCH   9  15
ATOM     15  C   UNL     1       8.202  25.971  63.000  1.00  0.00     0.187 C 
BRANCH  15  16
ATOM     16  O   UNL     1       7.142  25.307  62.367  1.00  0.00    -0.392 OA
ATOM     17  H   UNL     1       7.123  24.385  62.734  1.00  0.00     0.211 HD
ENDBRANCH  15  16
ENDBRANCH   9  15
ENDBRANCH   1   2
BRANCH   1  18
ATOM     18  C   UNL     1       7.370  25.997  58.664  1.00  0.00     0.286 C 
ATOM     19  C   UNL     1       6.045  25.276  59.002  1.00  0.00     0.202 C 
ATOM     20  O   UNL     1       7.162  26.924  57.606  1.00  0.00    -0.341 OA
ATOM     21  C   UNL     1       4.932  26.281  59.361  1.00  0.00     0.179 C 
ATOM     22  C   UNL     1       6.251  27.952  57.968  1.00  0.00     0.178 C 
ATOM     23  C   UNL     1       4.847  27.353  58.257  1.00  0.00     0.177 C 
BRANCH  19  24
ATOM     24  O   UNL     1       6.221  24.307  60.005  1.00  0.00    -0.385 OA
ATOM     25  H   UNL     1       6.495  23.462  59.569  1.00  0.00     0.211 HD
ENDBRANCH  19  24
BRANCH  21  26
ATOM     26  O   UNL     1       5.203  26.878  60.607  1.00  0.00    -0.387 OA
ATOM     27  H   UNL     1       5.804  26.262  61.101  1.00  0.00     0.211 HD
ENDBRANCH  21  26
BRANCH  22  28
ATOM     28  C   UNL     1       6.203  28.961  56.808  1.00  0.00     0.191 C 
BRANCH  28  29
ATOM     29  O   UNL     1       7.491  29.349  56.413  1.00  0.00    -0.394 OA
ATOM     30  H   UNL     1       7.381  29.926  55.613  1.00  0.00     0.210 HD
ENDBRANCH  28  29
ENDBRANCH  22  28
BRANCH  23  31
ATOM     31  O   UNL     1       3.905  28.343  58.597  1.00  0.00    -0.387 OA
ATOM     32  H   UNL     1       4.209  28.779  59.435  1.00  0.00     0.211 HD
ENDBRANCH  23  31
ENDBRANCH   1  18
TORSDOF 11
ENDMDL
MODEL 7
REMARK VINA RESULT:    -4.607      3.756      6.608
REMARK INTER + INTRA:          -8.429
REMARK INTER:                  -6.674
REMARK INTRA:                  -1.755
REMARK UNBOUND:                -1.532
REMARK SMILES COC(=O)C1=CO[C@@H](O[C@@H]2O[C@@H](CO)[C@H](O)[C@H](O)[C@@H]2O)[C@@H]2C(CO)=CC[C@@H]12
REMARK SMILES IDX 9 1 8 2 5 3 6 4 27 5 7 6 21 7 26 8 22 9 25 10 3 11 4 12 2 13
REMARK SMILES IDX 1 14 23 15 24 16 10 18 19 19 11 20 17 21 12 22 15 23 20 24
REMARK SMILES IDX 18 26 13 28 14 29 16 31
REMARK H PARENT 24 17 20 25 18 27 14 30 16 32
REMARK Flexibility Score: inf
ROOT
ATOM      1  O   UNL     1       5.655  28.358  60.480  1.00  0.00    -0.310 OA
ENDROOT
BRANCH   1   2
ATOM      2  C   UNL     1       5.167  29.586  61.010  1.00  0.00     0.316 C 
ATOM      3  C   UNL     1       5.735  32.026  62.529  1.00  0.00     0.076 C 
ATOM      4  C   UNL     1       6.191  31.881  61.266  1.00  0.00     0.202 C 
ATOM      5  C   UNL     1       4.755  30.982  63.001  1.00  0.00     0.047 C 
ATOM      6  O   UNL     1       5.884  30.733  60.499  1.00  0.00    -0.471 OA
ATOM      7  C   UNL     1       5.222  29.604  62.545  1.00  0.00     0.094 C 
ATOM      8  C   UNL     1       4.469  30.769  64.485  1.00  0.00     0.037 C 
ATOM      9  C   UNL     1       4.336  28.713  63.356  1.00  0.00    -0.039 C 
ATOM     10  C   UNL     1       3.996  29.346  64.484  1.00  0.00    -0.024 C 
BRANCH   3  11
ATOM     11  C   UNL     1       6.029  33.255  63.300  1.00  0.00     0.337 C 
ATOM     12  O   UNL     1       6.889  33.236  64.223  1.00  0.00    -0.246 OA
BRANCH  11  13
ATOM     13  O   UNL     1       5.343  34.440  63.010  1.00  0.00    -0.466 OA
ATOM     14  C   UNL     1       3.924  34.523  63.000  1.00  0.00     0.282 C 
ENDBRANCH  11  13
ENDBRANCH   3  11
BRANCH   9  15
ATOM     15  C   UNL     1       4.158  27.235  63.159  1.00  0.00     0.187 C 
BRANCH  15  16
ATOM     16  O   UNL     1       3.182  26.992  62.181  1.00  0.00    -0.392 OA
ATOM     17  H   UNL     1       2.425  27.604  62.377  1.00  0.00     0.211 HD
ENDBRANCH  15  16
ENDBRANCH   9  15
ENDBRANCH   1   2
BRANCH   1  18
ATOM     18  C   UNL     1       4.957  27.931  59.316  1.00  0.00     0.286 C 
ATOM     19  C   UNL     1       5.903  27.864  58.096  1.00  0.00     0.202 C 
ATOM     20  O   UNL     1       4.335  26.668  59.519  1.00  0.00    -0.341 OA
ATOM     21  C   UNL     1       6.957  26.752  58.261  1.00  0.00     0.179 C 
ATOM     22  C   UNL     1       5.279  25.651  59.824  1.00  0.00     0.178 C 
ATOM     23  C   UNL     1       6.246  25.434  58.628  1.00  0.00     0.177 C 
BRANCH  19  24
ATOM     24  O   UNL     1       6.493  29.111  57.826  1.00  0.00    -0.385 OA
ATOM     25  H   UNL     1       6.380  29.301  56.861  1.00  0.00     0.211 HD
ENDBRANCH  19  24
BRANCH  21  26
ATOM     26  O   UNL     1       7.883  27.106  59.260  1.00  0.00    -0.387 OA
ATOM     27  H   UNL     1       8.686  26.538  59.130  1.00  0.00     0.211 HD
ENDBRANCH  21  26
BRANCH  22  28
ATOM     28  C   UNL     1       4.493  24.370  60.150  1.00  0.00     0.191 C 
BRANCH  28  29
ATOM     29  O   UNL     1       3.111  24.607  60.168  1.00  0.00    -0.394 OA
ATOM     30  H   UNL     1       2.985  25.530  60.512  1.00  0.00     0.210 HD
ENDBRANCH  28  29
ENDBRANCH  22  28
BRANCH  23  31
ATOM     31  O   UNL     1       7.185  24.416  58.879  1.00  0.00    -0.387 OA
ATOM     32  H   UNL     1       8.022  24.646  58.397  1.00  0.00     0.211 HD
ENDBRANCH  23  31
ENDBRANCH   1  18
TORSDOF 11
ENDMDL
MODEL 8
REMARK VINA RESULT:    -4.562      4.135      7.187
REMARK INTER + INTRA:          -8.362
REMARK INTER:                  -7.241
REMARK INTRA:                  -1.120
REMARK UNBOUND:                -1.532
REMARK SMILES COC(=O)C1=CO[C@@H](O[C@@H]2O[C@@H](CO)[C@H](O)[C@H](O)[C@@H]2O)[C@@H]2C(CO)=CC[C@@H]12
REMARK SMILES IDX 9 1 8 2 5 3 6 4 27 5 7 6 21 7 26 8 22 9 25 10 3 11 4 12 2 13
REMARK SMILES IDX 1 14 23 15 24 16 10 18 19 19 11 20 17 21 12 22 15 23 20 24
REMARK SMILES IDX 18 26 13 28 14 29 16 31
REMARK H PARENT 24 17 20 25 18 27 14 30 16 32
REMARK Flexibility Score: inf
ROOT
ATOM      1  O   UNL     1       6.108  27.827  60.286  1.00  0.00    -0.310 OA
ENDROOT
BRANCH   1   2
ATOM      2  C   UNL     1       6.825  27.839  61.515  1.00  0.00     0.316 C 
ATOM      3  C   UNL     1       6.807  27.306  64.397  1.00  0.00     0.076 C 
ATOM      4  C   UNL     1       6.853  26.289  63.511  1.00  0.00     0.202 C 
ATOM      5  C   UNL     1       6.994  28.689  63.825  1.00  0.00     0.047 C 
ATOM      6  O   UNL     1       6.914  26.527  62.118  1.00  0.00    -0.471 OA
ATOM      7  C   UNL     1       6.203  28.813  62.527  1.00  0.00     0.094 C 
ATOM      8  C   UNL     1       6.572  29.936  64.599  1.00  0.00     0.037 C 
ATOM      9  C   UNL     1       6.247  30.290  62.299  1.00  0.00    -0.039 C 
ATOM     10  C   UNL     1       6.362  30.911  63.478  1.00  0.00    -0.024 C 
BRANCH   3  11
ATOM     11  C   UNL     1       6.789  27.038  65.853  1.00  0.00     0.337 C 
ATOM     12  O   UNL     1       5.697  26.818  66.445  1.00  0.00    -0.246 OA
BRANCH  11  13
ATOM     13  O   UNL     1       7.988  27.038  66.576  1.00  0.00    -0.466 OA
ATOM     14  C   UNL     1       8.392  28.128  67.394  1.00  0.00     0.282 C 
ENDBRANCH  11  13
ENDBRANCH   3  11
BRANCH   9  15
ATOM     15  C   UNL     1       5.845  30.997  61.036  1.00  0.00     0.187 C 
BRANCH  15  16
ATOM     16  O   UNL     1       6.536  32.211  60.921  1.00  0.00    -0.392 OA
ATOM     17  H   UNL     1       7.056  32.323  61.760  1.00  0.00     0.211 HD
ENDBRANCH  15  16
ENDBRANCH   9  15
ENDBRANCH   1   2
BRANCH   1  18
ATOM     18  C   UNL     1       6.725  27.028  59.283  1.00  0.00     0.286 C 
ATOM     19  C   UNL     1       5.844  25.810  58.926  1.00  0.00     0.202 C 
ATOM     20  O   UNL     1       7.003  27.787  58.113  1.00  0.00    -0.341 OA
ATOM     21  C   UNL     1       4.539  26.244  58.229  1.00  0.00     0.179 C 
ATOM     22  C   UNL     1       5.824  28.328  57.536  1.00  0.00     0.178 C 
ATOM     23  C   UNL     1       4.883  27.187  57.058  1.00  0.00     0.177 C 
BRANCH  19  24
ATOM     24  O   UNL     1       5.595  25.000  60.047  1.00  0.00    -0.385 OA
ATOM     25  H   UNL     1       6.391  25.038  60.635  1.00  0.00     0.211 HD
ENDBRANCH  19  24
BRANCH  21  26
ATOM     26  O   UNL     1       3.691  26.890  59.148  1.00  0.00    -0.387 OA
ATOM     27  H   UNL     1       3.040  26.214  59.470  1.00  0.00     0.211 HD
ENDBRANCH  21  26
BRANCH  22  28
ATOM     28  C   UNL     1       6.250  29.229  56.365  1.00  0.00     0.191 C 
BRANCH  28  29
ATOM     29  O   UNL     1       7.642  29.395  56.327  1.00  0.00    -0.394 OA
ATOM     30  H   UNL     1       7.940  29.517  57.267  1.00  0.00     0.210 HD
ENDBRANCH  28  29
ENDBRANCH  22  28
BRANCH  23  31
ATOM     31  O   UNL     1       3.710  27.680  56.456  1.00  0.00    -0.387 OA
ATOM     32  H   UNL     1       3.267  26.925  55.987  1.00  0.00     0.211 HD
ENDBRANCH  23  31
ENDBRANCH   1  18
TORSDOF 11
ENDMDL
MODEL 9
REMARK VINA RESULT:    -4.512      4.690      6.641
REMARK INTER + INTRA:          -8.287
REMARK INTER:                  -6.590
REMARK INTRA:                  -1.697
REMARK UNBOUND:                -1.532
REMARK SMILES COC(=O)C1=CO[C@@H](O[C@@H]2O[C@@H](CO)[C@H](O)[C@H](O)[C@@H]2O)[C@@H]2C(CO)=CC[C@@H]12
REMARK SMILES IDX 9 1 8 2 5 3 6 4 27 5 7 6 21 7 26 8 22 9 25 10 3 11 4 12 2 13
REMARK SMILES IDX 1 14 23 15 24 16 10 18 19 19 11 20 17 21 12 22 15 23 20 24
REMARK SMILES IDX 18 26 13 28 14 29 16 31
REMARK H PARENT 24 17 20 25 18 27 14 30 16 32
REMARK Flexibility Score: inf
ROOT
ATOM      1  O   UNL     1       3.854  25.407  61.253  1.00  0.00    -0.310 OA
ENDROOT
BRANCH   1   2
ATOM      2  C   UNL     1       3.837  26.466  60.303  1.00  0.00     0.316 C 
ATOM      3  C   UNL     1       5.292  27.981  58.259  1.00  0.00     0.076 C 
ATOM      4  C   UNL     1       4.845  26.733  58.001  1.00  0.00     0.202 C 
ATOM      5  C   UNL     1       4.806  28.604  59.544  1.00  0.00     0.047 C 
ATOM      6  O   UNL     1       4.097  26.006  58.956  1.00  0.00    -0.471 OA
ATOM      7  C   UNL     1       4.849  27.565  60.660  1.00  0.00     0.094 C 
ATOM      8  C   UNL     1       5.516  29.802  60.168  1.00  0.00     0.037 C 
ATOM      9  C   UNL     1       4.653  28.427  61.866  1.00  0.00    -0.039 C 
ATOM     10  C   UNL     1       5.117  29.654  61.606  1.00  0.00    -0.024 C 
BRANCH   3  11
ATOM     11  C   UNL     1       6.034  28.744  57.231  1.00  0.00     0.337 C 
ATOM     12  O   UNL     1       7.280  28.593  57.103  1.00  0.00    -0.246 OA
BRANCH  11  13
ATOM     13  O   UNL     1       5.351  29.643  56.402  1.00  0.00    -0.466 OA
ATOM     14  C   UNL     1       4.265  29.249  55.574  1.00  0.00     0.282 C 
ENDBRANCH  11  13
ENDBRANCH   3  11
BRANCH   9  15
ATOM     15  C   UNL     1       4.358  27.939  63.256  1.00  0.00     0.187 C 
BRANCH  15  16
ATOM     16  O   UNL     1       5.189  26.856  63.574  1.00  0.00    -0.392 OA
ATOM     17  H   UNL     1       4.953  26.122  62.949  1.00  0.00     0.211 HD
ENDBRANCH  15  16
ENDBRANCH   9  15
ENDBRANCH   1   2
BRANCH   1  18
ATOM     18  C   UNL     1       4.506  24.234  60.777  1.00  0.00     0.286 C 
ATOM     19  C   UNL     1       5.510  23.696  61.822  1.00  0.00     0.202 C 
ATOM     20  O   UNL     1       3.568  23.222  60.436  1.00  0.00    -0.341 OA
ATOM     21  C   UNL     1       4.787  23.170  63.078  1.00  0.00     0.179 C 
ATOM     22  C   UNL     1       2.781  22.827  61.551  1.00  0.00     0.178 C 
ATOM     23  C   UNL     1       3.679  22.189  62.648  1.00  0.00     0.177 C 
BRANCH  19  24
ATOM     24  O   UNL     1       6.491  24.650  62.141  1.00  0.00    -0.385 OA
ATOM     25  H   UNL     1       7.036  24.291  62.886  1.00  0.00     0.211 HD
ENDBRANCH  19  24
BRANCH  21  26
ATOM     26  O   UNL     1       4.239  24.243  63.806  1.00  0.00    -0.387 OA
ATOM     27  H   UNL     1       4.643  24.218  64.712  1.00  0.00     0.211 HD
ENDBRANCH  21  26
BRANCH  22  28
ATOM     28  C   UNL     1       1.723  21.832  61.045  1.00  0.00     0.191 C 
BRANCH  28  29
ATOM     29  O   UNL     1       1.914  21.528  59.690  1.00  0.00    -0.394 OA
ATOM     30  H   UNL     1       1.016  21.544  59.265  1.00  0.00     0.210 HD
ENDBRANCH  28  29
ENDBRANCH  22  28
BRANCH  23  31
ATOM     31  O   UNL     1       2.935  21.760  63.763  1.00  0.00    -0.387 OA
ATOM     32  H   UNL     1       2.110  22.310  63.810  1.00  0.00     0.211 HD
ENDBRANCH  23  31
ENDBRANCH   1  18
TORSDOF 11
ENDMDL
