MODEL 1
REMARK VINA RESULT:    -4.033      0.000      0.000
REMARK INTER + INTRA:          -9.635
REMARK INTER:                  -7.333
REMARK INTRA:                  -2.301
REMARK UNBOUND:                -2.301
REMARK SMILES CCCCCCCCCCCCCCCC(=O)[O-]
REMARK SMILES IDX 9 1 10 2 11 3 12 4 13 5 14 6 15 7 16 8 17 9 18 10 8 11 7 12
REMARK SMILES IDX 6 13 5 14 4 15 3 16 2 17 1 18
REMARK H PARENT
REMARK Flexibility Score: inf
ROOT
ATOM      1  C   UNL     1      28.645  -3.644  19.369  1.00  0.00     0.000 C 
ENDROOT
BRANCH   1   2
ATOM      2  C   UNL     1      27.229  -3.080  19.531  1.00  0.00     0.000 C 
BRANCH   2   3
ATOM      3  C   UNL     1      26.532  -2.944  18.172  1.00  0.00     0.000 C 
BRANCH   3   4
ATOM      4  C   UNL     1      25.172  -3.660  18.178  1.00  0.00     0.000 C 
BRANCH   4   5
ATOM      5  C   UNL     1      24.654  -3.931  19.599  1.00  0.00     0.000 C 
BRANCH   5   6
ATOM      6  C   UNL     1      23.312  -4.685  19.606  1.00  0.00     0.006 C 
BRANCH   6   7
ATOM      7  C   UNL     1      22.253  -3.991  18.739  1.00  0.00     0.053 C 
BRANCH   7   8
ATOM      8  C   UNL     1      21.160  -3.394  19.571  1.00  0.00     0.041 C 
ATOM      9  O   UNL     1      21.027  -3.728  20.777  1.00  0.00    -0.550 OA
ATOM     10  O   UNL     1      20.265  -2.496  19.003  1.00  0.00    -0.550 OA
ENDBRANCH   7   8
ENDBRANCH   6   7
ENDBRANCH   5   6
ENDBRANCH   4   5
ENDBRANCH   3   4
ENDBRANCH   2   3
ENDBRANCH   1   2
BRANCH   1  11
ATOM     11  C   UNL     1      28.794  -4.980  20.107  1.00  0.00     0.000 C 
BRANCH  11  12
ATOM     12  C   UNL     1      27.775  -6.006  19.597  1.00  0.00    -0.000 C 
BRANCH  12  13
ATOM     13  C   UNL     1      27.974  -6.282  18.101  1.00  0.00    -0.000 C 
BRANCH  13  14
ATOM     14  C   UNL     1      26.882  -7.222  17.567  1.00  0.00    -0.000 C 
BRANCH  14  15
ATOM     15  C   UNL     1      25.675  -7.329  18.513  1.00  0.00    -0.000 C 
BRANCH  15  16
ATOM     16  C   UNL     1      24.372  -7.818  17.850  1.00  0.00    -0.000 C 
BRANCH  16  17
ATOM     17  C   UNL     1      24.300  -7.533  16.336  1.00  0.00    -0.003 C 
ATOM     18  C   UNL     1      23.548  -6.241  16.019  1.00  0.00     0.004 C 
ENDBRANCH  16  17
ENDBRANCH  15  16
ENDBRANCH  14  15
ENDBRANCH  13  14
ENDBRANCH  12  13
ENDBRANCH  11  12
ENDBRANCH   1  11
TORSDOF 14
ENDMDL
MODEL 2
REMARK VINA RESULT:    -3.906      1.192      2.773
REMARK INTER + INTRA:          -9.405
REMARK INTER:                  -7.393
REMARK INTRA:                  -2.012
REMARK UNBOUND:                -2.301
REMARK SMILES CCCCCCCCCCCCCCCC(=O)[O-]
REMARK SMILES IDX 9 1 10 2 11 3 12 4 13 5 14 6 15 7 16 8 17 9 18 10 8 11 7 12
REMARK SMILES IDX 6 13 5 14 4 15 3 16 2 17 1 18
REMARK H PARENT
REMARK Flexibility Score: inf
ROOT
ATOM      1  C   UNL     1      27.124  -6.074  18.320  1.00  0.00     0.000 C 
ENDROOT
BRANCH   1   2
ATOM      2  C   UNL     1      27.115  -4.730  17.582  1.00  0.00     0.000 C 
BRANCH   2   3
ATOM      3  C   UNL     1      26.415  -3.649  18.415  1.00  0.00     0.000 C 
BRANCH   3   4
ATOM      4  C   UNL     1      24.888  -3.752  18.275  1.00  0.00     0.000 C 
BRANCH   4   5
ATOM      5  C   UNL     1      24.221  -4.364  19.516  1.00  0.00     0.000 C 
BRANCH   5   6
ATOM      6  C   UNL     1      22.755  -4.760  19.266  1.00  0.00     0.006 C 
BRANCH   6   7
ATOM      7  C   UNL     1      21.983  -3.674  18.506  1.00  0.00     0.053 C 
BRANCH   7   8
ATOM      8  C   UNL     1      20.859  -3.118  19.323  1.00  0.00     0.041 C 
ATOM      9  O   UNL     1      20.055  -2.292  18.817  1.00  0.00    -0.550 OA
ATOM     10  O   UNL     1      20.719  -3.486  20.656  1.00  0.00    -0.550 OA
ENDBRANCH   7   8
ENDBRANCH   6   7
ENDBRANCH   5   6
ENDBRANCH   4   5
ENDBRANCH   3   4
ENDBRANCH   2   3
ENDBRANCH   1   2
BRANCH   1  11
ATOM     11  C   UNL     1      26.410  -7.156  17.502  1.00  0.00     0.000 C 
BRANCH  11  12
ATOM     12  C   UNL     1      25.167  -7.671  18.237  1.00  0.00    -0.000 C 
BRANCH  12  13
ATOM     13  C   UNL     1      24.083  -8.109  17.244  1.00  0.00    -0.000 C 
BRANCH  13  14
ATOM     14  C   UNL     1      24.511  -7.809  15.799  1.00  0.00    -0.000 C 
BRANCH  14  15
ATOM     15  C   UNL     1      23.463  -6.992  15.025  1.00  0.00    -0.000 C 
BRANCH  15  16
ATOM     16  C   UNL     1      23.282  -5.541  15.513  1.00  0.00    -0.000 C 
BRANCH  16  17
ATOM     17  C   UNL     1      21.978  -4.878  15.023  1.00  0.00    -0.003 C 
ATOM     18  C   UNL     1      21.280  -5.692  13.935  1.00  0.00     0.004 C 
ENDBRANCH  16  17
ENDBRANCH  15  16
ENDBRANCH  14  15
ENDBRANCH  13  14
ENDBRANCH  12  13
ENDBRANCH  11  12
ENDBRANCH   1  11
TORSDOF 14
ENDMDL
MODEL 3
REMARK VINA RESULT:    -3.883      1.532      4.450
REMARK INTER + INTRA:          -9.362
REMARK INTER:                  -7.078
REMARK INTRA:                  -2.284
REMARK UNBOUND:                -2.301
REMARK SMILES CCCCCCCCCCCCCCCC(=O)[O-]
REMARK SMILES IDX 9 1 10 2 11 3 12 4 13 5 14 6 15 7 16 8 17 9 18 10 8 11 7 12
REMARK SMILES IDX 6 13 5 14 4 15 3 16 2 17 1 18
REMARK H PARENT
REMARK Flexibility Score: inf
ROOT
ATOM      1  C   UNL     1      24.645  -8.243  18.475  1.00  0.00     0.000 C 
ENDROOT
BRANCH   1   2
ATOM      2  C   UNL     1      23.138  -8.327  18.749  1.00  0.00     0.000 C 
BRANCH   2   3
ATOM      3  C   UNL     1      22.743  -7.429  19.928  1.00  0.00     0.000 C 
BRANCH   3   4
ATOM      4  C   UNL     1      23.834  -6.384  20.212  1.00  0.00     0.000 C 
BRANCH   4   5
ATOM      5  C   UNL     1      23.310  -4.943  20.118  1.00  0.00     0.000 C 
BRANCH   5   6
ATOM      6  C   UNL     1      23.845  -4.197  18.882  1.00  0.00     0.006 C 
BRANCH   6   7
ATOM      7  C   UNL     1      22.883  -4.287  17.691  1.00  0.00     0.053 C 
BRANCH   7   8
ATOM      8  C   UNL     1      22.083  -3.031  17.529  1.00  0.00     0.041 C 
ATOM      9  O   UNL     1      21.135  -2.777  18.317  1.00  0.00    -0.550 OA
ATOM     10  O   UNL     1      22.363  -2.157  16.485  1.00  0.00    -0.550 OA
ENDBRANCH   7   8
ENDBRANCH   6   7
ENDBRANCH   5   6
ENDBRANCH   4   5
ENDBRANCH   3   4
ENDBRANCH   2   3
ENDBRANCH   1   2
BRANCH   1  11
ATOM     11  C   UNL     1      24.918  -7.851  17.018  1.00  0.00     0.000 C 
BRANCH  11  12
ATOM     12  C   UNL     1      25.933  -6.704  16.938  1.00  0.00    -0.000 C 
BRANCH  12  13
ATOM     13  C   UNL     1      27.060  -6.895  17.960  1.00  0.00    -0.000 C 
BRANCH  13  14
ATOM     14  C   UNL     1      27.381  -5.574  18.675  1.00  0.00    -0.000 C 
BRANCH  14  15
ATOM     15  C   UNL     1      27.320  -4.358  17.736  1.00  0.00    -0.000 C 
BRANCH  15  16
ATOM     16  C   UNL     1      27.378  -2.989  18.442  1.00  0.00    -0.000 C 
BRANCH  16  17
ATOM     17  C   UNL     1      27.140  -3.063  19.964  1.00  0.00    -0.003 C 
ATOM     18  C   UNL     1      28.363  -2.627  20.770  1.00  0.00     0.004 C 
ENDBRANCH  16  17
ENDBRANCH  15  16
ENDBRANCH  14  15
ENDBRANCH  13  14
ENDBRANCH  12  13
ENDBRANCH  11  12
ENDBRANCH   1  11
TORSDOF 14
ENDMDL
MODEL 4
REMARK VINA RESULT:    -3.863      2.979      5.262
REMARK INTER + INTRA:          -9.325
REMARK INTER:                  -7.159
REMARK INTRA:                  -2.166
REMARK UNBOUND:                -2.301
REMARK SMILES CCCCCCCCCCCCCCCC(=O)[O-]
REMARK SMILES IDX 9 1 10 2 11 3 12 4 13 5 14 6 15 7 16 8 17 9 18 10 8 11 7 12
REMARK SMILES IDX 6 13 5 14 4 15 3 16 2 17 1 18
REMARK H PARENT
REMARK Flexibility Score: inf
ROOT
ATOM      1  C   UNL     1      25.348  -7.044  16.788  1.00  0.00     0.000 C 
ENDROOT
BRANCH   1   2
ATOM      2  C   UNL     1      25.072  -7.749  18.122  1.00  0.00     0.000 C 
BRANCH   2   3
ATOM      3  C   UNL     1      23.594  -7.628  18.513  1.00  0.00     0.000 C 
BRANCH   3   4
ATOM      4  C   UNL     1      23.425  -6.724  19.744  1.00  0.00     0.000 C 
BRANCH   4   5
ATOM      5  C   UNL     1      22.993  -5.297  19.374  1.00  0.00     0.000 C 
BRANCH   5   6
ATOM      6  C   UNL     1      23.992  -4.231  19.858  1.00  0.00     0.006 C 
BRANCH   6   7
ATOM      7  C   UNL     1      24.904  -3.738  18.727  1.00  0.00     0.053 C 
BRANCH   7   8
ATOM      8  C   UNL     1      26.353  -3.898  19.073  1.00  0.00     0.041 C 
ATOM      9  O   UNL     1      26.792  -5.012  19.463  1.00  0.00    -0.550 OA
ATOM     10  O   UNL     1      27.211  -2.808  18.999  1.00  0.00    -0.550 OA
ENDBRANCH   7   8
ENDBRANCH   6   7
ENDBRANCH   5   6
ENDBRANCH   4   5
ENDBRANCH   3   4
ENDBRANCH   2   3
ENDBRANCH   1   2
BRANCH   1  11
ATOM     11  C   UNL     1      24.039  -6.716  16.059  1.00  0.00     0.000 C 
BRANCH  11  12
ATOM     12  C   UNL     1      23.998  -5.241  15.640  1.00  0.00    -0.000 C 
BRANCH  12  13
ATOM     13  C   UNL     1      22.561  -4.705  15.656  1.00  0.00    -0.000 C 
BRANCH  13  14
ATOM     14  C   UNL     1      22.280  -3.855  14.407  1.00  0.00    -0.000 C 
BRANCH  14  15
ATOM     15  C   UNL     1      21.413  -4.589  13.370  1.00  0.00    -0.000 C 
BRANCH  15  16
ATOM     16  C   UNL     1      20.851  -5.946  13.838  1.00  0.00    -0.000 C 
BRANCH  16  17
ATOM     17  C   UNL     1      21.576  -7.164  13.230  1.00  0.00    -0.003 C 
ATOM     18  C   UNL     1      22.570  -6.768  12.138  1.00  0.00     0.004 C 
ENDBRANCH  16  17
ENDBRANCH  15  16
ENDBRANCH  14  15
ENDBRANCH  13  14
ENDBRANCH  12  13
ENDBRANCH  11  12
ENDBRANCH   1  11
TORSDOF 14
ENDMDL
MODEL 5
REMARK VINA RESULT:    -3.829      3.878      6.153
REMARK INTER + INTRA:          -9.264
REMARK INTER:                  -7.526
REMARK INTRA:                  -1.738
REMARK UNBOUND:                -2.301
REMARK SMILES CCCCCCCCCCCCCCCC(=O)[O-]
REMARK SMILES IDX 9 1 10 2 11 3 12 4 13 5 14 6 15 7 16 8 17 9 18 10 8 11 7 12
REMARK SMILES IDX 6 13 5 14 4 15 3 16 2 17 1 18
REMARK H PARENT
REMARK Flexibility Score: inf
ROOT
ATOM      1  C   UNL     1      22.816  -2.481  16.479  1.00  0.00     0.000 C 
ENDROOT
BRANCH   1   2
ATOM      2  C   UNL     1      23.556  -1.880  15.277  1.00  0.00     0.000 C 
BRANCH   2   3
ATOM      3  C   UNL     1      22.745  -0.743  14.645  1.00  0.00     0.000 C 
BRANCH   3   4
ATOM      4  C   UNL     1      21.988  -1.234  13.401  1.00  0.00     0.000 C 
BRANCH   4   5
ATOM      5  C   UNL     1      22.583  -2.525  12.819  1.00  0.00     0.000 C 
BRANCH   5   6
ATOM      6  C   UNL     1      21.579  -3.691  12.815  1.00  0.00     0.006 C 
BRANCH   6   7
ATOM      7  C   UNL     1      22.252  -5.034  12.502  1.00  0.00     0.053 C 
BRANCH   7   8
ATOM      8  C   UNL     1      21.652  -6.153  13.296  1.00  0.00     0.041 C 
ATOM      9  O   UNL     1      20.567  -5.983  13.912  1.00  0.00    -0.550 OA
ATOM     10  O   UNL     1      22.309  -7.374  13.383  1.00  0.00    -0.550 OA
ENDBRANCH   7   8
ENDBRANCH   6   7
ENDBRANCH   5   6
ENDBRANCH   4   5
ENDBRANCH   3   4
ENDBRANCH   2   3
ENDBRANCH   1   2
BRANCH   1  11
ATOM     11  C   UNL     1      22.584  -3.984  16.286  1.00  0.00     0.000 C 
BRANCH  11  12
ATOM     12  C   UNL     1      23.362  -4.799  17.326  1.00  0.00    -0.000 C 
BRANCH  12  13
ATOM     13  C   UNL     1      24.196  -3.883  18.230  1.00  0.00    -0.000 C 
BRANCH  13  14
ATOM     14  C   UNL     1      24.023  -4.268  19.708  1.00  0.00    -0.000 C 
BRANCH  14  15
ATOM     15  C   UNL     1      22.931  -5.328  19.924  1.00  0.00    -0.000 C 
BRANCH  15  16
ATOM     16  C   UNL     1      21.774  -4.891  20.842  1.00  0.00    -0.000 C 
BRANCH  16  17
ATOM     17  C   UNL     1      21.346  -3.422  20.647  1.00  0.00    -0.003 C 
ATOM     18  C   UNL     1      20.599  -3.199  19.332  1.00  0.00     0.004 C 
ENDBRANCH  16  17
ENDBRANCH  15  16
ENDBRANCH  14  15
ENDBRANCH  13  14
ENDBRANCH  12  13
ENDBRANCH  11  12
ENDBRANCH   1  11
TORSDOF 14
ENDMDL
MODEL 6
REMARK VINA RESULT:    -3.806      3.136      5.972
REMARK INTER + INTRA:          -9.222
REMARK INTER:                  -7.617
REMARK INTRA:                  -1.605
REMARK UNBOUND:                -2.301
REMARK SMILES CCCCCCCCCCCCCCCC(=O)[O-]
REMARK SMILES IDX 9 1 10 2 11 3 12 4 13 5 14 6 15 7 16 8 17 9 18 10 8 11 7 12
REMARK SMILES IDX 6 13 5 14 4 15 3 16 2 17 1 18
REMARK H PARENT
REMARK Flexibility Score: inf
ROOT
ATOM      1  C   UNL     1      20.864  -3.577  20.068  1.00  0.00     0.000 C 
ENDROOT
BRANCH   1   2
ATOM      2  C   UNL     1      21.636  -4.898  20.168  1.00  0.00     0.000 C 
BRANCH   2   3
ATOM      3  C   UNL     1      23.023  -4.680  20.787  1.00  0.00     0.000 C 
BRANCH   3   4
ATOM      4  C   UNL     1      24.027  -5.719  20.264  1.00  0.00     0.000 C 
BRANCH   4   5
ATOM      5  C   UNL     1      23.359  -6.813  19.418  1.00  0.00     0.000 C 
BRANCH   5   6
ATOM      6  C   UNL     1      23.995  -6.956  18.024  1.00  0.00     0.006 C 
BRANCH   6   7
ATOM      7  C   UNL     1      24.746  -8.285  17.864  1.00  0.00     0.053 C 
BRANCH   7   8
ATOM      8  C   UNL     1      24.045  -9.206  16.914  1.00  0.00     0.041 C 
ATOM      9  O   UNL     1      24.268  -9.131  15.678  1.00  0.00    -0.550 OA
ATOM     10  O   UNL     1      23.119 -10.125  17.392  1.00  0.00    -0.550 OA
ENDBRANCH   7   8
ENDBRANCH   6   7
ENDBRANCH   5   6
ENDBRANCH   4   5
ENDBRANCH   3   4
ENDBRANCH   2   3
ENDBRANCH   1   2
BRANCH   1  11
ATOM     11  C   UNL     1      21.164  -2.864  18.744  1.00  0.00     0.000 C 
BRANCH  11  12
ATOM     12  C   UNL     1      21.948  -3.776  17.793  1.00  0.00    -0.000 C 
BRANCH  12  13
ATOM     13  C   UNL     1      22.879  -2.958  16.889  1.00  0.00    -0.000 C 
BRANCH  13  14
ATOM     14  C   UNL     1      24.216  -3.685  16.680  1.00  0.00    -0.000 C 
BRANCH  14  15
ATOM     15  C   UNL     1      25.425  -2.851  17.136  1.00  0.00    -0.000 C 
BRANCH  15  16
ATOM     16  C   UNL     1      26.453  -3.615  17.994  1.00  0.00    -0.000 C 
BRANCH  16  17
ATOM     17  C   UNL     1      26.341  -3.325  19.505  1.00  0.00    -0.003 C 
ATOM     18  C   UNL     1      27.677  -2.912  20.122  1.00  0.00     0.004 C 
ENDBRANCH  16  17
ENDBRANCH  15  16
ENDBRANCH  14  15
ENDBRANCH  13  14
ENDBRANCH  12  13
ENDBRANCH  11  12
ENDBRANCH   1  11
TORSDOF 14
ENDMDL
MODEL 7
REMARK VINA RESULT:    -3.797      4.138      6.478
REMARK INTER + INTRA:          -9.205
REMARK INTER:                  -7.991
REMARK INTRA:                  -1.215
REMARK UNBOUND:                -2.301
REMARK SMILES CCCCCCCCCCCCCCCC(=O)[O-]
REMARK SMILES IDX 9 1 10 2 11 3 12 4 13 5 14 6 15 7 16 8 17 9 18 10 8 11 7 12
REMARK SMILES IDX 6 13 5 14 4 15 3 16 2 17 1 18
REMARK H PARENT
REMARK Flexibility Score: inf
ROOT
ATOM      1  C   UNL     1      26.674  -2.962  17.512  1.00  0.00     0.000 C 
ENDROOT
BRANCH   1   2
ATOM      2  C   UNL     1      27.725  -2.798  18.616  1.00  0.00     0.000 C 
BRANCH   2   3
ATOM      3  C   UNL     1      27.103  -3.001  20.003  1.00  0.00     0.000 C 
BRANCH   3   4
ATOM      4  C   UNL     1      28.115  -2.671  21.112  1.00  0.00     0.000 C 
BRANCH   4   5
ATOM      5  C   UNL     1      29.561  -2.623  20.597  1.00  0.00     0.000 C 
BRANCH   5   6
ATOM      6  C   UNL     1      30.293  -1.333  21.008  1.00  0.00     0.006 C 
BRANCH   6   7
ATOM      7  C   UNL     1      30.975  -1.466  22.376  1.00  0.00     0.053 C 
BRANCH   7   8
ATOM      8  C   UNL     1      30.568  -0.366  23.308  1.00  0.00     0.041 C 
ATOM      9  O   UNL     1      29.427  -0.376  23.840  1.00  0.00    -0.550 OA
ATOM     10  O   UNL     1      31.436   0.689  23.560  1.00  0.00    -0.550 OA
ENDBRANCH   7   8
ENDBRANCH   6   7
ENDBRANCH   5   6
ENDBRANCH   4   5
ENDBRANCH   3   4
ENDBRANCH   2   3
ENDBRANCH   1   2
BRANCH   1  11
ATOM     11  C   UNL     1      25.327  -3.405  18.097  1.00  0.00     0.000 C 
BRANCH  11  12
ATOM     12  C   UNL     1      24.720  -4.548  17.275  1.00  0.00    -0.000 C 
BRANCH  12  13
ATOM     13  C   UNL     1      23.576  -5.228  18.038  1.00  0.00    -0.000 C 
BRANCH  13  14
ATOM     14  C   UNL     1      24.065  -5.765  19.392  1.00  0.00    -0.000 C 
BRANCH  14  15
ATOM     15  C   UNL     1      23.009  -5.629  20.503  1.00  0.00    -0.000 C 
BRANCH  15  16
ATOM     16  C   UNL     1      22.754  -4.188  20.984  1.00  0.00    -0.000 C 
BRANCH  16  17
ATOM     17  C   UNL     1      21.274  -3.759  20.910  1.00  0.00    -0.003 C 
ATOM     18  C   UNL     1      20.878  -3.259  19.521  1.00  0.00     0.004 C 
ENDBRANCH  16  17
ENDBRANCH  15  16
ENDBRANCH  14  15
ENDBRANCH  13  14
ENDBRANCH  12  13
ENDBRANCH  11  12
ENDBRANCH   1  11
TORSDOF 14
ENDMDL
MODEL 8
REMARK VINA RESULT:    -3.796      2.187      4.489
REMARK INTER + INTRA:          -9.204
REMARK INTER:                  -7.345
REMARK INTRA:                  -1.858
REMARK UNBOUND:                -2.301
REMARK SMILES CCCCCCCCCCCCCCCC(=O)[O-]
REMARK SMILES IDX 9 1 10 2 11 3 12 4 13 5 14 6 15 7 16 8 17 9 18 10 8 11 7 12
REMARK SMILES IDX 6 13 5 14 4 15 3 16 2 17 1 18
REMARK H PARENT
REMARK Flexibility Score: inf
ROOT
ATOM      1  C   UNL     1      29.011  -3.475  18.842  1.00  0.00     0.000 C 
ENDROOT
BRANCH   1   2
ATOM      2  C   UNL     1      29.364  -4.697  19.697  1.00  0.00     0.000 C 
BRANCH   2   3
ATOM      3  C   UNL     1      28.135  -5.588  19.918  1.00  0.00     0.000 C 
BRANCH   3   4
ATOM      4  C   UNL     1      27.784  -6.366  18.640  1.00  0.00     0.000 C 
BRANCH   4   5
ATOM      5  C   UNL     1      26.461  -7.137  18.763  1.00  0.00     0.000 C 
BRANCH   5   6
ATOM      6  C   UNL     1      25.566  -6.980  17.520  1.00  0.00     0.006 C 
BRANCH   6   7
ATOM      7  C   UNL     1      24.858  -8.290  17.148  1.00  0.00     0.053 C 
BRANCH   7   8
ATOM      8  C   UNL     1      23.963  -8.768  18.249  1.00  0.00     0.041 C 
ATOM      9  O   UNL     1      23.875  -9.998  18.506  1.00  0.00    -0.550 OA
ATOM     10  O   UNL     1      23.199  -7.858  18.969  1.00  0.00    -0.550 OA
ENDBRANCH   7   8
ENDBRANCH   6   7
ENDBRANCH   5   6
ENDBRANCH   4   5
ENDBRANCH   3   4
ENDBRANCH   2   3
ENDBRANCH   1   2
BRANCH   1  11
ATOM     11  C   UNL     1      27.584  -2.994  19.133  1.00  0.00     0.000 C 
BRANCH  11  12
ATOM     12  C   UNL     1      26.783  -2.832  17.835  1.00  0.00    -0.000 C 
BRANCH  12  13
ATOM     13  C   UNL     1      25.347  -3.343  18.008  1.00  0.00    -0.000 C 
BRANCH  13  14
ATOM     14  C   UNL     1      25.083  -3.751  19.465  1.00  0.00    -0.000 C 
BRANCH  14  15
ATOM     15  C   UNL     1      23.675  -4.334  19.675  1.00  0.00    -0.000 C 
BRANCH  15  16
ATOM     16  C   UNL     1      22.789  -4.360  18.414  1.00  0.00    -0.000 C 
BRANCH  16  17
ATOM     17  C   UNL     1      21.605  -3.373  18.464  1.00  0.00    -0.003 C 
ATOM     18  C   UNL     1      20.902  -3.370  19.821  1.00  0.00     0.004 C 
ENDBRANCH  16  17
ENDBRANCH  15  16
ENDBRANCH  14  15
ENDBRANCH  13  14
ENDBRANCH  12  13
ENDBRANCH  11  12
ENDBRANCH   1  11
TORSDOF 14
ENDMDL
MODEL 9
REMARK VINA RESULT:    -3.762      1.865      3.497
REMARK INTER + INTRA:          -9.142
REMARK INTER:                  -6.760
REMARK INTRA:                  -2.382
REMARK UNBOUND:                -2.301
REMARK SMILES CCCCCCCCCCCCCCCC(=O)[O-]
REMARK SMILES IDX 9 1 10 2 11 3 12 4 13 5 14 6 15 7 16 8 17 9 18 10 8 11 7 12
REMARK SMILES IDX 6 13 5 14 4 15 3 16 2 17 1 18
REMARK H PARENT
REMARK Flexibility Score: inf
ROOT
ATOM      1  C   UNL     1      26.536  -2.982  15.628  1.00  0.00     0.000 C 
ENDROOT
BRANCH   1   2
ATOM      2  C   UNL     1      25.114  -3.073  15.060  1.00  0.00     0.000 C 
BRANCH   2   3
ATOM      3  C   UNL     1      24.147  -2.188  15.854  1.00  0.00     0.000 C 
BRANCH   3   4
ATOM      4  C   UNL     1      22.780  -2.872  16.013  1.00  0.00     0.000 C 
BRANCH   4   5
ATOM      5  C   UNL     1      22.074  -2.484  17.321  1.00  0.00     0.000 C 
BRANCH   5   6
ATOM      6  C   UNL     1      21.635  -3.710  18.142  1.00  0.00     0.006 C 
BRANCH   6   7
ATOM      7  C   UNL     1      21.043  -3.313  19.502  1.00  0.00     0.053 C 
BRANCH   7   8
ATOM      8  C   UNL     1      21.560  -4.184  20.606  1.00  0.00     0.041 C 
ATOM      9  O   UNL     1      22.001  -3.668  21.666  1.00  0.00    -0.550 OA
ATOM     10  O   UNL     1      21.585  -5.564  20.448  1.00  0.00    -0.550 OA
ENDBRANCH   7   8
ENDBRANCH   6   7
ENDBRANCH   5   6
ENDBRANCH   4   5
ENDBRANCH   3   4
ENDBRANCH   2   3
ENDBRANCH   1   2
BRANCH   1  11
ATOM     11  C   UNL     1      26.755  -1.648  16.350  1.00  0.00     0.000 C 
BRANCH  11  12
ATOM     12  C   UNL     1      27.581  -1.842  17.627  1.00  0.00    -0.000 C 
BRANCH  12  13
ATOM     13  C   UNL     1      27.506  -3.294  18.115  1.00  0.00    -0.000 C 
BRANCH  13  14
ATOM     14  C   UNL     1      26.687  -3.395  19.411  1.00  0.00    -0.000 C 
BRANCH  14  15
ATOM     15  C   UNL     1      25.201  -3.699  19.154  1.00  0.00    -0.000 C 
BRANCH  15  16
ATOM     16  C   UNL     1      24.853  -5.197  19.059  1.00  0.00    -0.000 C 
BRANCH  16  17
ATOM     17  C   UNL     1      25.022  -5.787  17.644  1.00  0.00    -0.003 C 
ATOM     18  C   UNL     1      26.124  -6.843  17.577  1.00  0.00     0.004 C 
ENDBRANCH  16  17
ENDBRANCH  15  16
ENDBRANCH  14  15
ENDBRANCH  13  14
ENDBRANCH  12  13
ENDBRANCH  11  12
ENDBRANCH   1  11
TORSDOF 14
ENDMDL
