MODEL 1
REMARK VINA RESULT:    -4.782      0.000      0.000
REMARK INTER + INTRA:         -10.680
REMARK INTER:                  -8.695
REMARK INTRA:                  -1.985
REMARK UNBOUND:                -1.985
REMARK SMILES CCCCCCCCCCCCCC[C@@H](C)C(=O)[O-]
REMARK SMILES IDX 9 1 10 2 11 3 12 4 13 5 14 6 15 7 16 8 17 9 18 10 19 11 8 12
REMARK SMILES IDX 7 13 6 14 5 15 4 16 3 17 2 18 1 19
REMARK H PARENT
REMARK Flexibility Score: inf
ROOT
ATOM      1  C   UNL     1       0.764 -20.327  -5.000  1.00  0.00     0.000 C 
ENDROOT
BRANCH   1   2
ATOM      2  C   UNL     1       0.266 -19.832  -3.630  1.00  0.00     0.000 C 
BRANCH   2   3
ATOM      3  C   UNL     1       0.523 -20.851  -2.508  1.00  0.00     0.000 C 
BRANCH   3   4
ATOM      4  C   UNL     1       1.831 -20.577  -1.744  1.00  0.00     0.000 C 
BRANCH   4   5
ATOM      5  C   UNL     1       2.783 -19.651  -2.519  1.00  0.00     0.001 C 
BRANCH   5   6
ATOM      6  C   UNL     1       3.053 -18.325  -1.776  1.00  0.00     0.009 C 
BRANCH   6   7
ATOM      7  C   UNL     1       2.925 -17.067  -2.668  1.00  0.00     0.032 C 
ATOM      8  C   UNL     1       3.066 -17.408  -4.164  1.00  0.00     0.014 C 
BRANCH   7   9
ATOM      9  C   UNL     1       1.662 -16.297  -2.363  1.00  0.00     0.044 C 
ATOM     10  O   UNL     1       0.653 -16.372  -3.115  1.00  0.00    -0.550 OA
ATOM     11  O   UNL     1       1.612 -15.474  -1.244  1.00  0.00    -0.550 OA
ENDBRANCH   7   9
ENDBRANCH   6   7
ENDBRANCH   5   6
ENDBRANCH   4   5
ENDBRANCH   3   4
ENDBRANCH   2   3
ENDBRANCH   1   2
BRANCH   1  12
ATOM     12  C   UNL     1       0.460 -21.815  -5.239  1.00  0.00     0.000 C 
BRANCH  12  13
ATOM     13  C   UNL     1      -0.025 -22.097  -6.673  1.00  0.00    -0.000 C 
BRANCH  13  14
ATOM     14  C   UNL     1       1.141 -22.234  -7.667  1.00  0.00    -0.000 C 
BRANCH  14  15
ATOM     15  C   UNL     1       1.386 -20.941  -8.468  1.00  0.00    -0.000 C 
BRANCH  15  16
ATOM     16  C   UNL     1       2.755 -20.303  -8.144  1.00  0.00    -0.000 C 
BRANCH  16  17
ATOM     17  C   UNL     1       3.672 -21.204  -7.296  1.00  0.00    -0.000 C 
BRANCH  17  18
ATOM     18  C   UNL     1       4.339 -20.499  -6.103  1.00  0.00    -0.003 C 
ATOM     19  C   UNL     1       4.644 -21.452  -4.947  1.00  0.00     0.004 C 
ENDBRANCH  17  18
ENDBRANCH  16  17
ENDBRANCH  15  16
ENDBRANCH  14  15
ENDBRANCH  13  14
ENDBRANCH  12  13
ENDBRANCH   1  12
TORSDOF 14
ENDMDL
MODEL 2
REMARK VINA RESULT:    -4.584      2.203      4.177
REMARK INTER + INTRA:         -10.322
REMARK INTER:                  -7.741
REMARK INTRA:                  -2.581
REMARK UNBOUND:                -1.985
REMARK SMILES CCCCCCCCCCCCCC[C@@H](C)C(=O)[O-]
REMARK SMILES IDX 9 1 10 2 11 3 12 4 13 5 14 6 15 7 16 8 17 9 18 10 19 11 8 12
REMARK SMILES IDX 7 13 6 14 5 15 4 16 3 17 2 18 1 19
REMARK H PARENT
REMARK Flexibility Score: inf
ROOT
ATOM      1  C   UNL     1       3.648 -21.365  -6.939  1.00  0.00     0.000 C 
ENDROOT
BRANCH   1   2
ATOM      2  C   UNL     1       5.164 -21.150  -6.779  1.00  0.00     0.000 C 
BRANCH   2   3
ATOM      3  C   UNL     1       5.599 -21.110  -5.305  1.00  0.00     0.000 C 
BRANCH   3   4
ATOM      4  C   UNL     1       4.446 -20.743  -4.354  1.00  0.00     0.000 C 
BRANCH   4   5
ATOM      5  C   UNL     1       4.745 -19.483  -3.525  1.00  0.00     0.001 C 
BRANCH   5   6
ATOM      6  C   UNL     1       3.778 -18.321  -3.846  1.00  0.00     0.009 C 
BRANCH   6   7
ATOM      7  C   UNL     1       3.739 -17.932  -5.343  1.00  0.00     0.032 C 
ATOM      8  C   UNL     1       2.533 -17.031  -5.670  1.00  0.00     0.014 C 
BRANCH   7   9
ATOM      9  C   UNL     1       5.051 -17.334  -5.794  1.00  0.00     0.044 C 
ATOM     10  O   UNL     1       5.657 -16.481  -5.092  1.00  0.00    -0.550 OA
ATOM     11  O   UNL     1       5.596 -17.714  -7.015  1.00  0.00    -0.550 OA
ENDBRANCH   7   9
ENDBRANCH   6   7
ENDBRANCH   5   6
ENDBRANCH   4   5
ENDBRANCH   3   4
ENDBRANCH   2   3
ENDBRANCH   1   2
BRANCH   1  12
ATOM     12  C   UNL     1       3.025 -20.431  -7.990  1.00  0.00     0.000 C 
BRANCH  12  13
ATOM     13  C   UNL     1       1.587 -20.836  -8.363  1.00  0.00    -0.000 C 
BRANCH  13  14
ATOM     14  C   UNL     1       1.145 -22.131  -7.663  1.00  0.00    -0.000 C 
BRANCH  14  15
ATOM     15  C   UNL     1      -0.042 -21.909  -6.708  1.00  0.00    -0.000 C 
BRANCH  15  16
ATOM     16  C   UNL     1       0.414 -21.694  -5.247  1.00  0.00    -0.000 C 
BRANCH  16  17
ATOM     17  C   UNL     1       0.793 -20.237  -4.926  1.00  0.00    -0.000 C 
BRANCH  17  18
ATOM     18  C   UNL     1       0.321 -19.740  -3.550  1.00  0.00    -0.003 C 
ATOM     19  C   UNL     1       0.511 -20.781  -2.446  1.00  0.00     0.004 C 
ENDBRANCH  17  18
ENDBRANCH  16  17
ENDBRANCH  15  16
ENDBRANCH  14  15
ENDBRANCH  13  14
ENDBRANCH  12  13
ENDBRANCH   1  12
TORSDOF 14
ENDMDL
MODEL 3
REMARK VINA RESULT:    -4.495      2.226      4.038
REMARK INTER + INTRA:         -10.159
REMARK INTER:                  -7.840
REMARK INTRA:                  -2.319
REMARK UNBOUND:                -1.985
REMARK SMILES CCCCCCCCCCCCCC[C@@H](C)C(=O)[O-]
REMARK SMILES IDX 9 1 10 2 11 3 12 4 13 5 14 6 15 7 16 8 17 9 18 10 19 11 8 12
REMARK SMILES IDX 7 13 6 14 5 15 4 16 3 17 2 18 1 19
REMARK H PARENT
REMARK Flexibility Score: inf
ROOT
ATOM      1  C   UNL     1       1.648 -20.482  -7.832  1.00  0.00     0.000 C 
ENDROOT
BRANCH   1   2
ATOM      2  C   UNL     1       1.398 -21.993  -7.988  1.00  0.00     0.000 C 
BRANCH   2   3
ATOM      3  C   UNL     1       0.491 -22.555  -6.881  1.00  0.00     0.000 C 
BRANCH   3   4
ATOM      4  C   UNL     1      -0.098 -21.456  -5.979  1.00  0.00     0.000 C 
BRANCH   4   5
ATOM      5  C   UNL     1       0.435 -21.529  -4.539  1.00  0.00     0.001 C 
BRANCH   5   6
ATOM      6  C   UNL     1       0.509 -20.141  -3.864  1.00  0.00     0.009 C 
BRANCH   6   7
ATOM      7  C   UNL     1       1.885 -19.447  -4.005  1.00  0.00     0.032 C 
ATOM      8  C   UNL     1       1.754 -18.024  -4.578  1.00  0.00     0.014 C 
BRANCH   7   9
ATOM      9  C   UNL     1       2.659 -19.484  -2.709  1.00  0.00     0.044 C 
ATOM     10  O   UNL     1       3.071 -20.573  -2.223  1.00  0.00    -0.550 OA
ATOM     11  O   UNL     1       2.911 -18.301  -2.023  1.00  0.00    -0.550 OA
ENDBRANCH   7   9
ENDBRANCH   6   7
ENDBRANCH   5   6
ENDBRANCH   4   5
ENDBRANCH   3   4
ENDBRANCH   2   3
ENDBRANCH   1   2
BRANCH   1  12
ATOM     12  C   UNL     1       3.114 -20.155  -7.501  1.00  0.00     0.000 C 
BRANCH  12  13
ATOM     13  C   UNL     1       3.935 -21.409  -7.147  1.00  0.00    -0.000 C 
BRANCH  13  14
ATOM     14  C   UNL     1       4.300 -21.465  -5.654  1.00  0.00    -0.000 C 
BRANCH  14  15
ATOM     15  C   UNL     1       5.460 -20.519  -5.296  1.00  0.00    -0.000 C 
BRANCH  15  16
ATOM     16  C   UNL     1       6.841 -21.178  -5.510  1.00  0.00    -0.000 C 
BRANCH  16  17
ATOM     17  C   UNL     1       7.682 -20.508  -6.612  1.00  0.00    -0.000 C 
BRANCH  17  18
ATOM     18  C   UNL     1       7.500 -21.112  -8.014  1.00  0.00    -0.003 C 
ATOM     19  C   UNL     1       7.575 -22.639  -8.016  1.00  0.00     0.004 C 
ENDBRANCH  17  18
ENDBRANCH  16  17
ENDBRANCH  15  16
ENDBRANCH  14  15
ENDBRANCH  13  14
ENDBRANCH  12  13
ENDBRANCH   1  12
TORSDOF 14
ENDMDL
MODEL 4
REMARK VINA RESULT:    -4.470      2.839      5.554
REMARK INTER + INTRA:         -10.114
REMARK INTER:                  -7.612
REMARK INTRA:                  -2.502
REMARK UNBOUND:                -1.985
REMARK SMILES CCCCCCCCCCCCCC[C@@H](C)C(=O)[O-]
REMARK SMILES IDX 9 1 10 2 11 3 12 4 13 5 14 6 15 7 16 8 17 9 18 10 19 11 8 12
REMARK SMILES IDX 7 13 6 14 5 15 4 16 3 17 2 18 1 19
REMARK H PARENT
REMARK Flexibility Score: inf
ROOT
ATOM      1  C   UNL     1       0.996 -20.566  -4.930  1.00  0.00     0.000 C 
ENDROOT
BRANCH   1   2
ATOM      2  C   UNL     1       0.455 -21.755  -5.744  1.00  0.00     0.000 C 
BRANCH   2   3
ATOM      3  C   UNL     1       1.100 -21.856  -7.136  1.00  0.00     0.000 C 
BRANCH   3   4
ATOM      4  C   UNL     1       1.548 -20.489  -7.685  1.00  0.00     0.000 C 
BRANCH   4   5
ATOM      5  C   UNL     1       3.051 -20.446  -8.003  1.00  0.00     0.001 C 
BRANCH   5   6
ATOM      6  C   UNL     1       3.874 -21.390  -7.098  1.00  0.00     0.009 C 
BRANCH   6   7
ATOM      7  C   UNL     1       4.866 -20.657  -6.165  1.00  0.00     0.032 C 
ATOM      8  C   UNL     1       5.157 -21.466  -4.887  1.00  0.00     0.014 C 
BRANCH   7   9
ATOM      9  C   UNL     1       6.124 -20.255  -6.898  1.00  0.00     0.044 C 
ATOM     10  O   UNL     1       6.758 -21.080  -7.610  1.00  0.00    -0.550 OA
ATOM     11  O   UNL     1       6.609 -18.958  -6.774  1.00  0.00    -0.550 OA
ENDBRANCH   7   9
ENDBRANCH   6   7
ENDBRANCH   5   6
ENDBRANCH   4   5
ENDBRANCH   3   4
ENDBRANCH   2   3
ENDBRANCH   1   2
BRANCH   1  12
ATOM     12  C   UNL     1       0.222 -20.343  -3.620  1.00  0.00     0.000 C 
BRANCH  12  13
ATOM     13  C   UNL     1       1.121 -20.456  -2.375  1.00  0.00    -0.000 C 
BRANCH  13  14
ATOM     14  C   UNL     1       2.592 -20.135  -2.686  1.00  0.00    -0.000 C 
BRANCH  14  15
ATOM     15  C   UNL     1       2.944 -18.661  -2.412  1.00  0.00    -0.000 C 
BRANCH  15  16
ATOM     16  C   UNL     1       4.188 -18.199  -3.204  1.00  0.00    -0.000 C 
BRANCH  16  17
ATOM     17  C   UNL     1       3.884 -17.118  -4.257  1.00  0.00    -0.000 C 
BRANCH  17  18
ATOM     18  C   UNL     1       3.278 -17.649  -5.566  1.00  0.00    -0.003 C 
ATOM     19  C   UNL     1       1.881 -17.089  -5.842  1.00  0.00     0.004 C 
ENDBRANCH  17  18
ENDBRANCH  16  17
ENDBRANCH  15  16
ENDBRANCH  14  15
ENDBRANCH  13  14
ENDBRANCH  12  13
ENDBRANCH   1  12
TORSDOF 14
ENDMDL
MODEL 5
REMARK VINA RESULT:    -4.461      3.508      6.044
REMARK INTER + INTRA:         -10.097
REMARK INTER:                  -8.077
REMARK INTRA:                  -2.020
REMARK UNBOUND:                -1.985
REMARK SMILES CCCCCCCCCCCCCC[C@@H](C)C(=O)[O-]
REMARK SMILES IDX 9 1 10 2 11 3 12 4 13 5 14 6 15 7 16 8 17 9 18 10 19 11 8 12
REMARK SMILES IDX 7 13 6 14 5 15 4 16 3 17 2 18 1 19
REMARK H PARENT
REMARK Flexibility Score: inf
ROOT
ATOM      1  C   UNL     1       2.270 -18.061  -5.845  1.00  0.00     0.000 C 
ENDROOT
BRANCH   1   2
ATOM      2  C   UNL     1       3.590 -18.647  -6.376  1.00  0.00     0.000 C 
BRANCH   2   3
ATOM      3  C   UNL     1       4.315 -19.507  -5.328  1.00  0.00     0.000 C 
BRANCH   3   4
ATOM      4  C   UNL     1       4.148 -21.017  -5.578  1.00  0.00     0.000 C 
BRANCH   4   5
ATOM      5  C   UNL     1       5.493 -21.760  -5.616  1.00  0.00     0.001 C 
BRANCH   5   6
ATOM      6  C   UNL     1       5.905 -22.162  -7.050  1.00  0.00     0.009 C 
BRANCH   6   7
ATOM      7  C   UNL     1       7.367 -21.802  -7.407  1.00  0.00     0.032 C 
ATOM      8  C   UNL     1       7.925 -22.707  -8.522  1.00  0.00     0.014 C 
BRANCH   7   9
ATOM      9  C   UNL     1       7.515 -20.333  -7.722  1.00  0.00     0.044 C 
ATOM     10  O   UNL     1       8.584 -19.714  -7.470  1.00  0.00    -0.550 OA
ATOM     11  O   UNL     1       6.449 -19.638  -8.282  1.00  0.00    -0.550 OA
ENDBRANCH   7   9
ENDBRANCH   6   7
ENDBRANCH   5   6
ENDBRANCH   4   5
ENDBRANCH   3   4
ENDBRANCH   2   3
ENDBRANCH   1   2
BRANCH   1  12
ATOM     12  C   UNL     1       2.305 -17.799  -4.330  1.00  0.00     0.000 C 
BRANCH  12  13
ATOM     13  C   UNL     1       1.120 -18.446  -3.590  1.00  0.00    -0.000 C 
BRANCH  13  14
ATOM     14  C   UNL     1       1.212 -19.981  -3.571  1.00  0.00    -0.000 C 
BRANCH  14  15
ATOM     15  C   UNL     1       0.118 -20.647  -4.427  1.00  0.00    -0.000 C 
BRANCH  15  16
ATOM     16  C   UNL     1       0.659 -21.846  -5.238  1.00  0.00    -0.000 C 
BRANCH  16  17
ATOM     17  C   UNL     1       0.106 -21.921  -6.673  1.00  0.00    -0.000 C 
BRANCH  17  18
ATOM     18  C   UNL     1       1.173 -22.121  -7.762  1.00  0.00    -0.003 C 
ATOM     19  C   UNL     1       1.500 -20.832  -8.517  1.00  0.00     0.004 C 
ENDBRANCH  17  18
ENDBRANCH  16  17
ENDBRANCH  15  16
ENDBRANCH  14  15
ENDBRANCH  13  14
ENDBRANCH  12  13
ENDBRANCH   1  12
TORSDOF 14
ENDMDL
MODEL 6
REMARK VINA RESULT:    -4.455      1.896      4.912
REMARK INTER + INTRA:         -10.087
REMARK INTER:                  -7.713
REMARK INTRA:                  -2.374
REMARK UNBOUND:                -1.985
REMARK SMILES CCCCCCCCCCCCCC[C@@H](C)C(=O)[O-]
REMARK SMILES IDX 9 1 10 2 11 3 12 4 13 5 14 6 15 7 16 8 17 9 18 10 19 11 8 12
REMARK SMILES IDX 7 13 6 14 5 15 4 16 3 17 2 18 1 19
REMARK H PARENT
REMARK Flexibility Score: inf
ROOT
ATOM      1  C   UNL     1       3.848 -19.896  -7.841  1.00  0.00     0.000 C 
ENDROOT
BRANCH   1   2
ATOM      2  C   UNL     1       3.014 -21.190  -7.841  1.00  0.00     0.000 C 
BRANCH   2   3
ATOM      3  C   UNL     1       1.607 -20.982  -8.424  1.00  0.00     0.000 C 
BRANCH   3   4
ATOM      4  C   UNL     1       0.503 -21.607  -7.552  1.00  0.00     0.000 C 
BRANCH   4   5
ATOM      5  C   UNL     1       1.013 -22.013  -6.159  1.00  0.00     0.001 C 
BRANCH   5   6
ATOM      6  C   UNL     1       0.484 -21.085  -5.042  1.00  0.00     0.009 C 
BRANCH   6   7
ATOM      7  C   UNL     1       1.535 -20.085  -4.506  1.00  0.00     0.032 C 
ATOM      8  C   UNL     1       1.586 -18.798  -5.351  1.00  0.00     0.014 C 
BRANCH   7   9
ATOM      9  C   UNL     1       1.337 -19.808  -3.035  1.00  0.00     0.044 C 
ATOM     10  O   UNL     1       1.617 -18.683  -2.538  1.00  0.00    -0.550 OA
ATOM     11  O   UNL     1       0.855 -20.812  -2.204  1.00  0.00    -0.550 OA
ENDBRANCH   7   9
ENDBRANCH   6   7
ENDBRANCH   5   6
ENDBRANCH   4   5
ENDBRANCH   3   4
ENDBRANCH   2   3
ENDBRANCH   1   2
BRANCH   1  12
ATOM     12  C   UNL     1       5.212 -20.071  -7.151  1.00  0.00     0.000 C 
BRANCH  12  13
ATOM     13  C   UNL     1       5.405 -21.485  -6.572  1.00  0.00    -0.000 C 
BRANCH  13  14
ATOM     14  C   UNL     1       5.269 -21.511  -5.040  1.00  0.00    -0.000 C 
BRANCH  14  15
ATOM     15  C   UNL     1       6.618 -21.308  -4.325  1.00  0.00    -0.000 C 
BRANCH  15  16
ATOM     16  C   UNL     1       6.445 -20.740  -2.899  1.00  0.00    -0.000 C 
BRANCH  16  17
ATOM     17  C   UNL     1       5.059 -20.120  -2.645  1.00  0.00    -0.000 C 
BRANCH  17  18
ATOM     18  C   UNL     1       5.047 -18.585  -2.564  1.00  0.00    -0.003 C 
ATOM     19  C   UNL     1       4.894 -17.920  -3.933  1.00  0.00     0.004 C 
ENDBRANCH  17  18
ENDBRANCH  16  17
ENDBRANCH  15  16
ENDBRANCH  14  15
ENDBRANCH  13  14
ENDBRANCH  12  13
ENDBRANCH   1  12
TORSDOF 14
ENDMDL
MODEL 7
REMARK VINA RESULT:    -4.422      1.754      2.305
REMARK INTER + INTRA:         -10.027
REMARK INTER:                  -8.164
REMARK INTRA:                  -1.862
REMARK UNBOUND:                -1.985
REMARK SMILES CCCCCCCCCCCCCC[C@@H](C)C(=O)[O-]
REMARK SMILES IDX 9 1 10 2 11 3 12 4 13 5 14 6 15 7 16 8 17 9 18 10 19 11 8 12
REMARK SMILES IDX 7 13 6 14 5 15 4 16 3 17 2 18 1 19
REMARK H PARENT
REMARK Flexibility Score: inf
ROOT
ATOM      1  C   UNL     1       0.129 -21.364  -5.137  1.00  0.00     0.000 C 
ENDROOT
BRANCH   1   2
ATOM      2  C   UNL     1       0.845 -20.195  -4.437  1.00  0.00     0.000 C 
BRANCH   2   3
ATOM      3  C   UNL     1       0.943 -20.393  -2.915  1.00  0.00     0.000 C 
BRANCH   3   4
ATOM      4  C   UNL     1       2.249 -19.830  -2.325  1.00  0.00     0.000 C 
BRANCH   4   5
ATOM      5  C   UNL     1       2.361 -18.306  -2.492  1.00  0.00     0.001 C 
BRANCH   5   6
ATOM      6  C   UNL     1       3.779 -17.780  -2.178  1.00  0.00     0.009 C 
BRANCH   6   7
ATOM      7  C   UNL     1       3.837 -16.259  -1.899  1.00  0.00     0.032 C 
ATOM      8  C   UNL     1       2.496 -15.722  -1.364  1.00  0.00     0.014 C 
BRANCH   7   9
ATOM      9  C   UNL     1       5.003 -15.903  -1.007  1.00  0.00     0.044 C 
ATOM     10  O   UNL     1       6.132 -16.444  -1.160  1.00  0.00    -0.550 OA
ATOM     11  O   UNL     1       4.831 -14.976   0.015  1.00  0.00    -0.550 OA
ENDBRANCH   7   9
ENDBRANCH   6   7
ENDBRANCH   5   6
ENDBRANCH   4   5
ENDBRANCH   3   4
ENDBRANCH   2   3
ENDBRANCH   1   2
BRANCH   1  12
ATOM     12  C   UNL     1       1.045 -22.123  -6.111  1.00  0.00     0.000 C 
BRANCH  12  13
ATOM     13  C   UNL     1       0.758 -21.778  -7.584  1.00  0.00    -0.000 C 
BRANCH  13  14
ATOM     14  C   UNL     1       1.762 -20.762  -8.153  1.00  0.00    -0.000 C 
BRANCH  14  15
ATOM     15  C   UNL     1       3.150 -20.874  -7.495  1.00  0.00    -0.000 C 
BRANCH  15  16
ATOM     16  C   UNL     1       3.640 -19.522  -6.930  1.00  0.00    -0.000 C 
BRANCH  16  17
ATOM     17  C   UNL     1       4.271 -19.630  -5.529  1.00  0.00    -0.000 C 
BRANCH  17  18
ATOM     18  C   UNL     1       4.414 -21.067  -4.999  1.00  0.00    -0.003 C 
ATOM     19  C   UNL     1       5.803 -21.656  -5.252  1.00  0.00     0.004 C 
ENDBRANCH  17  18
ENDBRANCH  16  17
ENDBRANCH  15  16
ENDBRANCH  14  15
ENDBRANCH  13  14
ENDBRANCH  12  13
ENDBRANCH   1  12
TORSDOF 14
ENDMDL
MODEL 8
REMARK VINA RESULT:    -4.421      1.287      2.628
REMARK INTER + INTRA:         -10.025
REMARK INTER:                  -8.141
REMARK INTRA:                  -1.884
REMARK UNBOUND:                -1.985
REMARK SMILES CCCCCCCCCCCCCC[C@@H](C)C(=O)[O-]
REMARK SMILES IDX 9 1 10 2 11 3 12 4 13 5 14 6 15 7 16 8 17 9 18 10 19 11 8 12
REMARK SMILES IDX 7 13 6 14 5 15 4 16 3 17 2 18 1 19
REMARK H PARENT
REMARK Flexibility Score: inf
ROOT
ATOM      1  C   UNL     1       0.963 -22.084  -6.563  1.00  0.00     0.000 C 
ENDROOT
BRANCH   1   2
ATOM      2  C   UNL     1       0.147 -21.653  -5.331  1.00  0.00     0.000 C 
BRANCH   2   3
ATOM      3  C   UNL     1       0.769 -20.448  -4.606  1.00  0.00     0.000 C 
BRANCH   3   4
ATOM      4  C   UNL     1       0.518 -20.473  -3.087  1.00  0.00     0.000 C 
BRANCH   4   5
ATOM      5  C   UNL     1       1.805 -20.258  -2.274  1.00  0.00     0.001 C 
BRANCH   5   6
ATOM      6  C   UNL     1       2.735 -19.199  -2.907  1.00  0.00     0.009 C 
BRANCH   6   7
ATOM      7  C   UNL     1       2.999 -17.974  -2.000  1.00  0.00     0.032 C 
ATOM      8  C   UNL     1       4.505 -17.706  -1.823  1.00  0.00     0.014 C 
BRANCH   7   9
ATOM      9  C   UNL     1       2.244 -16.757  -2.478  1.00  0.00     0.044 C 
ATOM     10  O   UNL     1       2.686 -15.593  -2.281  1.00  0.00    -0.550 OA
ATOM     11  O   UNL     1       1.027 -16.915  -3.133  1.00  0.00    -0.550 OA
ENDBRANCH   7   9
ENDBRANCH   6   7
ENDBRANCH   5   6
ENDBRANCH   4   5
ENDBRANCH   3   4
ENDBRANCH   2   3
ENDBRANCH   1   2
BRANCH   1  12
ATOM     12  C   UNL     1       1.374 -20.895  -7.447  1.00  0.00     0.000 C 
BRANCH  12  13
ATOM     13  C   UNL     1       2.893 -20.836  -7.691  1.00  0.00    -0.000 C 
BRANCH  13  14
ATOM     14  C   UNL     1       3.514 -19.521  -7.189  1.00  0.00    -0.000 C 
BRANCH  14  15
ATOM     15  C   UNL     1       4.292 -19.702  -5.873  1.00  0.00    -0.000 C 
BRANCH  15  16
ATOM     16  C   UNL     1       4.452 -21.190  -5.487  1.00  0.00    -0.000 C 
BRANCH  16  17
ATOM     17  C   UNL     1       5.879 -21.564  -5.046  1.00  0.00    -0.000 C 
BRANCH  17  18
ATOM     18  C   UNL     1       6.971 -21.262  -6.085  1.00  0.00    -0.003 C 
ATOM     19  C   UNL     1       6.785 -22.046  -7.386  1.00  0.00     0.004 C 
ENDBRANCH  17  18
ENDBRANCH  16  17
ENDBRANCH  15  16
ENDBRANCH  14  15
ENDBRANCH  13  14
ENDBRANCH  12  13
ENDBRANCH   1  12
TORSDOF 14
ENDMDL
MODEL 9
REMARK VINA RESULT:    -4.389     10.882     13.058
REMARK INTER + INTRA:          -9.966
REMARK INTER:                  -7.559
REMARK INTRA:                  -2.407
REMARK UNBOUND:                -1.985
REMARK SMILES CCCCCCCCCCCCCC[C@@H](C)C(=O)[O-]
REMARK SMILES IDX 9 1 10 2 11 3 12 4 13 5 14 6 15 7 16 8 17 9 18 10 19 11 8 12
REMARK SMILES IDX 7 13 6 14 5 15 4 16 3 17 2 18 1 19
REMARK H PARENT
REMARK Flexibility Score: inf
ROOT
ATOM      1  C   UNL     1      -5.190 -27.989  -3.732  1.00  0.00     0.000 C 
ENDROOT
BRANCH   1   2
ATOM      2  C   UNL     1      -5.609 -26.707  -2.991  1.00  0.00     0.000 C 
BRANCH   2   3
ATOM      3  C   UNL     1      -6.249 -27.001  -1.624  1.00  0.00     0.000 C 
BRANCH   3   4
ATOM      4  C   UNL     1      -7.538 -26.194  -1.384  1.00  0.00     0.000 C 
BRANCH   4   5
ATOM      5  C   UNL     1      -8.241 -25.804  -2.695  1.00  0.00     0.001 C 
BRANCH   5   6
ATOM      6  C   UNL     1      -8.766 -24.351  -2.676  1.00  0.00     0.009 C 
BRANCH   6   7
ATOM      7  C   UNL     1      -8.306 -23.534  -1.445  1.00  0.00     0.032 C 
ATOM      8  C   UNL     1      -7.251 -22.476  -1.821  1.00  0.00     0.014 C 
BRANCH   7   9
ATOM      9  C   UNL     1      -9.480 -22.946  -0.700  1.00  0.00     0.044 C 
ATOM     10  O   UNL     1      -9.355 -21.907   0.003  1.00  0.00    -0.550 OA
ATOM     11  O   UNL     1     -10.722 -23.568  -0.770  1.00  0.00    -0.550 OA
ENDBRANCH   7   9
ENDBRANCH   6   7
ENDBRANCH   5   6
ENDBRANCH   4   5
ENDBRANCH   3   4
ENDBRANCH   2   3
ENDBRANCH   1   2
BRANCH   1  12
ATOM     12  C   UNL     1      -5.834 -29.254  -3.139  1.00  0.00     0.000 C 
BRANCH  12  13
ATOM     13  C   UNL     1      -6.858 -29.899  -4.091  1.00  0.00    -0.000 C 
BRANCH  13  14
ATOM     14  C   UNL     1      -8.079 -30.458  -3.343  1.00  0.00    -0.000 C 
BRANCH  14  15
ATOM     15  C   UNL     1      -8.977 -29.346  -2.768  1.00  0.00    -0.000 C 
BRANCH  15  16
ATOM     16  C   UNL     1      -9.346 -29.598  -1.289  1.00  0.00    -0.000 C 
BRANCH  16  17
ATOM     17  C   UNL     1      -8.183 -30.154  -0.448  1.00  0.00    -0.000 C 
BRANCH  17  18
ATOM     18  C   UNL     1      -7.780 -29.276   0.748  1.00  0.00    -0.003 C 
ATOM     19  C   UNL     1      -8.934 -28.419   1.270  1.00  0.00     0.004 C 
ENDBRANCH  17  18
ENDBRANCH  16  17
ENDBRANCH  15  16
ENDBRANCH  14  15
ENDBRANCH  13  14
ENDBRANCH  12  13
ENDBRANCH   1  12
TORSDOF 14
ENDMDL
