MODEL 1
REMARK VINA RESULT:    -7.754      0.000      0.000
REMARK INTER + INTRA:         -11.374
REMARK INTER:                 -10.701
REMARK INTRA:                  -0.674
REMARK UNBOUND:                -0.674
REMARK SMILES CC[C@@H](CC[C@H](C)[C@@H]1CC[C@@H]2[C@H]3CC=C4C[C@@H](O)CC[C@]4(C)[C@@H]3CC[C@]21C)C(C)C
REMARK SMILES IDX 5 1 4 2 3 3 2 4 1 5 28 6 29 7 30 8 6 9 7 10 8 11 9 12 26 13
REMARK SMILES IDX 10 14 11 15 25 16 27 17 12 18 24 19 23 20 13 21 21 22 14 23
REMARK SMILES IDX 15 24 20 25 22 26 16 27 19 28 17 29 18 30
REMARK H PARENT 18 31
REMARK Flexibility Score: inf
ROOT
ATOM      1  C   UNL     1     -14.181 -33.176 -14.014  1.00  0.00     0.004 C 
ENDROOT
BRANCH   1   2
ATOM      2  C   UNL     1     -12.870 -33.749 -13.431  1.00  0.00     0.004 C 
BRANCH   2   3
ATOM      3  C   UNL     1     -12.068 -34.596 -14.461  1.00  0.00    -0.009 C 
BRANCH   3   4
ATOM      4  C   UNL     1     -12.893 -35.843 -14.888  1.00  0.00     0.000 C 
ATOM      5  C   UNL     1     -13.670 -35.650 -16.192  1.00  0.00     0.004 C 
ENDBRANCH   3   4
BRANCH   3   6
ATOM      6  C   UNL     1     -10.638 -34.969 -13.941  1.00  0.00    -0.014 C 
ATOM      7  C   UNL     1      -9.953 -33.789 -13.229  1.00  0.00     0.007 C 
ATOM      8  C   UNL     1     -10.615 -36.217 -13.040  1.00  0.00     0.007 C 
ENDBRANCH   3   6
ENDBRANCH   2   3
ENDBRANCH   1   2
BRANCH   1   9
ATOM      9  C   UNL     1     -15.218 -32.801 -12.914  1.00  0.00    -0.011 C 
ATOM     10  C   UNL     1     -16.623 -33.243 -13.371  1.00  0.00     0.008 C 
BRANCH   9  11
ATOM     11  C   UNL     1     -15.169 -31.264 -12.599  1.00  0.00    -0.002 C 
ATOM     12  C   UNL     1     -14.425 -30.457 -13.701  1.00  0.00     0.005 C 
ATOM     13  C   UNL     1     -14.473 -30.796 -11.281  1.00  0.00    -0.026 C 
ATOM     14  C   UNL     1     -13.717 -29.281 -13.015  1.00  0.00     0.005 C 
ATOM     15  C   UNL     1     -14.262 -29.305 -11.599  1.00  0.00    -0.001 C 
ATOM     16  C   UNL     1     -15.351 -30.851 -10.003  1.00  0.00     0.007 C 
ATOM     17  C   UNL     1     -13.131 -31.567 -11.066  1.00  0.00     0.012 C 
ATOM     18  C   UNL     1     -13.490 -28.535 -10.504  1.00  0.00     0.000 C 
ATOM     19  C   UNL     1     -14.678 -30.108  -8.825  1.00  0.00     0.005 C 
ATOM     20  C   UNL     1     -14.276 -28.636  -9.165  1.00  0.00     0.003 C 
ATOM     21  C   UNL     1     -13.373 -27.051 -10.878  1.00  0.00     0.031 C 
ATOM     22  C   UNL     1     -13.545 -27.871  -7.984  1.00  0.00    -0.008 C 
ATOM     23  C   UNL     1     -12.716 -26.272  -9.782  1.00  0.00    -0.027 C 
ATOM     24  C   UNL     1     -12.820 -26.602  -8.477  1.00  0.00    -0.065 C 
ATOM     25  C   UNL     1     -12.472 -28.772  -7.293  1.00  0.00     0.014 C 
ATOM     26  C   UNL     1     -14.622 -27.455  -6.948  1.00  0.00     0.016 C 
ATOM     27  C   UNL     1     -11.976 -25.840  -7.476  1.00  0.00     0.063 C 
ATOM     28  C   UNL     1     -11.581 -28.026  -6.278  1.00  0.00     0.033 C 
ATOM     29  C   UNL     1     -10.918 -26.785  -6.889  1.00  0.00     0.118 C 
BRANCH  29  30
ATOM     30  O   UNL     1     -10.184 -26.121  -5.895  1.00  0.00    -0.393 OA
ATOM     31  H   UNL     1     -10.621 -26.328  -5.028  1.00  0.00     0.210 HD
ENDBRANCH  29  30
ENDBRANCH   9  11
ENDBRANCH   1   9
TORSDOF 7
ENDMDL
MODEL 2
REMARK VINA RESULT:    -7.542      2.464      4.413
REMARK INTER + INTRA:         -11.081
REMARK INTER:                 -10.960
REMARK INTRA:                  -0.121
REMARK UNBOUND:                -0.674
REMARK SMILES CC[C@@H](CC[C@H](C)[C@@H]1CC[C@@H]2[C@H]3CC=C4C[C@@H](O)CC[C@]4(C)[C@@H]3CC[C@]21C)C(C)C
REMARK SMILES IDX 5 1 4 2 3 3 2 4 1 5 28 6 29 7 30 8 6 9 7 10 8 11 9 12 26 13
REMARK SMILES IDX 10 14 11 15 25 16 27 17 12 18 24 19 23 20 13 21 21 22 14 23
REMARK SMILES IDX 15 24 20 25 22 26 16 27 19 28 17 29 18 30
REMARK H PARENT 18 31
REMARK Flexibility Score: inf
ROOT
ATOM      1  C   UNL     1     -11.473 -34.730 -11.348  1.00  0.00     0.004 C 
ENDROOT
BRANCH   1   2
ATOM      2  C   UNL     1     -11.381 -34.999 -12.866  1.00  0.00     0.004 C 
BRANCH   2   3
ATOM      3  C   UNL     1     -12.696 -34.654 -13.624  1.00  0.00    -0.009 C 
BRANCH   3   4
ATOM      4  C   UNL     1     -12.501 -34.853 -15.154  1.00  0.00     0.000 C 
ATOM      5  C   UNL     1     -13.649 -35.608 -15.829  1.00  0.00     0.004 C 
ENDBRANCH   3   4
BRANCH   3   6
ATOM      6  C   UNL     1     -13.233 -33.226 -13.266  1.00  0.00    -0.014 C 
ATOM      7  C   UNL     1     -12.374 -32.110 -13.886  1.00  0.00     0.007 C 
ATOM      8  C   UNL     1     -14.715 -33.016 -13.626  1.00  0.00     0.007 C 
ENDBRANCH   3   6
ENDBRANCH   2   3
ENDBRANCH   1   2
BRANCH   1   9
ATOM      9  C   UNL     1     -10.087 -34.784 -10.640  1.00  0.00    -0.011 C 
ATOM     10  C   UNL     1      -9.981 -36.095  -9.834  1.00  0.00     0.008 C 
BRANCH   9  11
ATOM     11  C   UNL     1      -9.875 -33.525  -9.727  1.00  0.00    -0.002 C 
ATOM     12  C   UNL     1     -10.042 -33.854  -8.216  1.00  0.00     0.005 C 
ATOM     13  C   UNL     1     -10.812 -32.291  -9.931  1.00  0.00    -0.026 C 
ATOM     14  C   UNL     1     -10.635 -32.613  -7.535  1.00  0.00     0.005 C 
ATOM     15  C   UNL     1     -10.568 -31.543  -8.609  1.00  0.00    -0.001 C 
ATOM     16  C   UNL     1     -10.402 -31.318 -11.067  1.00  0.00     0.007 C 
ATOM     17  C   UNL     1     -12.296 -32.753 -10.103  1.00  0.00     0.012 C 
ATOM     18  C   UNL     1     -11.438 -30.277  -8.437  1.00  0.00     0.000 C 
ATOM     19  C   UNL     1     -11.212 -30.002 -11.001  1.00  0.00     0.005 C 
ATOM     20  C   UNL     1     -11.142 -29.297  -9.608  1.00  0.00     0.003 C 
ATOM     21  C   UNL     1     -11.091 -29.567  -7.121  1.00  0.00     0.031 C 
ATOM     22  C   UNL     1     -12.001 -27.968  -9.506  1.00  0.00    -0.008 C 
ATOM     23  C   UNL     1     -11.853 -28.287  -6.986  1.00  0.00    -0.027 C 
ATOM     24  C   UNL     1     -12.230 -27.536  -8.044  1.00  0.00    -0.065 C 
ATOM     25  C   UNL     1     -13.411 -28.144 -10.157  1.00  0.00     0.014 C 
ATOM     26  C   UNL     1     -11.225 -26.843 -10.240  1.00  0.00     0.016 C 
ATOM     27  C   UNL     1     -13.140 -26.351  -7.794  1.00  0.00     0.063 C 
ATOM     28  C   UNL     1     -14.372 -26.963  -9.910  1.00  0.00     0.033 C 
ATOM     29  C   UNL     1     -14.513 -26.632  -8.419  1.00  0.00     0.118 C 
BRANCH  29  30
ATOM     30  O   UNL     1     -15.343 -25.510  -8.275  1.00  0.00    -0.393 OA
ATOM     31  H   UNL     1     -14.825 -24.727  -8.601  1.00  0.00     0.210 HD
ENDBRANCH  29  30
ENDBRANCH   9  11
ENDBRANCH   1   9
TORSDOF 7
ENDMDL
MODEL 3
REMARK VINA RESULT:    -7.433      1.525      2.972
REMARK INTER + INTRA:         -10.931
REMARK INTER:                  -9.804
REMARK INTRA:                  -1.127
REMARK UNBOUND:                -0.674
REMARK SMILES CC[C@@H](CC[C@H](C)[C@@H]1CC[C@@H]2[C@H]3CC=C4C[C@@H](O)CC[C@]4(C)[C@@H]3CC[C@]21C)C(C)C
REMARK SMILES IDX 5 1 4 2 3 3 2 4 1 5 28 6 29 7 30 8 6 9 7 10 8 11 9 12 26 13
REMARK SMILES IDX 10 14 11 15 25 16 27 17 12 18 24 19 23 20 13 21 21 22 14 23
REMARK SMILES IDX 15 24 20 25 22 26 16 27 19 28 17 29 18 30
REMARK H PARENT 18 31
REMARK Flexibility Score: inf
ROOT
ATOM      1  C   UNL     1     -11.544 -33.581 -13.901  1.00  0.00     0.004 C 
ENDROOT
BRANCH   1   2
ATOM      2  C   UNL     1     -12.630 -34.668 -14.053  1.00  0.00     0.004 C 
BRANCH   2   3
ATOM      3  C   UNL     1     -13.986 -34.103 -14.568  1.00  0.00    -0.009 C 
BRANCH   3   4
ATOM      4  C   UNL     1     -14.908 -33.746 -13.367  1.00  0.00     0.000 C 
ATOM      5  C   UNL     1     -15.531 -32.351 -13.463  1.00  0.00     0.004 C 
ENDBRANCH   3   4
BRANCH   3   6
ATOM      6  C   UNL     1     -14.679 -35.060 -15.596  1.00  0.00    -0.014 C 
ATOM      7  C   UNL     1     -13.750 -36.201 -16.045  1.00  0.00     0.007 C 
ATOM      8  C   UNL     1     -16.019 -35.632 -15.100  1.00  0.00     0.007 C 
ENDBRANCH   3   6
ENDBRANCH   2   3
ENDBRANCH   1   2
BRANCH   1   9
ATOM      9  C   UNL     1     -11.243 -33.233 -12.413  1.00  0.00    -0.011 C 
ATOM     10  C   UNL     1     -11.374 -34.509 -11.558  1.00  0.00     0.008 C 
BRANCH   9  11
ATOM     11  C   UNL     1     -12.194 -32.093 -11.902  1.00  0.00    -0.002 C 
ATOM     12  C   UNL     1     -12.627 -31.127 -13.042  1.00  0.00     0.005 C 
ATOM     13  C   UNL     1     -11.670 -31.127 -10.792  1.00  0.00    -0.026 C 
ATOM     14  C   UNL     1     -12.788 -29.730 -12.427  1.00  0.00     0.005 C 
ATOM     15  C   UNL     1     -12.681 -29.976 -10.934  1.00  0.00    -0.001 C 
ATOM     16  C   UNL     1     -11.797 -31.646  -9.336  1.00  0.00     0.007 C 
ATOM     17  C   UNL     1     -10.201 -30.687 -11.099  1.00  0.00     0.012 C 
ATOM     18  C   UNL     1     -12.389 -28.770 -10.012  1.00  0.00     0.000 C 
ATOM     19  C   UNL     1     -11.524 -30.520  -8.311  1.00  0.00     0.005 C 
ATOM     20  C   UNL     1     -12.406 -29.248  -8.532  1.00  0.00     0.003 C 
ATOM     21  C   UNL     1     -13.473 -27.696 -10.180  1.00  0.00     0.031 C 
ATOM     22  C   UNL     1     -12.111 -28.065  -7.518  1.00  0.00    -0.008 C 
ATOM     23  C   UNL     1     -13.260 -26.566  -9.223  1.00  0.00    -0.027 C 
ATOM     24  C   UNL     1     -12.691 -26.724  -8.008  1.00  0.00    -0.065 C 
ATOM     25  C   UNL     1     -10.576 -27.853  -7.314  1.00  0.00     0.014 C 
ATOM     26  C   UNL     1     -12.771 -28.425  -6.162  1.00  0.00     0.016 C 
ATOM     27  C   UNL     1     -12.376 -25.483  -7.198  1.00  0.00     0.063 C 
ATOM     28  C   UNL     1     -10.215 -26.590  -6.507  1.00  0.00     0.033 C 
ATOM     29  C   UNL     1     -10.853 -25.323  -7.095  1.00  0.00     0.118 C 
BRANCH  29  30
ATOM     30  O   UNL     1     -10.541 -24.230  -6.274  1.00  0.00    -0.393 OA
ATOM     31  H   UNL     1     -10.255 -23.492  -6.875  1.00  0.00     0.210 HD
ENDBRANCH  29  30
ENDBRANCH   9  11
ENDBRANCH   1   9
TORSDOF 7
ENDMDL
MODEL 4
REMARK VINA RESULT:    -7.330      2.867      4.942
REMARK INTER + INTRA:         -10.789
REMARK INTER:                  -9.881
REMARK INTRA:                  -0.907
REMARK UNBOUND:                -0.674
REMARK SMILES CC[C@@H](CC[C@H](C)[C@@H]1CC[C@@H]2[C@H]3CC=C4C[C@@H](O)CC[C@]4(C)[C@@H]3CC[C@]21C)C(C)C
REMARK SMILES IDX 5 1 4 2 3 3 2 4 1 5 28 6 29 7 30 8 6 9 7 10 8 11 9 12 26 13
REMARK SMILES IDX 10 14 11 15 25 16 27 17 12 18 24 19 23 20 13 21 21 22 14 23
REMARK SMILES IDX 15 24 20 25 22 26 16 27 19 28 17 29 18 30
REMARK H PARENT 18 31
REMARK Flexibility Score: inf
ROOT
ATOM      1  C   UNL     1     -10.529 -34.478  -8.974  1.00  0.00     0.004 C 
ENDROOT
BRANCH   1   2
ATOM      2  C   UNL     1      -9.877 -34.629 -10.366  1.00  0.00     0.004 C 
BRANCH   2   3
ATOM      3  C   UNL     1     -10.862 -35.175 -11.441  1.00  0.00    -0.009 C 
BRANCH   3   4
ATOM      4  C   UNL     1     -10.687 -36.712 -11.595  1.00  0.00     0.000 C 
ATOM      5  C   UNL     1      -9.975 -37.125 -12.886  1.00  0.00     0.004 C 
ENDBRANCH   3   4
BRANCH   3   6
ATOM      6  C   UNL     1     -10.738 -34.414 -12.805  1.00  0.00    -0.014 C 
ATOM      7  C   UNL     1     -12.101 -34.234 -13.495  1.00  0.00     0.007 C 
ATOM      8  C   UNL     1     -10.018 -33.059 -12.691  1.00  0.00     0.007 C 
ENDBRANCH   3   6
ENDBRANCH   2   3
ENDBRANCH   1   2
BRANCH   1   9
ATOM      9  C   UNL     1     -10.601 -32.997  -8.498  1.00  0.00    -0.011 C 
ATOM     10  C   UNL     1     -10.407 -32.946  -6.969  1.00  0.00     0.008 C 
BRANCH   9  11
ATOM     11  C   UNL     1     -11.957 -32.335  -8.932  1.00  0.00    -0.002 C 
ATOM     12  C   UNL     1     -12.801 -33.263  -9.853  1.00  0.00     0.005 C 
ATOM     13  C   UNL     1     -11.909 -30.990  -9.725  1.00  0.00    -0.026 C 
ATOM     14  C   UNL     1     -13.568 -32.367 -10.834  1.00  0.00     0.005 C 
ATOM     15  C   UNL     1     -13.335 -30.965 -10.303  1.00  0.00    -0.001 C 
ATOM     16  C   UNL     1     -11.763 -29.709  -8.864  1.00  0.00     0.007 C 
ATOM     17  C   UNL     1     -10.806 -31.046 -10.832  1.00  0.00     0.012 C 
ATOM     18  C   UNL     1     -13.607 -29.770 -11.246  1.00  0.00     0.000 C 
ATOM     19  C   UNL     1     -12.012 -28.434  -9.704  1.00  0.00     0.005 C 
ATOM     20  C   UNL     1     -13.379 -28.445 -10.462  1.00  0.00     0.003 C 
ATOM     21  C   UNL     1     -15.062 -29.794 -11.731  1.00  0.00     0.031 C 
ATOM     22  C   UNL     1     -13.635 -27.167 -11.364  1.00  0.00    -0.008 C 
ATOM     23  C   UNL     1     -15.369 -28.590 -12.564  1.00  0.00    -0.027 C 
ATOM     24  C   UNL     1     -14.770 -27.393 -12.383  1.00  0.00    -0.065 C 
ATOM     25  C   UNL     1     -12.361 -26.772 -12.177  1.00  0.00     0.014 C 
ATOM     26  C   UNL     1     -14.038 -25.997 -10.427  1.00  0.00     0.016 C 
ATOM     27  C   UNL     1     -15.039 -26.297 -13.393  1.00  0.00     0.063 C 
ATOM     28  C   UNL     1     -12.599 -25.669 -13.228  1.00  0.00     0.033 C 
ATOM     29  C   UNL     1     -13.752 -26.013 -14.180  1.00  0.00     0.118 C 
BRANCH  29  30
ATOM     30  O   UNL     1     -13.957 -24.940 -15.060  1.00  0.00    -0.393 OA
ATOM     31  H   UNL     1     -13.264 -25.012 -15.767  1.00  0.00     0.210 HD
ENDBRANCH  29  30
ENDBRANCH   9  11
ENDBRANCH   1   9
TORSDOF 7
ENDMDL
MODEL 5
REMARK VINA RESULT:    -7.093      2.467      4.457
REMARK INTER + INTRA:         -10.462
REMARK INTER:                 -10.165
REMARK INTRA:                  -0.297
REMARK UNBOUND:                -0.674
REMARK SMILES CC[C@@H](CC[C@H](C)[C@@H]1CC[C@@H]2[C@H]3CC=C4C[C@@H](O)CC[C@]4(C)[C@@H]3CC[C@]21C)C(C)C
REMARK SMILES IDX 5 1 4 2 3 3 2 4 1 5 28 6 29 7 30 8 6 9 7 10 8 11 9 12 26 13
REMARK SMILES IDX 10 14 11 15 25 16 27 17 12 18 24 19 23 20 13 21 21 22 14 23
REMARK SMILES IDX 15 24 20 25 22 26 16 27 19 28 17 29 18 30
REMARK H PARENT 18 31
REMARK Flexibility Score: inf
ROOT
ATOM      1  C   UNL     1     -11.270 -34.485 -11.517  1.00  0.00     0.004 C 
ENDROOT
BRANCH   1   2
ATOM      2  C   UNL     1     -10.821 -34.411 -12.993  1.00  0.00     0.004 C 
BRANCH   2   3
ATOM      3  C   UNL     1     -11.971 -33.995 -13.957  1.00  0.00    -0.009 C 
BRANCH   3   4
ATOM      4  C   UNL     1     -13.124 -33.326 -13.157  1.00  0.00     0.000 C 
ATOM      5  C   UNL     1     -13.232 -31.816 -13.378  1.00  0.00     0.004 C 
ENDBRANCH   3   4
BRANCH   3   6
ATOM      6  C   UNL     1     -12.465 -35.188 -14.844  1.00  0.00    -0.014 C 
ATOM      7  C   UNL     1     -12.097 -36.554 -14.238  1.00  0.00     0.007 C 
ATOM      8  C   UNL     1     -13.970 -35.138 -15.162  1.00  0.00     0.007 C 
ENDBRANCH   3   6
ENDBRANCH   2   3
ENDBRANCH   1   2
BRANCH   1   9
ATOM      9  C   UNL     1     -10.079 -34.682 -10.533  1.00  0.00    -0.011 C 
ATOM     10  C   UNL     1     -10.332 -35.941  -9.678  1.00  0.00     0.008 C 
BRANCH   9  11
ATOM     11  C   UNL     1      -9.875 -33.408  -9.639  1.00  0.00    -0.002 C 
ATOM     12  C   UNL     1     -10.020 -33.718  -8.122  1.00  0.00     0.005 C 
ATOM     13  C   UNL     1     -10.832 -32.191  -9.849  1.00  0.00    -0.026 C 
ATOM     14  C   UNL     1     -10.623 -32.477  -7.451  1.00  0.00     0.005 C 
ATOM     15  C   UNL     1     -10.583 -31.421  -8.540  1.00  0.00    -0.001 C 
ATOM     16  C   UNL     1     -10.448 -31.227 -11.003  1.00  0.00     0.007 C 
ATOM     17  C   UNL     1     -12.310 -32.675  -9.997  1.00  0.00     0.012 C 
ATOM     18  C   UNL     1     -11.470 -30.165  -8.375  1.00  0.00     0.000 C 
ATOM     19  C   UNL     1     -11.277 -29.922 -10.945  1.00  0.00     0.005 C 
ATOM     20  C   UNL     1     -11.201 -29.197  -9.563  1.00  0.00     0.003 C 
ATOM     21  C   UNL     1     -11.118 -29.433  -7.072  1.00  0.00     0.031 C 
ATOM     22  C   UNL     1     -12.078 -27.879  -9.469  1.00  0.00    -0.008 C 
ATOM     23  C   UNL     1     -11.897 -28.161  -6.946  1.00  0.00    -0.027 C 
ATOM     24  C   UNL     1     -12.296 -27.431  -8.010  1.00  0.00    -0.065 C 
ATOM     25  C   UNL     1     -13.492 -28.084 -10.101  1.00  0.00     0.014 C 
ATOM     26  C   UNL     1     -11.327 -26.753 -10.226  1.00  0.00     0.016 C 
ATOM     27  C   UNL     1     -13.220 -26.255  -7.765  1.00  0.00     0.063 C 
ATOM     28  C   UNL     1     -14.467 -26.913  -9.859  1.00  0.00     0.033 C 
ATOM     29  C   UNL     1     -14.597 -26.564  -8.370  1.00  0.00     0.118 C 
BRANCH  29  30
ATOM     30  O   UNL     1     -15.440 -25.452  -8.232  1.00  0.00    -0.393 OA
ATOM     31  H   UNL     1     -16.107 -25.504  -8.966  1.00  0.00     0.210 HD
ENDBRANCH  29  30
ENDBRANCH   9  11
ENDBRANCH   1   9
TORSDOF 7
ENDMDL
MODEL 6
REMARK VINA RESULT:    -7.071      2.948      8.348
REMARK INTER + INTRA:         -10.431
REMARK INTER:                  -9.248
REMARK INTRA:                  -1.183
REMARK UNBOUND:                -0.674
REMARK SMILES CC[C@@H](CC[C@H](C)[C@@H]1CC[C@@H]2[C@H]3CC=C4C[C@@H](O)CC[C@]4(C)[C@@H]3CC[C@]21C)C(C)C
REMARK SMILES IDX 5 1 4 2 3 3 2 4 1 5 28 6 29 7 30 8 6 9 7 10 8 11 9 12 26 13
REMARK SMILES IDX 10 14 11 15 25 16 27 17 12 18 24 19 23 20 13 21 21 22 14 23
REMARK SMILES IDX 15 24 20 25 22 26 16 27 19 28 17 29 18 30
REMARK H PARENT 18 31
REMARK Flexibility Score: inf
ROOT
ATOM      1  C   UNL     1     -14.394 -26.450  -7.526  1.00  0.00     0.004 C 
ENDROOT
BRANCH   1   2
ATOM      2  C   UNL     1     -13.053 -25.865  -8.021  1.00  0.00     0.004 C 
BRANCH   2   3
ATOM      3  C   UNL     1     -11.957 -25.840  -6.916  1.00  0.00    -0.009 C 
BRANCH   3   4
ATOM      4  C   UNL     1     -11.702 -24.380  -6.447  1.00  0.00     0.000 C 
ATOM      5  C   UNL     1     -10.235 -23.953  -6.533  1.00  0.00     0.004 C 
ENDBRANCH   3   4
BRANCH   3   6
ATOM      6  C   UNL     1     -10.644 -26.568  -7.363  1.00  0.00    -0.014 C 
ATOM      7  C   UNL     1     -10.399 -27.864  -6.571  1.00  0.00     0.007 C 
ATOM      8  C   UNL     1     -10.579 -26.851  -8.875  1.00  0.00     0.007 C 
ENDBRANCH   3   6
ENDBRANCH   2   3
ENDBRANCH   1   2
BRANCH   1   9
ATOM      9  C   UNL     1     -14.596 -27.937  -7.944  1.00  0.00    -0.011 C 
ATOM     10  C   UNL     1     -13.905 -28.851  -6.912  1.00  0.00     0.008 C 
BRANCH   9  11
ATOM     11  C   UNL     1     -14.052 -28.188  -9.395  1.00  0.00    -0.002 C 
ATOM     12  C   UNL     1     -15.104 -27.846 -10.489  1.00  0.00     0.005 C 
ATOM     13  C   UNL     1     -13.592 -29.631  -9.779  1.00  0.00    -0.026 C 
ATOM     14  C   UNL     1     -14.886 -28.815 -11.659  1.00  0.00     0.005 C 
ATOM     15  C   UNL     1     -13.586 -29.515 -11.313  1.00  0.00    -0.001 C 
ATOM     16  C   UNL     1     -12.147 -30.007  -9.361  1.00  0.00     0.007 C 
ATOM     17  C   UNL     1     -14.616 -30.689  -9.254  1.00  0.00     0.012 C 
ATOM     18  C   UNL     1     -13.251 -30.839 -12.038  1.00  0.00     0.000 C 
ATOM     19  C   UNL     1     -11.694 -31.327 -10.028  1.00  0.00     0.005 C 
ATOM     20  C   UNL     1     -11.843 -31.323 -11.584  1.00  0.00     0.003 C 
ATOM     21  C   UNL     1     -13.213 -30.619 -13.557  1.00  0.00     0.031 C 
ATOM     22  C   UNL     1     -11.425 -32.682 -12.284  1.00  0.00    -0.008 C 
ATOM     23  C   UNL     1     -12.793 -31.867 -14.268  1.00  0.00    -0.027 C 
ATOM     24  C   UNL     1     -11.957 -32.779 -13.727  1.00  0.00    -0.065 C 
ATOM     25  C   UNL     1     -11.978 -33.921 -11.508  1.00  0.00     0.014 C 
ATOM     26  C   UNL     1      -9.875 -32.741 -12.322  1.00  0.00     0.016 C 
ATOM     27  C   UNL     1     -11.737 -34.080 -14.473  1.00  0.00     0.063 C 
ATOM     28  C   UNL     1     -11.787 -35.263 -12.244  1.00  0.00     0.033 C 
ATOM     29  C   UNL     1     -12.357 -35.231 -13.669  1.00  0.00     0.118 C 
BRANCH  29  30
ATOM     30  O   UNL     1     -12.086 -36.454 -14.299  1.00  0.00    -0.393 OA
ATOM     31  H   UNL     1     -12.924 -36.987 -14.261  1.00  0.00     0.210 HD
ENDBRANCH  29  30
ENDBRANCH   9  11
ENDBRANCH   1   9
TORSDOF 7
ENDMDL
MODEL 7
REMARK VINA RESULT:    -6.902      1.598      2.552
REMARK INTER + INTRA:         -10.198
REMARK INTER:                  -9.618
REMARK INTRA:                  -0.580
REMARK UNBOUND:                -0.674
REMARK SMILES CC[C@@H](CC[C@H](C)[C@@H]1CC[C@@H]2[C@H]3CC=C4C[C@@H](O)CC[C@]4(C)[C@@H]3CC[C@]21C)C(C)C
REMARK SMILES IDX 5 1 4 2 3 3 2 4 1 5 28 6 29 7 30 8 6 9 7 10 8 11 9 12 26 13
REMARK SMILES IDX 10 14 11 15 25 16 27 17 12 18 24 19 23 20 13 21 21 22 14 23
REMARK SMILES IDX 15 24 20 25 22 26 16 27 19 28 17 29 18 30
REMARK H PARENT 18 31
REMARK Flexibility Score: inf
ROOT
ATOM      1  C   UNL     1     -15.210 -32.783 -13.674  1.00  0.00     0.004 C 
ENDROOT
BRANCH   1   2
ATOM      2  C   UNL     1     -14.972 -34.309 -13.662  1.00  0.00     0.004 C 
BRANCH   2   3
ATOM      3  C   UNL     1     -15.362 -34.994 -15.005  1.00  0.00    -0.009 C 
BRANCH   3   4
ATOM      4  C   UNL     1     -16.504 -36.023 -14.770  1.00  0.00     0.000 C 
ATOM      5  C   UNL     1     -17.515 -35.589 -13.706  1.00  0.00     0.004 C 
ENDBRANCH   3   4
BRANCH   3   6
ATOM      6  C   UNL     1     -14.126 -35.622 -15.734  1.00  0.00    -0.014 C 
ATOM      7  C   UNL     1     -14.078 -35.246 -17.226  1.00  0.00     0.007 C 
ATOM      8  C   UNL     1     -12.781 -35.295 -15.062  1.00  0.00     0.007 C 
ENDBRANCH   3   6
ENDBRANCH   2   3
ENDBRANCH   1   2
BRANCH   1   9
ATOM      9  C   UNL     1     -14.034 -31.984 -13.038  1.00  0.00    -0.011 C 
ATOM     10  C   UNL     1     -13.032 -32.973 -12.410  1.00  0.00     0.008 C 
BRANCH   9  11
ATOM     11  C   UNL     1     -14.566 -30.951 -11.983  1.00  0.00    -0.002 C 
ATOM     12  C   UNL     1     -15.398 -29.810 -12.638  1.00  0.00     0.005 C 
ATOM     13  C   UNL     1     -13.528 -30.179 -11.107  1.00  0.00    -0.026 C 
ATOM     14  C   UNL     1     -15.163 -28.536 -11.816  1.00  0.00     0.005 C 
ATOM     15  C   UNL     1     -14.409 -29.026 -10.594  1.00  0.00    -0.001 C 
ATOM     16  C   UNL     1     -13.019 -30.934  -9.850  1.00  0.00     0.007 C 
ATOM     17  C   UNL     1     -12.331 -29.686 -11.983  1.00  0.00     0.012 C 
ATOM     18  C   UNL     1     -13.645 -27.988  -9.740  1.00  0.00     0.000 C 
ATOM     19  C   UNL     1     -12.231 -29.992  -8.910  1.00  0.00     0.005 C 
ATOM     20  C   UNL     1     -13.024 -28.707  -8.507  1.00  0.00     0.003 C 
ATOM     21  C   UNL     1     -14.608 -26.908  -9.228  1.00  0.00     0.031 C 
ATOM     22  C   UNL     1     -12.217 -27.707  -7.578  1.00  0.00    -0.008 C 
ATOM     23  C   UNL     1     -13.904 -25.951  -8.318  1.00  0.00    -0.027 C 
ATOM     24  C   UNL     1     -12.858 -26.306  -7.539  1.00  0.00    -0.065 C 
ATOM     25  C   UNL     1     -10.746 -27.524  -8.071  1.00  0.00     0.014 C 
ATOM     26  C   UNL     1     -12.215 -28.291  -6.140  1.00  0.00     0.016 C 
ATOM     27  C   UNL     1     -12.123 -25.215  -6.787  1.00  0.00     0.063 C 
ATOM     28  C   UNL     1      -9.969 -26.410  -7.340  1.00  0.00     0.033 C 
ATOM     29  C   UNL     1     -10.711 -25.067  -7.372  1.00  0.00     0.118 C 
BRANCH  29  30
ATOM     30  O   UNL     1      -9.984 -24.124  -6.632  1.00  0.00    -0.393 OA
ATOM     31  H   UNL     1      -9.126 -24.556  -6.379  1.00  0.00     0.210 HD
ENDBRANCH  29  30
ENDBRANCH   9  11
ENDBRANCH   1   9
TORSDOF 7
ENDMDL
MODEL 8
REMARK VINA RESULT:    -6.684      1.466      2.890
REMARK INTER + INTRA:          -9.898
REMARK INTER:                  -9.191
REMARK INTRA:                  -0.707
REMARK UNBOUND:                -0.674
REMARK SMILES CC[C@@H](CC[C@H](C)[C@@H]1CC[C@@H]2[C@H]3CC=C4C[C@@H](O)CC[C@]4(C)[C@@H]3CC[C@]21C)C(C)C
REMARK SMILES IDX 5 1 4 2 3 3 2 4 1 5 28 6 29 7 30 8 6 9 7 10 8 11 9 12 26 13
REMARK SMILES IDX 10 14 11 15 25 16 27 17 12 18 24 19 23 20 13 21 21 22 14 23
REMARK SMILES IDX 15 24 20 25 22 26 16 27 19 28 17 29 18 30
REMARK H PARENT 18 31
REMARK Flexibility Score: inf
ROOT
ATOM      1  C   UNL     1     -14.049 -33.248 -13.493  1.00  0.00     0.004 C 
ENDROOT
BRANCH   1   2
ATOM      2  C   UNL     1     -12.602 -33.035 -13.991  1.00  0.00     0.004 C 
BRANCH   2   3
ATOM      3  C   UNL     1     -11.945 -34.343 -14.520  1.00  0.00    -0.009 C 
BRANCH   3   4
ATOM      4  C   UNL     1     -13.004 -35.479 -14.606  1.00  0.00     0.000 C 
ATOM      5  C   UNL     1     -13.618 -35.644 -15.998  1.00  0.00     0.004 C 
ENDBRANCH   3   4
BRANCH   3   6
ATOM      6  C   UNL     1     -10.685 -34.756 -13.685  1.00  0.00    -0.014 C 
ATOM      7  C   UNL     1     -10.000 -33.544 -13.029  1.00  0.00     0.007 C 
ATOM      8  C   UNL     1     -10.972 -35.838 -12.629  1.00  0.00     0.007 C 
ENDBRANCH   3   6
ENDBRANCH   2   3
ENDBRANCH   1   2
BRANCH   1   9
ATOM      9  C   UNL     1     -14.386 -32.393 -12.235  1.00  0.00    -0.011 C 
ATOM     10  C   UNL     1     -15.156 -31.131 -12.673  1.00  0.00     0.008 C 
BRANCH   9  11
ATOM     11  C   UNL     1     -13.082 -32.030 -11.440  1.00  0.00    -0.002 C 
ATOM     12  C   UNL     1     -12.816 -33.007 -10.260  1.00  0.00     0.005 C 
ATOM     13  C   UNL     1     -12.987 -30.623 -10.768  1.00  0.00    -0.026 C 
ATOM     14  C   UNL     1     -12.145 -32.205  -9.137  1.00  0.00     0.005 C 
ATOM     15  C   UNL     1     -11.831 -30.869  -9.783  1.00  0.00    -0.001 C 
ATOM     16  C   UNL     1     -12.534 -29.465 -11.696  1.00  0.00     0.007 C 
ATOM     17  C   UNL     1     -14.331 -30.267 -10.052  1.00  0.00     0.012 C 
ATOM     18  C   UNL     1     -11.526 -29.664  -8.864  1.00  0.00     0.000 C 
ATOM     19  C   UNL     1     -12.198 -28.192 -10.885  1.00  0.00     0.005 C 
ATOM     20  C   UNL     1     -11.157 -28.436  -9.745  1.00  0.00     0.003 C 
ATOM     21  C   UNL     1     -10.329 -29.978  -7.955  1.00  0.00     0.031 C 
ATOM     22  C   UNL     1     -10.831 -27.153  -8.873  1.00  0.00    -0.008 C 
ATOM     23  C   UNL     1      -9.957 -28.787  -7.129  1.00  0.00    -0.027 C 
ATOM     24  C   UNL     1     -10.136 -27.514  -7.545  1.00  0.00    -0.065 C 
ATOM     25  C   UNL     1     -12.128 -26.360  -8.510  1.00  0.00     0.014 C 
ATOM     26  C   UNL     1      -9.880 -26.246  -9.699  1.00  0.00     0.016 C 
ATOM     27  C   UNL     1      -9.878 -26.395  -6.558  1.00  0.00     0.063 C 
ATOM     28  C   UNL     1     -11.907 -25.222  -7.493  1.00  0.00     0.033 C 
ATOM     29  C   UNL     1     -11.208 -25.709  -6.217  1.00  0.00     0.118 C 
BRANCH  29  30
ATOM     30  O   UNL     1     -10.979 -24.613  -5.373  1.00  0.00    -0.393 OA
ATOM     31  H   UNL     1     -10.003 -24.429  -5.399  1.00  0.00     0.210 HD
ENDBRANCH  29  30
ENDBRANCH   9  11
ENDBRANCH   1   9
TORSDOF 7
ENDMDL
