MODEL 1
REMARK VINA RESULT:    -4.671      0.000      0.000
REMARK INTER + INTRA:          -4.671
REMARK INTER:                  -4.671
REMARK INTRA:                   0.000
REMARK UNBOUND:                 0.000
REMARK SMILES CC1=CC[C@@]23C[C@@H]1C(C)(C)[C@@H]2CC[C@H]3C
REMARK SMILES IDX 15 1 14 2 13 3 12 4 11 5 5 6 4 7 3 8 2 9 7 10 6 11 8 12 9 13
REMARK SMILES IDX 10 14 1 15
REMARK H PARENT
REMARK Flexibility Score: inf
ROOT
ATOM      1  C   UNL     1      52.998  45.678  42.361  1.00  0.00     0.008 C 
ATOM      2  C   UNL     1      54.212  44.830  41.951  1.00  0.00    -0.007 C 
ATOM      3  C   UNL     1      54.015  43.361  42.330  1.00  0.00     0.004 C 
ATOM      4  C   UNL     1      55.418  42.795  42.442  1.00  0.00     0.005 C 
ATOM      5  C   UNL     1      56.233  43.930  43.075  1.00  0.00     0.002 C 
ATOM      6  C   UNL     1      55.586  45.240  42.569  1.00  0.00    -0.020 C 
ATOM      7  C   UNL     1      55.530  46.295  43.725  1.00  0.00     0.035 C 
ATOM      8  C   UNL     1      56.910  46.791  44.125  1.00  0.00    -0.027 C 
ATOM      9  C   UNL     1      58.011  46.498  43.394  1.00  0.00    -0.074 C 
ATOM     10  C   UNL     1      57.911  45.501  42.237  1.00  0.00     0.021 C 
ATOM     11  C   UNL     1      56.585  45.756  41.525  1.00  0.00     0.016 C 
ATOM     12  C   UNL     1      57.765  44.034  42.746  1.00  0.00    -0.025 C 
ATOM     13  C   UNL     1      58.252  43.060  41.640  1.00  0.00     0.012 C 
ATOM     14  C   UNL     1      58.615  43.741  44.008  1.00  0.00     0.012 C 
ATOM     15  C   UNL     1      59.334  47.114  43.756  1.00  0.00     0.039 C 
ENDROOT
TORSDOF 0
ENDMDL
MODEL 2
REMARK VINA RESULT:    -4.618      1.415      4.807
REMARK INTER + INTRA:          -4.618
REMARK INTER:                  -4.618
REMARK INTRA:                   0.000
REMARK UNBOUND:                 0.000
REMARK SMILES CC1=CC[C@@]23C[C@@H]1C(C)(C)[C@@H]2CC[C@H]3C
REMARK SMILES IDX 15 1 14 2 13 3 12 4 11 5 5 6 4 7 3 8 2 9 7 10 6 11 8 12 9 13
REMARK SMILES IDX 10 14 1 15
REMARK H PARENT
REMARK Flexibility Score: inf
ROOT
ATOM      1  C   UNL     1      61.178  43.322  43.517  1.00  0.00     0.008 C 
ATOM      2  C   UNL     1      60.270  44.503  43.140  1.00  0.00    -0.007 C 
ATOM      3  C   UNL     1      60.442  45.667  44.118  1.00  0.00     0.004 C 
ATOM      4  C   UNL     1      59.147  46.451  44.024  1.00  0.00     0.005 C 
ATOM      5  C   UNL     1      58.065  45.375  43.870  1.00  0.00     0.002 C 
ATOM      6  C   UNL     1      58.736  44.215  43.099  1.00  0.00    -0.020 C 
ATOM      7  C   UNL     1      58.281  42.839  43.692  1.00  0.00     0.035 C 
ATOM      8  C   UNL     1      56.813  42.550  43.426  1.00  0.00    -0.027 C 
ATOM      9  C   UNL     1      56.079  43.312  42.582  1.00  0.00    -0.074 C 
ATOM     10  C   UNL     1      56.674  44.603  42.013  1.00  0.00     0.021 C 
ATOM     11  C   UNL     1      58.140  44.328  41.690  1.00  0.00     0.016 C 
ATOM     12  C   UNL     1      56.752  45.731  43.086  1.00  0.00    -0.025 C 
ATOM     13  C   UNL     1      56.781  47.110  42.376  1.00  0.00     0.012 C 
ATOM     14  C   UNL     1      55.532  45.744  44.042  1.00  0.00     0.012 C 
ATOM     15  C   UNL     1      54.667  42.915  42.252  1.00  0.00     0.039 C 
ENDROOT
TORSDOF 0
ENDMDL
MODEL 3
REMARK VINA RESULT:    -4.130      1.754      2.529
REMARK INTER + INTRA:          -4.130
REMARK INTER:                  -4.130
REMARK INTRA:                   0.000
REMARK UNBOUND:                 0.000
REMARK SMILES CC1=CC[C@@]23C[C@@H]1C(C)(C)[C@@H]2CC[C@H]3C
REMARK SMILES IDX 15 1 14 2 13 3 12 4 11 5 5 6 4 7 3 8 2 9 7 10 6 11 8 12 9 13
REMARK SMILES IDX 10 14 1 15
REMARK H PARENT
REMARK Flexibility Score: inf
ROOT
ATOM      1  C   UNL     1      55.799  46.437  42.656  1.00  0.00     0.008 C 
ATOM      2  C   UNL     1      56.541  45.250  42.023  1.00  0.00    -0.007 C 
ATOM      3  C   UNL     1      55.779  43.942  42.240  1.00  0.00     0.004 C 
ATOM      4  C   UNL     1      56.831  42.854  42.137  1.00  0.00     0.005 C 
ATOM      5  C   UNL     1      58.067  43.460  42.813  1.00  0.00     0.002 C 
ATOM      6  C   UNL     1      57.989  44.979  42.539  1.00  0.00    -0.020 C 
ATOM      7  C   UNL     1      58.422  45.780  43.814  1.00  0.00     0.035 C 
ATOM      8  C   UNL     1      59.901  45.619  44.125  1.00  0.00    -0.027 C 
ATOM      9  C   UNL     1      60.752  45.027  43.254  1.00  0.00    -0.074 C 
ATOM     10  C   UNL     1      60.200  44.340  42.002  1.00  0.00     0.021 C 
ATOM     11  C   UNL     1      59.063  45.208  41.467  1.00  0.00     0.016 C 
ATOM     12  C   UNL     1      59.490  42.994  42.342  1.00  0.00    -0.025 C 
ATOM     13  C   UNL     1      59.486  42.088  41.082  1.00  0.00     0.012 C 
ATOM     14  C   UNL     1      60.204  42.199  43.464  1.00  0.00     0.012 C 
ATOM     15  C   UNL     1      62.226  45.003  43.548  1.00  0.00     0.039 C 
ENDROOT
TORSDOF 0
ENDMDL
MODEL 4
REMARK VINA RESULT:    -4.080     21.897     24.128
REMARK INTER + INTRA:          -4.080
REMARK INTER:                  -4.080
REMARK INTRA:                   0.000
REMARK UNBOUND:                 0.000
REMARK SMILES CC1=CC[C@@]23C[C@@H]1C(C)(C)[C@@H]2CC[C@H]3C
REMARK SMILES IDX 15 1 14 2 13 3 12 4 11 5 5 6 4 7 3 8 2 9 7 10 6 11 8 12 9 13
REMARK SMILES IDX 10 14 1 15
REMARK H PARENT
REMARK Flexibility Score: inf
ROOT
ATOM      1  C   UNL     1      57.633  26.890  25.455  1.00  0.00     0.008 C 
ATOM      2  C   UNL     1      56.936  28.234  25.719  1.00  0.00    -0.007 C 
ATOM      3  C   UNL     1      57.123  28.679  27.170  1.00  0.00     0.004 C 
ATOM      4  C   UNL     1      55.960  29.611  27.446  1.00  0.00     0.005 C 
ATOM      5  C   UNL     1      54.780  28.975  26.700  1.00  0.00     0.002 C 
ATOM      6  C   UNL     1      55.396  28.280  25.463  1.00  0.00    -0.020 C 
ATOM      7  C   UNL     1      54.701  26.899  25.218  1.00  0.00     0.035 C 
ATOM      8  C   UNL     1      53.255  27.049  24.774  1.00  0.00    -0.027 C 
ATOM      9  C   UNL     1      52.737  28.251  24.429  1.00  0.00    -0.074 C 
ATOM     10  C   UNL     1      53.557  29.524  24.654  1.00  0.00     0.021 C 
ATOM     11  C   UNL     1      55.008  29.203  24.301  1.00  0.00     0.016 C 
ATOM     12  C   UNL     1      53.635  29.905  26.164  1.00  0.00    -0.025 C 
ATOM     13  C   UNL     1      53.928  31.424  26.291  1.00  0.00     0.012 C 
ATOM     14  C   UNL     1      52.312  29.637  26.926  1.00  0.00     0.012 C 
ATOM     15  C   UNL     1      51.342  28.333  23.875  1.00  0.00     0.039 C 
ENDROOT
TORSDOF 0
ENDMDL
MODEL 5
REMARK VINA RESULT:    -3.815      1.088      3.072
REMARK INTER + INTRA:          -3.815
REMARK INTER:                  -3.815
REMARK INTRA:                   0.000
REMARK UNBOUND:                 0.000
REMARK SMILES CC1=CC[C@@]23C[C@@H]1C(C)(C)[C@@H]2CC[C@H]3C
REMARK SMILES IDX 15 1 14 2 13 3 12 4 11 5 5 6 4 7 3 8 2 9 7 10 6 11 8 12 9 13
REMARK SMILES IDX 10 14 1 15
REMARK H PARENT
REMARK Flexibility Score: inf
ROOT
ATOM      1  C   UNL     1      54.218  42.252  42.253  1.00  0.00     0.008 C 
ATOM      2  C   UNL     1      54.666  43.582  42.878  1.00  0.00    -0.007 C 
ATOM      3  C   UNL     1      53.928  44.765  42.247  1.00  0.00     0.004 C 
ATOM      4  C   UNL     1      54.836  45.958  42.476  1.00  0.00     0.005 C 
ATOM      5  C   UNL     1      56.252  45.397  42.288  1.00  0.00     0.002 C 
ATOM      6  C   UNL     1      56.184  43.928  42.763  1.00  0.00    -0.020 C 
ATOM      7  C   UNL     1      57.025  43.013  41.810  1.00  0.00     0.035 C 
ATOM      8  C   UNL     1      58.517  43.282  41.915  1.00  0.00    -0.027 C 
ATOM      9  C   UNL     1      59.031  44.068  42.890  1.00  0.00    -0.074 C 
ATOM     10  C   UNL     1      58.091  44.855  43.806  1.00  0.00     0.021 C 
ATOM     11  C   UNL     1      56.898  43.955  44.121  1.00  0.00     0.016 C 
ATOM     12  C   UNL     1      57.438  46.064  43.069  1.00  0.00    -0.025 C 
ATOM     13  C   UNL     1      57.004  47.125  44.115  1.00  0.00     0.012 C 
ATOM     14  C   UNL     1      58.408  46.772  42.088  1.00  0.00     0.012 C 
ATOM     15  C   UNL     1      60.522  44.204  43.032  1.00  0.00     0.039 C 
ENDROOT
TORSDOF 0
ENDMDL
MODEL 6
REMARK VINA RESULT:    -3.791     22.104     23.742
REMARK INTER + INTRA:          -3.791
REMARK INTER:                  -3.791
REMARK INTRA:                   0.000
REMARK UNBOUND:                 0.000
REMARK SMILES CC1=CC[C@@]23C[C@@H]1C(C)(C)[C@@H]2CC[C@H]3C
REMARK SMILES IDX 15 1 14 2 13 3 12 4 11 5 5 6 4 7 3 8 2 9 7 10 6 11 8 12 9 13
REMARK SMILES IDX 10 14 1 15
REMARK H PARENT
REMARK Flexibility Score: inf
ROOT
ATOM      1  C   UNL     1      57.366  27.316  26.441  1.00  0.00     0.008 C 
ATOM      2  C   UNL     1      56.371  28.137  25.606  1.00  0.00    -0.007 C 
ATOM      3  C   UNL     1      56.866  29.570  25.405  1.00  0.00     0.004 C 
ATOM      4  C   UNL     1      55.614  30.382  25.137  1.00  0.00     0.005 C 
ATOM      5  C   UNL     1      54.559  29.768  26.066  1.00  0.00     0.002 C 
ATOM      6  C   UNL     1      54.926  28.271  26.180  1.00  0.00    -0.020 C 
ATOM      7  C   UNL     1      54.726  27.777  27.653  1.00  0.00     0.035 C 
ATOM      8  C   UNL     1      53.262  27.748  28.061  1.00  0.00    -0.027 C 
ATOM      9  C   UNL     1      52.268  27.921  27.159  1.00  0.00    -0.074 C 
ATOM     10  C   UNL     1      52.608  28.334  25.724  1.00  0.00     0.021 C 
ATOM     11  C   UNL     1      53.867  27.574  25.315  1.00  0.00     0.016 C 
ATOM     12  C   UNL     1      53.050  29.827  25.638  1.00  0.00    -0.025 C 
ATOM     13  C   UNL     1      52.810  30.347  24.196  1.00  0.00     0.012 C 
ATOM     14  C   UNL     1      52.248  30.753  26.588  1.00  0.00     0.012 C 
ATOM     15  C   UNL     1      50.835  27.758  27.584  1.00  0.00     0.039 C 
ENDROOT
TORSDOF 0
ENDMDL
MODEL 7
REMARK VINA RESULT:    -3.691     18.483     20.703
REMARK INTER + INTRA:          -3.691
REMARK INTER:                  -3.691
REMARK INTRA:                   0.000
REMARK UNBOUND:                 0.000
REMARK SMILES CC1=CC[C@@]23C[C@@H]1C(C)(C)[C@@H]2CC[C@H]3C
REMARK SMILES IDX 15 1 14 2 13 3 12 4 11 5 5 6 4 7 3 8 2 9 7 10 6 11 8 12 9 13
REMARK SMILES IDX 10 14 1 15
REMARK H PARENT
REMARK Flexibility Score: inf
ROOT
ATOM      1  C   UNL     1      50.321  29.248  26.959  1.00  0.00     0.008 C 
ATOM      2  C   UNL     1      50.622  30.343  27.995  1.00  0.00    -0.007 C 
ATOM      3  C   UNL     1      50.413  29.829  29.420  1.00  0.00     0.004 C 
ATOM      4  C   UNL     1      50.145  31.071  30.248  1.00  0.00     0.005 C 
ATOM      5  C   UNL     1      49.298  31.962  29.330  1.00  0.00     0.002 C 
ATOM      6  C   UNL     1      49.772  31.649  27.892  1.00  0.00    -0.020 C 
ATOM      7  C   UNL     1      48.545  31.593  26.920  1.00  0.00     0.035 C 
ATOM      8  C   UNL     1      47.901  32.955  26.721  1.00  0.00    -0.027 C 
ATOM      9  C   UNL     1      48.484  34.091  27.171  1.00  0.00    -0.074 C 
ATOM     10  C   UNL     1      49.729  34.005  28.058  1.00  0.00     0.021 C 
ATOM     11  C   UNL     1      50.604  32.880  27.512  1.00  0.00     0.016 C 
ATOM     12  C   UNL     1      49.384  33.520  29.499  1.00  0.00    -0.025 C 
ATOM     13  C   UNL     1      50.489  34.000  30.476  1.00  0.00     0.012 C 
ATOM     14  C   UNL     1      48.042  34.088  30.026  1.00  0.00     0.012 C 
ATOM     15  C   UNL     1      47.875  35.425  26.841  1.00  0.00     0.039 C 
ENDROOT
TORSDOF 0
ENDMDL
MODEL 8
REMARK VINA RESULT:    -3.671     18.452     20.695
REMARK INTER + INTRA:          -3.671
REMARK INTER:                  -3.671
REMARK INTRA:                   0.000
REMARK UNBOUND:                 0.000
REMARK SMILES CC1=CC[C@@]23C[C@@H]1C(C)(C)[C@@H]2CC[C@H]3C
REMARK SMILES IDX 15 1 14 2 13 3 12 4 11 5 5 6 4 7 3 8 2 9 7 10 6 11 8 12 9 13
REMARK SMILES IDX 10 14 1 15
REMARK H PARENT
REMARK Flexibility Score: inf
ROOT
ATOM      1  C   UNL     1      52.181  35.126  28.402  1.00  0.00     0.008 C 
ATOM      2  C   UNL     1      50.997  34.356  29.007  1.00  0.00    -0.007 C 
ATOM      3  C   UNL     1      51.256  34.007  30.473  1.00  0.00     0.004 C 
ATOM      4  C   UNL     1      50.376  32.803  30.750  1.00  0.00     0.005 C 
ATOM      5  C   UNL     1      50.446  31.979  29.458  1.00  0.00     0.002 C 
ATOM      6  C   UNL     1      50.620  33.007  28.317  1.00  0.00    -0.020 C 
ATOM      7  C   UNL     1      51.641  32.470  27.258  1.00  0.00     0.035 C 
ATOM      8  C   UNL     1      51.104  31.274  26.489  1.00  0.00    -0.027 C 
ATOM      9  C   UNL     1      49.809  30.891  26.583  1.00  0.00    -0.074 C 
ATOM     10  C   UNL     1      48.894  31.553  27.616  1.00  0.00     0.021 C 
ATOM     11  C   UNL     1      49.239  33.040  27.648  1.00  0.00     0.016 C 
ATOM     12  C   UNL     1      49.219  31.082  29.067  1.00  0.00    -0.025 C 
ATOM     13  C   UNL     1      47.966  31.281  29.960  1.00  0.00     0.012 C 
ATOM     14  C   UNL     1      49.593  29.580  29.148  1.00  0.00     0.012 C 
ATOM     15  C   UNL     1      49.293  29.782  25.709  1.00  0.00     0.039 C 
ENDROOT
TORSDOF 0
ENDMDL
MODEL 9
REMARK VINA RESULT:    -3.461     18.727     20.928
REMARK INTER + INTRA:          -3.461
REMARK INTER:                  -3.461
REMARK INTRA:                   0.000
REMARK UNBOUND:                 0.000
REMARK SMILES CC1=CC[C@@]23C[C@@H]1C(C)(C)[C@@H]2CC[C@H]3C
REMARK SMILES IDX 15 1 14 2 13 3 12 4 11 5 5 6 4 7 3 8 2 9 7 10 6 11 8 12 9 13
REMARK SMILES IDX 10 14 1 15
REMARK H PARENT
REMARK Flexibility Score: inf
ROOT
ATOM      1  C   UNL     1      50.862  32.841  31.000  1.00  0.00     0.008 C 
ATOM      2  C   UNL     1      50.126  33.610  29.893  1.00  0.00    -0.007 C 
ATOM      3  C   UNL     1      48.654  33.824  30.253  1.00  0.00     0.004 C 
ATOM      4  C   UNL     1      47.951  34.014  28.923  1.00  0.00     0.005 C 
ATOM      5  C   UNL     1      48.657  33.032  27.979  1.00  0.00     0.002 C 
ATOM      6  C   UNL     1      50.118  32.953  28.477  1.00  0.00    -0.020 C 
ATOM      7  C   UNL     1      50.634  31.476  28.404  1.00  0.00     0.035 C 
ATOM      8  C   UNL     1      50.790  30.986  26.974  1.00  0.00    -0.027 C 
ATOM      9  C   UNL     1      50.698  31.829  25.919  1.00  0.00    -0.074 C 
ATOM     10  C   UNL     1      50.251  33.276  26.140  1.00  0.00     0.021 C 
ATOM     11  C   UNL     1      50.898  33.764  27.434  1.00  0.00     0.016 C 
ATOM     12  C   UNL     1      48.725  33.373  26.448  1.00  0.00    -0.025 C 
ATOM     13  C   UNL     1      48.221  34.794  26.082  1.00  0.00     0.012 C 
ATOM     14  C   UNL     1      47.875  32.370  25.626  1.00  0.00     0.012 C 
ATOM     15  C   UNL     1      50.984  31.325  24.532  1.00  0.00     0.039 C 
ENDROOT
TORSDOF 0
ENDMDL
