MODEL 1
REMARK VINA RESULT:    -6.476      0.000      0.000
REMARK INTER + INTRA:          -8.113
REMARK INTER:                  -7.801
REMARK INTRA:                  -0.312
REMARK UNBOUND:                -0.312
REMARK SMILES O=c1c(O)c(-c2ccc(O)c(O)c2)oc2cc(O)cc(O)c12
REMARK SMILES IDX 5 1 3 2 2 3 1 4 22 5 20 6 19 7 17 8 16 9 15 10 14 11 6 12
REMARK SMILES IDX 7 13 8 14 9 15 13 16 11 17 10 18 12 20 4 22 21 24 18 26
REMARK H PARENT 10 19 12 21 4 23 21 25 18 27
REMARK Flexibility Score: inf
ROOT
ATOM      1  C   UNL     1      10.034 -16.647 -24.418  1.00  0.00     0.180 A 
ATOM      2  C   UNL     1       9.530 -15.400 -24.824  1.00  0.00     0.208 A 
ATOM      3  C   UNL     1       9.476 -14.351 -23.892  1.00  0.00     0.238 A 
ATOM      4  O   UNL     1       8.973 -13.253 -24.247  1.00  0.00    -0.285 OA
ATOM      5  C   UNL     1       9.943 -14.557 -22.572  1.00  0.00     0.111 A 
ATOM      6  C   UNL     1       9.973 -13.553 -21.558  1.00  0.00     0.134 A 
ATOM      7  C   UNL     1      10.333 -13.903 -20.250  1.00  0.00     0.093 A 
ATOM      8  C   UNL     1      10.727 -15.206 -19.936  1.00  0.00     0.123 A 
ATOM      9  C   UNL     1      10.758 -16.178 -20.932  1.00  0.00     0.094 A 
ATOM     10  C   UNL     1      10.369 -15.868 -22.238  1.00  0.00     0.146 A 
ATOM     11  O   UNL     1      10.403 -16.828 -23.155  1.00  0.00    -0.452 OA
ENDROOT
BRANCH   1  12
ATOM     12  C   UNL     1      10.145 -17.794 -25.348  1.00  0.00     0.025 A 
ATOM     13  C   UNL     1       9.049 -18.637 -25.602  1.00  0.00     0.016 A 
ATOM     14  C   UNL     1       9.169 -19.699 -26.502  1.00  0.00     0.051 A 
ATOM     15  C   UNL     1      10.377 -19.926 -27.172  1.00  0.00     0.157 A 
ATOM     16  C   UNL     1      11.348 -18.013 -26.038  1.00  0.00     0.062 A 
ATOM     17  C   UNL     1      11.472 -19.076 -26.940  1.00  0.00     0.158 A 
BRANCH  15  18
ATOM     18  O   UNL     1      10.495 -20.988 -28.068  1.00  0.00    -0.504 OA
ATOM     19  H   UNL     1      11.291 -21.614 -28.046  1.00  0.00     0.293 HD
ENDBRANCH  15  18
BRANCH  17  20
ATOM     20  O   UNL     1      12.687 -19.270 -27.595  1.00  0.00    -0.504 OA
ATOM     21  H   UNL     1      13.078 -20.193 -27.741  1.00  0.00     0.293 HD
ENDBRANCH  17  20
ENDBRANCH   1  12
BRANCH   2  22
ATOM     22  O   UNL     1       9.054 -15.225 -26.127  1.00  0.00    -0.502 OA
ATOM     23  H   UNL     1       8.099 -14.954 -26.325  1.00  0.00     0.293 HD
ENDBRANCH   2  22
BRANCH   6  24
ATOM     24  O   UNL     1       9.688 -12.204 -21.786  1.00  0.00    -0.507 OA
ATOM     25  H   UNL     1       9.391 -11.551 -21.075  1.00  0.00     0.293 HD
ENDBRANCH   6  24
BRANCH   8  26
ATOM     26  O   UNL     1      11.099 -15.542 -18.636  1.00  0.00    -0.508 OA
ATOM     27  H   UNL     1      11.270 -14.832 -17.934  1.00  0.00     0.293 HD
ENDBRANCH   8  26
TORSDOF 6
ENDMDL
MODEL 2
REMARK VINA RESULT:    -6.466      2.145      6.702
REMARK INTER + INTRA:          -8.101
REMARK INTER:                  -7.865
REMARK INTRA:                  -0.236
REMARK UNBOUND:                -0.312
REMARK SMILES O=c1c(O)c(-c2ccc(O)c(O)c2)oc2cc(O)cc(O)c12
REMARK SMILES IDX 5 1 3 2 2 3 1 4 22 5 20 6 19 7 17 8 16 9 15 10 14 11 6 12
REMARK SMILES IDX 7 13 8 14 9 15 13 16 11 17 10 18 12 20 4 22 21 24 18 26
REMARK H PARENT 10 19 12 21 4 23 21 25 18 27
REMARK Flexibility Score: inf
ROOT
ATOM      1  C   UNL     1       9.876 -15.279 -23.731  1.00  0.00     0.180 A 
ATOM      2  C   UNL     1       9.339 -15.957 -22.623  1.00  0.00     0.208 A 
ATOM      3  C   UNL     1       9.406 -17.359 -22.584  1.00  0.00     0.238 A 
ATOM      4  O   UNL     1       8.875 -17.962 -21.616  1.00  0.00    -0.285 OA
ATOM      5  C   UNL     1      10.023 -18.064 -23.644  1.00  0.00     0.111 A 
ATOM      6  C   UNL     1      10.182 -19.482 -23.689  1.00  0.00     0.134 A 
ATOM      7  C   UNL     1      10.691 -20.083 -24.848  1.00  0.00     0.093 A 
ATOM      8  C   UNL     1      11.108 -19.312 -25.936  1.00  0.00     0.123 A 
ATOM      9  C   UNL     1      11.011 -17.924 -25.878  1.00  0.00     0.094 A 
ATOM     10  C   UNL     1      10.474 -17.298 -24.750  1.00  0.00     0.146 A 
ATOM     11  O   UNL     1      10.390 -15.973 -24.741  1.00  0.00    -0.452 OA
ENDROOT
BRANCH   1  12
ATOM     12  C   UNL     1       9.865 -13.802 -23.833  1.00  0.00     0.025 A 
ATOM     13  C   UNL     1       8.987 -13.137 -24.706  1.00  0.00     0.016 A 
ATOM     14  C   UNL     1       8.976 -11.741 -24.769  1.00  0.00     0.051 A 
ATOM     15  C   UNL     1       9.830 -10.990 -23.953  1.00  0.00     0.157 A 
ATOM     16  C   UNL     1      10.704 -13.044 -23.001  1.00  0.00     0.062 A 
ATOM     17  C   UNL     1      10.697 -11.645 -23.062  1.00  0.00     0.158 A 
BRANCH  15  18
ATOM     18  O   UNL     1       9.820  -9.597 -24.019  1.00  0.00    -0.504 OA
ATOM     19  H   UNL     1       8.960  -9.069 -23.931  1.00  0.00     0.293 HD
ENDBRANCH  15  18
BRANCH  17  20
ATOM     20  O   UNL     1      11.555 -10.927 -22.230  1.00  0.00    -0.504 OA
ATOM     21  H   UNL     1      11.211 -10.343 -21.478  1.00  0.00     0.293 HD
ENDBRANCH  17  20
ENDBRANCH   1  12
BRANCH   2  22
ATOM     22  O   UNL     1       8.714 -15.242 -21.597  1.00  0.00    -0.502 OA
ATOM     23  H   UNL     1       8.959 -14.285 -21.374  1.00  0.00     0.293 HD
ENDBRANCH   2  22
BRANCH   6  24
ATOM     24  O   UNL     1       9.885 -20.336 -22.623  1.00  0.00    -0.507 OA
ATOM     25  H   UNL     1      10.438 -20.419 -21.783  1.00  0.00     0.293 HD
ENDBRANCH   6  24
BRANCH   8  26
ATOM     26  O   UNL     1      11.627 -19.917 -27.079  1.00  0.00    -0.508 OA
ATOM     27  H   UNL     1      12.597 -19.797 -27.347  1.00  0.00     0.293 HD
ENDBRANCH   8  26
TORSDOF 6
ENDMDL
MODEL 3
REMARK VINA RESULT:    -6.342      2.732      6.441
REMARK INTER + INTRA:          -7.952
REMARK INTER:                  -7.783
REMARK INTRA:                  -0.168
REMARK UNBOUND:                -0.312
REMARK SMILES O=c1c(O)c(-c2ccc(O)c(O)c2)oc2cc(O)cc(O)c12
REMARK SMILES IDX 5 1 3 2 2 3 1 4 22 5 20 6 19 7 17 8 16 9 15 10 14 11 6 12
REMARK SMILES IDX 7 13 8 14 9 15 13 16 11 17 10 18 12 20 4 22 21 24 18 26
REMARK H PARENT 10 19 12 21 4 23 21 25 18 27
REMARK Flexibility Score: inf
ROOT
ATOM      1  C   UNL     1       9.660 -13.773 -24.040  1.00  0.00     0.180 A 
ATOM      2  C   UNL     1       9.521 -13.919 -22.649  1.00  0.00     0.208 A 
ATOM      3  C   UNL     1       9.887 -15.137 -22.052  1.00  0.00     0.238 A 
ATOM      4  O   UNL     1       9.708 -15.280 -20.814  1.00  0.00    -0.285 OA
ATOM      5  C   UNL     1      10.402 -16.186 -22.850  1.00  0.00     0.111 A 
ATOM      6  C   UNL     1      10.841 -17.446 -22.346  1.00  0.00     0.134 A 
ATOM      7  C   UNL     1      11.210 -18.458 -23.242  1.00  0.00     0.093 A 
ATOM      8  C   UNL     1      11.219 -18.231 -24.620  1.00  0.00     0.123 A 
ATOM      9  C   UNL     1      10.848 -16.985 -25.119  1.00  0.00     0.094 A 
ATOM     10  C   UNL     1      10.440 -15.968 -24.252  1.00  0.00     0.146 A 
ATOM     11  O   UNL     1      10.084 -14.798 -24.770  1.00  0.00    -0.452 OA
ENDROOT
BRANCH   1  12
ATOM     12  C   UNL     1       9.319 -12.513 -24.738  1.00  0.00     0.025 A 
ATOM     13  C   UNL     1       8.238 -12.443 -25.633  1.00  0.00     0.016 A 
ATOM     14  C   UNL     1       7.918 -11.237 -26.263  1.00  0.00     0.051 A 
ATOM     15  C   UNL     1       8.663 -10.082 -25.998  1.00  0.00     0.157 A 
ATOM     16  C   UNL     1      10.050 -11.346 -24.459  1.00  0.00     0.062 A 
ATOM     17  C   UNL     1       9.734 -10.137 -25.088  1.00  0.00     0.158 A 
BRANCH  15  18
ATOM     18  O   UNL     1       8.344  -8.880 -26.630  1.00  0.00    -0.504 OA
ATOM     19  H   UNL     1       9.053  -8.316 -27.084  1.00  0.00     0.293 HD
ENDBRANCH  15  18
BRANCH  17  20
ATOM     20  O   UNL     1      10.491  -9.003 -24.797  1.00  0.00    -0.504 OA
ATOM     21  H   UNL     1      10.701  -8.727 -23.845  1.00  0.00     0.293 HD
ENDBRANCH  17  20
ENDBRANCH   1  12
BRANCH   2  22
ATOM     22  O   UNL     1       8.990 -12.878 -21.882  1.00  0.00    -0.502 OA
ATOM     23  H   UNL     1       7.995 -12.700 -21.822  1.00  0.00     0.293 HD
ENDBRANCH   2  22
BRANCH   6  24
ATOM     24  O   UNL     1      10.959 -17.745 -20.985  1.00  0.00    -0.507 OA
ATOM     25  H   UNL     1      10.388 -17.342 -20.257  1.00  0.00     0.293 HD
ENDBRANCH   6  24
BRANCH   8  26
ATOM     26  O   UNL     1      11.602 -19.238 -25.504  1.00  0.00    -0.508 OA
ATOM     27  H   UNL     1      10.940 -19.661 -26.144  1.00  0.00     0.293 HD
ENDBRANCH   8  26
TORSDOF 6
ENDMDL
MODEL 4
REMARK VINA RESULT:    -6.294      3.500      6.538
REMARK INTER + INTRA:          -7.893
REMARK INTER:                  -8.300
REMARK INTRA:                   0.407
REMARK UNBOUND:                -0.312
REMARK SMILES O=c1c(O)c(-c2ccc(O)c(O)c2)oc2cc(O)cc(O)c12
REMARK SMILES IDX 5 1 3 2 2 3 1 4 22 5 20 6 19 7 17 8 16 9 15 10 14 11 6 12
REMARK SMILES IDX 7 13 8 14 9 15 13 16 11 17 10 18 12 20 4 22 21 24 18 26
REMARK H PARENT 10 19 12 21 4 23 21 25 18 27
REMARK Flexibility Score: inf
ROOT
ATOM      1  C   UNL     1       8.958 -12.375 -24.664  1.00  0.00     0.180 A 
ATOM      2  C   UNL     1       8.654 -13.679 -25.090  1.00  0.00     0.208 A 
ATOM      3  C   UNL     1       8.818 -14.745 -24.190  1.00  0.00     0.238 A 
ATOM      4  O   UNL     1       8.596 -15.916 -24.595  1.00  0.00    -0.285 OA
ATOM      5  C   UNL     1       9.267 -14.491 -22.872  1.00  0.00     0.111 A 
ATOM      6  C   UNL     1       9.430 -15.491 -21.866  1.00  0.00     0.134 A 
ATOM      7  C   UNL     1      10.005 -15.145 -20.637  1.00  0.00     0.093 A 
ATOM      8  C   UNL     1      10.362 -13.824 -20.355  1.00  0.00     0.123 A 
ATOM      9  C   UNL     1      10.153 -12.832 -21.308  1.00  0.00     0.094 A 
ATOM     10  C   UNL     1       9.614 -13.152 -22.558  1.00  0.00     0.146 A 
ATOM     11  O   UNL     1       9.441 -12.177 -23.442  1.00  0.00    -0.452 OA
ENDROOT
BRANCH   1  12
ATOM     12  C   UNL     1       8.789 -11.198 -25.546  1.00  0.00     0.025 A 
ATOM     13  C   UNL     1       8.043 -11.276 -26.734  1.00  0.00     0.016 A 
ATOM     14  C   UNL     1       7.875 -10.147 -27.540  1.00  0.00     0.051 A 
ATOM     15  C   UNL     1       8.438  -8.921 -27.164  1.00  0.00     0.157 A 
ATOM     16  C   UNL     1       9.333  -9.961 -25.163  1.00  0.00     0.062 A 
ATOM     17  C   UNL     1       9.169  -8.827 -25.967  1.00  0.00     0.158 A 
BRANCH  15  18
ATOM     18  O   UNL     1       8.272  -7.795 -27.971  1.00  0.00    -0.504 OA
ATOM     19  H   UNL     1       7.578  -7.089 -27.758  1.00  0.00     0.293 HD
ENDBRANCH  15  18
BRANCH  17  20
ATOM     20  O   UNL     1       9.737  -7.621 -25.561  1.00  0.00    -0.504 OA
ATOM     21  H   UNL     1      10.706  -7.552 -25.276  1.00  0.00     0.293 HD
ENDBRANCH  17  20
ENDBRANCH   1  12
BRANCH   2  22
ATOM     22  O   UNL     1       8.233 -13.910 -26.402  1.00  0.00    -0.502 OA
ATOM     23  H   UNL     1       8.110 -13.162 -27.074  1.00  0.00     0.293 HD
ENDBRANCH   2  22
BRANCH   6  24
ATOM     24  O   UNL     1       9.021 -16.819 -22.011  1.00  0.00    -0.507 OA
ATOM     25  H   UNL     1       8.171 -17.112 -22.471  1.00  0.00     0.293 HD
ENDBRANCH   6  24
BRANCH   8  26
ATOM     26  O   UNL     1      10.920 -13.486 -19.123  1.00  0.00    -0.508 OA
ATOM     27  H   UNL     1      11.148 -12.526 -18.891  1.00  0.00     0.293 HD
ENDBRANCH   8  26
TORSDOF 6
ENDMDL
MODEL 5
REMARK VINA RESULT:    -6.283      2.081      3.474
REMARK INTER + INTRA:          -7.880
REMARK INTER:                  -7.571
REMARK INTRA:                  -0.309
REMARK UNBOUND:                -0.312
REMARK SMILES O=c1c(O)c(-c2ccc(O)c(O)c2)oc2cc(O)cc(O)c12
REMARK SMILES IDX 5 1 3 2 2 3 1 4 22 5 20 6 19 7 17 8 16 9 15 10 14 11 6 12
REMARK SMILES IDX 7 13 8 14 9 15 13 16 11 17 10 18 12 20 4 22 21 24 18 26
REMARK H PARENT 10 19 12 21 4 23 21 25 18 27
REMARK Flexibility Score: inf
ROOT
ATOM      1  C   UNL     1      11.157 -16.947 -25.575  1.00  0.00     0.180 A 
ATOM      2  C   UNL     1      11.201 -17.947 -24.588  1.00  0.00     0.208 A 
ATOM      3  C   UNL     1      10.829 -17.622 -23.274  1.00  0.00     0.238 A 
ATOM      4  O   UNL     1      10.922 -18.508 -22.384  1.00  0.00    -0.285 OA
ATOM      5  C   UNL     1      10.402 -16.308 -22.966  1.00  0.00     0.111 A 
ATOM      6  C   UNL     1       9.965 -15.880 -21.677  1.00  0.00     0.134 A 
ATOM      7  C   UNL     1       9.690 -14.524 -21.457  1.00  0.00     0.093 A 
ATOM      8  C   UNL     1       9.774 -13.594 -22.496  1.00  0.00     0.123 A 
ATOM      9  C   UNL     1      10.142 -14.013 -23.771  1.00  0.00     0.094 A 
ATOM     10  C   UNL     1      10.458 -15.353 -24.014  1.00  0.00     0.146 A 
ATOM     11  O   UNL     1      10.816 -15.708 -25.242  1.00  0.00    -0.452 OA
ENDROOT
BRANCH   1  12
ATOM     12  C   UNL     1      11.511 -17.218 -26.987  1.00  0.00     0.025 A 
ATOM     13  C   UNL     1      10.522 -17.471 -27.953  1.00  0.00     0.016 A 
ATOM     14  C   UNL     1      10.877 -17.700 -29.285  1.00  0.00     0.051 A 
ATOM     15  C   UNL     1      12.222 -17.665 -29.675  1.00  0.00     0.157 A 
ATOM     16  C   UNL     1      12.856 -17.162 -27.387  1.00  0.00     0.062 A 
ATOM     17  C   UNL     1      13.216 -17.392 -28.720  1.00  0.00     0.158 A 
BRANCH  15  18
ATOM     18  O   UNL     1      12.574 -17.896 -31.004  1.00  0.00    -0.504 OA
ATOM     19  H   UNL     1      12.244 -18.712 -31.505  1.00  0.00     0.293 HD
ENDBRANCH  15  18
BRANCH  17  20
ATOM     20  O   UNL     1      14.563 -17.343 -29.076  1.00  0.00    -0.504 OA
ATOM     21  H   UNL     1      15.221 -18.060 -28.792  1.00  0.00     0.293 HD
ENDBRANCH  17  20
ENDBRANCH   1  12
BRANCH   2  22
ATOM     22  O   UNL     1      11.646 -19.232 -24.909  1.00  0.00    -0.502 OA
ATOM     23  H   UNL     1      12.254 -19.766 -24.299  1.00  0.00     0.293 HD
ENDBRANCH   2  22
BRANCH   6  24
ATOM     24  O   UNL     1       9.758 -16.741 -20.596  1.00  0.00    -0.507 OA
ATOM     25  H   UNL     1       8.901 -17.244 -20.417  1.00  0.00     0.293 HD
ENDBRANCH   6  24
BRANCH   8  26
ATOM     26  O   UNL     1       9.483 -12.250 -22.272  1.00  0.00    -0.508 OA
ATOM     27  H   UNL     1      10.115 -11.515 -22.569  1.00  0.00     0.293 HD
ENDBRANCH   8  26
TORSDOF 6
ENDMDL
MODEL 6
REMARK VINA RESULT:    -5.940      1.710      7.171
REMARK INTER + INTRA:          -7.468
REMARK INTER:                  -7.683
REMARK INTRA:                   0.216
REMARK UNBOUND:                -0.312
REMARK SMILES O=c1c(O)c(-c2ccc(O)c(O)c2)oc2cc(O)cc(O)c12
REMARK SMILES IDX 5 1 3 2 2 3 1 4 22 5 20 6 19 7 17 8 16 9 15 10 14 11 6 12
REMARK SMILES IDX 7 13 8 14 9 15 13 16 11 17 10 18 12 20 4 22 21 24 18 26
REMARK H PARENT 10 19 12 21 4 23 21 25 18 27
REMARK Flexibility Score: inf
ROOT
ATOM      1  C   UNL     1      10.497 -16.601 -23.040  1.00  0.00     0.180 A 
ATOM      2  C   UNL     1      10.051 -17.871 -22.635  1.00  0.00     0.208 A 
ATOM      3  C   UNL     1      10.146 -18.945 -23.534  1.00  0.00     0.238 A 
ATOM      4  O   UNL     1       9.696 -20.067 -23.184  1.00  0.00    -0.285 OA
ATOM      5  C   UNL     1      10.700 -18.740 -24.820  1.00  0.00     0.111 A 
ATOM      6  C   UNL     1      10.882 -19.765 -25.797  1.00  0.00     0.134 A 
ATOM      7  C   UNL     1      11.319 -19.424 -27.083  1.00  0.00     0.093 A 
ATOM      8  C   UNL     1      11.643 -18.104 -27.407  1.00  0.00     0.123 A 
ATOM      9  C   UNL     1      11.526 -17.106 -26.443  1.00  0.00     0.094 A 
ATOM     10  C   UNL     1      11.058 -17.410 -25.161  1.00  0.00     0.146 A 
ATOM     11  O   UNL     1      10.951 -16.426 -24.276  1.00  0.00    -0.452 OA
ENDROOT
BRANCH   1  12
ATOM     12  C   UNL     1      10.451 -15.426 -22.141  1.00  0.00     0.025 A 
ATOM     13  C   UNL     1      10.612 -15.561 -20.751  1.00  0.00     0.016 A 
ATOM     14  C   UNL     1      10.590 -14.436 -19.924  1.00  0.00     0.051 A 
ATOM     15  C   UNL     1      10.422 -13.158 -20.472  1.00  0.00     0.157 A 
ATOM     16  C   UNL     1      10.305 -14.141 -22.688  1.00  0.00     0.062 A 
ATOM     17  C   UNL     1      10.281 -13.010 -21.863  1.00  0.00     0.158 A 
BRANCH  15  18
ATOM     18  O   UNL     1      10.397 -12.036 -19.644  1.00  0.00    -0.504 OA
ATOM     19  H   UNL     1       9.579 -11.800 -19.097  1.00  0.00     0.293 HD
ENDBRANCH  15  18
BRANCH  17  20
ATOM     20  O   UNL     1      10.119 -11.752 -22.441  1.00  0.00    -0.504 OA
ATOM     21  H   UNL     1      10.316 -10.898 -21.935  1.00  0.00     0.293 HD
ENDBRANCH  17  20
ENDBRANCH   1  12
BRANCH   2  22
ATOM     22  O   UNL     1       9.487 -18.046 -21.368  1.00  0.00    -0.502 OA
ATOM     23  H   UNL     1      10.034 -17.994 -20.517  1.00  0.00     0.293 HD
ENDBRANCH   2  22
BRANCH   6  24
ATOM     24  O   UNL     1      10.676 -21.125 -25.549  1.00  0.00    -0.507 OA
ATOM     25  H   UNL     1      10.472 -21.814 -26.258  1.00  0.00     0.293 HD
ENDBRANCH   6  24
BRANCH   8  26
ATOM     26  O   UNL     1      12.092 -17.775 -28.684  1.00  0.00    -0.508 OA
ATOM     27  H   UNL     1      11.897 -18.368 -29.483  1.00  0.00     0.293 HD
ENDBRANCH   8  26
TORSDOF 6
ENDMDL
MODEL 7
REMARK VINA RESULT:    -5.799     18.612     20.415
REMARK INTER + INTRA:          -7.297
REMARK INTER:                  -7.009
REMARK INTRA:                  -0.288
REMARK UNBOUND:                -0.312
REMARK SMILES O=c1c(O)c(-c2ccc(O)c(O)c2)oc2cc(O)cc(O)c12
REMARK SMILES IDX 5 1 3 2 2 3 1 4 22 5 20 6 19 7 17 8 16 9 15 10 14 11 6 12
REMARK SMILES IDX 7 13 8 14 9 15 13 16 11 17 10 18 12 20 4 22 21 24 18 26
REMARK H PARENT 10 19 12 21 4 23 21 25 18 27
REMARK Flexibility Score: inf
ROOT
ATOM      1  C   UNL     1      24.380  -3.189 -28.170  1.00  0.00     0.180 A 
ATOM      2  C   UNL     1      23.661  -2.239 -28.916  1.00  0.00     0.208 A 
ATOM      3  C   UNL     1      22.720  -2.684 -29.858  1.00  0.00     0.238 A 
ATOM      4  O   UNL     1      22.119  -1.829 -30.560  1.00  0.00    -0.285 OA
ATOM      5  C   UNL     1      22.496  -4.070 -30.030  1.00  0.00     0.111 A 
ATOM      6  C   UNL     1      21.538  -4.631 -30.927  1.00  0.00     0.134 A 
ATOM      7  C   UNL     1      21.493  -6.019 -31.111  1.00  0.00     0.093 A 
ATOM      8  C   UNL     1      22.329  -6.869 -30.382  1.00  0.00     0.123 A 
ATOM      9  C   UNL     1      23.226  -6.335 -29.461  1.00  0.00     0.094 A 
ATOM     10  C   UNL     1      23.319  -4.952 -29.282  1.00  0.00     0.146 A 
ATOM     11  O   UNL     1      24.196  -4.484 -28.402  1.00  0.00    -0.452 OA
ENDROOT
BRANCH   1  12
ATOM     12  C   UNL     1      25.372  -2.799 -27.143  1.00  0.00     0.025 A 
ATOM     13  C   UNL     1      26.666  -2.380 -27.498  1.00  0.00     0.016 A 
ATOM     14  C   UNL     1      27.578  -1.992 -26.513  1.00  0.00     0.051 A 
ATOM     15  C   UNL     1      27.209  -2.004 -25.162  1.00  0.00     0.157 A 
ATOM     16  C   UNL     1      24.999  -2.788 -25.789  1.00  0.00     0.062 A 
ATOM     17  C   UNL     1      25.910  -2.402 -24.799  1.00  0.00     0.158 A 
BRANCH  15  18
ATOM     18  O   UNL     1      28.122  -1.620 -24.181  1.00  0.00    -0.504 OA
ATOM     19  H   UNL     1      28.538  -0.697 -24.178  1.00  0.00     0.293 HD
ENDBRANCH  15  18
BRANCH  17  20
ATOM     20  O   UNL     1      25.508  -2.419 -23.464  1.00  0.00    -0.504 OA
ATOM     21  H   UNL     1      24.616  -2.043 -23.167  1.00  0.00     0.293 HD
ENDBRANCH  17  20
ENDBRANCH   1  12
BRANCH   2  22
ATOM     22  O   UNL     1      23.913  -0.875 -28.745  1.00  0.00    -0.502 OA
ATOM     23  H   UNL     1      23.190  -0.216 -28.486  1.00  0.00     0.293 HD
ENDBRANCH   2  22
BRANCH   6  24
ATOM     24  O   UNL     1      20.595  -3.878 -31.634  1.00  0.00    -0.507 OA
ATOM     25  H   UNL     1      20.791  -3.355 -32.475  1.00  0.00     0.293 HD
ENDBRANCH   6  24
BRANCH   8  26
ATOM     26  O   UNL     1      22.267  -8.250 -30.560  1.00  0.00    -0.508 OA
ATOM     27  H   UNL     1      23.103  -8.801 -30.718  1.00  0.00     0.293 HD
ENDBRANCH   8  26
TORSDOF 6
ENDMDL
MODEL 8
REMARK VINA RESULT:    -5.655      1.677      7.202
REMARK INTER + INTRA:          -7.124
REMARK INTER:                  -6.820
REMARK INTRA:                  -0.303
REMARK UNBOUND:                -0.312
REMARK SMILES O=c1c(O)c(-c2ccc(O)c(O)c2)oc2cc(O)cc(O)c12
REMARK SMILES IDX 5 1 3 2 2 3 1 4 22 5 20 6 19 7 17 8 16 9 15 10 14 11 6 12
REMARK SMILES IDX 7 13 8 14 9 15 13 16 11 17 10 18 12 20 4 22 21 24 18 26
REMARK H PARENT 10 19 12 21 4 23 21 25 18 27
REMARK Flexibility Score: inf
ROOT
ATOM      1  C   UNL     1      10.686 -16.661 -24.948  1.00  0.00     0.180 A 
ATOM      2  C   UNL     1       9.996 -17.878 -24.822  1.00  0.00     0.208 A 
ATOM      3  C   UNL     1      10.318 -18.936 -25.687  1.00  0.00     0.238 A 
ATOM      4  O   UNL     1       9.659 -20.006 -25.604  1.00  0.00    -0.285 OA
ATOM      5  C   UNL     1      11.337 -18.769 -26.655  1.00  0.00     0.111 A 
ATOM      6  C   UNL     1      11.772 -19.787 -27.556  1.00  0.00     0.134 A 
ATOM      7  C   UNL     1      12.697 -19.471 -28.559  1.00  0.00     0.093 A 
ATOM      8  C   UNL     1      13.250 -18.191 -28.652  1.00  0.00     0.123 A 
ATOM      9  C   UNL     1      12.875 -17.208 -27.741  1.00  0.00     0.094 A 
ATOM     10  C   UNL     1      11.927 -17.483 -26.751  1.00  0.00     0.146 A 
ATOM     11  O   UNL     1      11.590 -16.513 -25.909  1.00  0.00    -0.452 OA
ENDROOT
BRANCH   1  12
ATOM     12  C   UNL     1      10.420 -15.508 -24.058  1.00  0.00     0.025 A 
ATOM     13  C   UNL     1       9.550 -14.473 -24.443  1.00  0.00     0.016 A 
ATOM     14  C   UNL     1       9.294 -13.406 -23.577  1.00  0.00     0.051 A 
ATOM     15  C   UNL     1       9.891 -13.364 -22.311  1.00  0.00     0.157 A 
ATOM     16  C   UNL     1      10.999 -15.471 -22.779  1.00  0.00     0.062 A 
ATOM     17  C   UNL     1      10.746 -14.404 -21.909  1.00  0.00     0.158 A 
BRANCH  15  18
ATOM     18  O   UNL     1       9.636 -12.297 -21.450  1.00  0.00    -0.504 OA
ATOM     19  H   UNL     1       8.917 -11.613 -21.653  1.00  0.00     0.293 HD
ENDBRANCH  15  18
BRANCH  17  20
ATOM     20  O   UNL     1      11.351 -14.396 -20.653  1.00  0.00    -0.504 OA
ATOM     21  H   UNL     1      12.001 -13.671 -20.374  1.00  0.00     0.293 HD
ENDBRANCH  17  20
ENDBRANCH   1  12
BRANCH   2  22
ATOM     22  O   UNL     1       8.979 -18.015 -23.873  1.00  0.00    -0.502 OA
ATOM     23  H   UNL     1       7.998 -18.026 -24.124  1.00  0.00     0.293 HD
ENDBRANCH   2  22
BRANCH   6  24
ATOM     24  O   UNL     1      11.353 -21.119 -27.491  1.00  0.00    -0.507 OA
ATOM     25  H   UNL     1      11.715 -21.864 -28.069  1.00  0.00     0.293 HD
ENDBRANCH   6  24
BRANCH   8  26
ATOM     26  O   UNL     1      14.181 -17.889 -29.644  1.00  0.00    -0.508 OA
ATOM     27  H   UNL     1      15.173 -18.045 -29.505  1.00  0.00     0.293 HD
ENDBRANCH   8  26
TORSDOF 6
ENDMDL
MODEL 9
REMARK VINA RESULT:    -5.634      1.820      6.854
REMARK INTER + INTRA:          -7.099
REMARK INTER:                  -6.805
REMARK INTRA:                  -0.293
REMARK UNBOUND:                -0.312
REMARK SMILES O=c1c(O)c(-c2ccc(O)c(O)c2)oc2cc(O)cc(O)c12
REMARK SMILES IDX 5 1 3 2 2 3 1 4 22 5 20 6 19 7 17 8 16 9 15 10 14 11 6 12
REMARK SMILES IDX 7 13 8 14 9 15 13 16 11 17 10 18 12 20 4 22 21 24 18 26
REMARK H PARENT 10 19 12 21 4 23 21 25 18 27
REMARK Flexibility Score: inf
ROOT
ATOM      1  C   UNL     1      10.236 -15.954 -24.668  1.00  0.00     0.180 A 
ATOM      2  C   UNL     1       9.020 -15.958 -25.372  1.00  0.00     0.208 A 
ATOM      3  C   UNL     1       8.985 -16.498 -26.668  1.00  0.00     0.238 A 
ATOM      4  O   UNL     1       7.905 -16.449 -27.313  1.00  0.00    -0.285 OA
ATOM      5  C   UNL     1      10.161 -17.044 -27.236  1.00  0.00     0.111 A 
ATOM      6  C   UNL     1      10.230 -17.653 -28.524  1.00  0.00     0.134 A 
ATOM      7  C   UNL     1      11.474 -18.041 -29.038  1.00  0.00     0.093 A 
ATOM      8  C   UNL     1      12.641 -17.901 -28.283  1.00  0.00     0.123 A 
ATOM      9  C   UNL     1      12.575 -17.361 -27.001  1.00  0.00     0.094 A 
ATOM     10  C   UNL     1      11.353 -16.931 -26.475  1.00  0.00     0.146 A 
ATOM     11  O   UNL     1      11.337 -16.412 -25.253  1.00  0.00    -0.452 OA
ENDROOT
BRANCH   1  12
ATOM     12  C   UNL     1      10.348 -15.423 -23.290  1.00  0.00     0.025 A 
ATOM     13  C   UNL     1      10.393 -16.281 -22.178  1.00  0.00     0.016 A 
ATOM     14  C   UNL     1      10.524 -15.760 -20.888  1.00  0.00     0.051 A 
ATOM     15  C   UNL     1      10.624 -14.377 -20.691  1.00  0.00     0.157 A 
ATOM     16  C   UNL     1      10.471 -14.039 -23.089  1.00  0.00     0.062 A 
ATOM     17  C   UNL     1      10.600 -13.512 -21.799  1.00  0.00     0.158 A 
BRANCH  15  18
ATOM     18  O   UNL     1      10.751 -13.859 -19.403  1.00  0.00    -0.504 OA
ATOM     19  H   UNL     1      11.253 -14.358 -18.678  1.00  0.00     0.293 HD
ENDBRANCH  15  18
BRANCH  17  20
ATOM     20  O   UNL     1      10.705 -12.131 -21.638  1.00  0.00    -0.504 OA
ATOM     21  H   UNL     1      11.566 -11.688 -21.342  1.00  0.00     0.293 HD
ENDBRANCH  17  20
ENDBRANCH   1  12
BRANCH   2  22
ATOM     22  O   UNL     1       7.875 -15.394 -24.801  1.00  0.00    -0.502 OA
ATOM     23  H   UNL     1       7.349 -14.656 -25.252  1.00  0.00     0.293 HD
ENDBRANCH   2  22
BRANCH   6  24
ATOM     24  O   UNL     1       9.114 -17.925 -29.321  1.00  0.00    -0.507 OA
ATOM     25  H   UNL     1       8.964 -18.786 -29.825  1.00  0.00     0.293 HD
ENDBRANCH   6  24
BRANCH   8  26
ATOM     26  O   UNL     1      13.872 -18.303 -28.795  1.00  0.00    -0.508 OA
ATOM     27  H   UNL     1      14.159 -18.061 -29.738  1.00  0.00     0.293 HD
ENDBRANCH   8  26
TORSDOF 6
ENDMDL
