MODEL 1
REMARK VINA RESULT:    -3.445      0.000      0.000
REMARK INTER + INTRA:          -3.884
REMARK INTER:                  -3.848
REMARK INTRA:                  -0.036
REMARK UNBOUND:                -0.036
REMARK SMILES CCCC(=O)[O-]
REMARK SMILES IDX 3 1 4 2 5 3 6 4 2 5 1 6
REMARK H PARENT
REMARK Flexibility Score: inf
ROOT
ATOM      1  C   UNL     1     -10.123  -0.112   4.810  1.00  0.00     0.052 C 
ENDROOT
BRANCH   1   2
ATOM      2  C   UNL     1     -10.071  -0.507   6.254  1.00  0.00     0.041 C 
ATOM      3  O   UNL     1     -10.878  -0.006   7.079  1.00  0.00    -0.550 OA
ATOM      4  O   UNL     1      -9.149  -1.456   6.682  1.00  0.00    -0.550 OA
ENDBRANCH   1   2
BRANCH   1   5
ATOM      5  C   UNL     1      -9.319  -1.077   3.928  1.00  0.00     0.003 C 
ATOM      6  C   UNL     1      -8.134  -0.391   3.248  1.00  0.00     0.004 C 
ENDBRANCH   1   5
TORSDOF 2
ENDMDL
MODEL 2
REMARK VINA RESULT:    -3.172      1.344      1.344
REMARK INTER + INTRA:          -3.579
REMARK INTER:                  -3.514
REMARK INTRA:                  -0.064
REMARK UNBOUND:                -0.036
REMARK SMILES CCCC(=O)[O-]
REMARK SMILES IDX 3 1 4 2 5 3 6 4 2 5 1 6
REMARK H PARENT
REMARK Flexibility Score: inf
ROOT
ATOM      1  C   UNL     1      -9.687  -1.170   5.212  1.00  0.00     0.052 C 
ENDROOT
BRANCH   1   2
ATOM      2  C   UNL     1      -9.785   0.225   5.750  1.00  0.00     0.041 C 
ATOM      3  O   UNL     1     -10.758   0.959   5.437  1.00  0.00    -0.550 OA
ATOM      4  O   UNL     1      -8.815   0.702   6.624  1.00  0.00    -0.550 OA
ENDBRANCH   1   2
BRANCH   1   5
ATOM      5  C   UNL     1      -9.417  -1.177   3.701  1.00  0.00     0.003 C 
ATOM      6  C   UNL     1      -8.187  -0.350   3.327  1.00  0.00     0.004 C 
ENDBRANCH   1   5
TORSDOF 2
ENDMDL
MODEL 3
REMARK VINA RESULT:    -3.090     11.918     12.650
REMARK INTER + INTRA:          -3.487
REMARK INTER:                  -3.476
REMARK INTRA:                  -0.012
REMARK UNBOUND:                -0.036
REMARK SMILES CCCC(=O)[O-]
REMARK SMILES IDX 3 1 4 2 5 3 6 4 2 5 1 6
REMARK H PARENT
REMARK Flexibility Score: inf
ROOT
ATOM      1  C   UNL     1      -0.289  -8.641   6.588  1.00  0.00     0.052 C 
ENDROOT
BRANCH   1   2
ATOM      2  C   UNL     1       0.638  -8.903   7.735  1.00  0.00     0.041 C 
ATOM      3  O   UNL     1       0.514  -8.262   8.811  1.00  0.00    -0.550 OA
ATOM      4  O   UNL     1       1.621  -9.880   7.625  1.00  0.00    -0.550 OA
ENDBRANCH   1   2
BRANCH   1   5
ATOM      5  C   UNL     1      -1.709  -8.314   7.070  1.00  0.00     0.003 C 
ATOM      6  C   UNL     1      -2.552  -7.648   5.983  1.00  0.00     0.004 C 
ENDBRANCH   1   5
TORSDOF 2
ENDMDL
MODEL 4
REMARK VINA RESULT:    -3.087      1.964      3.158
REMARK INTER + INTRA:          -3.484
REMARK INTER:                  -3.472
REMARK INTRA:                  -0.012
REMARK UNBOUND:                -0.036
REMARK SMILES CCCC(=O)[O-]
REMARK SMILES IDX 3 1 4 2 5 3 6 4 2 5 1 6
REMARK H PARENT
REMARK Flexibility Score: inf
ROOT
ATOM      1  C   UNL     1     -10.187   0.366   4.660  1.00  0.00     0.052 C 
ENDROOT
BRANCH   1   2
ATOM      2  C   UNL     1      -9.093  -0.650   4.541  1.00  0.00     0.041 C 
ATOM      3  O   UNL     1      -9.061  -1.641   5.316  1.00  0.00    -0.550 OA
ATOM      4  O   UNL     1      -8.125  -0.516   3.552  1.00  0.00    -0.550 OA
ENDBRANCH   1   2
BRANCH   1   5
ATOM      5  C   UNL     1     -11.029   0.148   5.925  1.00  0.00     0.003 C 
ATOM      6  C   UNL     1     -12.332   0.946   5.900  1.00  0.00     0.004 C 
ENDBRANCH   1   5
TORSDOF 2
ENDMDL
MODEL 5
REMARK VINA RESULT:    -3.040      1.919      3.155
REMARK INTER + INTRA:          -3.431
REMARK INTER:                  -3.400
REMARK INTRA:                  -0.032
REMARK UNBOUND:                -0.036
REMARK SMILES CCCC(=O)[O-]
REMARK SMILES IDX 3 1 4 2 5 3 6 4 2 5 1 6
REMARK H PARENT
REMARK Flexibility Score: inf
ROOT
ATOM      1  C   UNL     1     -10.034   0.500   4.297  1.00  0.00     0.052 C 
ENDROOT
BRANCH   1   2
ATOM      2  C   UNL     1      -9.046  -0.623   4.374  1.00  0.00     0.041 C 
ATOM      3  O   UNL     1      -8.101  -0.694   3.545  1.00  0.00    -0.550 OA
ATOM      4  O   UNL     1      -9.152  -1.574   5.381  1.00  0.00    -0.550 OA
ENDBRANCH   1   2
BRANCH   1   5
ATOM      5  C   UNL     1     -10.504   0.938   5.691  1.00  0.00     0.003 C 
ATOM      6  C   UNL     1     -12.027   0.930   5.819  1.00  0.00     0.004 C 
ENDBRANCH   1   5
TORSDOF 2
ENDMDL
MODEL 6
REMARK VINA RESULT:    -2.820     10.849     11.660
REMARK INTER + INTRA:          -3.185
REMARK INTER:                  -3.180
REMARK INTRA:                  -0.006
REMARK UNBOUND:                -0.036
REMARK SMILES CCCC(=O)[O-]
REMARK SMILES IDX 3 1 4 2 5 3 6 4 2 5 1 6
REMARK H PARENT
REMARK Flexibility Score: inf
ROOT
ATOM      1  C   UNL     1      -9.404 -11.004   2.089  1.00  0.00     0.052 C 
ENDROOT
BRANCH   1   2
ATOM      2  C   UNL     1     -10.276 -11.918   1.285  1.00  0.00     0.041 C 
ATOM      3  O   UNL     1      -9.824 -13.011   0.855  1.00  0.00    -0.550 OA
ATOM      4  O   UNL     1     -11.600 -11.575   1.036  1.00  0.00    -0.550 OA
ENDBRANCH   1   2
BRANCH   1   5
ATOM      5  C   UNL     1      -9.968 -10.778   3.499  1.00  0.00     0.003 C 
ATOM      6  C   UNL     1      -9.138  -9.776   4.302  1.00  0.00     0.004 C 
ENDBRANCH   1   5
TORSDOF 2
ENDMDL
MODEL 7
REMARK VINA RESULT:    -2.787     11.571     12.289
REMARK INTER + INTRA:          -3.149
REMARK INTER:                  -3.109
REMARK INTRA:                  -0.040
REMARK UNBOUND:                -0.036
REMARK SMILES CCCC(=O)[O-]
REMARK SMILES IDX 3 1 4 2 5 3 6 4 2 5 1 6
REMARK H PARENT
REMARK Flexibility Score: inf
ROOT
ATOM      1  C   UNL     1      -1.400  -9.035   7.591  1.00  0.00     0.052 C 
ENDROOT
BRANCH   1   2
ATOM      2  C   UNL     1       0.064  -8.727   7.642  1.00  0.00     0.041 C 
ATOM      3  O   UNL     1       0.756  -8.757   6.591  1.00  0.00    -0.550 OA
ATOM      4  O   UNL     1       0.659  -8.377   8.848  1.00  0.00    -0.550 OA
ENDBRANCH   1   2
BRANCH   1   5
ATOM      5  C   UNL     1      -1.958  -8.905   6.167  1.00  0.00     0.003 C 
ATOM      6  C   UNL     1      -2.547  -7.521   5.897  1.00  0.00     0.004 C 
ENDBRANCH   1   5
TORSDOF 2
ENDMDL
MODEL 8
REMARK VINA RESULT:    -2.724     10.423     10.965
REMARK INTER + INTRA:          -3.078
REMARK INTER:                  -3.057
REMARK INTRA:                  -0.021
REMARK UNBOUND:                -0.036
REMARK SMILES CCCC(=O)[O-]
REMARK SMILES IDX 3 1 4 2 5 3 6 4 2 5 1 6
REMARK H PARENT
REMARK Flexibility Score: inf
ROOT
ATOM      1  C   UNL     1     -11.813   4.511  -4.775  1.00  0.00     0.052 C 
ENDROOT
BRANCH   1   2
ATOM      2  C   UNL     1     -11.213   3.907  -3.544  1.00  0.00     0.041 C 
ATOM      3  O   UNL     1     -11.950   3.379  -2.671  1.00  0.00    -0.550 OA
ATOM      4  O   UNL     1      -9.833   3.901  -3.375  1.00  0.00    -0.550 OA
ENDBRANCH   1   2
BRANCH   1   5
ATOM      5  C   UNL     1     -12.960   3.653  -5.326  1.00  0.00     0.003 C 
ATOM      6  C   UNL     1     -12.598   2.981  -6.650  1.00  0.00     0.004 C 
ENDBRANCH   1   5
TORSDOF 2
ENDMDL
MODEL 9
REMARK VINA RESULT:    -2.655     11.220     11.920
REMARK INTER + INTRA:          -3.001
REMARK INTER:                  -2.961
REMARK INTRA:                  -0.040
REMARK UNBOUND:                -0.036
REMARK SMILES CCCC(=O)[O-]
REMARK SMILES IDX 3 1 4 2 5 3 6 4 2 5 1 6
REMARK H PARENT
REMARK Flexibility Score: inf
ROOT
ATOM      1  C   UNL     1      -0.932  -9.338   6.502  1.00  0.00     0.052 C 
ENDROOT
BRANCH   1   2
ATOM      2  C   UNL     1      -2.045  -8.336   6.495  1.00  0.00     0.041 C 
ATOM      3  O   UNL     1      -2.826  -8.248   7.478  1.00  0.00    -0.550 OA
ATOM      4  O   UNL     1      -2.200  -7.477   5.413  1.00  0.00    -0.550 OA
ENDBRANCH   1   2
BRANCH   1   5
ATOM      5  C   UNL     1       0.387  -8.717   6.983  1.00  0.00     0.003 C 
ATOM      6  C   UNL     1       0.542  -8.786   8.502  1.00  0.00     0.004 C 
ENDBRANCH   1   5
TORSDOF 2
ENDMDL
