MODEL 1
REMARK VINA RESULT:    -4.005      0.000      0.000
REMARK INTER + INTRA:          -5.297
REMARK INTER:                  -5.643
REMARK INTRA:                   0.346
REMARK UNBOUND:                 0.346
REMARK SMILES CC1=CCC(=C(C)C)C(=O)CC(C)=CCC1
REMARK SMILES IDX 12 1 14 2 13 3 15 4 16 5 2 6 1 7 3 8 11 10 9 11 10 12 5 13
REMARK SMILES IDX 6 14 7 15 8 16 4 17
REMARK H PARENT
REMARK Flexibility Score: 60.00
ROOT
ATOM      1  C   UNL     1       2.389  11.493  14.967  1.00  0.00    -0.070 C 
ATOM      2  C   UNL     1       2.675  10.238  15.385  1.00  0.00    -0.027 C 
ATOM      3  C   UNL     1       3.413  12.210  14.126  1.00  0.00     0.039 C 
ENDROOT
BRANCH   2   4
ATOM      4  C   UNL     1       1.744   9.352  16.182  1.00  0.00     0.032 C 
BRANCH   4   5
ATOM      5  C   UNL     1       2.130   9.319  17.669  1.00  0.00     0.034 C 
BRANCH   5   6
ATOM      6  C   UNL     1       0.944   9.452  18.613  1.00  0.00    -0.077 C 
ATOM      7  C   UNL     1       0.168   8.212  18.985  1.00  0.00     0.039 C 
ATOM      8  C   UNL     1       0.558  10.625  19.163  1.00  0.00    -0.023 CG0
ATOM      9  G   UNL     1       1.163  11.976  18.860  1.00  0.00     0.000 G0
ENDBRANCH   5   6
ENDBRANCH   4   5
ENDBRANCH   2   4
BRANCH   1  10
ATOM     10  C   UNL     1       1.087  12.197  15.299  1.00  0.00     0.111 C 
BRANCH  10  11
ATOM     11  C   UNL     1       1.238  13.057  16.523  1.00  0.00     0.163 C 
ATOM     12  O   UNL     1       2.008  14.054  16.485  1.00  0.00    -0.294 OA
BRANCH  11  13
ATOM     13  C   UNL     1       0.475  12.774  17.764  1.00  0.00    -0.002 C 
ATOM     14  C   UNL     1      -0.807  13.210  17.895  1.00  0.00    -0.069 C 
ATOM     15  C   UNL     1      -1.586  12.972  19.168  1.00  0.00     0.039 C 
ATOM     16  C   UNL     1      -1.517  13.904  16.756  1.00  0.00     0.039 C 
BRANCH  13  17
ATOM     17  C   UNL     1       1.149  12.000  18.891  1.00  0.00     0.066 CG0
ATOM     18  G   UNL     1       0.545  10.637  19.138  1.00  0.00     0.000 G0
ENDBRANCH  13  17
ENDBRANCH  11  13
ENDBRANCH  10  11
ENDBRANCH   1  10
TORSDOF 0
ENDMDL
MODEL 2
REMARK VINA RESULT:    -3.902      4.087      6.534
REMARK INTER + INTRA:          -5.153
REMARK INTER:                  -5.565
REMARK INTRA:                   0.412
REMARK UNBOUND:                 0.346
REMARK SMILES CC1=CCC(=C(C)C)C(=O)CC(C)=CCC1
REMARK SMILES IDX 12 1 14 2 13 3 15 4 16 5 2 6 1 7 3 8 11 10 9 11 10 12 5 13
REMARK SMILES IDX 6 14 7 15 8 16 4 17
REMARK H PARENT
REMARK Flexibility Score: 60.00
ROOT
ATOM      1  C   UNL     1       1.338  16.787  21.414  1.00  0.00    -0.070 C 
ATOM      2  C   UNL     1       1.155  17.112  20.113  1.00  0.00    -0.027 C 
ATOM      3  C   UNL     1       0.241  17.127  22.390  1.00  0.00     0.039 C 
ENDROOT
BRANCH   2   4
ATOM      4  C   UNL     1       2.119  16.794  18.992  1.00  0.00     0.032 C 
BRANCH   4   5
ATOM      5  C   UNL     1       1.475  15.887  17.933  1.00  0.00     0.034 C 
BRANCH   5   6
ATOM      6  C   UNL     1       0.818  14.642  18.511  1.00  0.00    -0.077 C 
ATOM      7  C   UNL     1      -0.669  14.454  18.332  1.00  0.00     0.039 C 
ATOM      8  C   UNL     1       1.502  13.672  19.159  1.00  0.00    -0.023 CG0
ATOM      9  G   UNL     1       2.975  13.712  19.494  1.00  0.00     0.000 G0
ENDBRANCH   5   6
ENDBRANCH   4   5
ENDBRANCH   2   4
BRANCH   1  10
ATOM     10  C   UNL     1       2.584  16.089  21.923  1.00  0.00     0.111 C 
BRANCH  10  11
ATOM     11  C   UNL     1       2.417  14.595  21.886  1.00  0.00     0.163 C 
ATOM     12  O   UNL     1       1.520  14.058  22.589  1.00  0.00    -0.294 OA
BRANCH  11  13
ATOM     13  C   UNL     1       3.265  13.745  21.014  1.00  0.00    -0.002 C 
ATOM     14  C   UNL     1       4.285  13.019  21.546  1.00  0.00    -0.069 C 
ATOM     15  C   UNL     1       5.188  12.183  20.670  1.00  0.00     0.039 C 
ATOM     16  C   UNL     1       4.522  12.982  23.039  1.00  0.00     0.039 C 
BRANCH  13  17
ATOM     17  C   UNL     1       2.985  13.704  19.515  1.00  0.00     0.066 CG0
ATOM     18  G   UNL     1       1.513  13.685  19.174  1.00  0.00     0.000 G0
ENDBRANCH  13  17
ENDBRANCH  11  13
ENDBRANCH  10  11
ENDBRANCH   1  10
TORSDOF 0
ENDMDL
MODEL 3
REMARK VINA RESULT:    -3.820      2.438      4.109
REMARK INTER + INTRA:          -5.037
REMARK INTER:                  -5.421
REMARK INTRA:                   0.384
REMARK UNBOUND:                 0.346
REMARK SMILES CC1=CCC(=C(C)C)C(=O)CC(C)=CCC1
REMARK SMILES IDX 12 1 14 2 13 3 15 4 16 5 2 6 1 7 3 8 11 10 9 11 10 12 5 13
REMARK SMILES IDX 6 14 7 15 8 16 4 17
REMARK H PARENT
REMARK Flexibility Score: 60.00
ROOT
ATOM      1  C   UNL     1       0.680   9.193  18.471  1.00  0.00    -0.070 C 
ATOM      2  C   UNL     1       1.321   8.783  17.351  1.00  0.00    -0.027 C 
ATOM      3  C   UNL     1       0.261   8.146  19.471  1.00  0.00     0.039 C 
ENDROOT
BRANCH   2   4
ATOM      4  C   UNL     1       1.864   9.696  16.275  1.00  0.00     0.032 C 
BRANCH   4   5
ATOM      5  C   UNL     1       3.248  10.250  16.647  1.00  0.00     0.034 C 
BRANCH   5   6
ATOM      6  C   UNL     1       3.384  11.750  16.433  1.00  0.00    -0.077 C 
ATOM      7  C   UNL     1       3.436  12.281  15.021  1.00  0.00     0.039 C 
ATOM      8  C   UNL     1       3.434  12.646  17.444  1.00  0.00    -0.023 CG0
ATOM      9  G   UNL     1       3.464  12.305  18.916  1.00  0.00     0.000 G0
ENDBRANCH   5   6
ENDBRANCH   4   5
ENDBRANCH   2   4
BRANCH   1  10
ATOM     10  C   UNL     1       0.379  10.651  18.762  1.00  0.00     0.111 C 
BRANCH  10  11
ATOM     11  C   UNL     1       1.300  11.188  19.821  1.00  0.00     0.163 C 
ATOM     12  O   UNL     1       1.418  10.565  20.910  1.00  0.00    -0.294 OA
BRANCH  11  13
ATOM     13  C   UNL     1       2.097  12.421  19.598  1.00  0.00    -0.002 C 
ATOM     14  C   UNL     1       1.612  13.630  19.986  1.00  0.00    -0.069 C 
ATOM     15  C   UNL     1       2.388  14.902  19.728  1.00  0.00     0.039 C 
ATOM     16  C   UNL     1       0.304  13.745  20.735  1.00  0.00     0.039 C 
BRANCH  13  17
ATOM     17  C   UNL     1       3.459  12.312  18.920  1.00  0.00     0.066 CG0
ATOM     18  G   UNL     1       3.432  12.649  17.447  1.00  0.00     0.000 G0
ENDBRANCH  13  17
ENDBRANCH  11  13
ENDBRANCH  10  11
ENDBRANCH   1  10
TORSDOF 0
ENDMDL
MODEL 4
REMARK VINA RESULT:    -3.799      4.393      6.350
REMARK INTER + INTRA:          -5.008
REMARK INTER:                  -5.293
REMARK INTRA:                   0.285
REMARK UNBOUND:                 0.346
REMARK SMILES CC1=CCC(=C(C)C)C(=O)CC(C)=CCC1
REMARK SMILES IDX 12 1 14 2 13 3 15 4 16 5 2 6 1 7 3 8 11 10 9 11 10 12 5 13
REMARK SMILES IDX 6 14 7 15 8 16 4 17
REMARK H PARENT
REMARK Flexibility Score: 60.00
ROOT
ATOM      1  C   UNL     1       1.742  16.038  22.108  1.00  0.00    -0.070 C 
ATOM      2  C   UNL     1       2.323  16.048  23.330  1.00  0.00    -0.027 C 
ATOM      3  C   UNL     1       0.667  17.057  21.826  1.00  0.00     0.039 C 
ENDROOT
BRANCH   2   4
ATOM      4  C   UNL     1       3.454  15.142  23.764  1.00  0.00     0.032 C 
BRANCH   4   5
ATOM      5  C   UNL     1       2.947  13.737  24.123  1.00  0.00     0.034 C 
BRANCH   5   6
ATOM      6  C   UNL     1       3.738  12.616  23.465  1.00  0.00    -0.077 C 
ATOM      7  C   UNL     1       5.201  12.464  23.801  1.00  0.00     0.039 C 
ATOM      8  C   UNL     1       3.193  11.722  22.610  1.00  0.00    -0.023 CG0
ATOM      9  G   UNL     1       1.770  11.750  22.102  1.00  0.00     0.000 G0
ENDBRANCH   5   6
ENDBRANCH   4   5
ENDBRANCH   2   4
BRANCH   1  10
ATOM     10  C   UNL     1       2.133  15.060  21.016  1.00  0.00     0.111 C 
BRANCH  10  11
ATOM     11  C   UNL     1       1.125  13.950  20.904  1.00  0.00     0.163 C 
ATOM     12  O   UNL     1      -0.102  14.233  20.853  1.00  0.00    -0.294 OA
BRANCH  11  13
ATOM     13  C   UNL     1       1.548  12.529  20.821  1.00  0.00    -0.002 C 
ATOM     14  C   UNL     1       1.729  11.938  19.610  1.00  0.00    -0.069 C 
ATOM     15  C   UNL     1       2.115  10.480  19.503  1.00  0.00     0.039 C 
ATOM     16  C   UNL     1       1.600  12.727  18.327  1.00  0.00     0.039 C 
BRANCH  13  17
ATOM     17  C   UNL     1       1.766  11.742  22.108  1.00  0.00     0.066 CG0
ATOM     18  G   UNL     1       3.202  11.734  22.580  1.00  0.00     0.000 G0
ENDBRANCH  13  17
ENDBRANCH  11  13
ENDBRANCH  10  11
ENDBRANCH   1  10
TORSDOF 0
ENDMDL
MODEL 5
REMARK VINA RESULT:    -3.722      1.719      2.548
REMARK INTER + INTRA:          -4.900
REMARK INTER:                  -5.333
REMARK INTRA:                   0.433
REMARK UNBOUND:                 0.346
REMARK SMILES CC1=CCC(=C(C)C)C(=O)CC(C)=CCC1
REMARK SMILES IDX 12 1 14 2 13 3 15 4 16 5 2 6 1 7 3 8 11 10 9 11 10 12 5 13
REMARK SMILES IDX 6 14 7 15 8 16 4 17
REMARK H PARENT
REMARK Flexibility Score: 60.00
ROOT
ATOM      1  C   UNL     1       2.076  10.245  16.841  1.00  0.00    -0.070 C 
ATOM      2  C   UNL     1       1.645   8.992  17.114  1.00  0.00    -0.027 C 
ATOM      3  C   UNL     1       2.161  10.667  15.396  1.00  0.00     0.039 C 
ENDROOT
BRANCH   2   4
ATOM      4  C   UNL     1       1.442   8.423  18.500  1.00  0.00     0.032 C 
BRANCH   4   5
ATOM      5  C   UNL     1      -0.003   8.617  18.984  1.00  0.00     0.034 C 
BRANCH   5   6
ATOM      6  C   UNL     1      -0.105   9.156  20.404  1.00  0.00    -0.077 C 
ATOM      7  C   UNL     1       0.046   8.196  21.559  1.00  0.00     0.039 C 
ATOM      8  C   UNL     1      -0.297  10.462  20.693  1.00  0.00    -0.023 CG0
ATOM      9  G   UNL     1      -0.537  11.558  19.680  1.00  0.00     0.000 G0
ENDBRANCH   5   6
ENDBRANCH   4   5
ENDBRANCH   2   4
BRANCH   1  10
ATOM     10  C   UNL     1       2.462  11.238  17.920  1.00  0.00     0.111 C 
BRANCH  10  11
ATOM     11  C   UNL     1       1.391  12.278  18.101  1.00  0.00     0.163 C 
ATOM     12  O   UNL     1       1.076  13.015  17.129  1.00  0.00    -0.294 OA
BRANCH  11  13
ATOM     13  C   UNL     1       0.674  12.431  19.393  1.00  0.00    -0.002 C 
ATOM     14  C   UNL     1       1.104  13.335  20.312  1.00  0.00    -0.069 C 
ATOM     15  C   UNL     1       0.417  13.475  21.651  1.00  0.00     0.039 C 
ATOM     16  C   UNL     1       2.254  14.270  20.012  1.00  0.00     0.039 C 
BRANCH  13  17
ATOM     17  C   UNL     1      -0.541  11.554  19.677  1.00  0.00     0.066 CG0
ATOM     18  G   UNL     1      -0.273  10.451  20.675  1.00  0.00     0.000 G0
ENDBRANCH  13  17
ENDBRANCH  11  13
ENDBRANCH  10  11
ENDBRANCH   1  10
TORSDOF 0
ENDMDL
MODEL 6
REMARK VINA RESULT:    -3.706      2.622      3.608
REMARK INTER + INTRA:          -4.877
REMARK INTER:                  -5.165
REMARK INTRA:                   0.288
REMARK UNBOUND:                 0.346
REMARK SMILES CC1=CCC(=C(C)C)C(=O)CC(C)=CCC1
REMARK SMILES IDX 12 1 14 2 13 3 15 4 16 5 2 6 1 7 3 8 11 10 9 11 10 12 5 13
REMARK SMILES IDX 6 14 7 15 8 16 4 17
REMARK H PARENT
REMARK Flexibility Score: 60.00
ROOT
ATOM      1  C   UNL     1       1.374   9.584  17.660  1.00  0.00    -0.070 C 
ATOM      2  C   UNL     1       0.803   8.503  18.240  1.00  0.00    -0.027 C 
ATOM      3  C   UNL     1       2.157   9.377  16.389  1.00  0.00     0.039 C 
ENDROOT
BRANCH   2   4
ATOM      4  C   UNL     1      -0.064   8.534  19.478  1.00  0.00     0.032 C 
BRANCH   4   5
ATOM      5  C   UNL     1       0.778   8.695  20.753  1.00  0.00     0.034 C 
BRANCH   5   6
ATOM      6  C   UNL     1       0.258   9.769  21.698  1.00  0.00    -0.077 C 
ATOM      7  C   UNL     1      -1.134   9.627  22.264  1.00  0.00     0.039 C 
ATOM      8  C   UNL     1       0.988  10.838  22.084  1.00  0.00    -0.023 CG0
ATOM      9  G   UNL     1       2.368  11.188  21.576  1.00  0.00     0.000 G0
ENDBRANCH   5   6
ENDBRANCH   4   5
ENDBRANCH   2   4
BRANCH   1  10
ATOM     10  C   UNL     1       1.249  10.986  18.226  1.00  0.00     0.111 C 
BRANCH  10  11
ATOM     11  C   UNL     1       2.483  11.367  18.995  1.00  0.00     0.163 C 
ATOM     12  O   UNL     1       3.617  11.134  18.496  1.00  0.00    -0.294 OA
BRANCH  11  13
ATOM     13  C   UNL     1       2.394  12.040  20.315  1.00  0.00    -0.002 C 
ATOM     14  C   UNL     1       2.332  13.396  20.390  1.00  0.00    -0.069 C 
ATOM     15  C   UNL     1       2.286  14.103  21.725  1.00  0.00     0.039 C 
ATOM     16  C   UNL     1       2.256  14.246  19.142  1.00  0.00     0.039 C 
BRANCH  13  17
ATOM     17  C   UNL     1       2.383  11.193  21.583  1.00  0.00     0.066 CG0
ATOM     18  G   UNL     1       0.995  10.850  22.072  1.00  0.00     0.000 G0
ENDBRANCH  13  17
ENDBRANCH  11  13
ENDBRANCH  10  11
ENDBRANCH   1  10
TORSDOF 0
ENDMDL
MODEL 7
REMARK VINA RESULT:    -3.681      1.721      4.169
REMARK INTER + INTRA:          -4.842
REMARK INTER:                  -5.350
REMARK INTRA:                   0.508
REMARK UNBOUND:                 0.346
REMARK SMILES CC1=CCC(=C(C)C)C(=O)CC(C)=CCC1
REMARK SMILES IDX 12 1 14 2 13 3 15 4 16 5 2 6 1 7 3 8 11 10 9 11 10 12 5 13
REMARK SMILES IDX 6 14 7 15 8 16 4 17
REMARK H PARENT
REMARK Flexibility Score: 60.00
ROOT
ATOM      1  C   UNL     1       3.096  13.155  14.169  1.00  0.00    -0.070 C 
ATOM      2  C   UNL     1       2.004  13.946  14.050  1.00  0.00    -0.027 C 
ATOM      3  C   UNL     1       4.440  13.747  13.832  1.00  0.00     0.039 C 
ENDROOT
BRANCH   2   4
ATOM      4  C   UNL     1       0.590  13.538  14.401  1.00  0.00     0.032 C 
BRANCH   4   5
ATOM      5  C   UNL     1       0.053  14.335  15.599  1.00  0.00     0.034 C 
BRANCH   5   6
ATOM      6  C   UNL     1       1.065  14.505  16.724  1.00  0.00    -0.077 C 
ATOM      7  C   UNL     1       1.692  15.861  16.937  1.00  0.00     0.039 C 
ATOM      8  C   UNL     1       1.416  13.509  17.567  1.00  0.00    -0.023 CG0
ATOM      9  G   UNL     1       0.950  12.074  17.471  1.00  0.00     0.000 G0
ENDBRANCH   5   6
ENDBRANCH   4   5
ENDBRANCH   2   4
BRANCH   1  10
ATOM     10  C   UNL     1       3.023  11.713  14.634  1.00  0.00     0.111 C 
BRANCH  10  11
ATOM     11  C   UNL     1       3.140  11.625  16.131  1.00  0.00     0.163 C 
ATOM     12  O   UNL     1       4.195  12.028  16.692  1.00  0.00    -0.294 OA
BRANCH  11  13
ATOM     13  C   UNL     1       2.026  11.104  16.963  1.00  0.00    -0.002 C 
ATOM     14  C   UNL     1       1.950   9.779  17.254  1.00  0.00    -0.069 C 
ATOM     15  C   UNL     1       0.800   9.221  18.061  1.00  0.00     0.039 C 
ATOM     16  C   UNL     1       3.037   8.819  16.824  1.00  0.00     0.039 C 
BRANCH  13  17
ATOM     17  C   UNL     1       0.966  12.073  17.476  1.00  0.00     0.066 CG0
ATOM     18  G   UNL     1       1.444  13.504  17.567  1.00  0.00     0.000 G0
ENDBRANCH  13  17
ENDBRANCH  11  13
ENDBRANCH  10  11
ENDBRANCH   1  10
TORSDOF 0
ENDMDL
MODEL 8
REMARK VINA RESULT:    -3.627      4.676      7.006
REMARK INTER + INTRA:          -4.766
REMARK INTER:                  -5.142
REMARK INTRA:                   0.376
REMARK UNBOUND:                 0.346
REMARK SMILES CC1=CCC(=C(C)C)C(=O)CC(C)=CCC1
REMARK SMILES IDX 12 1 14 2 13 3 15 4 16 5 2 6 1 7 3 8 11 10 9 11 10 12 5 13
REMARK SMILES IDX 6 14 7 15 8 16 4 17
REMARK H PARENT
REMARK Flexibility Score: 60.00
ROOT
ATOM      1  C   UNL     1       4.283  13.160  24.076  1.00  0.00    -0.070 C 
ATOM      2  C   UNL     1       4.160  14.496  24.262  1.00  0.00    -0.027 C 
ATOM      3  C   UNL     1       5.570  12.501  24.501  1.00  0.00     0.039 C 
ENDROOT
BRANCH   2   4
ATOM      4  C   UNL     1       2.923  15.309  23.951  1.00  0.00     0.032 C 
BRANCH   4   5
ATOM      5  C   UNL     1       3.034  16.009  22.589  1.00  0.00     0.034 C 
BRANCH   5   6
ATOM      6  C   UNL     1       1.799  15.846  21.715  1.00  0.00    -0.077 C 
ATOM      7  C   UNL     1       0.611  16.746  21.960  1.00  0.00     0.039 C 
ATOM      8  C   UNL     1       1.713  14.952  20.705  1.00  0.00    -0.023 CG0
ATOM      9  G   UNL     1       2.764  13.926  20.351  1.00  0.00     0.000 G0
ENDBRANCH   5   6
ENDBRANCH   4   5
ENDBRANCH   2   4
BRANCH   1  10
ATOM     10  C   UNL     1       3.182  12.307  23.475  1.00  0.00     0.111 C 
BRANCH  10  11
ATOM     11  C   UNL     1       3.446  12.038  22.020  1.00  0.00     0.163 C 
ATOM     12  O   UNL     1       4.450  11.350  21.692  1.00  0.00    -0.294 OA
BRANCH  11  13
ATOM     13  C   UNL     1       2.530  12.538  20.964  1.00  0.00    -0.002 C 
ATOM     14  C   UNL     1       1.487  11.774  20.542  1.00  0.00    -0.069 C 
ATOM     15  C   UNL     1       0.571  12.245  19.437  1.00  0.00     0.039 C 
ATOM     16  C   UNL     1       1.175  10.447  21.196  1.00  0.00     0.039 C 
BRANCH  13  17
ATOM     17  C   UNL     1       2.781  13.913  20.353  1.00  0.00     0.066 CG0
ATOM     18  G   UNL     1       1.720  14.932  20.697  1.00  0.00     0.000 G0
ENDBRANCH  13  17
ENDBRANCH  11  13
ENDBRANCH  10  11
ENDBRANCH   1  10
TORSDOF 0
ENDMDL
MODEL 9
REMARK VINA RESULT:    -3.592      3.994      6.562
REMARK INTER + INTRA:          -4.716
REMARK INTER:                  -5.059
REMARK INTRA:                   0.342
REMARK UNBOUND:                 0.346
REMARK SMILES CC1=CCC(=C(C)C)C(=O)CC(C)=CCC1
REMARK SMILES IDX 12 1 14 2 13 3 15 4 16 5 2 6 1 7 3 8 11 10 9 11 10 12 5 13
REMARK SMILES IDX 6 14 7 15 8 16 4 17
REMARK H PARENT
REMARK Flexibility Score: 60.00
ROOT
ATOM      1  C   UNL     1       2.544  14.659  23.193  1.00  0.00    -0.070 C 
ATOM      2  C   UNL     1       2.432  16.004  23.091  1.00  0.00    -0.027 C 
ATOM      3  C   UNL     1       3.474  14.102  24.240  1.00  0.00     0.039 C 
ENDROOT
BRANCH   2   4
ATOM      4  C   UNL     1       1.506  16.732  22.143  1.00  0.00     0.032 C 
BRANCH   4   5
ATOM      5  C   UNL     1       2.060  16.744  20.710  1.00  0.00     0.034 C 
BRANCH   5   6
ATOM      6  C   UNL     1       1.019  16.413  19.649  1.00  0.00    -0.077 C 
ATOM      7  C   UNL     1      -0.197  17.299  19.523  1.00  0.00     0.039 C 
ATOM      8  C   UNL     1       1.135  15.378  18.788  1.00  0.00    -0.023 CG0
ATOM      9  G   UNL     1       2.239  14.346  18.802  1.00  0.00     0.000 G0
ENDBRANCH   5   6
ENDBRANCH   4   5
ENDBRANCH   2   4
BRANCH   1  10
ATOM     10  C   UNL     1       1.769  13.698  22.313  1.00  0.00     0.111 C 
BRANCH  10  11
ATOM     11  C   UNL     1       2.594  13.266  21.132  1.00  0.00     0.163 C 
ATOM     12  O   UNL     1       3.798  12.940  21.308  1.00  0.00    -0.294 OA
BRANCH  11  13
ATOM     13  C   UNL     1       2.009  13.187  19.770  1.00  0.00    -0.002 C 
ATOM     14  C   UNL     1       1.283  12.099  19.397  1.00  0.00    -0.069 C 
ATOM     15  C   UNL     1       0.719  11.978  18.001  1.00  0.00     0.039 C 
ATOM     16  C   UNL     1       0.972  10.993  20.380  1.00  0.00     0.039 C 
BRANCH  13  17
ATOM     17  C   UNL     1       2.243  14.334  18.792  1.00  0.00     0.066 CG0
ATOM     18  G   UNL     1       1.138  15.365  18.792  1.00  0.00     0.000 G0
ENDBRANCH  13  17
ENDBRANCH  11  13
ENDBRANCH  10  11
ENDBRANCH   1  10
TORSDOF 0
ENDMDL
