MODEL 1
REMARK VINA RESULT:    -3.251      0.000      0.000
REMARK INTER + INTRA:          -5.316
REMARK INTER:                  -4.582
REMARK INTRA:                  -0.734
REMARK UNBOUND:                -0.734
REMARK SMILES CCCCCCCCC(=O)[O-]
REMARK SMILES IDX 6 1 7 2 8 3 9 4 10 5 11 6 5 7 4 8 3 9 2 10 1 11
REMARK H PARENT
REMARK Flexibility Score: inf
ROOT
ATOM      1  C   UNL     1     127.117 145.655 119.345  1.00  0.00     0.000 C 
ENDROOT
BRANCH   1   2
ATOM      2  C   UNL     1     126.999 146.464 120.646  1.00  0.00     0.006 C 
BRANCH   2   3
ATOM      3  C   UNL     1     127.130 145.580 121.892  1.00  0.00     0.053 C 
BRANCH   3   4
ATOM      4  C   UNL     1     127.874 146.275 122.991  1.00  0.00     0.041 C 
ATOM      5  O   UNL     1     127.362 146.383 124.135  1.00  0.00    -0.550 OA
ATOM      6  O   UNL     1     129.149 146.777 122.756  1.00  0.00    -0.550 OA
ENDBRANCH   3   4
ENDBRANCH   2   3
ENDBRANCH   1   2
BRANCH   1   7
ATOM      7  C   UNL     1     127.585 144.223 119.629  1.00  0.00     0.000 C 
BRANCH   7   8
ATOM      8  C   UNL     1     128.990 143.980 119.065  1.00  0.00    -0.000 C 
BRANCH   8   9
ATOM      9  C   UNL     1     130.040 143.981 120.183  1.00  0.00    -0.000 C 
BRANCH   9  10
ATOM     10  C   UNL     1     131.182 144.952 119.864  1.00  0.00    -0.003 C 
ATOM     11  C   UNL     1     130.661 146.375 119.685  1.00  0.00     0.004 C 
ENDBRANCH   9  10
ENDBRANCH   8   9
ENDBRANCH   7   8
ENDBRANCH   1   7
TORSDOF 7
ENDMDL
MODEL 2
REMARK VINA RESULT:    -3.188      2.150      4.138
REMARK INTER + INTRA:          -5.227
REMARK INTER:                  -4.509
REMARK INTRA:                  -0.717
REMARK UNBOUND:                -0.734
REMARK SMILES CCCCCCCCC(=O)[O-]
REMARK SMILES IDX 6 1 7 2 8 3 9 4 10 5 11 6 5 7 4 8 3 9 2 10 1 11
REMARK H PARENT
REMARK Flexibility Score: inf
ROOT
ATOM      1  C   UNL     1     130.270 143.749 119.384  1.00  0.00     0.000 C 
ENDROOT
BRANCH   1   2
ATOM      2  C   UNL     1     130.777 144.673 120.501  1.00  0.00     0.006 C 
BRANCH   2   3
ATOM      3  C   UNL     1     130.991 146.111 120.011  1.00  0.00     0.053 C 
BRANCH   3   4
ATOM      4  C   UNL     1     132.298 146.670 120.482  1.00  0.00     0.041 C 
ATOM      5  O   UNL     1     133.273 146.759 119.692  1.00  0.00    -0.550 OA
ATOM      6  O   UNL     1     132.429 147.124 121.790  1.00  0.00    -0.550 OA
ENDBRANCH   3   4
ENDBRANCH   2   3
ENDBRANCH   1   2
BRANCH   1   7
ATOM      7  C   UNL     1     128.758 143.518 119.506  1.00  0.00     0.000 C 
BRANCH   7   8
ATOM      8  C   UNL     1     127.981 144.470 118.590  1.00  0.00    -0.000 C 
BRANCH   8   9
ATOM      9  C   UNL     1     127.263 145.554 119.403  1.00  0.00    -0.000 C 
BRANCH   9  10
ATOM     10  C   UNL     1     127.118 145.137 120.870  1.00  0.00    -0.003 C 
ATOM     11  C   UNL     1     127.556 146.258 121.808  1.00  0.00     0.004 C 
ENDBRANCH   9  10
ENDBRANCH   8   9
ENDBRANCH   7   8
ENDBRANCH   1   7
TORSDOF 7
ENDMDL
MODEL 3
REMARK VINA RESULT:    -3.167      1.847      2.855
REMARK INTER + INTRA:          -5.197
REMARK INTER:                  -4.537
REMARK INTRA:                  -0.660
REMARK UNBOUND:                -0.734
REMARK SMILES CCCCCCCCC(=O)[O-]
REMARK SMILES IDX 6 1 7 2 8 3 9 4 10 5 11 6 5 7 4 8 3 9 2 10 1 11
REMARK H PARENT
REMARK Flexibility Score: inf
ROOT
ATOM      1  C   UNL     1     126.895 146.596 122.120  1.00  0.00     0.000 C 
ENDROOT
BRANCH   1   2
ATOM      2  C   UNL     1     128.044 146.739 123.130  1.00  0.00     0.006 C 
BRANCH   2   3
ATOM      3  C   UNL     1     129.165 145.722 122.881  1.00  0.00     0.053 C 
BRANCH   3   4
ATOM      4  C   UNL     1     130.442 146.393 122.477  1.00  0.00     0.041 C 
ATOM      5  O   UNL     1     130.655 146.679 121.270  1.00  0.00    -0.550 OA
ATOM      6  O   UNL     1     131.386 146.729 123.441  1.00  0.00    -0.550 OA
ENDBRANCH   3   4
ENDBRANCH   2   3
ENDBRANCH   1   2
BRANCH   1   7
ATOM      7  C   UNL     1     127.148 145.424 121.163  1.00  0.00     0.000 C 
BRANCH   7   8
ATOM      8  C   UNL     1     127.241 145.910 119.711  1.00  0.00    -0.000 C 
BRANCH   8   9
ATOM      9  C   UNL     1     127.777 144.805 118.793  1.00  0.00    -0.000 C 
BRANCH   9  10
ATOM     10  C   UNL     1     128.361 143.647 119.610  1.00  0.00    -0.003 C 
ATOM     11  C   UNL     1     129.879 143.587 119.473  1.00  0.00     0.004 C 
ENDBRANCH   9  10
ENDBRANCH   8   9
ENDBRANCH   7   8
ENDBRANCH   1   7
TORSDOF 7
ENDMDL
MODEL 4
REMARK VINA RESULT:    -3.165      2.520      4.244
REMARK INTER + INTRA:          -5.194
REMARK INTER:                  -4.518
REMARK INTRA:                  -0.676
REMARK UNBOUND:                -0.734
REMARK SMILES CCCCCCCCC(=O)[O-]
REMARK SMILES IDX 6 1 7 2 8 3 9 4 10 5 11 6 5 7 4 8 3 9 2 10 1 11
REMARK H PARENT
REMARK Flexibility Score: inf
ROOT
ATOM      1  C   UNL     1     129.888 144.898 119.951  1.00  0.00     0.000 C 
ENDROOT
BRANCH   1   2
ATOM      2  C   UNL     1     130.545 146.276 119.776  1.00  0.00     0.006 C 
BRANCH   2   3
ATOM      3  C   UNL     1     131.237 146.757 121.058  1.00  0.00     0.053 C 
BRANCH   3   4
ATOM      4  C   UNL     1     132.729 146.719 120.932  1.00  0.00     0.041 C 
ATOM      5  O   UNL     1     133.457 147.109 121.881  1.00  0.00    -0.550 OA
ATOM      6  O   UNL     1     133.315 146.222 119.773  1.00  0.00    -0.550 OA
ENDBRANCH   3   4
ENDBRANCH   2   3
ENDBRANCH   1   2
BRANCH   1   7
ATOM      7  C   UNL     1     128.652 144.761 119.054  1.00  0.00     0.000 C 
BRANCH   7   8
ATOM      8  C   UNL     1     127.498 145.626 119.572  1.00  0.00    -0.000 C 
BRANCH   8   9
ATOM      9  C   UNL     1     127.224 145.350 121.055  1.00  0.00    -0.000 C 
BRANCH   9  10
ATOM     10  C   UNL     1     127.119 146.657 121.848  1.00  0.00    -0.003 C 
ATOM     11  C   UNL     1     127.973 146.605 123.111  1.00  0.00     0.004 C 
ENDBRANCH   9  10
ENDBRANCH   8   9
ENDBRANCH   7   8
ENDBRANCH   1   7
TORSDOF 7
ENDMDL
MODEL 5
REMARK VINA RESULT:    -3.133      1.410      2.640
REMARK INTER + INTRA:          -5.149
REMARK INTER:                  -4.599
REMARK INTRA:                  -0.550
REMARK UNBOUND:                -0.734
REMARK SMILES CCCCCCCCC(=O)[O-]
REMARK SMILES IDX 6 1 7 2 8 3 9 4 10 5 11 6 5 7 4 8 3 9 2 10 1 11
REMARK H PARENT
REMARK Flexibility Score: inf
ROOT
ATOM      1  C   UNL     1     127.111 145.826 119.513  1.00  0.00     0.000 C 
ENDROOT
BRANCH   1   2
ATOM      2  C   UNL     1     126.992 146.683 120.782  1.00  0.00     0.006 C 
BRANCH   2   3
ATOM      3  C   UNL     1     127.204 145.860 122.060  1.00  0.00     0.053 C 
BRANCH   3   4
ATOM      4  C   UNL     1     128.290 146.433 122.916  1.00  0.00     0.041 C 
ATOM      5  O   UNL     1     128.074 146.692 124.128  1.00  0.00    -0.550 OA
ATOM      6  O   UNL     1     129.554 146.653 122.381  1.00  0.00    -0.550 OA
ENDBRANCH   3   4
ENDBRANCH   2   3
ENDBRANCH   1   2
BRANCH   1   7
ATOM      7  C   UNL     1     128.561 145.387 119.280  1.00  0.00     0.000 C 
BRANCH   7   8
ATOM      8  C   UNL     1     128.658 143.864 119.130  1.00  0.00    -0.000 C 
BRANCH   8   9
ATOM      9  C   UNL     1     127.354 143.184 119.564  1.00  0.00    -0.000 C 
BRANCH   9  10
ATOM     10  C   UNL     1     127.560 142.364 120.842  1.00  0.00    -0.003 C 
ATOM     11  C   UNL     1     127.017 140.947 120.681  1.00  0.00     0.004 C 
ENDBRANCH   9  10
ENDBRANCH   8   9
ENDBRANCH   7   8
ENDBRANCH   1   7
TORSDOF 7
ENDMDL
MODEL 6
REMARK VINA RESULT:    -3.122      2.345      3.357
REMARK INTER + INTRA:          -5.134
REMARK INTER:                  -4.323
REMARK INTRA:                  -0.811
REMARK UNBOUND:                -0.734
REMARK SMILES CCCCCCCCC(=O)[O-]
REMARK SMILES IDX 6 1 7 2 8 3 9 4 10 5 11 6 5 7 4 8 3 9 2 10 1 11
REMARK H PARENT
REMARK Flexibility Score: inf
ROOT
ATOM      1  C   UNL     1     128.336 143.395 119.483  1.00  0.00     0.000 C 
ENDROOT
BRANCH   1   2
ATOM      2  C   UNL     1     127.177 142.819 120.312  1.00  0.00     0.006 C 
BRANCH   2   3
ATOM      3  C   UNL     1     127.661 141.817 121.368  1.00  0.00     0.053 C 
BRANCH   3   4
ATOM      4  C   UNL     1     128.320 142.504 122.524  1.00  0.00     0.041 C 
ATOM      5  O   UNL     1     127.624 143.000 123.448  1.00  0.00    -0.550 OA
ATOM      6  O   UNL     1     129.706 142.567 122.597  1.00  0.00    -0.550 OA
ENDBRANCH   3   4
ENDBRANCH   2   3
ENDBRANCH   1   2
BRANCH   1   7
ATOM      7  C   UNL     1     127.903 144.667 118.744  1.00  0.00     0.000 C 
BRANCH   7   8
ATOM      8  C   UNL     1     127.741 145.841 119.717  1.00  0.00    -0.000 C 
BRANCH   8   9
ATOM      9  C   UNL     1     128.975 145.986 120.616  1.00  0.00    -0.000 C 
BRANCH   9  10
ATOM     10  C   UNL     1     128.569 146.179 122.081  1.00  0.00    -0.003 C 
ATOM     11  C   UNL     1     127.055 146.312 122.221  1.00  0.00     0.004 C 
ENDBRANCH   9  10
ENDBRANCH   8   9
ENDBRANCH   7   8
ENDBRANCH   1   7
TORSDOF 7
ENDMDL
MODEL 7
REMARK VINA RESULT:    -3.122      1.020      1.615
REMARK INTER + INTRA:          -5.134
REMARK INTER:                  -4.319
REMARK INTRA:                  -0.815
REMARK UNBOUND:                -0.734
REMARK SMILES CCCCCCCCC(=O)[O-]
REMARK SMILES IDX 6 1 7 2 8 3 9 4 10 5 11 6 5 7 4 8 3 9 2 10 1 11
REMARK H PARENT
REMARK Flexibility Score: inf
ROOT
ATOM      1  C   UNL     1     128.543 144.243 118.903  1.00  0.00     0.000 C 
ENDROOT
BRANCH   1   2
ATOM      2  C   UNL     1     127.321 144.770 119.669  1.00  0.00     0.006 C 
BRANCH   2   3
ATOM      3  C   UNL     1     127.597 146.118 120.347  1.00  0.00     0.053 C 
BRANCH   3   4
ATOM      4  C   UNL     1     127.873 145.958 121.810  1.00  0.00     0.041 C 
ATOM      5  O   UNL     1     127.236 145.110 122.487  1.00  0.00    -0.550 OA
ATOM      6  O   UNL     1     128.859 146.726 122.420  1.00  0.00    -0.550 OA
ENDBRANCH   3   4
ENDBRANCH   2   3
ENDBRANCH   1   2
BRANCH   1   7
ATOM      7  C   UNL     1     129.283 143.174 119.717  1.00  0.00     0.000 C 
BRANCH   7   8
ATOM      8  C   UNL     1     130.796 143.421 119.704  1.00  0.00    -0.000 C 
BRANCH   8   9
ATOM      9  C   UNL     1     131.177 144.551 120.668  1.00  0.00    -0.000 C 
BRANCH   9  10
ATOM     10  C   UNL     1     132.027 145.613 119.962  1.00  0.00    -0.003 C 
ATOM     11  C   UNL     1     131.237 146.901 119.752  1.00  0.00     0.004 C 
ENDBRANCH   9  10
ENDBRANCH   8   9
ENDBRANCH   7   8
ENDBRANCH   1   7
TORSDOF 7
ENDMDL
MODEL 8
REMARK VINA RESULT:    -3.090      2.370      3.386
REMARK INTER + INTRA:          -5.089
REMARK INTER:                  -4.732
REMARK INTRA:                  -0.356
REMARK UNBOUND:                -0.734
REMARK SMILES CCCCCCCCC(=O)[O-]
REMARK SMILES IDX 6 1 7 2 8 3 9 4 10 5 11 6 5 7 4 8 3 9 2 10 1 11
REMARK H PARENT
REMARK Flexibility Score: inf
ROOT
ATOM      1  C   UNL     1     130.193 145.765 120.216  1.00  0.00     0.000 C 
ENDROOT
BRANCH   1   2
ATOM      2  C   UNL     1     128.935 145.532 119.366  1.00  0.00     0.006 C 
BRANCH   2   3
ATOM      3  C   UNL     1     127.646 145.831 120.143  1.00  0.00     0.053 C 
BRANCH   3   4
ATOM      4  C   UNL     1     127.362 144.780 121.172  1.00  0.00     0.041 C 
ATOM      5  O   UNL     1     127.176 145.102 122.374  1.00  0.00    -0.550 OA
ATOM      6  O   UNL     1     127.270 143.445 120.794  1.00  0.00    -0.550 OA
ENDBRANCH   3   4
ENDBRANCH   2   3
ENDBRANCH   1   2
BRANCH   1   7
ATOM      7  C   UNL     1     131.034 146.916 119.649  1.00  0.00     0.000 C 
BRANCH   7   8
ATOM      8  C   UNL     1     132.529 146.675 119.888  1.00  0.00    -0.000 C 
BRANCH   8   9
ATOM      9  C   UNL     1     132.862 145.179 119.836  1.00  0.00    -0.000 C 
BRANCH   9  10
ATOM     10  C   UNL     1     134.208 144.939 119.144  1.00  0.00    -0.003 C 
ATOM     11  C   UNL     1     134.816 146.249 118.651  1.00  0.00     0.004 C 
ENDBRANCH   9  10
ENDBRANCH   8   9
ENDBRANCH   7   8
ENDBRANCH   1   7
TORSDOF 7
ENDMDL
MODEL 9
REMARK VINA RESULT:    -3.081      2.949      4.627
REMARK INTER + INTRA:          -5.075
REMARK INTER:                  -4.491
REMARK INTRA:                  -0.584
REMARK UNBOUND:                -0.734
REMARK SMILES CCCCCCCCC(=O)[O-]
REMARK SMILES IDX 6 1 7 2 8 3 9 4 10 5 11 6 5 7 4 8 3 9 2 10 1 11
REMARK H PARENT
REMARK Flexibility Score: inf
ROOT
ATOM      1  C   UNL     1     130.560 145.861 121.711  1.00  0.00     0.000 C 
ENDROOT
BRANCH   1   2
ATOM      2  C   UNL     1     130.677 146.230 120.224  1.00  0.00     0.006 C 
BRANCH   2   3
ATOM      3  C   UNL     1     131.890 147.125 119.942  1.00  0.00     0.053 C 
BRANCH   3   4
ATOM      4  C   UNL     1     133.179 146.425 120.245  1.00  0.00     0.041 C 
ATOM      5  O   UNL     1     133.942 146.863 121.145  1.00  0.00    -0.550 OA
ATOM      6  O   UNL     1     133.521 145.269 119.554  1.00  0.00    -0.550 OA
ENDBRANCH   3   4
ENDBRANCH   2   3
ENDBRANCH   1   2
BRANCH   1   7
ATOM      7  C   UNL     1     129.108 145.972 122.192  1.00  0.00     0.000 C 
BRANCH   7   8
ATOM      8  C   UNL     1     128.137 146.019 121.005  1.00  0.00    -0.000 C 
BRANCH   8   9
ATOM      9  C   UNL     1     127.242 144.775 120.976  1.00  0.00    -0.000 C 
BRANCH   9  10
ATOM     10  C   UNL     1     127.664 143.819 119.856  1.00  0.00    -0.003 C 
ATOM     11  C   UNL     1     127.885 144.569 118.546  1.00  0.00     0.004 C 
ENDBRANCH   9  10
ENDBRANCH   8   9
ENDBRANCH   7   8
ENDBRANCH   1   7
TORSDOF 7
ENDMDL
