MODEL 1
REMARK VINA RESULT:    -2.923      0.000      0.000
REMARK INTER + INTRA:          -3.739
REMARK INTER:                  -3.606
REMARK INTRA:                  -0.133
REMARK UNBOUND:                -0.133
REMARK SMILES CCCCCC(=O)[O-]
REMARK SMILES IDX 4 1 5 2 6 3 7 4 8 5 3 6 2 7 1 8
REMARK H PARENT
REMARK Flexibility Score: inf
ROOT
ATOM      1  C   UNL     1      27.424  72.337  10.738  1.00  0.00     0.006 C 
ENDROOT
BRANCH   1   2
ATOM      2  C   UNL     1      28.420  72.028  11.863  1.00  0.00     0.053 C 
BRANCH   2   3
ATOM      3  C   UNL     1      27.770  72.085  13.212  1.00  0.00     0.041 C 
ATOM      4  O   UNL     1      28.467  72.290  14.241  1.00  0.00    -0.550 OA
ATOM      5  O   UNL     1      26.403  71.876  13.336  1.00  0.00    -0.550 OA
ENDBRANCH   2   3
ENDBRANCH   1   2
BRANCH   1   6
ATOM      6  C   UNL     1      27.286  71.168   9.746  1.00  0.00     0.000 C 
BRANCH   6   7
ATOM      7  C   UNL     1      28.631  70.758   9.127  1.00  0.00    -0.003 C 
ATOM      8  C   UNL     1      29.063  71.683   7.989  1.00  0.00     0.004 C 
ENDBRANCH   6   7
ENDBRANCH   1   6
TORSDOF 4
ENDMDL
MODEL 2
REMARK VINA RESULT:    -2.804      1.230      1.636
REMARK INTER + INTRA:          -3.593
REMARK INTER:                  -3.384
REMARK INTRA:                  -0.209
REMARK UNBOUND:                -0.133
REMARK SMILES CCCCCC(=O)[O-]
REMARK SMILES IDX 4 1 5 2 6 3 7 4 8 5 3 6 2 7 1 8
REMARK H PARENT
REMARK Flexibility Score: inf
ROOT
ATOM      1  C   UNL     1      26.808  70.926  11.270  1.00  0.00     0.006 C 
ENDROOT
BRANCH   1   2
ATOM      2  C   UNL     1      26.731  71.643  12.624  1.00  0.00     0.053 C 
BRANCH   2   3
ATOM      3  C   UNL     1      28.092  71.965  13.161  1.00  0.00     0.041 C 
ATOM      4  O   UNL     1      29.102  71.890  12.412  1.00  0.00    -0.550 OA
ATOM      5  O   UNL     1      28.250  72.313  14.496  1.00  0.00    -0.550 OA
ENDBRANCH   2   3
ENDBRANCH   1   2
BRANCH   1   6
ATOM      6  C   UNL     1      26.451  71.859  10.098  1.00  0.00     0.000 C 
BRANCH   6   7
ATOM      7  C   UNL     1      27.592  71.984   9.078  1.00  0.00    -0.003 C 
ATOM      8  C   UNL     1      28.566  70.807   9.132  1.00  0.00     0.004 C 
ENDBRANCH   6   7
ENDBRANCH   1   6
TORSDOF 4
ENDMDL
MODEL 3
REMARK VINA RESULT:    -2.655      9.484     11.037
REMARK INTER + INTRA:          -3.409
REMARK INTER:                  -3.302
REMARK INTRA:                  -0.107
REMARK UNBOUND:                -0.133
REMARK SMILES CCCCCC(=O)[O-]
REMARK SMILES IDX 4 1 5 2 6 3 7 4 8 5 3 6 2 7 1 8
REMARK H PARENT
REMARK Flexibility Score: inf
ROOT
ATOM      1  C   UNL     1      21.832  67.931  19.185  1.00  0.00     0.006 C 
ENDROOT
BRANCH   1   2
ATOM      2  C   UNL     1      20.440  67.421  18.790  1.00  0.00     0.053 C 
BRANCH   2   3
ATOM      3  C   UNL     1      20.318  65.939  18.969  1.00  0.00     0.041 C 
ATOM      4  O   UNL     1      21.290  65.274  19.417  1.00  0.00    -0.550 OA
ATOM      5  O   UNL     1      19.146  65.288  18.608  1.00  0.00    -0.550 OA
ENDBRANCH   2   3
ENDBRANCH   1   2
BRANCH   1   6
ATOM      6  C   UNL     1      22.563  68.595  18.004  1.00  0.00     0.000 C 
BRANCH   6   7
ATOM      7  C   UNL     1      22.591  70.126  18.115  1.00  0.00    -0.003 C 
ATOM      8  C   UNL     1      22.130  70.820  16.832  1.00  0.00     0.004 C 
ENDBRANCH   6   7
ENDBRANCH   1   6
TORSDOF 4
ENDMDL
MODEL 4
REMARK VINA RESULT:    -2.601      8.997      9.786
REMARK INTER + INTRA:          -3.342
REMARK INTER:                  -3.233
REMARK INTRA:                  -0.109
REMARK UNBOUND:                -0.133
REMARK SMILES CCCCCC(=O)[O-]
REMARK SMILES IDX 4 1 5 2 6 3 7 4 8 5 3 6 2 7 1 8
REMARK H PARENT
REMARK Flexibility Score: inf
ROOT
ATOM      1  C   UNL     1      23.038  66.784  18.150  1.00  0.00     0.006 C 
ENDROOT
BRANCH   1   2
ATOM      2  C   UNL     1      23.152  66.856  16.622  1.00  0.00     0.053 C 
BRANCH   2   3
ATOM      3  C   UNL     1      23.836  65.648  16.058  1.00  0.00     0.041 C 
ATOM      4  O   UNL     1      23.639  65.311  14.860  1.00  0.00    -0.550 OA
ATOM      5  O   UNL     1      24.662  64.875  16.864  1.00  0.00    -0.550 OA
ENDBRANCH   2   3
ENDBRANCH   1   2
BRANCH   1   6
ATOM      6  C   UNL     1      22.309  68.007  18.736  1.00  0.00     0.000 C 
BRANCH   6   7
ATOM      7  C   UNL     1      22.230  69.177  17.743  1.00  0.00    -0.003 C 
ATOM      8  C   UNL     1      22.727  70.493  18.341  1.00  0.00     0.004 C 
ENDBRANCH   6   7
ENDBRANCH   1   6
TORSDOF 4
ENDMDL
MODEL 5
REMARK VINA RESULT:    -2.592     10.266     11.683
REMARK INTER + INTRA:          -3.331
REMARK INTER:                  -3.200
REMARK INTRA:                  -0.131
REMARK UNBOUND:                -0.133
REMARK SMILES CCCCCC(=O)[O-]
REMARK SMILES IDX 4 1 5 2 6 3 7 4 8 5 3 6 2 7 1 8
REMARK H PARENT
REMARK Flexibility Score: inf
ROOT
ATOM      1  C   UNL     1      21.243  67.502  19.497  1.00  0.00     0.006 C 
ENDROOT
BRANCH   1   2
ATOM      2  C   UNL     1      19.917  67.498  18.727  1.00  0.00     0.053 C 
BRANCH   2   3
ATOM      3  C   UNL     1      19.150  66.230  18.945  1.00  0.00     0.041 C 
ATOM      4  O   UNL     1      19.647  65.124  18.604  1.00  0.00    -0.550 OA
ATOM      5  O   UNL     1      17.875  66.273  19.492  1.00  0.00    -0.550 OA
ENDBRANCH   2   3
ENDBRANCH   1   2
BRANCH   1   6
ATOM      6  C   UNL     1      22.460  67.608  18.559  1.00  0.00     0.000 C 
BRANCH   6   7
ATOM      7  C   UNL     1      22.383  68.828  17.630  1.00  0.00    -0.003 C 
ATOM      8  C   UNL     1      22.503  70.153  18.384  1.00  0.00     0.004 C 
ENDBRANCH   6   7
ENDBRANCH   1   6
TORSDOF 4
ENDMDL
MODEL 6
REMARK VINA RESULT:    -2.585      2.804      4.182
REMARK INTER + INTRA:          -3.322
REMARK INTER:                  -3.164
REMARK INTRA:                  -0.158
REMARK UNBOUND:                -0.133
REMARK SMILES CCCCCC(=O)[O-]
REMARK SMILES IDX 4 1 5 2 6 3 7 4 8 5 3 6 2 7 1 8
REMARK H PARENT
REMARK Flexibility Score: inf
ROOT
ATOM      1  C   UNL     1      26.854  70.860  11.249  1.00  0.00     0.006 C 
ENDROOT
BRANCH   1   2
ATOM      2  C   UNL     1      26.664  71.605   9.922  1.00  0.00     0.053 C 
BRANCH   2   3
ATOM      3  C   UNL     1      27.894  71.543   9.068  1.00  0.00     0.041 C 
ATOM      4  O   UNL     1      28.788  70.689   9.307  1.00  0.00    -0.550 OA
ATOM      5  O   UNL     1      28.068  72.450   8.032  1.00  0.00    -0.550 OA
ENDBRANCH   2   3
ENDBRANCH   1   2
BRANCH   1   6
ATOM      6  C   UNL     1      26.347  71.676  12.452  1.00  0.00     0.000 C 
BRANCH   6   7
ATOM      7  C   UNL     1      27.445  71.934  13.494  1.00  0.00    -0.003 C 
ATOM      8  C   UNL     1      28.848  71.939  12.885  1.00  0.00     0.004 C 
ENDBRANCH   6   7
ENDBRANCH   1   6
TORSDOF 4
ENDMDL
MODEL 7
REMARK VINA RESULT:    -2.584      9.488     11.177
REMARK INTER + INTRA:          -3.322
REMARK INTER:                  -3.151
REMARK INTRA:                  -0.171
REMARK UNBOUND:                -0.133
REMARK SMILES CCCCCC(=O)[O-]
REMARK SMILES IDX 4 1 5 2 6 3 7 4 8 5 3 6 2 7 1 8
REMARK H PARENT
REMARK Flexibility Score: inf
ROOT
ATOM      1  C   UNL     1      21.301  67.563  19.386  1.00  0.00     0.006 C 
ENDROOT
BRANCH   1   2
ATOM      2  C   UNL     1      22.418  68.127  18.499  1.00  0.00     0.053 C 
BRANCH   2   3
ATOM      3  C   UNL     1      22.136  69.538  18.079  1.00  0.00     0.041 C 
ATOM      4  O   UNL     1      23.016  70.428  18.220  1.00  0.00    -0.550 OA
ATOM      5  O   UNL     1      20.892  69.875  17.564  1.00  0.00    -0.550 OA
ENDBRANCH   2   3
ENDBRANCH   1   2
BRANCH   1   6
ATOM      6  C   UNL     1      20.783  66.207  18.875  1.00  0.00     0.000 C 
BRANCH   6   7
ATOM      7  C   UNL     1      19.249  66.137  18.840  1.00  0.00    -0.003 C 
ATOM      8  C   UNL     1      18.590  67.481  19.152  1.00  0.00     0.004 C 
ENDBRANCH   6   7
ENDBRANCH   1   6
TORSDOF 4
ENDMDL
MODEL 8
REMARK VINA RESULT:    -2.565      9.077     10.010
REMARK INTER + INTRA:          -3.298
REMARK INTER:                  -3.201
REMARK INTRA:                  -0.097
REMARK UNBOUND:                -0.133
REMARK SMILES CCCCCC(=O)[O-]
REMARK SMILES IDX 4 1 5 2 6 3 7 4 8 5 3 6 2 7 1 8
REMARK H PARENT
REMARK Flexibility Score: inf
ROOT
ATOM      1  C   UNL     1      22.083  68.872  18.470  1.00  0.00     0.006 C 
ENDROOT
BRANCH   1   2
ATOM      2  C   UNL     1      22.857  67.728  17.804  1.00  0.00     0.053 C 
BRANCH   2   3
ATOM      3  C   UNL     1      22.526  66.401  18.417  1.00  0.00     0.041 C 
ATOM      4  O   UNL     1      23.242  65.395  18.172  1.00  0.00    -0.550 OA
ATOM      5  O   UNL     1      21.408  66.269  19.229  1.00  0.00    -0.550 OA
ENDBRANCH   2   3
ENDBRANCH   1   2
BRANCH   1   6
ATOM      6  C   UNL     1      22.673  70.251  18.124  1.00  0.00     0.000 C 
BRANCH   6   7
ATOM      7  C   UNL     1      22.045  70.862  16.863  1.00  0.00    -0.003 C 
ATOM      8  C   UNL     1      20.517  70.789  16.870  1.00  0.00     0.004 C 
ENDBRANCH   6   7
ENDBRANCH   1   6
TORSDOF 4
ENDMDL
MODEL 9
REMARK VINA RESULT:    -2.501     10.176     11.606
REMARK INTER + INTRA:          -3.219
REMARK INTER:                  -3.095
REMARK INTRA:                  -0.123
REMARK UNBOUND:                -0.133
REMARK SMILES CCCCCC(=O)[O-]
REMARK SMILES IDX 4 1 5 2 6 3 7 4 8 5 3 6 2 7 1 8
REMARK H PARENT
REMARK Flexibility Score: inf
ROOT
ATOM      1  C   UNL     1      21.266  67.543  19.234  1.00  0.00     0.006 C 
ENDROOT
BRANCH   1   2
ATOM      2  C   UNL     1      20.623  66.158  19.091  1.00  0.00     0.053 C 
BRANCH   2   3
ATOM      3  C   UNL     1      19.135  66.247  18.944  1.00  0.00     0.041 C 
ATOM      4  O   UNL     1      18.534  67.318  19.228  1.00  0.00    -0.550 OA
ATOM      5  O   UNL     1      18.408  65.140  18.529  1.00  0.00    -0.550 OA
ENDBRANCH   2   3
ENDBRANCH   1   2
BRANCH   1   6
ATOM      6  C   UNL     1      22.617  67.635  18.503  1.00  0.00     0.000 C 
BRANCH   6   7
ATOM      7  C   UNL     1      23.102  66.272  17.988  1.00  0.00    -0.003 C 
ATOM      8  C   UNL     1      23.747  66.358  16.604  1.00  0.00     0.004 C 
ENDBRANCH   6   7
ENDBRANCH   1   6
TORSDOF 4
ENDMDL
