MODEL 1
REMARK VINA RESULT:    -2.180      0.000      0.000
REMARK INTER + INTRA:          -2.180
REMARK INTER:                  -2.180
REMARK INTRA:                   0.000
REMARK UNBOUND:                 0.000
REMARK SMILES CC(=O)[O-]
REMARK SMILES IDX 1 1 2 2 3 3 4 4
REMARK H PARENT
REMARK Flexibility Score: inf
ROOT
ATOM      1  C   UNL     1     -10.779  42.975  21.024  1.00  0.00     0.063 C 
ATOM      2  C   UNL     1     -11.391  44.329  21.164  1.00  0.00     0.038 C 
ATOM      3  O   UNL     1     -10.747  45.259  21.716  1.00  0.00    -0.550 OA
ATOM      4  O   UNL     1     -12.651  44.579  20.637  1.00  0.00    -0.550 OA
ENDROOT
TORSDOF 0
ENDMDL
MODEL 2
REMARK VINA RESULT:    -2.097      1.391      2.409
REMARK INTER + INTRA:          -2.097
REMARK INTER:                  -2.097
REMARK INTRA:                   0.000
REMARK UNBOUND:                 0.000
REMARK SMILES CC(=O)[O-]
REMARK SMILES IDX 1 1 2 2 3 3 4 4
REMARK H PARENT
REMARK Flexibility Score: inf
ROOT
ATOM      1  C   UNL     1     -12.786  45.089  22.636  1.00  0.00     0.063 C 
ATOM      2  C   UNL     1     -12.267  44.844  21.260  1.00  0.00     0.038 C 
ATOM      3  O   UNL     1     -13.013  44.331  20.385  1.00  0.00    -0.550 OA
ATOM      4  O   UNL     1     -10.976  45.231  20.924  1.00  0.00    -0.550 OA
ENDROOT
TORSDOF 0
ENDMDL
MODEL 3
REMARK VINA RESULT:    -2.048     27.209     27.597
REMARK INTER + INTRA:          -2.048
REMARK INTER:                  -2.048
REMARK INTRA:                   0.000
REMARK UNBOUND:                 0.000
REMARK SMILES CC(=O)[O-]
REMARK SMILES IDX 1 1 2 2 3 3 4 4
REMARK H PARENT
REMARK Flexibility Score: inf
ROOT
ATOM      1  C   UNL     1     -27.794  62.345  36.202  1.00  0.00     0.063 C 
ATOM      2  C   UNL     1     -27.645  61.760  34.837  1.00  0.00     0.038 C 
ATOM      3  O   UNL     1     -27.711  62.501  33.822  1.00  0.00    -0.550 OA
ATOM      4  O   UNL     1     -27.378  60.406  34.687  1.00  0.00    -0.550 OA
ENDROOT
TORSDOF 0
ENDMDL
MODEL 4
REMARK VINA RESULT:    -2.047     26.469     26.820
REMARK INTER + INTRA:          -2.047
REMARK INTER:                  -2.047
REMARK INTRA:                   0.000
REMARK UNBOUND:                 0.000
REMARK SMILES CC(=O)[O-]
REMARK SMILES IDX 1 1 2 2 3 3 4 4
REMARK H PARENT
REMARK Flexibility Score: inf
ROOT
ATOM      1  C   UNL     1     -25.747  60.996  34.844  1.00  0.00     0.063 C 
ATOM      2  C   UNL     1     -27.195  61.228  34.573  1.00  0.00     0.038 C 
ATOM      3  O   UNL     1     -28.048  60.366  34.910  1.00  0.00    -0.550 OA
ATOM      4  O   UNL     1     -27.611  62.421  33.996  1.00  0.00    -0.550 OA
ENDROOT
TORSDOF 0
ENDMDL
MODEL 5
REMARK VINA RESULT:    -2.041     26.473     26.880
REMARK INTER + INTRA:          -2.041
REMARK INTER:                  -2.041
REMARK INTRA:                   0.000
REMARK UNBOUND:                 0.000
REMARK SMILES CC(=O)[O-]
REMARK SMILES IDX 1 1 2 2 3 3 4 4
REMARK H PARENT
REMARK Flexibility Score: inf
ROOT
ATOM      1  C   UNL     1     -27.764  62.391  34.188  1.00  0.00     0.063 C 
ATOM      2  C   UNL     1     -27.996  60.932  33.980  1.00  0.00     0.038 C 
ATOM      3  O   UNL     1     -28.125  60.165  34.969  1.00  0.00    -0.550 OA
ATOM      4  O   UNL     1     -28.125  60.425  32.693  1.00  0.00    -0.550 OA
ENDROOT
TORSDOF 0
ENDMDL
MODEL 6
REMARK VINA RESULT:    -2.036      1.650      1.690
REMARK INTER + INTRA:          -2.036
REMARK INTER:                  -2.036
REMARK INTRA:                   0.000
REMARK UNBOUND:                 0.000
REMARK SMILES CC(=O)[O-]
REMARK SMILES IDX 1 1 2 2 3 3 4 4
REMARK H PARENT
REMARK Flexibility Score: inf
ROOT
ATOM      1  C   UNL     1     -10.945  45.077  21.180  1.00  0.00     0.063 C 
ATOM      2  C   UNL     1     -12.376  44.794  21.495  1.00  0.00     0.038 C 
ATOM      3  O   UNL     1     -12.819  44.995  22.656  1.00  0.00    -0.550 OA
ATOM      4  O   UNL     1     -13.235  44.361  20.494  1.00  0.00    -0.550 OA
ENDROOT
TORSDOF 0
ENDMDL
MODEL 7
REMARK VINA RESULT:    -2.029     23.194     23.609
REMARK INTER + INTRA:          -2.029
REMARK INTER:                  -2.029
REMARK INTRA:                   0.000
REMARK UNBOUND:                 0.000
REMARK SMILES CC(=O)[O-]
REMARK SMILES IDX 1 1 2 2 3 3 4 4
REMARK H PARENT
REMARK Flexibility Score: inf
ROOT
ATOM      1  C   UNL     1     -24.660  63.088  30.307  1.00  0.00     0.063 C 
ATOM      2  C   UNL     1     -24.532  61.968  29.331  1.00  0.00     0.038 C 
ATOM      3  O   UNL     1     -23.527  61.900  28.575  1.00  0.00    -0.550 OA
ATOM      4  O   UNL     1     -25.493  60.967  29.291  1.00  0.00    -0.550 OA
ENDROOT
TORSDOF 0
ENDMDL
MODEL 8
REMARK VINA RESULT:    -2.006      2.728      2.993
REMARK INTER + INTRA:          -2.006
REMARK INTER:                  -2.006
REMARK INTRA:                   0.000
REMARK UNBOUND:                 0.000
REMARK SMILES CC(=O)[O-]
REMARK SMILES IDX 1 1 2 2 3 3 4 4
REMARK H PARENT
REMARK Flexibility Score: inf
ROOT
ATOM      1  C   UNL     1     -14.215  44.249  23.240  1.00  0.00     0.063 C 
ATOM      2  C   UNL     1     -13.068  45.175  23.014  1.00  0.00     0.038 C 
ATOM      3  O   UNL     1     -12.576  45.818  23.978  1.00  0.00    -0.550 OA
ATOM      4  O   UNL     1     -12.504  45.288  21.750  1.00  0.00    -0.550 OA
ENDROOT
TORSDOF 0
ENDMDL
MODEL 9
REMARK VINA RESULT:    -2.003     24.152     24.534
REMARK INTER + INTRA:          -2.003
REMARK INTER:                  -2.003
REMARK INTRA:                   0.000
REMARK UNBOUND:                 0.000
REMARK SMILES CC(=O)[O-]
REMARK SMILES IDX 1 1 2 2 3 3 4 4
REMARK H PARENT
REMARK Flexibility Score: inf
ROOT
ATOM      1  C   UNL     1     -24.875  63.085  29.971  1.00  0.00     0.063 C 
ATOM      2  C   UNL     1     -24.910  62.074  31.068  1.00  0.00     0.038 C 
ATOM      3  O   UNL     1     -26.005  61.564  31.422  1.00  0.00    -0.550 OA
ATOM      4  O   UNL     1     -23.728  61.653  31.664  1.00  0.00    -0.550 OA
ENDROOT
TORSDOF 0
ENDMDL
