MODEL 1
REMARK VINA RESULT:    -5.269      0.000      0.000
REMARK INTER + INTRA:          -5.793
REMARK INTER:                  -5.577
REMARK INTRA:                  -0.215
REMARK UNBOUND:                -0.215
REMARK SMILES CC1=C[C@@H]2C(=C(C)CC[C@@H]2C(C)C)CC1
REMARK SMILES IDX 1 1 2 2 3 3 4 4 10 5 9 6 8 7 6 8 5 9 14 10 15 11 7 12 11 13
REMARK SMILES IDX 12 14 13 15
REMARK H PARENT
REMARK Flexibility Score: inf
ROOT
ATOM      1  C   UNL     1      11.806  18.507  34.706  1.00  0.00     0.039 C 
ATOM      2  C   UNL     1      12.699  17.766  35.663  1.00  0.00    -0.076 C 
ATOM      3  C   UNL     1      12.134  17.021  36.645  1.00  0.00    -0.020 C 
ATOM      4  C   UNL     1      12.961  16.300  37.700  1.00  0.00     0.041 C 
ATOM      5  C   UNL     1      12.258  15.068  38.347  1.00  0.00     0.003 C 
ATOM      6  C   UNL     1      12.311  13.895  37.352  1.00  0.00     0.009 C 
ATOM      7  C   UNL     1      13.766  13.508  37.080  1.00  0.00     0.031 C 
ATOM      8  C   UNL     1      14.633  14.691  36.704  1.00  0.00    -0.073 C 
ATOM      9  C   UNL     1      14.305  15.958  37.084  1.00  0.00    -0.064 C 
ATOM     10  C   UNL     1      15.026  17.177  36.561  1.00  0.00     0.036 C 
ATOM     11  C   UNL     1      14.202  17.772  35.410  1.00  0.00     0.035 C 
ATOM     12  C   UNL     1      15.919  14.396  35.966  1.00  0.00     0.039 C 
ENDROOT
BRANCH   5  13
ATOM     13  C   UNL     1      10.811  15.340  38.887  1.00  0.00    -0.013 C 
ATOM     14  C   UNL     1      10.789  16.480  39.923  1.00  0.00     0.007 C 
ATOM     15  C   UNL     1      10.199  14.082  39.535  1.00  0.00     0.007 C 
ENDBRANCH   5  13
TORSDOF 1
ENDMDL
MODEL 2
REMARK VINA RESULT:    -5.214      1.440      3.251
REMARK INTER + INTRA:          -5.735
REMARK INTER:                  -5.471
REMARK INTRA:                  -0.263
REMARK UNBOUND:                -0.215
REMARK SMILES CC1=C[C@@H]2C(=C(C)CC[C@@H]2C(C)C)CC1
REMARK SMILES IDX 1 1 2 2 3 3 4 4 10 5 9 6 8 7 6 8 5 9 14 10 15 11 7 12 11 13
REMARK SMILES IDX 12 14 13 15
REMARK H PARENT
REMARK Flexibility Score: inf
ROOT
ATOM      1  C   UNL     1      15.194  12.878  36.638  1.00  0.00     0.039 C 
ATOM      2  C   UNL     1      14.591  14.251  36.519  1.00  0.00    -0.076 C 
ATOM      3  C   UNL     1      13.418  14.509  37.149  1.00  0.00    -0.020 C 
ATOM      4  C   UNL     1      12.703  15.847  37.023  1.00  0.00     0.041 C 
ATOM      5  C   UNL     1      11.753  16.192  38.210  1.00  0.00     0.003 C 
ATOM      6  C   UNL     1      12.609  16.644  39.407  1.00  0.00     0.009 C 
ATOM      7  C   UNL     1      13.379  17.916  39.045  1.00  0.00     0.031 C 
ATOM      8  C   UNL     1      14.136  17.799  37.738  1.00  0.00    -0.073 C 
ATOM      9  C   UNL     1      13.752  16.915  36.774  1.00  0.00    -0.064 C 
ATOM     10  C   UNL     1      14.592  16.625  35.554  1.00  0.00     0.036 C 
ATOM     11  C   UNL     1      15.389  15.338  35.808  1.00  0.00     0.035 C 
ATOM     12  C   UNL     1      15.279  18.762  37.515  1.00  0.00     0.039 C 
ENDROOT
BRANCH   5  13
ATOM     13  C   UNL     1      10.731  15.064  38.589  1.00  0.00    -0.013 C 
ATOM     14  C   UNL     1       9.283  15.588  38.621  1.00  0.00     0.007 C 
ATOM     15  C   UNL     1      11.053  14.441  39.963  1.00  0.00     0.007 C 
ENDBRANCH   5  13
TORSDOF 1
ENDMDL
MODEL 3
REMARK VINA RESULT:    -5.171      1.846      4.353
REMARK INTER + INTRA:          -5.688
REMARK INTER:                  -5.425
REMARK INTRA:                  -0.263
REMARK UNBOUND:                -0.215
REMARK SMILES CC1=C[C@@H]2C(=C(C)CC[C@@H]2C(C)C)CC1
REMARK SMILES IDX 1 1 2 2 3 3 4 4 10 5 9 6 8 7 6 8 5 9 14 10 15 11 7 12 11 13
REMARK SMILES IDX 12 14 13 15
REMARK H PARENT
REMARK Flexibility Score: inf
ROOT
ATOM      1  C   UNL     1      12.126  13.988  37.791  1.00  0.00     0.039 C 
ATOM      2  C   UNL     1      13.389  14.546  37.195  1.00  0.00    -0.076 C 
ATOM      3  C   UNL     1      13.599  15.886  37.238  1.00  0.00    -0.020 C 
ATOM      4  C   UNL     1      14.813  16.541  36.595  1.00  0.00     0.041 C 
ATOM      5  C   UNL     1      15.215  17.915  37.213  1.00  0.00     0.003 C 
ATOM      6  C   UNL     1      15.930  17.660  38.551  1.00  0.00     0.009 C 
ATOM      7  C   UNL     1      17.217  16.867  38.310  1.00  0.00     0.031 C 
ATOM      8  C   UNL     1      17.000  15.628  37.467  1.00  0.00    -0.073 C 
ATOM      9  C   UNL     1      15.948  15.533  36.605  1.00  0.00    -0.064 C 
ATOM     10  C   UNL     1      15.583  14.247  35.904  1.00  0.00     0.036 C 
ATOM     11  C   UNL     1      14.446  13.573  36.685  1.00  0.00     0.035 C 
ATOM     12  C   UNL     1      18.045  14.541  37.557  1.00  0.00     0.039 C 
ENDROOT
BRANCH   5  13
ATOM     13  C   UNL     1      14.044  18.950  37.340  1.00  0.00    -0.013 C 
ATOM     14  C   UNL     1      13.581  19.467  35.964  1.00  0.00     0.007 C 
ATOM     15  C   UNL     1      14.446  20.162  38.204  1.00  0.00     0.007 C 
ENDBRANCH   5  13
TORSDOF 1
ENDMDL
MODEL 4
REMARK VINA RESULT:    -4.932     13.002     15.421
REMARK INTER + INTRA:          -5.436
REMARK INTER:                  -5.195
REMARK INTRA:                  -0.242
REMARK UNBOUND:                -0.215
REMARK SMILES CC1=C[C@@H]2C(=C(C)CC[C@@H]2C(C)C)CC1
REMARK SMILES IDX 1 1 2 2 3 3 4 4 10 5 9 6 8 7 6 8 5 9 14 10 15 11 7 12 11 13
REMARK SMILES IDX 12 14 13 15
REMARK H PARENT
REMARK Flexibility Score: inf
ROOT
ATOM      1  C   UNL     1      10.664  19.562  22.902  1.00  0.00     0.039 C 
ATOM      2  C   UNL     1       9.219  19.265  23.196  1.00  0.00    -0.076 C 
ATOM      3  C   UNL     1       8.611  19.911  24.221  1.00  0.00    -0.020 C 
ATOM      4  C   UNL     1       7.176  19.618  24.633  1.00  0.00     0.041 C 
ATOM      5  C   UNL     1       6.459  20.788  25.373  1.00  0.00     0.003 C 
ATOM      6  C   UNL     1       6.055  21.850  24.334  1.00  0.00     0.009 C 
ATOM      7  C   UNL     1       5.058  21.252  23.339  1.00  0.00     0.031 C 
ATOM      8  C   UNL     1       5.527  19.939  22.747  1.00  0.00    -0.073 C 
ATOM      9  C   UNL     1       6.424  19.147  23.402  1.00  0.00    -0.064 C 
ATOM     10  C   UNL     1       7.068  17.943  22.759  1.00  0.00     0.036 C 
ATOM     11  C   UNL     1       8.456  18.349  22.245  1.00  0.00     0.035 C 
ATOM     12  C   UNL     1       4.896  19.505  21.445  1.00  0.00     0.039 C 
ENDROOT
BRANCH   5  13
ATOM     13  C   UNL     1       7.256  21.395  26.580  1.00  0.00    -0.013 C 
ATOM     14  C   UNL     1       6.378  21.527  27.839  1.00  0.00     0.007 C 
ATOM     15  C   UNL     1       7.832  22.784  26.242  1.00  0.00     0.007 C 
ENDBRANCH   5  13
TORSDOF 1
ENDMDL
MODEL 5
REMARK VINA RESULT:    -4.830      1.335      4.907
REMARK INTER + INTRA:          -5.328
REMARK INTER:                  -5.053
REMARK INTRA:                  -0.275
REMARK UNBOUND:                -0.215
REMARK SMILES CC1=C[C@@H]2C(=C(C)CC[C@@H]2C(C)C)CC1
REMARK SMILES IDX 1 1 2 2 3 3 4 4 10 5 9 6 8 7 6 8 5 9 14 10 15 11 7 12 11 13
REMARK SMILES IDX 12 14 13 15
REMARK H PARENT
REMARK Flexibility Score: inf
ROOT
ATOM      1  C   UNL     1      10.715  12.875  36.384  1.00  0.00     0.039 C 
ATOM      2  C   UNL     1      11.388  13.885  37.273  1.00  0.00    -0.076 C 
ATOM      3  C   UNL     1      12.674  14.231  37.017  1.00  0.00    -0.020 C 
ATOM      4  C   UNL     1      13.453  15.188  37.908  1.00  0.00     0.041 C 
ATOM      5  C   UNL     1      14.632  15.923  37.199  1.00  0.00     0.003 C 
ATOM      6  C   UNL     1      14.052  17.045  36.321  1.00  0.00     0.009 C 
ATOM      7  C   UNL     1      13.327  18.070  37.197  1.00  0.00     0.031 C 
ATOM      8  C   UNL     1      12.333  17.438  38.148  1.00  0.00    -0.073 C 
ATOM      9  C   UNL     1      12.461  16.141  38.548  1.00  0.00    -0.064 C 
ATOM     10  C   UNL     1      11.387  15.419  39.325  1.00  0.00     0.036 C 
ATOM     11  C   UNL     1      10.556  14.581  38.344  1.00  0.00     0.035 C 
ATOM     12  C   UNL     1      11.245  18.330  38.700  1.00  0.00     0.039 C 
ENDROOT
BRANCH   5  13
ATOM     13  C   UNL     1      15.618  14.989  36.415  1.00  0.00    -0.013 C 
ATOM     14  C   UNL     1      17.039  15.027  37.007  1.00  0.00     0.007 C 
ATOM     15  C   UNL     1      15.701  15.372  34.924  1.00  0.00     0.007 C 
ENDBRANCH   5  13
TORSDOF 1
ENDMDL
MODEL 6
REMARK VINA RESULT:    -4.754      1.755      3.260
REMARK INTER + INTRA:          -5.247
REMARK INTER:                  -4.984
REMARK INTRA:                  -0.263
REMARK UNBOUND:                -0.215
REMARK SMILES CC1=C[C@@H]2C(=C(C)CC[C@@H]2C(C)C)CC1
REMARK SMILES IDX 1 1 2 2 3 3 4 4 10 5 9 6 8 7 6 8 5 9 14 10 15 11 7 12 11 13
REMARK SMILES IDX 12 14 13 15
REMARK H PARENT
REMARK Flexibility Score: inf
ROOT
ATOM      1  C   UNL     1      12.151  18.385  33.735  1.00  0.00     0.039 C 
ATOM      2  C   UNL     1      12.639  18.244  35.151  1.00  0.00    -0.076 C 
ATOM      3  C   UNL     1      12.926  17.006  35.625  1.00  0.00    -0.020 C 
ATOM      4  C   UNL     1      13.355  16.764  37.065  1.00  0.00     0.041 C 
ATOM      5  C   UNL     1      14.191  15.467  37.287  1.00  0.00     0.003 C 
ATOM      6  C   UNL     1      15.626  15.720  36.792  1.00  0.00     0.009 C 
ATOM      7  C   UNL     1      16.273  16.834  37.616  1.00  0.00     0.031 C 
ATOM      8  C   UNL     1      15.413  18.077  37.711  1.00  0.00    -0.073 C 
ATOM      9  C   UNL     1      14.060  18.015  37.558  1.00  0.00    -0.064 C 
ATOM     10  C   UNL     1      13.196  19.247  37.441  1.00  0.00     0.036 C 
ATOM     11  C   UNL     1      12.919  19.508  35.955  1.00  0.00     0.035 C 
ATOM     12  C   UNL     1      16.108  19.371  38.067  1.00  0.00     0.039 C 
ENDROOT
BRANCH   5  13
ATOM     13  C   UNL     1      13.562  14.164  36.683  1.00  0.00    -0.013 C 
ATOM     14  C   UNL     1      12.287  13.739  37.435  1.00  0.00     0.007 C 
ATOM     15  C   UNL     1      14.557  12.986  36.710  1.00  0.00     0.007 C 
ENDBRANCH   5  13
TORSDOF 1
ENDMDL
MODEL 7
REMARK VINA RESULT:    -4.742     12.163     14.317
REMARK INTER + INTRA:          -5.235
REMARK INTER:                  -4.975
REMARK INTRA:                  -0.260
REMARK UNBOUND:                -0.215
REMARK SMILES CC1=C[C@@H]2C(=C(C)CC[C@@H]2C(C)C)CC1
REMARK SMILES IDX 1 1 2 2 3 3 4 4 10 5 9 6 8 7 6 8 5 9 14 10 15 11 7 12 11 13
REMARK SMILES IDX 12 14 13 15
REMARK H PARENT
REMARK Flexibility Score: inf
ROOT
ATOM      1  C   UNL     1       5.673  18.071  22.380  1.00  0.00     0.039 C 
ATOM      2  C   UNL     1       6.803  18.956  22.831  1.00  0.00    -0.076 C 
ATOM      3  C   UNL     1       6.634  19.723  23.938  1.00  0.00    -0.020 C 
ATOM      4  C   UNL     1       7.695  20.700  24.422  1.00  0.00     0.041 C 
ATOM      5  C   UNL     1       7.627  21.035  25.943  1.00  0.00     0.003 C 
ATOM      6  C   UNL     1       8.209  19.849  26.732  1.00  0.00     0.009 C 
ATOM      7  C   UNL     1       9.682  19.654  26.367  1.00  0.00     0.031 C 
ATOM      8  C   UNL     1       9.919  19.592  24.872  1.00  0.00    -0.073 C 
ATOM      9  C   UNL     1       9.050  20.167  23.993  1.00  0.00    -0.064 C 
ATOM     10  C   UNL     1       9.140  19.953  22.502  1.00  0.00     0.036 C 
ATOM     11  C   UNL     1       8.140  18.858  22.106  1.00  0.00     0.035 C 
ATOM     12  C   UNL     1      11.200  18.942  24.404  1.00  0.00     0.039 C 
ENDROOT
BRANCH   5  13
ATOM     13  C   UNL     1       6.212  21.471  26.461  1.00  0.00    -0.013 C 
ATOM     14  C   UNL     1       5.769  22.817  25.858  1.00  0.00     0.007 C 
ATOM     15  C   UNL     1       6.181  21.593  27.998  1.00  0.00     0.007 C 
ENDBRANCH   5  13
TORSDOF 1
ENDMDL
MODEL 8
REMARK VINA RESULT:    -4.660      1.698      4.297
REMARK INTER + INTRA:          -5.148
REMARK INTER:                  -4.889
REMARK INTRA:                  -0.260
REMARK UNBOUND:                -0.215
REMARK SMILES CC1=C[C@@H]2C(=C(C)CC[C@@H]2C(C)C)CC1
REMARK SMILES IDX 1 1 2 2 3 3 4 4 10 5 9 6 8 7 6 8 5 9 14 10 15 11 7 12 11 13
REMARK SMILES IDX 12 14 13 15
REMARK H PARENT
REMARK Flexibility Score: inf
ROOT
ATOM      1  C   UNL     1      15.100  18.543  39.921  1.00  0.00     0.039 C 
ATOM      2  C   UNL     1      14.078  18.041  38.937  1.00  0.00    -0.076 C 
ATOM      3  C   UNL     1      14.372  16.952  38.184  1.00  0.00    -0.020 C 
ATOM      4  C   UNL     1      13.428  16.421  37.115  1.00  0.00     0.041 C 
ATOM      5  C   UNL     1      13.607  14.909  36.781  1.00  0.00     0.003 C 
ATOM      6  C   UNL     1      12.967  14.079  37.908  1.00  0.00     0.009 C 
ATOM      7  C   UNL     1      11.465  14.363  37.975  1.00  0.00     0.031 C 
ATOM      8  C   UNL     1      11.143  15.842  38.022  1.00  0.00    -0.073 C 
ATOM      9  C   UNL     1      12.011  16.772  37.529  1.00  0.00    -0.064 C 
ATOM     10  C   UNL     1      11.822  18.254  37.741  1.00  0.00     0.036 C 
ATOM     11  C   UNL     1      12.700  18.693  38.921  1.00  0.00     0.035 C 
ATOM     12  C   UNL     1       9.787  16.236  38.559  1.00  0.00     0.039 C 
ENDROOT
BRANCH   5  13
ATOM     13  C   UNL     1      15.080  14.471  36.468  1.00  0.00    -0.013 C 
ATOM     14  C   UNL     1      15.603  15.103  35.165  1.00  0.00     0.007 C 
ATOM     15  C   UNL     1      15.206  12.939  36.350  1.00  0.00     0.007 C 
ENDBRANCH   5  13
TORSDOF 1
ENDMDL
MODEL 9
REMARK VINA RESULT:    -4.658      9.782     11.745
REMARK INTER + INTRA:          -5.146
REMARK INTER:                  -4.944
REMARK INTRA:                  -0.202
REMARK UNBOUND:                -0.215
REMARK SMILES CC1=C[C@@H]2C(=C(C)CC[C@@H]2C(C)C)CC1
REMARK SMILES IDX 1 1 2 2 3 3 4 4 10 5 9 6 8 7 6 8 5 9 14 10 15 11 7 12 11 13
REMARK SMILES IDX 12 14 13 15
REMARK H PARENT
REMARK Flexibility Score: inf
ROOT
ATOM      1  C   UNL     1      10.795  22.283  29.993  1.00  0.00     0.039 C 
ATOM      2  C   UNL     1      11.224  21.193  29.049  1.00  0.00    -0.076 C 
ATOM      3  C   UNL     1      10.328  20.712  28.152  1.00  0.00    -0.020 C 
ATOM      4  C   UNL     1      10.655  19.561  27.211  1.00  0.00     0.041 C 
ATOM      5  C   UNL     1       9.804  19.526  25.905  1.00  0.00     0.003 C 
ATOM      6  C   UNL     1      10.338  20.602  24.944  1.00  0.00     0.009 C 
ATOM      7  C   UNL     1      11.786  20.287  24.561  1.00  0.00     0.031 C 
ATOM      8  C   UNL     1      12.671  20.020  25.761  1.00  0.00    -0.073 C 
ATOM      9  C   UNL     1      12.149  19.587  26.944  1.00  0.00    -0.064 C 
ATOM     10  C   UNL     1      12.963  19.507  28.212  1.00  0.00     0.036 C 
ATOM     11  C   UNL     1      12.687  20.765  29.047  1.00  0.00     0.035 C 
ATOM     12  C   UNL     1      14.161  20.171  25.565  1.00  0.00     0.039 C 
ENDROOT
BRANCH   5  13
ATOM     13  C   UNL     1       8.254  19.624  26.123  1.00  0.00    -0.013 C 
ATOM     14  C   UNL     1       7.738  18.531  27.078  1.00  0.00     0.007 C 
ATOM     15  C   UNL     1       7.483  19.510  24.793  1.00  0.00     0.007 C 
ENDBRANCH   5  13
TORSDOF 1
ENDMDL
