MODEL 1
REMARK VINA RESULT:    -5.066      0.000      0.000
REMARK INTER + INTRA:          -6.430
REMARK INTER:                  -5.955
REMARK INTRA:                  -0.475
REMARK UNBOUND:                -0.475
REMARK SMILES CCCC[C@@H]1OC(=O)C2=C1CCC=C2
REMARK SMILES IDX 3 1 2 2 1 3 4 4 5 5 10 6 6 7 9 8 11 9 7 10 14 11 12 12 8 13
REMARK SMILES IDX 13 14
REMARK H PARENT
REMARK Flexibility Score: inf
ROOT
ATOM      1  C   UNL     1      71.179  52.928  18.397  1.00  0.00     0.004 C 
ENDROOT
BRANCH   1   2
ATOM      2  C   UNL     1      70.657  53.522  17.080  1.00  0.00    -0.003 C 
ATOM      3  C   UNL     1      71.795  54.118  16.256  1.00  0.00     0.004 C 
ENDBRANCH   1   2
BRANCH   1   4
ATOM      4  C   UNL     1      70.780  53.753  19.638  1.00  0.00     0.050 C 
BRANCH   4   5
ATOM      5  C   UNL     1      69.762  53.082  20.579  1.00  0.00     0.204 C 
ATOM      6  C   UNL     1      68.655  52.352  19.859  1.00  0.00    -0.015 C 
ATOM      7  O   UNL     1      70.373  52.057  21.369  1.00  0.00    -0.454 OA
ATOM      8  C   UNL     1      68.612  51.086  20.238  1.00  0.00     0.062 C 
ATOM      9  C   UNL     1      67.551  52.960  19.037  1.00  0.00     0.040 C 
ATOM     10  C   UNL     1      69.682  50.873  21.179  1.00  0.00     0.338 C 
ATOM     11  C   UNL     1      67.566  50.157  19.791  1.00  0.00     0.011 C 
ATOM     12  C   UNL     1      66.875  51.891  18.146  1.00  0.00     0.032 C 
ATOM     13  O   UNL     1      69.961  49.788  21.752  1.00  0.00    -0.246 OA
ATOM     14  C   UNL     1      66.700  50.561  18.853  1.00  0.00    -0.026 C 
ENDBRANCH   4   5
ENDBRANCH   1   4
TORSDOF 3
ENDMDL
MODEL 2
REMARK VINA RESULT:    -5.036      2.258      4.515
REMARK INTER + INTRA:          -6.395
REMARK INTER:                  -6.027
REMARK INTRA:                  -0.367
REMARK UNBOUND:                -0.475
REMARK SMILES CCCC[C@@H]1OC(=O)C2=C1CCC=C2
REMARK SMILES IDX 3 1 2 2 1 3 4 4 5 5 10 6 6 7 9 8 11 9 7 10 14 11 12 12 8 13
REMARK SMILES IDX 13 14
REMARK H PARENT
REMARK Flexibility Score: inf
ROOT
ATOM      1  C   UNL     1      68.281  50.619  18.128  1.00  0.00     0.004 C 
ENDROOT
BRANCH   1   2
ATOM      2  C   UNL     1      67.042  50.514  19.029  1.00  0.00    -0.003 C 
ATOM      3  C   UNL     1      66.006  51.574  18.666  1.00  0.00     0.004 C 
ENDBRANCH   1   2
BRANCH   1   4
ATOM      4  C   UNL     1      69.589  50.854  18.913  1.00  0.00     0.050 C 
BRANCH   4   5
ATOM      5  C   UNL     1      69.485  51.846  20.087  1.00  0.00     0.204 C 
ATOM      6  C   UNL     1      69.978  51.292  21.400  1.00  0.00    -0.015 C 
ATOM      7  O   UNL     1      70.317  52.993  19.880  1.00  0.00    -0.454 OA
ATOM      8  C   UNL     1      70.931  52.060  21.900  1.00  0.00     0.062 C 
ATOM      9  C   UNL     1      69.345  50.199  22.219  1.00  0.00     0.040 C 
ATOM     10  C   UNL     1      71.167  53.130  20.964  1.00  0.00     0.338 C 
ATOM     11  C   UNL     1      71.522  51.833  23.224  1.00  0.00     0.011 C 
ATOM     12  C   UNL     1      70.343  49.643  23.262  1.00  0.00     0.032 C 
ATOM     13  O   UNL     1      72.009  54.056  21.094  1.00  0.00    -0.246 OA
ATOM     14  C   UNL     1      71.191  50.726  23.900  1.00  0.00    -0.026 C 
ENDBRANCH   4   5
ENDBRANCH   1   4
TORSDOF 3
ENDMDL
MODEL 3
REMARK VINA RESULT:    -4.908      1.553      4.404
REMARK INTER + INTRA:          -6.244
REMARK INTER:                  -5.753
REMARK INTRA:                  -0.491
REMARK UNBOUND:                -0.475
REMARK SMILES CCCC[C@@H]1OC(=O)C2=C1CCC=C2
REMARK SMILES IDX 3 1 2 2 1 3 4 4 5 5 10 6 6 7 9 8 11 9 7 10 14 11 12 12 8 13
REMARK SMILES IDX 13 14
REMARK H PARENT
REMARK Flexibility Score: inf
ROOT
ATOM      1  C   UNL     1      68.539  50.829  18.442  1.00  0.00     0.004 C 
ENDROOT
BRANCH   1   2
ATOM      2  C   UNL     1      67.166  50.441  19.012  1.00  0.00    -0.003 C 
ATOM      3  C   UNL     1      66.126  51.519  18.722  1.00  0.00     0.004 C 
ENDBRANCH   1   2
BRANCH   1   4
ATOM      4  C   UNL     1      69.685  50.697  19.467  1.00  0.00     0.050 C 
BRANCH   4   5
ATOM      5  C   UNL     1      70.281  52.026  19.967  1.00  0.00     0.204 C 
ATOM      6  C   UNL     1      70.521  53.037  18.873  1.00  0.00    -0.015 C 
ATOM      7  O   UNL     1      69.384  52.705  20.852  1.00  0.00    -0.454 OA
ATOM      8  C   UNL     1      69.884  54.165  19.136  1.00  0.00     0.062 C 
ATOM      9  C   UNL     1      71.539  52.953  17.768  1.00  0.00     0.040 C 
ATOM     10  C   UNL     1      69.158  53.981  20.367  1.00  0.00     0.338 C 
ATOM     11  C   UNL     1      70.023  55.368  18.307  1.00  0.00     0.011 C 
ATOM     12  C   UNL     1      71.208  53.954  16.637  1.00  0.00     0.032 C 
ATOM     13  O   UNL     1      68.428  54.837  20.931  1.00  0.00    -0.246 OA
ATOM     14  C   UNL     1      70.709  55.287  17.159  1.00  0.00    -0.026 C 
ENDBRANCH   4   5
ENDBRANCH   1   4
TORSDOF 3
ENDMDL
MODEL 4
REMARK VINA RESULT:    -4.873      1.064      1.487
REMARK INTER + INTRA:          -6.203
REMARK INTER:                  -6.001
REMARK INTRA:                  -0.201
REMARK UNBOUND:                -0.475
REMARK SMILES CCCC[C@@H]1OC(=O)C2=C1CCC=C2
REMARK SMILES IDX 3 1 2 2 1 3 4 4 5 5 10 6 6 7 9 8 11 9 7 10 14 11 12 12 8 13
REMARK SMILES IDX 13 14
REMARK H PARENT
REMARK Flexibility Score: inf
ROOT
ATOM      1  C   UNL     1      70.993  54.032  16.701  1.00  0.00     0.004 C 
ENDROOT
BRANCH   1   2
ATOM      2  C   UNL     1      72.258  54.532  15.987  1.00  0.00    -0.003 C 
ATOM      3  C   UNL     1      71.982  55.819  15.216  1.00  0.00     0.004 C 
ENDBRANCH   1   2
BRANCH   1   4
ATOM      4  C   UNL     1      71.289  53.041  17.846  1.00  0.00     0.050 C 
BRANCH   4   5
ATOM      5  C   UNL     1      70.318  53.100  19.040  1.00  0.00     0.204 C 
ATOM      6  C   UNL     1      69.170  52.126  18.941  1.00  0.00    -0.015 C 
ATOM      7  O   UNL     1      70.963  52.726  20.261  1.00  0.00    -0.454 OA
ATOM      8  C   UNL     1      69.138  51.337  20.002  1.00  0.00     0.062 C 
ATOM      9  C   UNL     1      68.028  52.165  17.961  1.00  0.00     0.040 C 
ATOM     10  C   UNL     1      70.255  51.688  20.842  1.00  0.00     0.338 C 
ATOM     11  C   UNL     1      68.064  50.365  20.237  1.00  0.00     0.011 C 
ATOM     12  C   UNL     1      67.298  50.802  17.910  1.00  0.00     0.032 C 
ATOM     13  O   UNL     1      70.555  51.148  21.938  1.00  0.00    -0.246 OA
ATOM     14  C   UNL     1      67.152  50.162  19.277  1.00  0.00    -0.026 C 
ENDBRANCH   4   5
ENDBRANCH   1   4
TORSDOF 3
ENDMDL
MODEL 5
REMARK VINA RESULT:    -4.838      2.202      3.831
REMARK INTER + INTRA:          -6.161
REMARK INTER:                  -5.541
REMARK INTRA:                  -0.620
REMARK UNBOUND:                -0.475
REMARK SMILES CCCC[C@@H]1OC(=O)C2=C1CCC=C2
REMARK SMILES IDX 3 1 2 2 1 3 4 4 5 5 10 6 6 7 9 8 11 9 7 10 14 11 12 12 8 13
REMARK SMILES IDX 13 14
REMARK H PARENT
REMARK Flexibility Score: inf
ROOT
ATOM      1  C   UNL     1      70.273  51.942  22.555  1.00  0.00     0.004 C 
ENDROOT
BRANCH   1   2
ATOM      2  C   UNL     1      70.189  50.495  23.062  1.00  0.00    -0.003 C 
ATOM      3  C   UNL     1      69.075  49.728  22.356  1.00  0.00     0.004 C 
ENDBRANCH   1   2
BRANCH   1   4
ATOM      4  C   UNL     1      70.915  52.063  21.157  1.00  0.00     0.050 C 
BRANCH   4   5
ATOM      5  C   UNL     1      70.103  52.866  20.124  1.00  0.00     0.204 C 
ATOM      6  C   UNL     1      68.934  52.108  19.545  1.00  0.00    -0.015 C 
ATOM      7  O   UNL     1      69.489  54.016  20.716  1.00  0.00    -0.454 OA
ATOM      8  C   UNL     1      67.808  52.775  19.738  1.00  0.00     0.062 C 
ATOM      9  C   UNL     1      68.989  50.915  18.630  1.00  0.00     0.040 C 
ATOM     10  C   UNL     1      68.127  53.970  20.475  1.00  0.00     0.338 C 
ATOM     11  C   UNL     1      66.521  52.338  19.183  1.00  0.00     0.011 C 
ATOM     12  C   UNL     1      67.624  50.188  18.589  1.00  0.00     0.032 C 
ATOM     13  O   UNL     1      67.310  54.851  20.849  1.00  0.00    -0.246 OA
ATOM     14  C   UNL     1      66.449  51.146  18.577  1.00  0.00    -0.026 C 
ENDBRANCH   4   5
ENDBRANCH   1   4
TORSDOF 3
ENDMDL
MODEL 6
REMARK VINA RESULT:    -4.451      1.799      3.850
REMARK INTER + INTRA:          -5.707
REMARK INTER:                  -5.068
REMARK INTRA:                  -0.639
REMARK UNBOUND:                -0.475
REMARK SMILES CCCC[C@@H]1OC(=O)C2=C1CCC=C2
REMARK SMILES IDX 3 1 2 2 1 3 4 4 5 5 10 6 6 7 9 8 11 9 7 10 14 11 12 12 8 13
REMARK SMILES IDX 13 14
REMARK H PARENT
REMARK Flexibility Score: inf
ROOT
ATOM      1  C   UNL     1      68.258  50.663  20.010  1.00  0.00     0.004 C 
ENDROOT
BRANCH   1   2
ATOM      2  C   UNL     1      67.145  50.309  19.013  1.00  0.00    -0.003 C 
ATOM      3  C   UNL     1      66.284  51.527  18.694  1.00  0.00     0.004 C 
ENDBRANCH   1   2
BRANCH   1   4
ATOM      4  C   UNL     1      69.631  50.882  19.340  1.00  0.00     0.050 C 
BRANCH   4   5
ATOM      5  C   UNL     1      70.438  52.084  19.865  1.00  0.00     0.204 C 
ATOM      6  C   UNL     1      69.611  53.327  20.081  1.00  0.00    -0.015 C 
ATOM      7  O   UNL     1      70.986  51.824  21.161  1.00  0.00    -0.454 OA
ATOM      8  C   UNL     1      69.723  53.747  21.330  1.00  0.00     0.062 C 
ATOM      9  C   UNL     1      68.958  54.178  19.025  1.00  0.00     0.040 C 
ATOM     10  C   UNL     1      70.574  52.820  22.030  1.00  0.00     0.338 C 
ATOM     11  C   UNL     1      69.120  55.000  21.804  1.00  0.00     0.011 C 
ATOM     12  C   UNL     1      67.884  55.101  19.648  1.00  0.00     0.032 C 
ATOM     13  O   UNL     1      70.905  52.887  23.242  1.00  0.00    -0.246 OA
ATOM     14  C   UNL     1      68.306  55.677  20.985  1.00  0.00    -0.026 C 
ENDBRANCH   4   5
ENDBRANCH   1   4
TORSDOF 3
ENDMDL
MODEL 7
REMARK VINA RESULT:    -4.448      2.472      4.480
REMARK INTER + INTRA:          -5.703
REMARK INTER:                  -5.353
REMARK INTRA:                  -0.351
REMARK UNBOUND:                -0.475
REMARK SMILES CCCC[C@@H]1OC(=O)C2=C1CCC=C2
REMARK SMILES IDX 3 1 2 2 1 3 4 4 5 5 10 6 6 7 9 8 11 9 7 10 14 11 12 12 8 13
REMARK SMILES IDX 13 14
REMARK H PARENT
REMARK Flexibility Score: inf
ROOT
ATOM      1  C   UNL     1      70.804  52.167  23.931  1.00  0.00     0.004 C 
ENDROOT
BRANCH   1   2
ATOM      2  C   UNL     1      72.025  51.236  23.944  1.00  0.00    -0.003 C 
ATOM      3  C   UNL     1      71.958  50.256  25.112  1.00  0.00     0.004 C 
ENDBRANCH   1   2
BRANCH   1   4
ATOM      4  C   UNL     1      70.705  53.026  22.653  1.00  0.00     0.050 C 
BRANCH   4   5
ATOM      5  C   UNL     1      71.271  52.377  21.376  1.00  0.00     0.204 C 
ATOM      6  C   UNL     1      70.218  51.785  20.473  1.00  0.00    -0.015 C 
ATOM      7  O   UNL     1      71.917  53.342  20.539  1.00  0.00    -0.454 OA
ATOM      8  C   UNL     1      70.296  52.310  19.262  1.00  0.00     0.062 C 
ATOM      9  C   UNL     1      69.360  50.580  20.749  1.00  0.00     0.040 C 
ATOM     10  C   UNL     1      71.349  53.293  19.278  1.00  0.00     0.338 C 
ATOM     11  C   UNL     1      69.472  51.845  18.139  1.00  0.00     0.011 C 
ATOM     12  C   UNL     1      68.148  50.535  19.789  1.00  0.00     0.032 C 
ATOM     13  O   UNL     1      71.712  54.006  18.307  1.00  0.00    -0.246 OA
ATOM     14  C   UNL     1      68.502  50.953  18.375  1.00  0.00    -0.026 C 
ENDBRANCH   4   5
ENDBRANCH   1   4
TORSDOF 3
ENDMDL
MODEL 8
REMARK VINA RESULT:    -4.406      2.215      3.927
REMARK INTER + INTRA:          -5.653
REMARK INTER:                  -5.195
REMARK INTRA:                  -0.458
REMARK UNBOUND:                -0.475
REMARK SMILES CCCC[C@@H]1OC(=O)C2=C1CCC=C2
REMARK SMILES IDX 3 1 2 2 1 3 4 4 5 5 10 6 6 7 9 8 11 9 7 10 14 11 12 12 8 13
REMARK SMILES IDX 13 14
REMARK H PARENT
REMARK Flexibility Score: inf
ROOT
ATOM      1  C   UNL     1      67.866  54.237  19.757  1.00  0.00     0.004 C 
ENDROOT
BRANCH   1   2
ATOM      2  C   UNL     1      68.164  55.014  21.049  1.00  0.00    -0.003 C 
ATOM      3  C   UNL     1      66.928  55.762  21.539  1.00  0.00     0.004 C 
ENDBRANCH   1   2
BRANCH   1   4
ATOM      4  C   UNL     1      69.137  53.832  18.982  1.00  0.00     0.050 C 
BRANCH   4   5
ATOM      5  C   UNL     1      69.452  52.324  18.972  1.00  0.00     0.204 C 
ATOM      6  C   UNL     1      69.679  51.740  20.345  1.00  0.00    -0.015 C 
ATOM      7  O   UNL     1      68.353  51.560  18.466  1.00  0.00    -0.454 OA
ATOM      8  C   UNL     1      68.848  50.735  20.563  1.00  0.00     0.062 C 
ATOM      9  C   UNL     1      70.835  52.014  21.269  1.00  0.00     0.040 C 
ATOM     10  C   UNL     1      68.002  50.605  19.405  1.00  0.00     0.338 C 
ATOM     11  C   UNL     1      68.911  49.899  21.769  1.00  0.00     0.011 C 
ATOM     12  C   UNL     1      70.507  51.560  22.711  1.00  0.00     0.032 C 
ATOM     13  O   UNL     1      67.082  49.761  19.249  1.00  0.00    -0.246 OA
ATOM     14  C   UNL     1      69.747  50.249  22.755  1.00  0.00    -0.026 C 
ENDBRANCH   4   5
ENDBRANCH   1   4
TORSDOF 3
ENDMDL
MODEL 9
REMARK VINA RESULT:    -4.362      2.246      4.494
REMARK INTER + INTRA:          -5.603
REMARK INTER:                  -4.834
REMARK INTRA:                  -0.769
REMARK UNBOUND:                -0.475
REMARK SMILES CCCC[C@@H]1OC(=O)C2=C1CCC=C2
REMARK SMILES IDX 3 1 2 2 1 3 4 4 5 5 10 6 6 7 9 8 11 9 7 10 14 11 12 12 8 13
REMARK SMILES IDX 13 14
REMARK H PARENT
REMARK Flexibility Score: inf
ROOT
ATOM      1  C   UNL     1      69.400  50.500  19.883  1.00  0.00     0.004 C 
ENDROOT
BRANCH   1   2
ATOM      2  C   UNL     1      69.566  50.708  21.396  1.00  0.00    -0.003 C 
ATOM      3  C   UNL     1      70.486  51.889  21.692  1.00  0.00     0.004 C 
ENDBRANCH   1   2
BRANCH   1   4
ATOM      4  C   UNL     1      68.012  50.922  19.358  1.00  0.00     0.050 C 
BRANCH   4   5
ATOM      5  C   UNL     1      67.990  52.208  18.510  1.00  0.00     0.204 C 
ATOM      6  C   UNL     1      68.331  53.456  19.285  1.00  0.00    -0.015 C 
ATOM      7  O   UNL     1      68.985  52.177  17.482  1.00  0.00    -0.454 OA
ATOM      8  C   UNL     1      69.355  54.081  18.731  1.00  0.00     0.062 C 
ATOM      9  C   UNL     1      67.508  54.108  20.364  1.00  0.00     0.040 C 
ATOM     10  C   UNL     1      69.788  53.298  17.603  1.00  0.00     0.338 C 
ATOM     11  C   UNL     1      69.839  55.386  19.200  1.00  0.00     0.011 C 
ATOM     12  C   UNL     1      68.362  55.105  21.182  1.00  0.00     0.032 C 
ATOM     13  O   UNL     1      70.745  53.572  16.833  1.00  0.00    -0.246 OA
ATOM     14  C   UNL     1      69.320  55.903  20.321  1.00  0.00    -0.026 C 
ENDBRANCH   4   5
ENDBRANCH   1   4
TORSDOF 3
ENDMDL
