MODEL 1
REMARK VINA RESULT:    -4.216      0.000      0.000
REMARK INTER + INTRA:         -14.307
REMARK INTER:                 -11.116
REMARK INTRA:                  -3.191
REMARK UNBOUND:                -3.191
REMARK SMILES CCCCCCCCCCCCCCCCCCCCCCCCCCCCCC(=O)[O-]
REMARK SMILES IDX 16 1 17 2 18 3 19 4 20 5 21 6 22 7 23 8 24 9 25 10 26 11
REMARK SMILES IDX 27 12 28 13 29 14 30 15 31 16 32 17 15 18 14 19 13 20 12 21
REMARK SMILES IDX 11 22 10 23 9 24 8 25 7 26 6 27 5 28 4 29 3 30 2 31 1 32
REMARK H PARENT
REMARK Flexibility Score: inf
ROOT
ATOM      1  C   UNL     1      -4.214  -1.804   9.122  1.00  0.00     0.000 C 
ENDROOT
BRANCH   1   2
ATOM      2  C   UNL     1      -5.414  -1.913  10.079  1.00  0.00     0.000 C 
BRANCH   2   3
ATOM      3  C   UNL     1      -5.970  -3.344  10.172  1.00  0.00     0.000 C 
BRANCH   3   4
ATOM      4  C   UNL     1      -5.866  -4.115   8.845  1.00  0.00     0.000 C 
BRANCH   4   5
ATOM      5  C   UNL     1      -7.160  -4.858   8.450  1.00  0.00     0.000 C 
BRANCH   5   6
ATOM      6  C   UNL     1      -8.292  -4.644   9.472  1.00  0.00     0.000 C 
BRANCH   6   7
ATOM      7  C   UNL     1      -9.483  -5.596   9.247  1.00  0.00     0.000 C 
BRANCH   7   8
ATOM      8  C   UNL     1      -9.456  -6.335   7.895  1.00  0.00     0.000 C 
BRANCH   8   9
ATOM      9  C   UNL     1     -10.643  -5.961   6.993  1.00  0.00     0.000 C 
BRANCH   9  10
ATOM     10  C   UNL     1     -10.869  -7.033   5.916  1.00  0.00     0.000 C 
BRANCH  10  11
ATOM     11  C   UNL     1     -10.867  -6.458   4.489  1.00  0.00     0.000 C 
BRANCH  11  12
ATOM     12  C   UNL     1      -9.641  -6.903   3.671  1.00  0.00     0.000 C 
BRANCH  12  13
ATOM     13  C   UNL     1      -8.620  -5.770   3.479  1.00  0.00     0.006 C 
BRANCH  13  14
ATOM     14  C   UNL     1      -7.684  -5.619   4.687  1.00  0.00     0.053 C 
BRANCH  14  15
ATOM     15  C   UNL     1      -6.830  -6.837   4.852  1.00  0.00     0.041 C 
ATOM     16  O   UNL     1      -6.629  -7.317   6.000  1.00  0.00    -0.550 OA
ATOM     17  O   UNL     1      -6.266  -7.451   3.740  1.00  0.00    -0.550 OA
ENDBRANCH  14  15
ENDBRANCH  13  14
ENDBRANCH  12  13
ENDBRANCH  11  12
ENDBRANCH  10  11
ENDBRANCH   9  10
ENDBRANCH   8   9
ENDBRANCH   7   8
ENDBRANCH   6   7
ENDBRANCH   5   6
ENDBRANCH   4   5
ENDBRANCH   3   4
ENDBRANCH   2   3
ENDBRANCH   1   2
BRANCH   1  18
ATOM     18  C   UNL     1      -4.147  -0.433   8.428  1.00  0.00     0.000 C 
BRANCH  18  19
ATOM     19  C   UNL     1      -3.524   0.654   9.317  1.00  0.00     0.000 C 
BRANCH  19  20
ATOM     20  C   UNL     1      -1.997   0.745   9.164  1.00  0.00     0.000 C 
BRANCH  20  21
ATOM     21  C   UNL     1      -1.569   0.418   7.728  1.00  0.00     0.000 C 
BRANCH  21  22
ATOM     22  C   UNL     1      -0.086   0.018   7.672  1.00  0.00     0.000 C 
BRANCH  22  23
ATOM     23  C   UNL     1       0.162  -1.431   8.126  1.00  0.00     0.000 C 
BRANCH  23  24
ATOM     24  C   UNL     1       1.323  -1.616   9.128  1.00  0.00    -0.000 C 
BRANCH  24  25
ATOM     25  C   UNL     1       1.197  -0.809  10.433  1.00  0.00    -0.000 C 
BRANCH  25  26
ATOM     26  C   UNL     1       2.220   0.332  10.588  1.00  0.00    -0.000 C 
BRANCH  26  27
ATOM     27  C   UNL     1       3.277   0.372   9.462  1.00  0.00    -0.000 C 
BRANCH  27  28
ATOM     28  C   UNL     1       3.198   1.659   8.628  1.00  0.00    -0.000 C 
BRANCH  28  29
ATOM     29  C   UNL     1       2.245   2.674   9.277  1.00  0.00    -0.000 C 
BRANCH  29  30
ATOM     30  C   UNL     1       1.097   3.097   8.343  1.00  0.00    -0.000 C 
BRANCH  30  31
ATOM     31  C   UNL     1       1.542   3.847   7.073  1.00  0.00    -0.003 C 
ATOM     32  C   UNL     1       0.568   4.947   6.655  1.00  0.00     0.004 C 
ENDBRANCH  30  31
ENDBRANCH  29  30
ENDBRANCH  28  29
ENDBRANCH  27  28
ENDBRANCH  26  27
ENDBRANCH  25  26
ENDBRANCH  24  25
ENDBRANCH  23  24
ENDBRANCH  22  23
ENDBRANCH  21  22
ENDBRANCH  20  21
ENDBRANCH  19  20
ENDBRANCH  18  19
ENDBRANCH   1  18
TORSDOF 28
ENDMDL
MODEL 2
REMARK VINA RESULT:    -4.210      2.066      5.126
REMARK INTER + INTRA:         -14.292
REMARK INTER:                  -9.840
REMARK INTRA:                  -4.453
REMARK UNBOUND:                -3.191
REMARK SMILES CCCCCCCCCCCCCCCCCCCCCCCCCCCCCC(=O)[O-]
REMARK SMILES IDX 16 1 17 2 18 3 19 4 20 5 21 6 22 7 23 8 24 9 25 10 26 11
REMARK SMILES IDX 27 12 28 13 29 14 30 15 31 16 32 17 15 18 14 19 13 20 12 21
REMARK SMILES IDX 11 22 10 23 9 24 8 25 7 26 6 27 5 28 4 29 3 30 2 31 1 32
REMARK H PARENT
REMARK Flexibility Score: inf
ROOT
ATOM      1  C   UNL     1       0.785   0.458   8.322  1.00  0.00     0.000 C 
ENDROOT
BRANCH   1   2
ATOM      2  C   UNL     1      -0.013   1.750   8.077  1.00  0.00     0.000 C 
BRANCH   2   3
ATOM      3  C   UNL     1      -0.194   2.585   9.355  1.00  0.00     0.000 C 
BRANCH   3   4
ATOM      4  C   UNL     1      -1.421   2.162  10.180  1.00  0.00     0.000 C 
BRANCH   4   5
ATOM      5  C   UNL     1      -2.715   2.022   9.350  1.00  0.00     0.000 C 
BRANCH   5   6
ATOM      6  C   UNL     1      -3.513   0.758   9.720  1.00  0.00     0.000 C 
BRANCH   6   7
ATOM      7  C   UNL     1      -3.986  -0.029   8.481  1.00  0.00     0.000 C 
BRANCH   7   8
ATOM      8  C   UNL     1      -4.347  -1.499   8.764  1.00  0.00     0.000 C 
BRANCH   8   9
ATOM      9  C   UNL     1      -5.359  -1.649   9.911  1.00  0.00     0.000 C 
BRANCH   9  10
ATOM     10  C   UNL     1      -5.856  -3.099  10.015  1.00  0.00     0.000 C 
BRANCH  10  11
ATOM     11  C   UNL     1      -5.184  -4.037   8.998  1.00  0.00     0.000 C 
BRANCH  11  12
ATOM     12  C   UNL     1      -6.195  -4.924   8.248  1.00  0.00     0.000 C 
BRANCH  12  13
ATOM     13  C   UNL     1      -5.712  -5.306   6.840  1.00  0.00     0.006 C 
BRANCH  13  14
ATOM     14  C   UNL     1      -6.621  -6.348   6.175  1.00  0.00     0.053 C 
BRANCH  14  15
ATOM     15  C   UNL     1      -7.065  -5.881   4.824  1.00  0.00     0.041 C 
ATOM     16  O   UNL     1      -6.855  -6.596   3.809  1.00  0.00    -0.550 OA
ATOM     17  O   UNL     1      -7.721  -4.664   4.687  1.00  0.00    -0.550 OA
ENDBRANCH  14  15
ENDBRANCH  13  14
ENDBRANCH  12  13
ENDBRANCH  11  12
ENDBRANCH  10  11
ENDBRANCH   9  10
ENDBRANCH   8   9
ENDBRANCH   7   8
ENDBRANCH   6   7
ENDBRANCH   5   6
ENDBRANCH   4   5
ENDBRANCH   3   4
ENDBRANCH   2   3
ENDBRANCH   1   2
BRANCH   1  18
ATOM     18  C   UNL     1      -0.044  -0.803   8.020  1.00  0.00     0.000 C 
BRANCH  18  19
ATOM     19  C   UNL     1      -0.647  -1.435   9.284  1.00  0.00     0.000 C 
BRANCH  19  20
ATOM     20  C   UNL     1      -0.595  -2.971   9.265  1.00  0.00     0.000 C 
BRANCH  20  21
ATOM     21  C   UNL     1       0.202  -3.479   8.056  1.00  0.00     0.000 C 
BRANCH  21  22
ATOM     22  C   UNL     1       1.298  -4.463   8.491  1.00  0.00     0.000 C 
BRANCH  22  23
ATOM     23  C   UNL     1       1.913  -4.110   9.857  1.00  0.00     0.000 C 
BRANCH  23  24
ATOM     24  C   UNL     1       3.266  -3.367   9.797  1.00  0.00    -0.000 C 
BRANCH  24  25
ATOM     25  C   UNL     1       3.168  -1.839   9.631  1.00  0.00    -0.000 C 
BRANCH  25  26
ATOM     26  C   UNL     1       2.863  -1.067  10.929  1.00  0.00    -0.000 C 
BRANCH  26  27
ATOM     27  C   UNL     1       3.727   0.200  11.112  1.00  0.00    -0.000 C 
BRANCH  27  28
ATOM     28  C   UNL     1       2.900   1.492  11.033  1.00  0.00    -0.000 C 
BRANCH  28  29
ATOM     29  C   UNL     1       3.546   2.497  10.067  1.00  0.00    -0.000 C 
BRANCH  29  30
ATOM     30  C   UNL     1       3.961   1.858   8.729  1.00  0.00    -0.000 C 
BRANCH  30  31
ATOM     31  C   UNL     1       4.238   2.861   7.594  1.00  0.00    -0.003 C 
ATOM     32  C   UNL     1       2.995   3.641   7.169  1.00  0.00     0.004 C 
ENDBRANCH  30  31
ENDBRANCH  29  30
ENDBRANCH  28  29
ENDBRANCH  27  28
ENDBRANCH  26  27
ENDBRANCH  25  26
ENDBRANCH  24  25
ENDBRANCH  23  24
ENDBRANCH  22  23
ENDBRANCH  21  22
ENDBRANCH  20  21
ENDBRANCH  19  20
ENDBRANCH  18  19
ENDBRANCH   1  18
TORSDOF 28
ENDMDL
MODEL 3
REMARK VINA RESULT:    -4.204      6.195      8.320
REMARK INTER + INTRA:         -14.277
REMARK INTER:                 -10.284
REMARK INTRA:                  -3.994
REMARK UNBOUND:                -3.191
REMARK SMILES CCCCCCCCCCCCCCCCCCCCCCCCCCCCCC(=O)[O-]
REMARK SMILES IDX 16 1 17 2 18 3 19 4 20 5 21 6 22 7 23 8 24 9 25 10 26 11
REMARK SMILES IDX 27 12 28 13 29 14 30 15 31 16 32 17 15 18 14 19 13 20 12 21
REMARK SMILES IDX 11 22 10 23 9 24 8 25 7 26 6 27 5 28 4 29 3 30 2 31 1 32
REMARK H PARENT
REMARK Flexibility Score: inf
ROOT
ATOM      1  C   UNL     1      -1.847   0.168   9.330  1.00  0.00     0.000 C 
ENDROOT
BRANCH   1   2
ATOM      2  C   UNL     1      -3.069  -0.747   9.141  1.00  0.00     0.000 C 
BRANCH   2   3
ATOM      3  C   UNL     1      -2.760  -2.220   9.455  1.00  0.00     0.000 C 
BRANCH   3   4
ATOM      4  C   UNL     1      -1.281  -2.462   9.803  1.00  0.00     0.000 C 
BRANCH   4   5
ATOM      5  C   UNL     1      -0.744  -3.832   9.336  1.00  0.00     0.000 C 
BRANCH   5   6
ATOM      6  C   UNL     1       0.151  -3.715   8.088  1.00  0.00     0.000 C 
BRANCH   6   7
ATOM      7  C   UNL     1       0.698  -5.078   7.620  1.00  0.00     0.000 C 
BRANCH   7   8
ATOM      8  C   UNL     1      -0.150  -5.761   6.530  1.00  0.00     0.000 C 
BRANCH   8   9
ATOM      9  C   UNL     1       0.639  -6.001   5.232  1.00  0.00     0.000 C 
BRANCH   9  10
ATOM     10  C   UNL     1       2.025  -6.590   5.537  1.00  0.00     0.000 C 
BRANCH  10  11
ATOM     11  C   UNL     1       2.933  -6.659   4.298  1.00  0.00     0.000 C 
BRANCH  11  12
ATOM     12  C   UNL     1       4.426  -6.523   4.647  1.00  0.00     0.000 C 
BRANCH  12  13
ATOM     13  C   UNL     1       5.266  -6.035   3.456  1.00  0.00     0.006 C 
BRANCH  13  14
ATOM     14  C   UNL     1       6.127  -4.815   3.812  1.00  0.00     0.053 C 
BRANCH  14  15
ATOM     15  C   UNL     1       7.160  -5.175   4.833  1.00  0.00     0.041 C 
ATOM     16  O   UNL     1       7.958  -6.125   4.616  1.00  0.00    -0.550 OA
ATOM     17  O   UNL     1       7.252  -4.454   6.018  1.00  0.00    -0.550 OA
ENDBRANCH  14  15
ENDBRANCH  13  14
ENDBRANCH  12  13
ENDBRANCH  11  12
ENDBRANCH  10  11
ENDBRANCH   9  10
ENDBRANCH   8   9
ENDBRANCH   7   8
ENDBRANCH   6   7
ENDBRANCH   5   6
ENDBRANCH   4   5
ENDBRANCH   3   4
ENDBRANCH   2   3
ENDBRANCH   1   2
BRANCH   1  18
ATOM     18  C   UNL     1      -1.321   0.719   7.993  1.00  0.00     0.000 C 
BRANCH  18  19
ATOM     19  C   UNL     1       0.073   0.182   7.636  1.00  0.00     0.000 C 
BRANCH  19  20
ATOM     20  C   UNL     1       1.113   0.444   8.736  1.00  0.00     0.000 C 
BRANCH  20  21
ATOM     21  C   UNL     1       1.944  -0.814   9.017  1.00  0.00     0.000 C 
BRANCH  21  22
ATOM     22  C   UNL     1       1.904  -1.181  10.509  1.00  0.00     0.000 C 
BRANCH  22  23
ATOM     23  C   UNL     1       2.724  -2.441  10.839  1.00  0.00     0.000 C 
BRANCH  23  24
ATOM     24  C   UNL     1       3.808  -2.810   9.802  1.00  0.00    -0.000 C 
BRANCH  24  25
ATOM     25  C   UNL     1       5.241  -2.389  10.175  1.00  0.00    -0.000 C 
BRANCH  25  26
ATOM     26  C   UNL     1       5.690  -1.037   9.590  1.00  0.00    -0.000 C 
BRANCH  26  27
ATOM     27  C   UNL     1       5.429   0.161  10.530  1.00  0.00    -0.000 C 
BRANCH  27  28
ATOM     28  C   UNL     1       4.671   1.301   9.834  1.00  0.00    -0.000 C 
BRANCH  28  29
ATOM     29  C   UNL     1       5.476   1.846   8.645  1.00  0.00    -0.000 C 
BRANCH  29  30
ATOM     30  C   UNL     1       4.587   2.505   7.574  1.00  0.00    -0.000 C 
BRANCH  30  31
ATOM     31  C   UNL     1       3.507   3.452   8.127  1.00  0.00    -0.003 C 
ATOM     32  C   UNL     1       2.286   3.565   7.216  1.00  0.00     0.004 C 
ENDBRANCH  30  31
ENDBRANCH  29  30
ENDBRANCH  28  29
ENDBRANCH  27  28
ENDBRANCH  26  27
ENDBRANCH  25  26
ENDBRANCH  24  25
ENDBRANCH  23  24
ENDBRANCH  22  23
ENDBRANCH  21  22
ENDBRANCH  20  21
ENDBRANCH  19  20
ENDBRANCH  18  19
ENDBRANCH   1  18
TORSDOF 28
ENDMDL
MODEL 4
REMARK VINA RESULT:    -4.196      1.552      3.849
REMARK INTER + INTRA:         -14.256
REMARK INTER:                  -9.979
REMARK INTRA:                  -4.277
REMARK UNBOUND:                -3.191
REMARK SMILES CCCCCCCCCCCCCCCCCCCCCCCCCCCCCC(=O)[O-]
REMARK SMILES IDX 16 1 17 2 18 3 19 4 20 5 21 6 22 7 23 8 24 9 25 10 26 11
REMARK SMILES IDX 27 12 28 13 29 14 30 15 31 16 32 17 15 18 14 19 13 20 12 21
REMARK SMILES IDX 11 22 10 23 9 24 8 25 7 26 6 27 5 28 4 29 3 30 2 31 1 32
REMARK H PARENT
REMARK Flexibility Score: inf
ROOT
ATOM      1  C   UNL     1      -1.229   0.992   9.952  1.00  0.00     0.000 C 
ENDROOT
BRANCH   1   2
ATOM      2  C   UNL     1      -2.666   1.128  10.483  1.00  0.00     0.000 C 
BRANCH   2   3
ATOM      3  C   UNL     1      -3.704   1.249   9.354  1.00  0.00     0.000 C 
BRANCH   3   4
ATOM      4  C   UNL     1      -4.663   0.048   9.291  1.00  0.00     0.000 C 
BRANCH   4   5
ATOM      5  C   UNL     1      -4.063  -1.196   8.600  1.00  0.00     0.000 C 
BRANCH   5   6
ATOM      6  C   UNL     1      -4.374  -2.496   9.365  1.00  0.00     0.000 C 
BRANCH   6   7
ATOM      7  C   UNL     1      -5.799  -2.512   9.953  1.00  0.00     0.000 C 
BRANCH   7   8
ATOM      8  C   UNL     1      -6.100  -3.728  10.850  1.00  0.00     0.000 C 
BRANCH   8   9
ATOM      9  C   UNL     1      -6.460  -4.985  10.041  1.00  0.00     0.000 C 
BRANCH   9  10
ATOM     10  C   UNL     1      -7.704  -4.739   9.174  1.00  0.00     0.000 C 
BRANCH  10  11
ATOM     11  C   UNL     1      -7.530  -5.223   7.725  1.00  0.00     0.000 C 
BRANCH  11  12
ATOM     12  C   UNL     1      -6.103  -5.003   7.192  1.00  0.00     0.000 C 
BRANCH  12  13
ATOM     13  C   UNL     1      -5.953  -5.426   5.722  1.00  0.00     0.006 C 
BRANCH  13  14
ATOM     14  C   UNL     1      -7.023  -4.793   4.822  1.00  0.00     0.053 C 
BRANCH  14  15
ATOM     15  C   UNL     1      -7.725  -5.841   4.015  1.00  0.00     0.041 C 
ATOM     16  O   UNL     1      -7.209  -6.982   3.877  1.00  0.00    -0.550 OA
ATOM     17  O   UNL     1      -8.953  -5.564   3.427  1.00  0.00    -0.550 OA
ENDBRANCH  14  15
ENDBRANCH  13  14
ENDBRANCH  12  13
ENDBRANCH  11  12
ENDBRANCH  10  11
ENDBRANCH   9  10
ENDBRANCH   8   9
ENDBRANCH   7   8
ENDBRANCH   6   7
ENDBRANCH   5   6
ENDBRANCH   4   5
ENDBRANCH   3   4
ENDBRANCH   2   3
ENDBRANCH   1   2
BRANCH   1  18
ATOM     18  C   UNL     1      -1.157   1.147   8.423  1.00  0.00     0.000 C 
BRANCH  18  19
ATOM     19  C   UNL     1      -0.468  -0.042   7.737  1.00  0.00     0.000 C 
BRANCH  19  20
ATOM     20  C   UNL     1      -0.427  -1.298   8.622  1.00  0.00     0.000 C 
BRANCH  20  21
ATOM     21  C   UNL     1       0.873  -2.083   8.403  1.00  0.00     0.000 C 
BRANCH  21  22
ATOM     22  C   UNL     1       1.715  -2.125   9.687  1.00  0.00     0.000 C 
BRANCH  22  23
ATOM     23  C   UNL     1       2.919  -1.167   9.646  1.00  0.00     0.000 C 
BRANCH  23  24
ATOM     24  C   UNL     1       2.593   0.313   9.948  1.00  0.00    -0.000 C 
BRANCH  24  25
ATOM     25  C   UNL     1       2.833   1.287   8.780  1.00  0.00    -0.000 C 
BRANCH  25  26
ATOM     26  C   UNL     1       2.386   2.737   9.046  1.00  0.00    -0.000 C 
BRANCH  26  27
ATOM     27  C   UNL     1       2.409   3.632   7.787  1.00  0.00    -0.000 C 
BRANCH  27  28
ATOM     28  C   UNL     1       1.038   3.713   7.099  1.00  0.00    -0.000 C 
BRANCH  28  29
ATOM     29  C   UNL     1       0.631   5.176   6.864  1.00  0.00    -0.000 C 
BRANCH  29  30
ATOM     30  C   UNL     1      -0.184   5.763   8.031  1.00  0.00    -0.000 C 
BRANCH  30  31
ATOM     31  C   UNL     1      -1.006   4.732   8.827  1.00  0.00    -0.003 C 
ATOM     32  C   UNL     1      -0.622   4.673  10.304  1.00  0.00     0.004 C 
ENDBRANCH  30  31
ENDBRANCH  29  30
ENDBRANCH  28  29
ENDBRANCH  27  28
ENDBRANCH  26  27
ENDBRANCH  25  26
ENDBRANCH  24  25
ENDBRANCH  23  24
ENDBRANCH  22  23
ENDBRANCH  21  22
ENDBRANCH  20  21
ENDBRANCH  19  20
ENDBRANCH  18  19
ENDBRANCH   1  18
TORSDOF 28
ENDMDL
MODEL 5
REMARK VINA RESULT:    -4.136      1.256      2.305
REMARK INTER + INTRA:         -14.098
REMARK INTER:                 -10.768
REMARK INTRA:                  -3.330
REMARK UNBOUND:                -3.191
REMARK SMILES CCCCCCCCCCCCCCCCCCCCCCCCCCCCCC(=O)[O-]
REMARK SMILES IDX 16 1 17 2 18 3 19 4 20 5 21 6 22 7 23 8 24 9 25 10 26 11
REMARK SMILES IDX 27 12 28 13 29 14 30 15 31 16 32 17 15 18 14 19 13 20 12 21
REMARK SMILES IDX 11 22 10 23 9 24 8 25 7 26 6 27 5 28 4 29 3 30 2 31 1 32
REMARK H PARENT
REMARK Flexibility Score: inf
ROOT
ATOM      1  C   UNL     1      -3.315   0.923   9.506  1.00  0.00     0.000 C 
ENDROOT
BRANCH   1   2
ATOM      2  C   UNL     1      -3.918  -0.079   8.507  1.00  0.00     0.000 C 
BRANCH   2   3
ATOM      3  C   UNL     1      -4.817  -1.124   9.187  1.00  0.00     0.000 C 
BRANCH   3   4
ATOM      4  C   UNL     1      -4.226  -2.544   9.144  1.00  0.00     0.000 C 
BRANCH   4   5
ATOM      5  C   UNL     1      -5.262  -3.643   8.826  1.00  0.00     0.000 C 
BRANCH   5   6
ATOM      6  C   UNL     1      -5.824  -4.304  10.099  1.00  0.00     0.000 C 
BRANCH   6   7
ATOM      7  C   UNL     1      -7.363  -4.262  10.159  1.00  0.00     0.000 C 
BRANCH   7   8
ATOM      8  C   UNL     1      -8.059  -5.383   9.363  1.00  0.00     0.000 C 
BRANCH   8   9
ATOM      9  C   UNL     1      -9.445  -4.966   8.843  1.00  0.00     0.000 C 
BRANCH   9  10
ATOM     10  C   UNL     1      -9.627  -5.389   7.377  1.00  0.00     0.000 C 
BRANCH  10  11
ATOM     11  C   UNL     1      -8.346  -5.972   6.758  1.00  0.00     0.000 C 
BRANCH  11  12
ATOM     12  C   UNL     1      -7.618  -4.968   5.845  1.00  0.00     0.000 C 
BRANCH  12  13
ATOM     13  C   UNL     1      -7.776  -5.308   4.354  1.00  0.00     0.006 C 
BRANCH  13  14
ATOM     14  C   UNL     1      -8.348  -6.716   4.135  1.00  0.00     0.053 C 
BRANCH  14  15
ATOM     15  C   UNL     1      -7.421  -7.541   3.299  1.00  0.00     0.041 C 
ATOM     16  O   UNL     1      -7.752  -7.870   2.128  1.00  0.00    -0.550 OA
ATOM     17  O   UNL     1      -6.188  -7.935   3.803  1.00  0.00    -0.550 OA
ENDBRANCH  14  15
ENDBRANCH  13  14
ENDBRANCH  12  13
ENDBRANCH  11  12
ENDBRANCH  10  11
ENDBRANCH   9  10
ENDBRANCH   8   9
ENDBRANCH   7   8
ENDBRANCH   6   7
ENDBRANCH   5   6
ENDBRANCH   4   5
ENDBRANCH   3   4
ENDBRANCH   2   3
ENDBRANCH   1   2
BRANCH   1  18
ATOM     18  C   UNL     1      -1.777   0.872   9.523  1.00  0.00     0.000 C 
BRANCH  18  19
ATOM     19  C   UNL     1      -1.158   1.134   8.142  1.00  0.00     0.000 C 
BRANCH  19  20
ATOM     20  C   UNL     1      -0.353  -0.063   7.612  1.00  0.00     0.000 C 
BRANCH  20  21
ATOM     21  C   UNL     1      -0.411  -1.241   8.594  1.00  0.00     0.000 C 
BRANCH  21  22
ATOM     22  C   UNL     1       0.490  -2.394   8.125  1.00  0.00     0.000 C 
BRANCH  22  23
ATOM     23  C   UNL     1       1.164  -3.140   9.291  1.00  0.00     0.000 C 
BRANCH  23  24
ATOM     24  C   UNL     1       2.660  -2.816   9.502  1.00  0.00    -0.000 C 
BRANCH  24  25
ATOM     25  C   UNL     1       2.948  -1.668  10.487  1.00  0.00    -0.000 C 
BRANCH  25  26
ATOM     26  C   UNL     1       3.788  -0.514   9.906  1.00  0.00    -0.000 C 
BRANCH  26  27
ATOM     27  C   UNL     1       2.974   0.463   9.030  1.00  0.00    -0.000 C 
BRANCH  27  28
ATOM     28  C   UNL     1       2.170   1.471   9.865  1.00  0.00    -0.000 C 
BRANCH  28  29
ATOM     29  C   UNL     1       2.324   2.893   9.305  1.00  0.00    -0.000 C 
BRANCH  29  30
ATOM     30  C   UNL     1       2.946   2.915   7.896  1.00  0.00    -0.000 C 
BRANCH  30  31
ATOM     31  C   UNL     1       2.239   3.848   6.895  1.00  0.00    -0.003 C 
ATOM     32  C   UNL     1       0.799   4.171   7.291  1.00  0.00     0.004 C 
ENDBRANCH  30  31
ENDBRANCH  29  30
ENDBRANCH  28  29
ENDBRANCH  27  28
ENDBRANCH  26  27
ENDBRANCH  25  26
ENDBRANCH  24  25
ENDBRANCH  23  24
ENDBRANCH  22  23
ENDBRANCH  21  22
ENDBRANCH  20  21
ENDBRANCH  19  20
ENDBRANCH  18  19
ENDBRANCH   1  18
TORSDOF 28
ENDMDL
MODEL 6
REMARK VINA RESULT:    -4.128      2.624      5.645
REMARK INTER + INTRA:         -14.077
REMARK INTER:                  -9.395
REMARK INTRA:                  -4.682
REMARK UNBOUND:                -3.191
REMARK SMILES CCCCCCCCCCCCCCCCCCCCCCCCCCCCCC(=O)[O-]
REMARK SMILES IDX 16 1 17 2 18 3 19 4 20 5 21 6 22 7 23 8 24 9 25 10 26 11
REMARK SMILES IDX 27 12 28 13 29 14 30 15 31 16 32 17 15 18 14 19 13 20 12 21
REMARK SMILES IDX 11 22 10 23 9 24 8 25 7 26 6 27 5 28 4 29 3 30 2 31 1 32
REMARK H PARENT
REMARK Flexibility Score: inf
ROOT
ATOM      1  C   UNL     1      -1.132   0.688   7.996  1.00  0.00     0.000 C 
ENDROOT
BRANCH   1   2
ATOM      2  C   UNL     1      -2.254   0.336   8.987  1.00  0.00     0.000 C 
BRANCH   2   3
ATOM      3  C   UNL     1      -3.640   0.296   8.321  1.00  0.00     0.000 C 
BRANCH   3   4
ATOM      4  C   UNL     1      -4.356  -1.053   8.507  1.00  0.00     0.000 C 
BRANCH   4   5
ATOM      5  C   UNL     1      -4.135  -1.693   9.894  1.00  0.00     0.000 C 
BRANCH   5   6
ATOM      6  C   UNL     1      -5.344  -2.532  10.350  1.00  0.00     0.000 C 
BRANCH   6   7
ATOM      7  C   UNL     1      -4.985  -4.014  10.577  1.00  0.00     0.000 C 
BRANCH   7   8
ATOM      8  C   UNL     1      -6.053  -5.008  10.082  1.00  0.00     0.000 C 
BRANCH   8   9
ATOM      9  C   UNL     1      -6.702  -4.568   8.759  1.00  0.00     0.000 C 
BRANCH   9  10
ATOM     10  C   UNL     1      -5.819  -4.951   7.563  1.00  0.00     0.000 C 
BRANCH  10  11
ATOM     11  C   UNL     1      -6.316  -6.209   6.830  1.00  0.00     0.000 C 
BRANCH  11  12
ATOM     12  C   UNL     1      -7.669  -5.992   6.130  1.00  0.00     0.000 C 
BRANCH  12  13
ATOM     13  C   UNL     1      -7.556  -5.074   4.902  1.00  0.00     0.006 C 
BRANCH  13  14
ATOM     14  C   UNL     1      -8.341  -5.612   3.698  1.00  0.00     0.053 C 
BRANCH  14  15
ATOM     15  C   UNL     1      -8.175  -7.095   3.576  1.00  0.00     0.041 C 
ATOM     16  O   UNL     1      -9.159  -7.857   3.771  1.00  0.00    -0.550 OA
ATOM     17  O   UNL     1      -6.941  -7.634   3.235  1.00  0.00    -0.550 OA
ENDBRANCH  14  15
ENDBRANCH  13  14
ENDBRANCH  12  13
ENDBRANCH  11  12
ENDBRANCH  10  11
ENDBRANCH   9  10
ENDBRANCH   8   9
ENDBRANCH   7   8
ENDBRANCH   6   7
ENDBRANCH   5   6
ENDBRANCH   4   5
ENDBRANCH   3   4
ENDBRANCH   2   3
ENDBRANCH   1   2
BRANCH   1  18
ATOM     18  C   UNL     1      -0.042   1.564   8.640  1.00  0.00     0.000 C 
BRANCH  18  19
ATOM     19  C   UNL     1       0.936   0.755   9.505  1.00  0.00     0.000 C 
BRANCH  19  20
ATOM     20  C   UNL     1       1.635  -0.368   8.722  1.00  0.00     0.000 C 
BRANCH  20  21
ATOM     21  C   UNL     1       2.034  -1.520   9.653  1.00  0.00     0.000 C 
BRANCH  21  22
ATOM     22  C   UNL     1       1.576  -2.872   9.085  1.00  0.00     0.000 C 
BRANCH  22  23
ATOM     23  C   UNL     1       0.338  -2.754   8.178  1.00  0.00     0.000 C 
BRANCH  23  24
ATOM     24  C   UNL     1      -1.008  -3.096   8.855  1.00  0.00    -0.000 C 
BRANCH  24  25
ATOM     25  C   UNL     1      -0.898  -3.908  10.158  1.00  0.00    -0.000 C 
BRANCH  25  26
ATOM     26  C   UNL     1      -1.532  -5.311  10.100  1.00  0.00    -0.000 C 
BRANCH  26  27
ATOM     27  C   UNL     1      -2.288  -5.593   8.783  1.00  0.00    -0.000 C 
BRANCH  27  28
ATOM     28  C   UNL     1      -2.273  -7.082   8.404  1.00  0.00    -0.000 C 
BRANCH  28  29
ATOM     29  C   UNL     1      -1.399  -7.321   7.163  1.00  0.00    -0.000 C 
BRANCH  29  30
ATOM     30  C   UNL     1      -0.906  -6.013   6.518  1.00  0.00    -0.000 C 
BRANCH  30  31
ATOM     31  C   UNL     1       0.593  -5.993   6.166  1.00  0.00    -0.003 C 
ATOM     32  C   UNL     1       1.496  -6.183   7.383  1.00  0.00     0.004 C 
ENDBRANCH  30  31
ENDBRANCH  29  30
ENDBRANCH  28  29
ENDBRANCH  27  28
ENDBRANCH  26  27
ENDBRANCH  25  26
ENDBRANCH  24  25
ENDBRANCH  23  24
ENDBRANCH  22  23
ENDBRANCH  21  22
ENDBRANCH  20  21
ENDBRANCH  19  20
ENDBRANCH  18  19
ENDBRANCH   1  18
TORSDOF 28
ENDMDL
MODEL 7
REMARK VINA RESULT:    -4.121      1.570      2.962
REMARK INTER + INTRA:         -14.057
REMARK INTER:                 -10.738
REMARK INTRA:                  -3.319
REMARK UNBOUND:                -3.191
REMARK SMILES CCCCCCCCCCCCCCCCCCCCCCCCCCCCCC(=O)[O-]
REMARK SMILES IDX 16 1 17 2 18 3 19 4 20 5 21 6 22 7 23 8 24 9 25 10 26 11
REMARK SMILES IDX 27 12 28 13 29 14 30 15 31 16 32 17 15 18 14 19 13 20 12 21
REMARK SMILES IDX 11 22 10 23 9 24 8 25 7 26 6 27 5 28 4 29 3 30 2 31 1 32
REMARK H PARENT
REMARK Flexibility Score: inf
ROOT
ATOM      1  C   UNL     1      -4.553  -4.331   9.275  1.00  0.00     0.000 C 
ENDROOT
BRANCH   1   2
ATOM      2  C   UNL     1      -5.961  -4.223   8.667  1.00  0.00     0.000 C 
BRANCH   2   3
ATOM      3  C   UNL     1      -6.997  -5.078   9.417  1.00  0.00     0.000 C 
BRANCH   3   4
ATOM      4  C   UNL     1      -8.448  -4.712   9.062  1.00  0.00     0.000 C 
BRANCH   4   5
ATOM      5  C   UNL     1      -8.894  -5.204   7.668  1.00  0.00     0.000 C 
BRANCH   5   6
ATOM      6  C   UNL     1     -10.397  -5.535   7.618  1.00  0.00     0.000 C 
BRANCH   6   7
ATOM      7  C   UNL     1     -10.793  -6.303   6.342  1.00  0.00     0.000 C 
BRANCH   7   8
ATOM      8  C   UNL     1      -9.603  -6.893   5.562  1.00  0.00     0.000 C 
BRANCH   8   9
ATOM      9  C   UNL     1      -9.590  -6.461   4.087  1.00  0.00     0.000 C 
BRANCH   9  10
ATOM     10  C   UNL     1      -8.178  -6.035   3.655  1.00  0.00     0.000 C 
BRANCH  10  11
ATOM     11  C   UNL     1      -7.697  -4.755   4.359  1.00  0.00     0.000 C 
BRANCH  11  12
ATOM     12  C   UNL     1      -6.351  -4.944   5.080  1.00  0.00     0.000 C 
BRANCH  12  13
ATOM     13  C   UNL     1      -5.846  -6.394   5.013  1.00  0.00     0.006 C 
BRANCH  13  14
ATOM     14  C   UNL     1      -5.970  -7.117   6.361  1.00  0.00     0.053 C 
BRANCH  14  15
ATOM     15  C   UNL     1      -4.619  -7.464   6.903  1.00  0.00     0.041 C 
ATOM     16  O   UNL     1      -4.498  -8.389   7.751  1.00  0.00    -0.550 OA
ATOM     17  O   UNL     1      -3.493  -6.779   6.465  1.00  0.00    -0.550 OA
ENDBRANCH  14  15
ENDBRANCH  13  14
ENDBRANCH  12  13
ENDBRANCH  11  12
ENDBRANCH  10  11
ENDBRANCH   9  10
ENDBRANCH   8   9
ENDBRANCH   7   8
ENDBRANCH   6   7
ENDBRANCH   5   6
ENDBRANCH   4   5
ENDBRANCH   3   4
ENDBRANCH   2   3
ENDBRANCH   1   2
BRANCH   1  18
ATOM     18  C   UNL     1      -3.903  -2.952   9.484  1.00  0.00     0.000 C 
BRANCH  18  19
ATOM     19  C   UNL     1      -4.843  -1.792   9.126  1.00  0.00     0.000 C 
BRANCH  19  20
ATOM     20  C   UNL     1      -4.090  -0.488   8.819  1.00  0.00     0.000 C 
BRANCH  20  21
ATOM     21  C   UNL     1      -2.572  -0.702   8.883  1.00  0.00     0.000 C 
BRANCH  21  22
ATOM     22  C   UNL     1      -1.822   0.638   8.815  1.00  0.00     0.000 C 
BRANCH  22  23
ATOM     23  C   UNL     1      -0.526   0.557   7.990  1.00  0.00     0.000 C 
BRANCH  23  24
ATOM     24  C   UNL     1       0.064  -0.861   7.828  1.00  0.00    -0.000 C 
BRANCH  24  25
ATOM     25  C   UNL     1       1.101  -1.264   8.893  1.00  0.00    -0.000 C 
BRANCH  25  26
ATOM     26  C   UNL     1       1.652  -0.096   9.733  1.00  0.00    -0.000 C 
BRANCH  26  27
ATOM     27  C   UNL     1       2.910   0.563   9.125  1.00  0.00    -0.000 C 
BRANCH  27  28
ATOM     28  C   UNL     1       3.032   2.049   9.495  1.00  0.00    -0.000 C 
BRANCH  28  29
ATOM     29  C   UNL     1       2.983   2.931   8.238  1.00  0.00    -0.000 C 
BRANCH  29  30
ATOM     30  C   UNL     1       4.279   2.862   7.409  1.00  0.00    -0.000 C 
BRANCH  30  31
ATOM     31  C   UNL     1       5.574   3.047   8.221  1.00  0.00    -0.003 C 
ATOM     32  C   UNL     1       6.625   1.977   7.924  1.00  0.00     0.004 C 
ENDBRANCH  30  31
ENDBRANCH  29  30
ENDBRANCH  28  29
ENDBRANCH  27  28
ENDBRANCH  26  27
ENDBRANCH  25  26
ENDBRANCH  24  25
ENDBRANCH  23  24
ENDBRANCH  22  23
ENDBRANCH  21  22
ENDBRANCH  20  21
ENDBRANCH  19  20
ENDBRANCH  18  19
ENDBRANCH   1  18
TORSDOF 28
ENDMDL
MODEL 8
REMARK VINA RESULT:    -4.103     10.721     13.746
REMARK INTER + INTRA:         -14.011
REMARK INTER:                 -10.328
REMARK INTRA:                  -3.682
REMARK UNBOUND:                -3.191
REMARK SMILES CCCCCCCCCCCCCCCCCCCCCCCCCCCCCC(=O)[O-]
REMARK SMILES IDX 16 1 17 2 18 3 19 4 20 5 21 6 22 7 23 8 24 9 25 10 26 11
REMARK SMILES IDX 27 12 28 13 29 14 30 15 31 16 32 17 15 18 14 19 13 20 12 21
REMARK SMILES IDX 11 22 10 23 9 24 8 25 7 26 6 27 5 28 4 29 3 30 2 31 1 32
REMARK H PARENT
REMARK Flexibility Score: inf
ROOT
ATOM      1  C   UNL     1       5.169  -2.149  -3.749  1.00  0.00     0.000 C 
ENDROOT
BRANCH   1   2
ATOM      2  C   UNL     1       5.073  -0.671  -3.334  1.00  0.00     0.000 C 
BRANCH   2   3
ATOM      3  C   UNL     1       5.744   0.273  -4.346  1.00  0.00     0.000 C 
BRANCH   3   4
ATOM      4  C   UNL     1       4.732   1.061  -5.194  1.00  0.00     0.000 C 
BRANCH   4   5
ATOM      5  C   UNL     1       4.007   0.208  -6.257  1.00  0.00     0.000 C 
BRANCH   5   6
ATOM      6  C   UNL     1       2.483   0.173  -6.037  1.00  0.00     0.000 C 
BRANCH   6   7
ATOM      7  C   UNL     1       2.005  -1.150  -5.406  1.00  0.00     0.000 C 
BRANCH   7   8
ATOM      8  C   UNL     1       0.903  -0.983  -4.342  1.00  0.00     0.000 C 
BRANCH   8   9
ATOM      9  C   UNL     1       1.463  -0.953  -2.911  1.00  0.00     0.000 C 
BRANCH   9  10
ATOM     10  C   UNL     1       1.170  -2.273  -2.182  1.00  0.00     0.000 C 
BRANCH  10  11
ATOM     11  C   UNL     1       0.256  -3.211  -2.987  1.00  0.00     0.000 C 
BRANCH  11  12
ATOM     12  C   UNL     1      -0.226  -4.420  -2.165  1.00  0.00     0.000 C 
BRANCH  12  13
ATOM     13  C   UNL     1       0.867  -4.973  -1.236  1.00  0.00     0.006 C 
BRANCH  13  14
ATOM     14  C   UNL     1       0.532  -6.377  -0.714  1.00  0.00     0.053 C 
BRANCH  14  15
ATOM     15  C   UNL     1       0.084  -6.319   0.713  1.00  0.00     0.041 C 
ATOM     16  O   UNL     1      -0.076  -5.204   1.279  1.00  0.00    -0.550 OA
ATOM     17  O   UNL     1      -0.170  -7.491   1.415  1.00  0.00    -0.550 OA
ENDBRANCH  14  15
ENDBRANCH  13  14
ENDBRANCH  12  13
ENDBRANCH  11  12
ENDBRANCH  10  11
ENDBRANCH   9  10
ENDBRANCH   8   9
ENDBRANCH   7   8
ENDBRANCH   6   7
ENDBRANCH   5   6
ENDBRANCH   4   5
ENDBRANCH   3   4
ENDBRANCH   2   3
ENDBRANCH   1   2
BRANCH   1  18
ATOM     18  C   UNL     1       5.249  -3.090  -2.534  1.00  0.00     0.000 C 
BRANCH  18  19
ATOM     19  C   UNL     1       4.279  -4.275  -2.635  1.00  0.00     0.000 C 
BRANCH  19  20
ATOM     20  C   UNL     1       4.966  -5.630  -2.402  1.00  0.00     0.000 C 
BRANCH  20  21
ATOM     21  C   UNL     1       6.493  -5.478  -2.402  1.00  0.00     0.000 C 
BRANCH  21  22
ATOM     22  C   UNL     1       7.136  -6.362  -1.322  1.00  0.00     0.000 C 
BRANCH  22  23
ATOM     23  C   UNL     1       6.812  -5.892   0.107  1.00  0.00     0.000 C 
BRANCH  23  24
ATOM     24  C   UNL     1       7.825  -4.898   0.718  1.00  0.00    -0.000 C 
BRANCH  24  25
ATOM     25  C   UNL     1       7.202  -3.675   1.417  1.00  0.00    -0.000 C 
BRANCH  25  26
ATOM     26  C   UNL     1       6.384  -4.002   2.681  1.00  0.00    -0.000 C 
BRANCH  26  27
ATOM     27  C   UNL     1       7.150  -4.864   3.708  1.00  0.00    -0.000 C 
BRANCH  27  28
ATOM     28  C   UNL     1       6.504  -6.241   3.918  1.00  0.00    -0.000 C 
BRANCH  28  29
ATOM     29  C   UNL     1       5.041  -6.097   4.362  1.00  0.00    -0.000 C 
BRANCH  29  30
ATOM     30  C   UNL     1       4.075  -6.960   3.529  1.00  0.00    -0.000 C 
BRANCH  30  31
ATOM     31  C   UNL     1       2.613  -6.477   3.533  1.00  0.00    -0.003 C 
ATOM     32  C   UNL     1       1.869  -6.835   4.819  1.00  0.00     0.004 C 
ENDBRANCH  30  31
ENDBRANCH  29  30
ENDBRANCH  28  29
ENDBRANCH  27  28
ENDBRANCH  26  27
ENDBRANCH  25  26
ENDBRANCH  24  25
ENDBRANCH  23  24
ENDBRANCH  22  23
ENDBRANCH  21  22
ENDBRANCH  20  21
ENDBRANCH  19  20
ENDBRANCH  18  19
ENDBRANCH   1  18
TORSDOF 28
ENDMDL
MODEL 9
REMARK VINA RESULT:    -4.095      7.434     11.680
REMARK INTER + INTRA:         -13.989
REMARK INTER:                  -8.128
REMARK INTRA:                  -5.861
REMARK UNBOUND:                -3.191
REMARK SMILES CCCCCCCCCCCCCCCCCCCCCCCCCCCCCC(=O)[O-]
REMARK SMILES IDX 16 1 17 2 18 3 19 4 20 5 21 6 22 7 23 8 24 9 25 10 26 11
REMARK SMILES IDX 27 12 28 13 29 14 30 15 31 16 32 17 15 18 14 19 13 20 12 21
REMARK SMILES IDX 11 22 10 23 9 24 8 25 7 26 6 27 5 28 4 29 3 30 2 31 1 32
REMARK H PARENT
REMARK Flexibility Score: inf
ROOT
ATOM      1  C   UNL     1      -1.178   1.242   8.584  1.00  0.00     0.000 C 
ENDROOT
BRANCH   1   2
ATOM      2  C   UNL     1       0.012   0.549   7.900  1.00  0.00     0.000 C 
BRANCH   2   3
ATOM      3  C   UNL     1      -0.251  -0.941   7.623  1.00  0.00     0.000 C 
BRANCH   3   4
ATOM      4  C   UNL     1       0.456  -1.871   8.624  1.00  0.00     0.000 C 
BRANCH   4   5
ATOM      5  C   UNL     1       1.923  -1.484   8.910  1.00  0.00     0.000 C 
BRANCH   5   6
ATOM      6  C   UNL     1       2.382  -1.928  10.312  1.00  0.00     0.000 C 
BRANCH   6   7
ATOM      7  C   UNL     1       3.382  -0.943  10.947  1.00  0.00     0.000 C 
BRANCH   7   8
ATOM      8  C   UNL     1       4.586  -0.596  10.051  1.00  0.00     0.000 C 
BRANCH   8   9
ATOM      9  C   UNL     1       5.717   0.103  10.823  1.00  0.00     0.000 C 
BRANCH   9  10
ATOM     10  C   UNL     1       6.682   0.808   9.858  1.00  0.00     0.000 C 
BRANCH  10  11
ATOM     11  C   UNL     1       6.199   0.778   8.399  1.00  0.00     0.000 C 
BRANCH  11  12
ATOM     12  C   UNL     1       6.363   2.135   7.691  1.00  0.00     0.000 C 
BRANCH  12  13
ATOM     13  C   UNL     1       7.039   3.187   8.585  1.00  0.00     0.006 C 
BRANCH  13  14
ATOM     14  C   UNL     1       6.296   4.531   8.566  1.00  0.00     0.053 C 
BRANCH  14  15
ATOM     15  C   UNL     1       6.540   5.253   7.278  1.00  0.00     0.041 C 
ATOM     16  O   UNL     1       7.719   5.491   6.901  1.00  0.00    -0.550 OA
ATOM     17  O   UNL     1       5.470   5.653   6.488  1.00  0.00    -0.550 OA
ENDBRANCH  14  15
ENDBRANCH  13  14
ENDBRANCH  12  13
ENDBRANCH  11  12
ENDBRANCH  10  11
ENDBRANCH   9  10
ENDBRANCH   8   9
ENDBRANCH   7   8
ENDBRANCH   6   7
ENDBRANCH   5   6
ENDBRANCH   4   5
ENDBRANCH   3   4
ENDBRANCH   2   3
ENDBRANCH   1   2
BRANCH   1  18
ATOM     18  C   UNL     1      -0.813   1.783   9.977  1.00  0.00     0.000 C 
BRANCH  18  19
ATOM     19  C   UNL     1       0.644   1.490  10.365  1.00  0.00     0.000 C 
BRANCH  19  20
ATOM     20  C   UNL     1       1.422   2.756  10.758  1.00  0.00     0.000 C 
BRANCH  20  21
ATOM     21  C   UNL     1       2.846   2.724  10.188  1.00  0.00     0.000 C 
BRANCH  21  22
ATOM     22  C   UNL     1       2.837   2.353   8.697  1.00  0.00     0.000 C 
BRANCH  22  23
ATOM     23  C   UNL     1       2.895   3.582   7.773  1.00  0.00     0.000 C 
BRANCH  23  24
ATOM     24  C   UNL     1       1.688   3.749   6.824  1.00  0.00    -0.000 C 
BRANCH  24  25
ATOM     25  C   UNL     1       0.427   4.351   7.469  1.00  0.00    -0.000 C 
BRANCH  25  26
ATOM     26  C   UNL     1       0.685   5.563   8.384  1.00  0.00    -0.000 C 
BRANCH  26  27
ATOM     27  C   UNL     1      -0.582   6.078   9.101  1.00  0.00    -0.000 C 
BRANCH  27  28
ATOM     28  C   UNL     1      -1.859   5.373   8.618  1.00  0.00    -0.000 C 
BRANCH  28  29
ATOM     29  C   UNL     1      -2.635   4.777   9.802  1.00  0.00    -0.000 C 
BRANCH  29  30
ATOM     30  C   UNL     1      -3.970   4.138   9.379  1.00  0.00    -0.000 C 
BRANCH  30  31
ATOM     31  C   UNL     1      -4.380   2.900  10.199  1.00  0.00    -0.003 C 
ATOM     32  C   UNL     1      -4.848   1.734   9.329  1.00  0.00     0.004 C 
ENDBRANCH  30  31
ENDBRANCH  29  30
ENDBRANCH  28  29
ENDBRANCH  27  28
ENDBRANCH  26  27
ENDBRANCH  25  26
ENDBRANCH  24  25
ENDBRANCH  23  24
ENDBRANCH  22  23
ENDBRANCH  21  22
ENDBRANCH  20  21
ENDBRANCH  19  20
ENDBRANCH  18  19
ENDBRANCH   1  18
TORSDOF 28
ENDMDL
