MODEL 1
REMARK VINA RESULT:    -6.611      0.000      0.000
REMARK INTER + INTRA:          -7.554
REMARK INTER:                  -7.963
REMARK INTRA:                   0.410
REMARK UNBOUND:                 0.410
REMARK SMILES O=c1c(O)c(-c2ccc(O)c(O)c2)oc2cc(O)cc(O)c12
REMARK SMILES IDX 5 1 3 2 2 3 1 4 22 5 20 6 19 7 17 8 16 9 15 10 14 11 6 12
REMARK SMILES IDX 7 13 8 14 9 15 13 16 11 17 10 18 12 20 4 22 21 24 18 26
REMARK H PARENT 10 19 12 21 4 23 21 25 18 27
REMARK Flexibility Score: inf
ROOT
ATOM      1  C   UNL     1     173.366 175.443 176.550  1.00  0.00     0.180 A 
ATOM      2  C   UNL     1     174.457 175.852 175.764  1.00  0.00     0.208 A 
ATOM      3  C   UNL     1     174.221 176.649 174.632  1.00  0.00     0.238 A 
ATOM      4  O   UNL     1     175.206 177.057 173.963  1.00  0.00    -0.285 OA
ATOM      5  C   UNL     1     172.896 177.013 174.292  1.00  0.00     0.111 A 
ATOM      6  C   UNL     1     172.536 177.784 173.146  1.00  0.00     0.134 A 
ATOM      7  C   UNL     1     171.208 178.195 172.979  1.00  0.00     0.093 A 
ATOM      8  C   UNL     1     170.215 177.808 173.883  1.00  0.00     0.123 A 
ATOM      9  C   UNL     1     170.546 177.006 174.972  1.00  0.00     0.094 A 
ATOM     10  C   UNL     1     171.869 176.612 175.185  1.00  0.00     0.146 A 
ATOM     11  O   UNL     1     172.143 175.856 176.242  1.00  0.00    -0.452 OA
ENDROOT
BRANCH   1  12
ATOM     12  C   UNL     1     173.534 174.582 177.743  1.00  0.00     0.025 A 
ATOM     13  C   UNL     1     174.692 173.800 177.874  1.00  0.00     0.016 A 
ATOM     14  C   UNL     1     174.881 172.996 179.001  1.00  0.00     0.051 A 
ATOM     15  C   UNL     1     173.926 172.974 180.021  1.00  0.00     0.157 A 
ATOM     16  C   UNL     1     172.584 174.575 178.781  1.00  0.00     0.062 A 
ATOM     17  C   UNL     1     172.772 173.770 179.914  1.00  0.00     0.158 A 
BRANCH  15  18
ATOM     18  O   UNL     1     174.140 172.161 181.133  1.00  0.00    -0.504 OA
ATOM     19  H   UNL     1     173.519 171.396 181.368  1.00  0.00     0.293 HD
ENDBRANCH  15  18
BRANCH  17  20
ATOM     20  O   UNL     1     171.823 173.764 180.935  1.00  0.00    -0.504 OA
ATOM     21  H   UNL     1     171.788 174.500 181.631  1.00  0.00     0.293 HD
ENDBRANCH  17  20
ENDBRANCH   1  12
BRANCH   2  22
ATOM     22  O   UNL     1     175.759 175.500 176.130  1.00  0.00    -0.502 OA
ATOM     23  H   UNL     1     176.502 176.182 176.228  1.00  0.00     0.293 HD
ENDBRANCH   2  22
BRANCH   6  24
ATOM     24  O   UNL     1     173.433 178.145 172.136  1.00  0.00    -0.507 OA
ATOM     25  H   UNL     1     173.853 179.056 172.038  1.00  0.00     0.293 HD
ENDBRANCH   6  24
BRANCH   8  26
ATOM     26  O   UNL     1     168.893 178.209 173.701  1.00  0.00    -0.508 OA
ATOM     27  H   UNL     1     168.509 179.006 174.195  1.00  0.00     0.293 HD
ENDBRANCH   8  26
TORSDOF 6
ENDMDL
MODEL 2
REMARK VINA RESULT:    -6.577      1.913      2.873
REMARK INTER + INTRA:          -7.513
REMARK INTER:                  -7.187
REMARK INTRA:                  -0.326
REMARK UNBOUND:                 0.410
REMARK SMILES O=c1c(O)c(-c2ccc(O)c(O)c2)oc2cc(O)cc(O)c12
REMARK SMILES IDX 5 1 3 2 2 3 1 4 22 5 20 6 19 7 17 8 16 9 15 10 14 11 6 12
REMARK SMILES IDX 7 13 8 14 9 15 13 16 11 17 10 18 12 20 4 22 21 24 18 26
REMARK H PARENT 10 19 12 21 4 23 21 25 18 27
REMARK Flexibility Score: inf
ROOT
ATOM      1  C   UNL     1     172.261 174.271 176.871  1.00  0.00     0.180 A 
ATOM      2  C   UNL     1     171.371 173.416 176.197  1.00  0.00     0.208 A 
ATOM      3  C   UNL     1     170.748 173.868 175.022  1.00  0.00     0.238 A 
ATOM      4  O   UNL     1     169.995 173.078 174.395  1.00  0.00    -0.285 OA
ATOM      5  C   UNL     1     171.009 175.175 174.546  1.00  0.00     0.111 A 
ATOM      6  C   UNL     1     170.404 175.752 173.389  1.00  0.00     0.134 A 
ATOM      7  C   UNL     1     170.834 177.005 172.936  1.00  0.00     0.093 A 
ATOM      8  C   UNL     1     171.803 177.729 173.635  1.00  0.00     0.123 A 
ATOM      9  C   UNL     1     172.357 177.201 174.798  1.00  0.00     0.094 A 
ATOM     10  C   UNL     1     171.974 175.937 175.254  1.00  0.00     0.146 A 
ATOM     11  O   UNL     1     172.535 175.466 176.362  1.00  0.00    -0.452 OA
ENDROOT
BRANCH   1  12
ATOM     12  C   UNL     1     172.936 173.874 178.126  1.00  0.00     0.025 A 
ATOM     13  C   UNL     1     174.257 173.401 178.082  1.00  0.00     0.016 A 
ATOM     14  C   UNL     1     174.920 173.041 179.257  1.00  0.00     0.051 A 
ATOM     15  C   UNL     1     174.283 173.161 180.494  1.00  0.00     0.157 A 
ATOM     16  C   UNL     1     172.303 174.015 179.375  1.00  0.00     0.062 A 
ATOM     17  C   UNL     1     172.968 173.655 180.556  1.00  0.00     0.158 A 
BRANCH  15  18
ATOM     18  O   UNL     1     174.969 172.792 181.651  1.00  0.00    -0.504 OA
ATOM     19  H   UNL     1     174.574 172.919 182.575  1.00  0.00     0.293 HD
ENDBRANCH  15  18
BRANCH  17  20
ATOM     20  O   UNL     1     172.331 173.792 181.789  1.00  0.00    -0.504 OA
ATOM     21  H   UNL     1     172.137 174.703 182.187  1.00  0.00     0.293 HD
ENDBRANCH  17  20
ENDBRANCH   1  12
BRANCH   2  22
ATOM     22  O   UNL     1     171.144 172.121 176.673  1.00  0.00    -0.502 OA
ATOM     23  H   UNL     1     171.504 171.298 176.206  1.00  0.00     0.293 HD
ENDBRANCH   2  22
BRANCH   6  24
ATOM     24  O   UNL     1     169.363 175.153 172.673  1.00  0.00    -0.507 OA
ATOM     25  H   UNL     1     169.183 174.161 172.642  1.00  0.00     0.293 HD
ENDBRANCH   6  24
BRANCH   8  26
ATOM     26  O   UNL     1     172.215 178.982 173.185  1.00  0.00    -0.508 OA
ATOM     27  H   UNL     1     171.602 179.577 172.641  1.00  0.00     0.293 HD
ENDBRANCH   8  26
TORSDOF 6
ENDMDL
MODEL 3
REMARK VINA RESULT:    -6.559      2.181      6.757
REMARK INTER + INTRA:          -7.492
REMARK INTER:                  -7.176
REMARK INTRA:                  -0.316
REMARK UNBOUND:                 0.410
REMARK SMILES O=c1c(O)c(-c2ccc(O)c(O)c2)oc2cc(O)cc(O)c12
REMARK SMILES IDX 5 1 3 2 2 3 1 4 22 5 20 6 19 7 17 8 16 9 15 10 14 11 6 12
REMARK SMILES IDX 7 13 8 14 9 15 13 16 11 17 10 18 12 20 4 22 21 24 18 26
REMARK H PARENT 10 19 12 21 4 23 21 25 18 27
REMARK Flexibility Score: inf
ROOT
ATOM      1  C   UNL     1     171.882 174.524 175.733  1.00  0.00     0.180 A 
ATOM      2  C   UNL     1     173.200 174.445 175.253  1.00  0.00     0.208 A 
ATOM      3  C   UNL     1     174.221 174.036 176.127  1.00  0.00     0.238 A 
ATOM      4  O   UNL     1     175.390 173.914 175.677  1.00  0.00    -0.285 OA
ATOM      5  C   UNL     1     173.912 173.728 177.474  1.00  0.00     0.111 A 
ATOM      6  C   UNL     1     174.872 173.341 178.457  1.00  0.00     0.134 A 
ATOM      7  C   UNL     1     174.437 172.934 179.724  1.00  0.00     0.093 A 
ATOM      8  C   UNL     1     173.082 172.960 180.064  1.00  0.00     0.123 A 
ATOM      9  C   UNL     1     172.143 173.392 179.130  1.00  0.00     0.094 A 
ATOM     10  C   UNL     1     172.543 173.770 177.846  1.00  0.00     0.146 A 
ATOM     11  O   UNL     1     171.614 174.165 176.983  1.00  0.00    -0.452 OA
ENDROOT
BRANCH   1  12
ATOM     12  C   UNL     1     170.758 174.971 174.879  1.00  0.00     0.025 A 
ATOM     13  C   UNL     1     170.403 176.328 174.857  1.00  0.00     0.016 A 
ATOM     14  C   UNL     1     169.359 176.774 174.043  1.00  0.00     0.051 A 
ATOM     15  C   UNL     1     168.667 175.877 173.226  1.00  0.00     0.157 A 
ATOM     16  C   UNL     1     170.074 174.072 174.040  1.00  0.00     0.062 A 
ATOM     17  C   UNL     1     169.027 174.518 173.220  1.00  0.00     0.158 A 
BRANCH  15  18
ATOM     18  O   UNL     1     167.628 176.351 172.424  1.00  0.00    -0.504 OA
ATOM     19  H   UNL     1     167.792 176.980 171.647  1.00  0.00     0.293 HD
ENDBRANCH  15  18
BRANCH  17  20
ATOM     20  O   UNL     1     168.350 173.619 172.396  1.00  0.00    -0.504 OA
ATOM     21  H   UNL     1     168.166 173.828 171.422  1.00  0.00     0.293 HD
ENDBRANCH  17  20
ENDBRANCH   1  12
BRANCH   2  22
ATOM     22  O   UNL     1     173.480 174.732 173.914  1.00  0.00    -0.502 OA
ATOM     23  H   UNL     1     173.224 174.109 173.158  1.00  0.00     0.293 HD
ENDBRANCH   2  22
BRANCH   6  24
ATOM     24  O   UNL     1     176.254 173.368 178.250  1.00  0.00    -0.507 OA
ATOM     25  H   UNL     1     176.887 174.027 178.677  1.00  0.00     0.293 HD
ENDBRANCH   6  24
BRANCH   8  26
ATOM     26  O   UNL     1     172.659 172.567 181.332  1.00  0.00    -0.508 OA
ATOM     27  H   UNL     1     171.855 172.994 181.778  1.00  0.00     0.293 HD
ENDBRANCH   8  26
TORSDOF 6
ENDMDL
MODEL 4
REMARK VINA RESULT:    -6.558      4.257      7.045
REMARK INTER + INTRA:          -7.490
REMARK INTER:                  -7.175
REMARK INTRA:                  -0.316
REMARK UNBOUND:                 0.410
REMARK SMILES O=c1c(O)c(-c2ccc(O)c(O)c2)oc2cc(O)cc(O)c12
REMARK SMILES IDX 5 1 3 2 2 3 1 4 22 5 20 6 19 7 17 8 16 9 15 10 14 11 6 12
REMARK SMILES IDX 7 13 8 14 9 15 13 16 11 17 10 18 12 20 4 22 21 24 18 26
REMARK H PARENT 10 19 12 21 4 23 21 25 18 27
REMARK Flexibility Score: inf
ROOT
ATOM      1  C   UNL     1     174.526 171.848 175.709  1.00  0.00     0.180 A 
ATOM      2  C   UNL     1     173.215 171.932 175.209  1.00  0.00     0.208 A 
ATOM      3  C   UNL     1     172.181 172.336 176.070  1.00  0.00     0.238 A 
ATOM      4  O   UNL     1     171.019 172.460 175.602  1.00  0.00    -0.285 OA
ATOM      5  C   UNL     1     172.469 172.635 177.423  1.00  0.00     0.111 A 
ATOM      6  C   UNL     1     171.494 173.016 178.394  1.00  0.00     0.134 A 
ATOM      7  C   UNL     1     171.910 173.415 179.670  1.00  0.00     0.093 A 
ATOM      8  C   UNL     1     173.259 173.386 180.030  1.00  0.00     0.123 A 
ATOM      9  C   UNL     1     174.212 172.959 179.108  1.00  0.00     0.094 A 
ATOM     10  C   UNL     1     173.832 172.590 177.816  1.00  0.00     0.146 A 
ATOM     11  O   UNL     1     174.774 172.199 176.965  1.00  0.00    -0.452 OA
ENDROOT
BRANCH   1  12
ATOM     12  C   UNL     1     175.662 171.407 174.869  1.00  0.00     0.025 A 
ATOM     13  C   UNL     1     176.018 170.050 174.845  1.00  0.00     0.016 A 
ATOM     14  C   UNL     1     177.074 169.608 174.044  1.00  0.00     0.051 A 
ATOM     15  C   UNL     1     177.778 170.510 173.243  1.00  0.00     0.157 A 
ATOM     16  C   UNL     1     176.358 172.310 174.045  1.00  0.00     0.062 A 
ATOM     17  C   UNL     1     177.418 171.869 173.238  1.00  0.00     0.158 A 
BRANCH  15  18
ATOM     18  O   UNL     1     178.829 170.041 172.455  1.00  0.00    -0.504 OA
ATOM     19  H   UNL     1     179.784 170.016 172.791  1.00  0.00     0.293 HD
ENDBRANCH  15  18
BRANCH  17  20
ATOM     20  O   UNL     1     178.107 172.772 172.430  1.00  0.00    -0.504 OA
ATOM     21  H   UNL     1     177.730 173.084 171.543  1.00  0.00     0.293 HD
ENDBRANCH  17  20
ENDBRANCH   1  12
BRANCH   2  22
ATOM     22  O   UNL     1     172.956 171.653 173.864  1.00  0.00    -0.502 OA
ATOM     23  H   UNL     1     172.077 171.887 173.418  1.00  0.00     0.293 HD
ENDBRANCH   2  22
BRANCH   6  24
ATOM     24  O   UNL     1     170.116 172.991 178.165  1.00  0.00    -0.507 OA
ATOM     25  H   UNL     1     169.497 172.251 178.459  1.00  0.00     0.293 HD
ENDBRANCH   6  24
BRANCH   8  26
ATOM     26  O   UNL     1     173.663 173.770 181.307  1.00  0.00    -0.508 OA
ATOM     27  H   UNL     1     173.088 173.589 182.121  1.00  0.00     0.293 HD
ENDBRANCH   8  26
TORSDOF 6
ENDMDL
MODEL 5
REMARK VINA RESULT:    -6.485      2.178      2.504
REMARK INTER + INTRA:          -7.403
REMARK INTER:                  -7.081
REMARK INTRA:                  -0.322
REMARK UNBOUND:                 0.410
REMARK SMILES O=c1c(O)c(-c2ccc(O)c(O)c2)oc2cc(O)cc(O)c12
REMARK SMILES IDX 5 1 3 2 2 3 1 4 22 5 20 6 19 7 17 8 16 9 15 10 14 11 6 12
REMARK SMILES IDX 7 13 8 14 9 15 13 16 11 17 10 18 12 20 4 22 21 24 18 26
REMARK H PARENT 10 19 12 21 4 23 21 25 18 27
REMARK Flexibility Score: inf
ROOT
ATOM      1  C   UNL     1     172.321 174.841 176.573  1.00  0.00     0.180 A 
ATOM      2  C   UNL     1     172.402 176.217 176.293  1.00  0.00     0.208 A 
ATOM      3  C   UNL     1     171.828 176.707 175.109  1.00  0.00     0.238 A 
ATOM      4  O   UNL     1     171.856 177.946 174.891  1.00  0.00    -0.285 OA
ATOM      5  C   UNL     1     171.196 175.813 174.211  1.00  0.00     0.111 A 
ATOM      6  C   UNL     1     170.615 176.193 172.964  1.00  0.00     0.134 A 
ATOM      7  C   UNL     1     169.902 175.247 172.218  1.00  0.00     0.093 A 
ATOM      8  C   UNL     1     169.802 173.921 172.643  1.00  0.00     0.123 A 
ATOM      9  C   UNL     1     170.415 173.526 173.830  1.00  0.00     0.094 A 
ATOM     10  C   UNL     1     171.103 174.455 174.614  1.00  0.00     0.146 A 
ATOM     11  O   UNL     1     171.664 174.039 175.743  1.00  0.00    -0.452 OA
ENDROOT
BRANCH   1  12
ATOM     12  C   UNL     1     172.923 174.248 177.788  1.00  0.00     0.025 A 
ATOM     13  C   UNL     1     174.270 173.854 177.771  1.00  0.00     0.016 A 
ATOM     14  C   UNL     1     174.864 173.311 178.913  1.00  0.00     0.051 A 
ATOM     15  C   UNL     1     174.129 173.169 180.092  1.00  0.00     0.157 A 
ATOM     16  C   UNL     1     172.190 174.124 178.983  1.00  0.00     0.062 A 
ATOM     17  C   UNL     1     172.785 173.581 180.131  1.00  0.00     0.158 A 
BRANCH  15  18
ATOM     18  O   UNL     1     174.748 172.622 181.216  1.00  0.00    -0.504 OA
ATOM     19  H   UNL     1     174.316 171.887 181.764  1.00  0.00     0.293 HD
ENDBRANCH  15  18
BRANCH  17  20
ATOM     20  O   UNL     1     172.050 173.455 181.309  1.00  0.00    -0.504 OA
ATOM     21  H   UNL     1     171.197 173.981 181.460  1.00  0.00     0.293 HD
ENDBRANCH  17  20
ENDBRANCH   1  12
BRANCH   2  22
ATOM     22  O   UNL     1     173.012 177.085 177.203  1.00  0.00    -0.502 OA
ATOM     23  H   UNL     1     174.009 177.262 177.203  1.00  0.00     0.293 HD
ENDBRANCH   2  22
BRANCH   6  24
ATOM     24  O   UNL     1     170.735 177.468 172.404  1.00  0.00    -0.507 OA
ATOM     25  H   UNL     1     169.960 178.060 172.149  1.00  0.00     0.293 HD
ENDBRANCH   6  24
BRANCH   8  26
ATOM     26  O   UNL     1     169.102 172.982 171.887  1.00  0.00    -0.508 OA
ATOM     27  H   UNL     1     169.019 172.018 172.185  1.00  0.00     0.293 HD
ENDBRANCH   8  26
TORSDOF 6
ENDMDL
MODEL 6
REMARK VINA RESULT:    -6.441      3.350      5.380
REMARK INTER + INTRA:          -7.350
REMARK INTER:                  -7.180
REMARK INTRA:                  -0.170
REMARK UNBOUND:                 0.410
REMARK SMILES O=c1c(O)c(-c2ccc(O)c(O)c2)oc2cc(O)cc(O)c12
REMARK SMILES IDX 5 1 3 2 2 3 1 4 22 5 20 6 19 7 17 8 16 9 15 10 14 11 6 12
REMARK SMILES IDX 7 13 8 14 9 15 13 16 11 17 10 18 12 20 4 22 21 24 18 26
REMARK H PARENT 10 19 12 21 4 23 21 25 18 27
REMARK Flexibility Score: inf
ROOT
ATOM      1  C   UNL     1     174.299 173.133 176.604  1.00  0.00     0.180 A 
ATOM      2  C   UNL     1     174.284 174.192 175.681  1.00  0.00     0.208 A 
ATOM      3  C   UNL     1     174.961 174.042 174.459  1.00  0.00     0.238 A 
ATOM      4  O   UNL     1     174.899 174.974 173.615  1.00  0.00    -0.285 OA
ATOM      5  C   UNL     1     175.658 172.841 174.184  1.00  0.00     0.111 A 
ATOM      6  C   UNL     1     176.410 172.595 172.997  1.00  0.00     0.134 A 
ATOM      7  C   UNL     1     176.950 171.323 172.772  1.00  0.00     0.093 A 
ATOM      8  C   UNL     1     176.819 170.307 173.722  1.00  0.00     0.123 A 
ATOM      9  C   UNL     1     176.137 170.555 174.911  1.00  0.00     0.094 A 
ATOM     10  C   UNL     1     175.556 171.803 175.147  1.00  0.00     0.146 A 
ATOM     11  O   UNL     1     174.905 171.994 176.289  1.00  0.00    -0.452 OA
ENDROOT
BRANCH   1  12
ATOM     12  C   UNL     1     173.629 173.226 177.921  1.00  0.00     0.025 A 
ATOM     13  C   UNL     1     172.229 173.293 177.981  1.00  0.00     0.016 A 
ATOM     14  C   UNL     1     171.576 173.360 179.214  1.00  0.00     0.051 A 
ATOM     15  C   UNL     1     172.308 173.347 180.404  1.00  0.00     0.157 A 
ATOM     16  C   UNL     1     174.364 173.191 179.120  1.00  0.00     0.062 A 
ATOM     17  C   UNL     1     173.710 173.257 180.360  1.00  0.00     0.158 A 
BRANCH  15  18
ATOM     18  O   UNL     1     171.628 173.418 181.620  1.00  0.00    -0.504 OA
ATOM     19  H   UNL     1     170.621 173.509 181.669  1.00  0.00     0.293 HD
ENDBRANCH  15  18
BRANCH  17  20
ATOM     20  O   UNL     1     174.446 173.228 181.543  1.00  0.00    -0.504 OA
ATOM     21  H   UNL     1     175.097 172.478 181.745  1.00  0.00     0.293 HD
ENDBRANCH  17  20
ENDBRANCH   1  12
BRANCH   2  22
ATOM     22  O   UNL     1     173.572 175.362 175.963  1.00  0.00    -0.502 OA
ATOM     23  H   UNL     1     173.388 176.070 175.264  1.00  0.00     0.293 HD
ENDBRANCH   2  22
BRANCH   6  24
ATOM     24  O   UNL     1     176.679 173.566 172.028  1.00  0.00    -0.507 OA
ATOM     25  H   UNL     1     176.905 174.529 172.226  1.00  0.00     0.293 HD
ENDBRANCH   6  24
BRANCH   8  26
ATOM     26  O   UNL     1     177.372 169.048 173.498  1.00  0.00    -0.508 OA
ATOM     27  H   UNL     1     176.792 168.219 173.428  1.00  0.00     0.293 HD
ENDBRANCH   8  26
TORSDOF 6
ENDMDL
MODEL 7
REMARK VINA RESULT:    -6.428      4.602      6.250
REMARK INTER + INTRA:          -7.334
REMARK INTER:                  -7.024
REMARK INTRA:                  -0.311
REMARK UNBOUND:                 0.410
REMARK SMILES O=c1c(O)c(-c2ccc(O)c(O)c2)oc2cc(O)cc(O)c12
REMARK SMILES IDX 5 1 3 2 2 3 1 4 22 5 20 6 19 7 17 8 16 9 15 10 14 11 6 12
REMARK SMILES IDX 7 13 8 14 9 15 13 16 11 17 10 18 12 20 4 22 21 24 18 26
REMARK H PARENT 10 19 12 21 4 23 21 25 18 27
REMARK Flexibility Score: inf
ROOT
ATOM      1  C   UNL     1     174.120 171.477 176.563  1.00  0.00     0.180 A 
ATOM      2  C   UNL     1     173.952 170.120 176.238  1.00  0.00     0.208 A 
ATOM      3  C   UNL     1     174.550 169.620 175.069  1.00  0.00     0.238 A 
ATOM      4  O   UNL     1     174.441 168.393 174.812  1.00  0.00    -0.285 OA
ATOM      5  C   UNL     1     175.293 170.488 174.232  1.00  0.00     0.111 A 
ATOM      6  C   UNL     1     175.908 170.098 173.004  1.00  0.00     0.134 A 
ATOM      7  C   UNL     1     176.727 171.007 172.324  1.00  0.00     0.093 A 
ATOM      8  C   UNL     1     176.903 172.311 172.795  1.00  0.00     0.123 A 
ATOM      9  C   UNL     1     176.259 172.718 173.961  1.00  0.00     0.094 A 
ATOM     10  C   UNL     1     175.465 171.823 174.681  1.00  0.00     0.146 A 
ATOM     11  O   UNL     1     174.877 172.249 175.793  1.00  0.00    -0.452 OA
ENDROOT
BRANCH   1  12
ATOM     12  C   UNL     1     173.501 172.081 177.764  1.00  0.00     0.025 A 
ATOM     13  C   UNL     1     172.159 172.490 177.719  1.00  0.00     0.016 A 
ATOM     14  C   UNL     1     171.549 173.043 178.847  1.00  0.00     0.051 A 
ATOM     15  C   UNL     1     172.262 173.181 180.041  1.00  0.00     0.157 A 
ATOM     16  C   UNL     1     174.211 172.201 178.973  1.00  0.00     0.062 A 
ATOM     17  C   UNL     1     173.600 172.755 180.108  1.00  0.00     0.158 A 
BRANCH  15  18
ATOM     18  O   UNL     1     171.627 173.739 181.150  1.00  0.00    -0.504 OA
ATOM     19  H   UNL     1     170.916 174.456 181.060  1.00  0.00     0.293 HD
ENDBRANCH  15  18
BRANCH  17  20
ATOM     20  O   UNL     1     174.313 172.876 181.299  1.00  0.00    -0.504 OA
ATOM     21  H   UNL     1     174.900 172.126 181.645  1.00  0.00     0.293 HD
ENDBRANCH  17  20
ENDBRANCH   1  12
BRANCH   2  22
ATOM     22  O   UNL     1     173.233 169.276 177.089  1.00  0.00    -0.502 OA
ATOM     23  H   UNL     1     172.701 168.484 176.749  1.00  0.00     0.293 HD
ENDBRANCH   2  22
BRANCH   6  24
ATOM     24  O   UNL     1     175.723 168.851 172.400  1.00  0.00    -0.507 OA
ATOM     25  H   UNL     1     176.409 168.112 172.385  1.00  0.00     0.293 HD
ENDBRANCH   6  24
BRANCH   8  26
ATOM     26  O   UNL     1     177.709 173.213 172.104  1.00  0.00    -0.508 OA
ATOM     27  H   UNL     1     177.403 174.161 171.917  1.00  0.00     0.293 HD
ENDBRANCH   8  26
TORSDOF 6
ENDMDL
MODEL 8
REMARK VINA RESULT:    -6.395      2.551      3.749
REMARK INTER + INTRA:          -7.293
REMARK INTER:                  -7.005
REMARK INTRA:                  -0.289
REMARK UNBOUND:                 0.410
REMARK SMILES O=c1c(O)c(-c2ccc(O)c(O)c2)oc2cc(O)cc(O)c12
REMARK SMILES IDX 5 1 3 2 2 3 1 4 22 5 20 6 19 7 17 8 16 9 15 10 14 11 6 12
REMARK SMILES IDX 7 13 8 14 9 15 13 16 11 17 10 18 12 20 4 22 21 24 18 26
REMARK H PARENT 10 19 12 21 4 23 21 25 18 27
REMARK Flexibility Score: inf
ROOT
ATOM      1  C   UNL     1     173.954 173.582 176.492  1.00  0.00     0.180 A 
ATOM      2  C   UNL     1     174.295 172.450 175.731  1.00  0.00     0.208 A 
ATOM      3  C   UNL     1     174.711 172.623 174.400  1.00  0.00     0.238 A 
ATOM      4  O   UNL     1     175.066 171.611 173.742  1.00  0.00    -0.285 OA
ATOM      5  C   UNL     1     174.764 173.923 173.843  1.00  0.00     0.111 A 
ATOM      6  C   UNL     1     175.133 174.212 172.495  1.00  0.00     0.134 A 
ATOM      7  C   UNL     1     175.277 175.544 172.089  1.00  0.00     0.093 A 
ATOM      8  C   UNL     1     175.005 176.598 172.965  1.00  0.00     0.123 A 
ATOM      9  C   UNL     1     174.587 176.326 174.266  1.00  0.00     0.094 A 
ATOM     10  C   UNL     1     174.469 175.007 174.710  1.00  0.00     0.146 A 
ATOM     11  O   UNL     1     174.078 174.792 175.961  1.00  0.00    -0.452 OA
ENDROOT
BRANCH   1  12
ATOM     12  C   UNL     1     173.484 173.477 177.891  1.00  0.00     0.025 A 
ATOM     13  C   UNL     1     172.108 173.522 178.164  1.00  0.00     0.016 A 
ATOM     14  C   UNL     1     171.641 173.404 179.475  1.00  0.00     0.051 A 
ATOM     15  C   UNL     1     172.538 173.223 180.531  1.00  0.00     0.157 A 
ATOM     16  C   UNL     1     174.384 173.273 178.953  1.00  0.00     0.062 A 
ATOM     17  C   UNL     1     173.917 173.153 180.271  1.00  0.00     0.158 A 
BRANCH  15  18
ATOM     18  O   UNL     1     172.043 173.111 181.830  1.00  0.00    -0.504 OA
ATOM     19  H   UNL     1     172.164 173.845 182.517  1.00  0.00     0.293 HD
ENDBRANCH  15  18
BRANCH  17  20
ATOM     20  O   UNL     1     174.817 172.957 181.318  1.00  0.00    -0.504 OA
ATOM     21  H   UNL     1     174.526 172.548 182.198  1.00  0.00     0.293 HD
ENDBRANCH  17  20
ENDBRANCH   1  12
BRANCH   2  22
ATOM     22  O   UNL     1     174.255 171.177 176.307  1.00  0.00    -0.502 OA
ATOM     23  H   UNL     1     175.045 170.543 176.282  1.00  0.00     0.293 HD
ENDBRANCH   2  22
BRANCH   6  24
ATOM     24  O   UNL     1     175.338 173.236 171.516  1.00  0.00    -0.507 OA
ATOM     25  H   UNL     1     175.628 173.423 170.569  1.00  0.00     0.293 HD
ENDBRANCH   6  24
BRANCH   8  26
ATOM     26  O   UNL     1     175.137 177.921 172.549  1.00  0.00    -0.508 OA
ATOM     27  H   UNL     1     175.348 178.155 171.586  1.00  0.00     0.293 HD
ENDBRANCH   8  26
TORSDOF 6
ENDMDL
MODEL 9
REMARK VINA RESULT:    -6.390      1.751      6.573
REMARK INTER + INTRA:          -7.288
REMARK INTER:                  -6.970
REMARK INTRA:                  -0.318
REMARK UNBOUND:                 0.410
REMARK SMILES O=c1c(O)c(-c2ccc(O)c(O)c2)oc2cc(O)cc(O)c12
REMARK SMILES IDX 5 1 3 2 2 3 1 4 22 5 20 6 19 7 17 8 16 9 15 10 14 11 6 12
REMARK SMILES IDX 7 13 8 14 9 15 13 16 11 17 10 18 12 20 4 22 21 24 18 26
REMARK H PARENT 10 19 12 21 4 23 21 25 18 27
REMARK Flexibility Score: inf
ROOT
ATOM      1  C   UNL     1     171.421 175.941 175.100  1.00  0.00     0.180 A 
ATOM      2  C   UNL     1     172.585 176.486 174.530  1.00  0.00     0.208 A 
ATOM      3  C   UNL     1     173.837 176.108 175.042  1.00  0.00     0.238 A 
ATOM      4  O   UNL     1     174.875 176.558 174.492  1.00  0.00    -0.285 OA
ATOM      5  C   UNL     1     173.908 175.203 176.128  1.00  0.00     0.111 A 
ATOM      6  C   UNL     1     175.120 174.780 176.752  1.00  0.00     0.134 A 
ATOM      7  C   UNL     1     175.081 173.782 177.733  1.00  0.00     0.093 A 
ATOM      8  C   UNL     1     173.866 173.236 178.156  1.00  0.00     0.123 A 
ATOM      9  C   UNL     1     172.673 173.684 177.595  1.00  0.00     0.094 A 
ATOM     10  C   UNL     1     172.684 174.653 176.589  1.00  0.00     0.146 A 
ATOM     11  O   UNL     1     171.524 175.044 176.073  1.00  0.00    -0.452 OA
ENDROOT
BRANCH   1  12
ATOM     12  C   UNL     1     170.067 176.311 174.630  1.00  0.00     0.025 A 
ATOM     13  C   UNL     1     169.452 177.467 175.134  1.00  0.00     0.016 A 
ATOM     14  C   UNL     1     168.183 177.845 174.690  1.00  0.00     0.051 A 
ATOM     15  C   UNL     1     167.516 177.086 173.725  1.00  0.00     0.157 A 
ATOM     16  C   UNL     1     169.404 175.559 173.643  1.00  0.00     0.062 A 
ATOM     17  C   UNL     1     168.130 175.939 173.193  1.00  0.00     0.158 A 
BRANCH  15  18
ATOM     18  O   UNL     1     166.249 177.488 173.301  1.00  0.00    -0.504 OA
ATOM     19  H   UNL     1     165.891 177.256 172.382  1.00  0.00     0.293 HD
ENDBRANCH  15  18
BRANCH  17  20
ATOM     20  O   UNL     1     167.477 175.185 172.219  1.00  0.00    -0.504 OA
ATOM     21  H   UNL     1     166.469 175.075 172.221  1.00  0.00     0.293 HD
ENDBRANCH  17  20
ENDBRANCH   1  12
BRANCH   2  22
ATOM     22  O   UNL     1     172.492 177.362 173.444  1.00  0.00    -0.502 OA
ATOM     23  H   UNL     1     172.109 178.296 173.528  1.00  0.00     0.293 HD
ENDBRANCH   2  22
BRANCH   6  24
ATOM     24  O   UNL     1     176.375 175.327 176.468  1.00  0.00    -0.507 OA
ATOM     25  H   UNL     1     176.528 176.246 176.083  1.00  0.00     0.293 HD
ENDBRANCH   6  24
BRANCH   8  26
ATOM     26  O   UNL     1     173.834 172.253 179.143  1.00  0.00    -0.508 OA
ATOM     27  H   UNL     1     173.619 171.288 178.922  1.00  0.00     0.293 HD
ENDBRANCH   8  26
TORSDOF 6
ENDMDL
