MODEL 1
REMARK VINA RESULT:   130.647      0.000      0.000
REMARK INTER + INTRA:         153.633
REMARK INTER:                 153.560
REMARK INTRA:                   0.073
REMARK UNBOUND:                 0.073
REMARK SMILES C=C(C)[C@H]1CC[C@@]2(CO)CC[C@@]3(C)[C@H](CC[C@@H]4[C@]5(C)CC[C@H](O)C(C)(C)[C@@H]5CC[C@@]43C)[C@H]12
REMARK SMILES IDX 4 1 5 2 6 3 7 4 32 5 14 6 15 7 16 8 17 9 18 10 20 11 21 12
REMARK SMILES IDX 22 13 24 14 27 15 28 16 29 17 30 18 12 19 11 20 10 21 13 22
REMARK SMILES IDX 31 23 25 24 26 25 19 26 2 27 3 28 1 29 8 30 9 31 23 33
REMARK H PARENT 9 32 23 34
REMARK Flexibility Score: inf
ROOT
ATOM      1  C   UNL     1      14.941   1.413  36.951  1.00  0.00     0.018 C 
ATOM      2  C   UNL     1      16.450   1.054  36.965  1.00  0.00     0.009 C 
ATOM      3  C   UNL     1      17.195   2.262  36.351  1.00  0.00     0.010 C 
ATOM      4  C   UNL     1      16.217   3.449  36.507  1.00  0.00    -0.003 C 
ATOM      5  C   UNL     1      14.905   2.718  36.150  1.00  0.00     0.008 C 
ATOM      6  C   UNL     1      13.617   3.586  36.078  1.00  0.00    -0.000 C 
ATOM      7  C   UNL     1      13.189   4.117  37.447  1.00  0.00     0.005 C 
ATOM      8  C   UNL     1      11.898   4.895  37.360  1.00  0.00     0.005 C 
ATOM      9  C   UNL     1      12.043   6.168  36.475  1.00  0.00     0.002 C 
ATOM     10  C   UNL     1      10.755   7.166  36.530  1.00  0.00    -0.026 C 
ATOM     11  C   UNL     1       9.937   6.934  37.850  1.00  0.00     0.010 C 
ATOM     12  C   UNL     1       8.600   7.669  37.941  1.00  0.00     0.033 C 
ATOM     13  C   UNL     1       7.675   7.249  36.796  1.00  0.00     0.120 C 
ATOM     14  C   UNL     1       8.301   7.558  35.407  1.00  0.00    -0.006 C 
ATOM     15  C   UNL     1       9.791   6.987  35.266  1.00  0.00     0.003 C 
ATOM     16  C   UNL     1       9.870   5.527  34.767  1.00  0.00     0.005 C 
ATOM     17  C   UNL     1      11.280   5.111  34.289  1.00  0.00     0.008 C 
ATOM     18  C   UNL     1      12.512   5.764  35.016  1.00  0.00    -0.024 C 
ATOM     19  C   UNL     1      13.787   4.740  35.009  1.00  0.00    -0.024 C 
ATOM     20  C   UNL     1      15.156   5.484  35.294  1.00  0.00     0.008 C 
ATOM     21  C   UNL     1      16.420   4.579  35.467  1.00  0.00     0.010 C 
ATOM     22  C   UNL     1      13.898   4.084  33.581  1.00  0.00     0.012 C 
ATOM     23  C   UNL     1      12.946   7.058  34.240  1.00  0.00     0.012 C 
ATOM     24  C   UNL     1       8.287   9.098  35.166  1.00  0.00     0.014 C 
ATOM     25  C   UNL     1       7.348   6.994  34.313  1.00  0.00     0.014 C 
ATOM     26  C   UNL     1      11.309   8.629  36.580  1.00  0.00     0.012 C 
ENDROOT
BRANCH   1  27
ATOM     27  C   UNL     1      14.050   0.321  36.365  1.00  0.00    -0.077 C 
ATOM     28  C   UNL     1      14.327  -1.123  36.689  1.00  0.00     0.039 C 
ATOM     29  C   UNL     1      13.000   0.612  35.576  1.00  0.00     0.008 C 
ENDBRANCH   1  27
BRANCH   4  30
ATOM     30  C   UNL     1      16.355   3.961  38.000  1.00  0.00     0.163 C 
BRANCH  30  31
ATOM     31  O   UNL     1      16.283   5.359  38.124  1.00  0.00    -0.396 OA
ATOM     32  H   UNL     1      15.337   5.590  38.316  1.00  0.00     0.210 HD
ENDBRANCH  30  31
ENDBRANCH   4  30
BRANCH  13  33
ATOM     33  O   UNL     1       7.376   5.878  36.906  1.00  0.00    -0.393 OA
ATOM     34  H   UNL     1       6.396   5.803  37.049  1.00  0.00     0.210 HD
ENDBRANCH  13  33
TORSDOF 4
ENDMDL
