MODEL 1
REMARK VINA RESULT:    -3.088      0.000      0.000
REMARK INTER + INTRA:          -5.068
REMARK INTER:                  -4.713
REMARK INTRA:                  -0.355
REMARK UNBOUND:                -0.355
REMARK SMILES CC1=CCC[C@H](C)C(=O)C[C@@H](C(C)C)C(=O)C1
REMARK SMILES IDX 8 1 9 2 6 3 7 4 5 5 4 6 3 7 2 8 1 9 10 11 11 12 15 13 16 14
REMARK SMILES IDX 17 15 12 17 13 18 14 19
REMARK H PARENT
REMARK Flexibility Score: 70.00
ROOT
ATOM      1  C   UNL     1      58.880 -18.908   0.339  1.00  0.00     0.136 C 
ATOM      2  O   UNL     1      58.399 -20.030   0.263  1.00  0.00    -0.299 OA
ENDROOT
BRANCH   1   3
ATOM      3  C   UNL     1      60.351 -18.726   0.688  1.00  0.00     0.053 C 
ATOM      4  C   UNL     1      60.722 -19.408   2.015  1.00  0.00     0.016 C 
BRANCH   3   5
ATOM      5  C   UNL     1      61.280 -19.189  -0.456  1.00  0.00     0.015 C 
BRANCH   5   6
ATOM      6  C   UNL     1      61.307 -18.215  -1.650  1.00  0.00     0.028 C 
BRANCH   6   7
ATOM      7  C   UNL     1      61.271 -16.766  -1.234  1.00  0.00    -0.028 C 
ATOM      8  C   UNL     1      60.451 -15.808  -1.737  1.00  0.00    -0.070 CG0
ATOM      9  C   UNL     1      60.675 -14.392  -1.265  1.00  0.00     0.039 C 
ATOM     10  G   UNL     1      59.283 -16.080  -2.681  1.00  0.00     0.000 G0
ENDBRANCH   6   7
ENDBRANCH   5   6
ENDBRANCH   3   5
ENDBRANCH   1   3
BRANCH   1  11
ATOM     11  C   UNL     1      57.986 -17.714   0.104  1.00  0.00     0.087 C 
BRANCH  11  12
ATOM     12  C   UNL     1      57.521 -17.583  -1.373  1.00  0.00     0.066 C 
BRANCH  12  13
ATOM     13  C   UNL     1      57.927 -16.241  -1.973  1.00  0.00     0.140 C 
ATOM     14  O   UNL     1      57.216 -15.265  -1.776  1.00  0.00    -0.299 OA
BRANCH  13  15
ATOM     15  C   UNL     1      59.260 -16.059  -2.662  1.00  0.00     0.106 CG0
ATOM     16  G   UNL     1      60.441 -15.818  -1.725  1.00  0.00     0.000 G0
ENDBRANCH  13  15
ENDBRANCH  12  13
BRANCH  12  17
ATOM     17  C   UNL     1      55.984 -17.817  -1.540  1.00  0.00    -0.006 C 
ATOM     18  C   UNL     1      55.281 -18.095  -0.199  1.00  0.00     0.008 C 
ATOM     19  C   UNL     1      55.699 -18.990  -2.499  1.00  0.00     0.008 C 
ENDBRANCH  12  17
ENDBRANCH  11  12
ENDBRANCH   1  11
TORSDOF 1
ENDMDL
MODEL 2
REMARK VINA RESULT:    -3.013      2.643      4.647
REMARK INTER + INTRA:          -4.954
REMARK INTER:                  -4.878
REMARK INTRA:                  -0.076
REMARK UNBOUND:                -0.355
REMARK SMILES CC1=CCC[C@H](C)C(=O)C[C@@H](C(C)C)C(=O)C1
REMARK SMILES IDX 8 1 9 2 6 3 7 4 5 5 4 6 3 7 2 8 1 9 10 11 11 12 15 13 16 14
REMARK SMILES IDX 17 15 12 17 13 18 14 19
REMARK H PARENT
REMARK Flexibility Score: 70.00
ROOT
ATOM      1  C   UNL     1      59.672 -18.611   1.565  1.00  0.00     0.136 C 
ATOM      2  O   UNL     1      59.444 -17.454   1.890  1.00  0.00    -0.299 OA
ENDROOT
BRANCH   1   3
ATOM      3  C   UNL     1      59.805 -19.694   2.628  1.00  0.00     0.053 C 
ATOM      4  C   UNL     1      61.146 -19.615   3.375  1.00  0.00     0.016 C 
BRANCH   3   5
ATOM      5  C   UNL     1      58.616 -19.688   3.614  1.00  0.00     0.015 C 
BRANCH   5   6
ATOM      6  C   UNL     1      57.395 -20.475   3.100  1.00  0.00     0.028 C 
BRANCH   6   7
ATOM      7  C   UNL     1      56.326 -19.592   2.508  1.00  0.00    -0.028 C 
ATOM      8  C   UNL     1      56.214 -19.237   1.202  1.00  0.00    -0.070 CG0
ATOM      9  C   UNL     1      55.139 -18.236   0.850  1.00  0.00     0.039 C 
ATOM     10  G   UNL     1      57.045 -19.834   0.069  1.00  0.00     0.000 G0
ENDBRANCH   6   7
ENDBRANCH   5   6
ENDBRANCH   3   5
ENDBRANCH   1   3
BRANCH   1  11
ATOM     11  C   UNL     1      59.844 -18.937   0.101  1.00  0.00     0.087 C 
BRANCH  11  12
ATOM     12  C   UNL     1      58.881 -18.133  -0.818  1.00  0.00     0.066 C 
BRANCH  12  13
ATOM     13  C   UNL     1      57.544 -18.846  -0.989  1.00  0.00     0.140 C 
ATOM     14  O   UNL     1      56.931 -18.711  -2.039  1.00  0.00    -0.299 OA
BRANCH  13  15
ATOM     15  C   UNL     1      57.043 -19.834   0.039  1.00  0.00     0.106 CG0
ATOM     16  G   UNL     1      56.235 -19.222   1.180  1.00  0.00     0.000 G0
ENDBRANCH  13  15
ENDBRANCH  12  13
BRANCH  12  17
ATOM     17  C   UNL     1      59.514 -17.810  -2.211  1.00  0.00    -0.006 C 
ATOM     18  C   UNL     1      60.992 -18.232  -2.299  1.00  0.00     0.008 C 
ATOM     19  C   UNL     1      59.410 -16.307  -2.535  1.00  0.00     0.008 C 
ENDBRANCH  12  17
ENDBRANCH  11  12
ENDBRANCH   1  11
TORSDOF 1
ENDMDL
MODEL 3
REMARK VINA RESULT:    -2.924      2.520      4.174
REMARK INTER + INTRA:          -4.818
REMARK INTER:                  -4.640
REMARK INTRA:                  -0.178
REMARK UNBOUND:                -0.355
REMARK SMILES CC1=CCC[C@H](C)C(=O)C[C@@H](C(C)C)C(=O)C1
REMARK SMILES IDX 8 1 9 2 6 3 7 4 5 5 4 6 3 7 2 8 1 9 10 11 11 12 15 13 16 14
REMARK SMILES IDX 17 15 12 17 13 18 14 19
REMARK H PARENT
REMARK Flexibility Score: 70.00
ROOT
ATOM      1  C   UNL     1      58.973 -17.321  -1.603  1.00  0.00     0.136 C 
ATOM      2  O   UNL     1      59.051 -16.102  -1.672  1.00  0.00    -0.299 OA
ENDROOT
BRANCH   1   3
ATOM      3  C   UNL     1      60.152 -18.137  -1.090  1.00  0.00     0.053 C 
ATOM      4  C   UNL     1      61.499 -17.450  -1.365  1.00  0.00     0.016 C 
BRANCH   3   5
ATOM      5  C   UNL     1      60.003 -18.494   0.406  1.00  0.00     0.015 C 
BRANCH   5   6
ATOM      6  C   UNL     1      59.266 -19.827   0.643  1.00  0.00     0.028 C 
BRANCH   6   7
ATOM      7  C   UNL     1      58.163 -19.720   1.665  1.00  0.00    -0.028 C 
ATOM      8  C   UNL     1      56.856 -19.457   1.408  1.00  0.00    -0.070 CG0
ATOM      9  C   UNL     1      55.945 -19.268   2.597  1.00  0.00     0.039 C 
ATOM     10  G   UNL     1      56.241 -19.416   0.012  1.00  0.00     0.000 G0
ENDBRANCH   6   7
ENDBRANCH   5   6
ENDBRANCH   3   5
ENDBRANCH   1   3
BRANCH   1  11
ATOM     11  C   UNL     1      57.701 -17.996  -2.056  1.00  0.00     0.087 C 
BRANCH  11  12
ATOM     12  C   UNL     1      56.418 -17.273  -1.560  1.00  0.00     0.066 C 
BRANCH  12  13
ATOM     13  C   UNL     1      55.756 -18.030  -0.413  1.00  0.00     0.140 C 
ATOM     14  O   UNL     1      54.738 -17.573   0.088  1.00  0.00    -0.299 OA
BRANCH  13  15
ATOM     15  C   UNL     1      56.237 -19.400   0.006  1.00  0.00     0.106 CG0
ATOM     16  G   UNL     1      56.846 -19.469   1.404  1.00  0.00     0.000 G0
ENDBRANCH  13  15
ENDBRANCH  12  13
BRANCH  12  17
ATOM     17  C   UNL     1      55.393 -17.015  -2.712  1.00  0.00    -0.006 C 
ATOM     18  C   UNL     1      55.082 -18.288  -3.520  1.00  0.00     0.008 C 
ATOM     19  C   UNL     1      55.903 -15.929  -3.679  1.00  0.00     0.008 C 
ENDBRANCH  12  17
ENDBRANCH  11  12
ENDBRANCH   1  11
TORSDOF 1
ENDMDL
MODEL 4
REMARK VINA RESULT:    -2.900      2.326      4.572
REMARK INTER + INTRA:          -4.782
REMARK INTER:                  -4.436
REMARK INTRA:                  -0.345
REMARK UNBOUND:                -0.355
REMARK SMILES CC1=CCC[C@H](C)C(=O)C[C@@H](C(C)C)C(=O)C1
REMARK SMILES IDX 8 1 9 2 6 3 7 4 5 5 4 6 3 7 2 8 1 9 10 11 11 12 15 13 16 14
REMARK SMILES IDX 17 15 12 17 13 18 14 19
REMARK H PARENT
REMARK Flexibility Score: 70.00
ROOT
ATOM      1  C   UNL     1      58.853 -19.673   1.816  1.00  0.00     0.136 C 
ATOM      2  O   UNL     1      59.782 -20.041   2.521  1.00  0.00    -0.299 OA
ENDROOT
BRANCH   1   3
ATOM      3  C   UNL     1      57.528 -19.262   2.445  1.00  0.00     0.053 C 
ATOM      4  C   UNL     1      56.984 -20.331   3.407  1.00  0.00     0.016 C 
BRANCH   3   5
ATOM      5  C   UNL     1      57.618 -17.883   3.137  1.00  0.00     0.015 C 
BRANCH   5   6
ATOM      6  C   UNL     1      56.722 -16.814   2.483  1.00  0.00     0.028 C 
BRANCH   6   7
ATOM      7  C   UNL     1      55.635 -17.400   1.619  1.00  0.00    -0.028 C 
ATOM      8  C   UNL     1      55.583 -17.362   0.262  1.00  0.00    -0.070 CG0
ATOM      9  C   UNL     1      54.335 -17.901  -0.394  1.00  0.00     0.039 C 
ATOM     10  G   UNL     1      56.723 -16.886  -0.633  1.00  0.00     0.000 G0
ENDBRANCH   6   7
ENDBRANCH   5   6
ENDBRANCH   3   5
ENDBRANCH   1   3
BRANCH   1  11
ATOM     11  C   UNL     1      59.037 -19.658   0.318  1.00  0.00     0.087 C 
BRANCH  11  12
ATOM     12  C   UNL     1      58.995 -18.226  -0.286  1.00  0.00     0.066 C 
BRANCH  12  13
ATOM     13  C   UNL     1      57.709 -17.985  -1.070  1.00  0.00     0.140 C 
ATOM     14  O   UNL     1      57.405 -18.763  -1.963  1.00  0.00    -0.299 OA
BRANCH  13  15
ATOM     15  C   UNL     1      56.731 -16.907  -0.662  1.00  0.00     0.106 CG0
ATOM     16  G   UNL     1      55.603 -17.374   0.254  1.00  0.00     0.000 G0
ENDBRANCH  13  15
ENDBRANCH  12  13
BRANCH  12  17
ATOM     17  C   UNL     1      60.244 -17.913  -1.172  1.00  0.00    -0.006 C 
ATOM     18  C   UNL     1      61.465 -18.770  -0.793  1.00  0.00     0.008 C 
ATOM     19  C   UNL     1      60.637 -16.426  -1.077  1.00  0.00     0.008 C 
ENDBRANCH  12  17
ENDBRANCH  11  12
ENDBRANCH   1  11
TORSDOF 1
ENDMDL
MODEL 5
REMARK VINA RESULT:    -2.802      3.494      5.174
REMARK INTER + INTRA:          -4.631
REMARK INTER:                  -4.507
REMARK INTRA:                  -0.124
REMARK UNBOUND:                -0.355
REMARK SMILES CC1=CCC[C@H](C)C(=O)C[C@@H](C(C)C)C(=O)C1
REMARK SMILES IDX 8 1 9 2 6 3 7 4 5 5 4 6 3 7 2 8 1 9 10 11 11 12 15 13 16 14
REMARK SMILES IDX 17 15 12 17 13 18 14 19
REMARK H PARENT
REMARK Flexibility Score: 70.00
ROOT
ATOM      1  C   UNL     1      57.589 -19.054  -0.418  1.00  0.00     0.136 C 
ATOM      2  O   UNL     1      58.351 -18.305  -1.014  1.00  0.00    -0.299 OA
ENDROOT
BRANCH   1   3
ATOM      3  C   UNL     1      58.112 -19.952   0.696  1.00  0.00     0.053 C 
ATOM      4  C   UNL     1      59.208 -19.267   1.529  1.00  0.00     0.016 C 
BRANCH   3   5
ATOM      5  C   UNL     1      56.973 -20.478   1.598  1.00  0.00     0.015 C 
BRANCH   5   6
ATOM      6  C   UNL     1      56.683 -19.568   2.806  1.00  0.00     0.028 C 
BRANCH   6   7
ATOM      7  C   UNL     1      55.210 -19.356   3.049  1.00  0.00    -0.028 C 
ATOM      8  C   UNL     1      54.469 -18.306   2.612  1.00  0.00    -0.070 CG0
ATOM      9  C   UNL     1      53.037 -18.231   3.082  1.00  0.00     0.039 C 
ATOM     10  G   UNL     1      54.964 -17.250   1.627  1.00  0.00     0.000 G0
ENDBRANCH   6   7
ENDBRANCH   5   6
ENDBRANCH   3   5
ENDBRANCH   1   3
BRANCH   1  11
ATOM     11  C   UNL     1      56.135 -19.088  -0.823  1.00  0.00     0.087 C 
BRANCH  11  12
ATOM     12  C   UNL     1      55.501 -17.674  -0.934  1.00  0.00     0.066 C 
BRANCH  12  13
ATOM     13  C   UNL     1      54.506 -17.414   0.193  1.00  0.00     0.140 C 
ATOM     14  O   UNL     1      53.309 -17.483  -0.047  1.00  0.00    -0.299 OA
BRANCH  13  15
ATOM     15  C   UNL     1      54.967 -17.234   1.621  1.00  0.00     0.106 CG0
ATOM     16  G   UNL     1      54.456 -18.288   2.600  1.00  0.00     0.000 G0
ENDBRANCH  13  15
ENDBRANCH  12  13
BRANCH  12  17
ATOM     17  C   UNL     1      54.832 -17.425  -2.325  1.00  0.00    -0.006 C 
ATOM     18  C   UNL     1      55.293 -18.436  -3.390  1.00  0.00     0.008 C 
ATOM     19  C   UNL     1      55.124 -16.001  -2.838  1.00  0.00     0.008 C 
ENDBRANCH  12  17
ENDBRANCH  11  12
ENDBRANCH   1  11
TORSDOF 1
ENDMDL
MODEL 6
REMARK VINA RESULT:    -2.772      2.639      5.625
REMARK INTER + INTRA:          -4.585
REMARK INTER:                  -4.159
REMARK INTRA:                  -0.426
REMARK UNBOUND:                -0.355
REMARK SMILES CC1=CCC[C@H](C)C(=O)C[C@@H](C(C)C)C(=O)C1
REMARK SMILES IDX 8 1 9 2 6 3 7 4 5 5 4 6 3 7 2 8 1 9 10 11 11 12 15 13 16 14
REMARK SMILES IDX 17 15 12 17 13 18 14 19
REMARK H PARENT
REMARK Flexibility Score: 70.00
ROOT
ATOM      1  C   UNL     1      57.439 -17.210  -2.218  1.00  0.00     0.136 C 
ATOM      2  O   UNL     1      58.316 -17.589  -2.982  1.00  0.00    -0.299 OA
ENDROOT
BRANCH   1   3
ATOM      3  C   UNL     1      55.991 -17.142  -2.685  1.00  0.00     0.053 C 
ATOM      4  C   UNL     1      55.813 -16.212  -3.897  1.00  0.00     0.016 C 
BRANCH   3   5
ATOM      5  C   UNL     1      55.407 -18.544  -2.968  1.00  0.00     0.015 C 
BRANCH   5   6
ATOM      6  C   UNL     1      54.926 -19.271  -1.697  1.00  0.00     0.028 C 
BRANCH   6   7
ATOM      7  C   UNL     1      54.297 -18.345  -0.687  1.00  0.00    -0.028 C 
ATOM      8  C   UNL     1      54.644 -18.232   0.621  1.00  0.00    -0.070 CG0
ATOM      9  C   UNL     1      53.793 -17.332   1.484  1.00  0.00     0.039 C 
ATOM     10  G   UNL     1      55.869 -18.891   1.250  1.00  0.00     0.000 G0
ENDBRANCH   6   7
ENDBRANCH   5   6
ENDBRANCH   3   5
ENDBRANCH   1   3
BRANCH   1  11
ATOM     11  C   UNL     1      57.823 -16.791  -0.820  1.00  0.00     0.087 C 
BRANCH  11  12
ATOM     12  C   UNL     1      58.104 -17.995   0.121  1.00  0.00     0.066 C 
BRANCH  12  13
ATOM     13  C   UNL     1      57.130 -18.031   1.294  1.00  0.00     0.140 C 
ATOM     14  O   UNL     1      57.292 -17.251   2.222  1.00  0.00    -0.299 OA
BRANCH  13  15
ATOM     15  C   UNL     1      55.888 -18.891   1.258  1.00  0.00     0.106 CG0
ATOM     16  G   UNL     1      54.669 -18.236   0.613  1.00  0.00     0.000 G0
ENDBRANCH  13  15
ENDBRANCH  12  13
BRANCH  12  17
ATOM     17  C   UNL     1      59.581 -18.023   0.634  1.00  0.00    -0.006 C 
ATOM     18  C   UNL     1      60.428 -16.877   0.052  1.00  0.00     0.008 C 
ATOM     19  C   UNL     1      60.265 -19.362   0.294  1.00  0.00     0.008 C 
ENDBRANCH  12  17
ENDBRANCH  11  12
ENDBRANCH   1  11
TORSDOF 1
ENDMDL
MODEL 7
REMARK VINA RESULT:    -2.735      2.889      4.663
REMARK INTER + INTRA:          -4.529
REMARK INTER:                  -4.135
REMARK INTRA:                  -0.394
REMARK UNBOUND:                -0.355
REMARK SMILES CC1=CCC[C@H](C)C(=O)C[C@@H](C(C)C)C(=O)C1
REMARK SMILES IDX 8 1 9 2 6 3 7 4 5 5 4 6 3 7 2 8 1 9 10 11 11 12 15 13 16 14
REMARK SMILES IDX 17 15 12 17 13 18 14 19
REMARK H PARENT
REMARK Flexibility Score: 70.00
ROOT
ATOM      1  C   UNL     1      60.384 -19.205   0.800  1.00  0.00     0.136 C 
ATOM      2  O   UNL     1      61.469 -19.026   0.265  1.00  0.00    -0.299 OA
ENDROOT
BRANCH   1   3
ATOM      3  C   UNL     1      60.279 -19.273   2.318  1.00  0.00     0.053 C 
ATOM      4  C   UNL     1      61.374 -20.157   2.938  1.00  0.00     0.016 C 
BRANCH   3   5
ATOM      5  C   UNL     1      60.266 -17.868   2.961  1.00  0.00     0.015 C 
BRANCH   5   6
ATOM      6  C   UNL     1      58.891 -17.476   3.538  1.00  0.00     0.028 C 
BRANCH   6   7
ATOM      7  C   UNL     1      57.949 -18.646   3.670  1.00  0.00    -0.028 C 
ATOM      8  C   UNL     1      56.802 -18.833   2.969  1.00  0.00    -0.070 CG0
ATOM      9  C   UNL     1      55.943 -20.013   3.356  1.00  0.00     0.039 C 
ATOM     10  G   UNL     1      56.368 -17.981   1.779  1.00  0.00     0.000 G0
ENDBRANCH   6   7
ENDBRANCH   5   6
ENDBRANCH   3   5
ENDBRANCH   1   3
BRANCH   1  11
ATOM     11  C   UNL     1      59.163 -19.382  -0.070  1.00  0.00     0.087 C 
BRANCH  11  12
ATOM     12  C   UNL     1      58.239 -18.132  -0.084  1.00  0.00     0.066 C 
BRANCH  12  13
ATOM     13  C   UNL     1      56.838 -18.464   0.418  1.00  0.00     0.140 C 
ATOM     14  O   UNL     1      56.148 -19.242  -0.225  1.00  0.00    -0.299 OA
BRANCH  13  15
ATOM     15  C   UNL     1      56.350 -17.979   1.764  1.00  0.00     0.106 CG0
ATOM     16  G   UNL     1      56.799 -18.824   2.953  1.00  0.00     0.000 G0
ENDBRANCH  13  15
ENDBRANCH  12  13
BRANCH  12  17
ATOM     17  C   UNL     1      58.173 -17.453  -1.490  1.00  0.00    -0.006 C 
ATOM     18  C   UNL     1      59.323 -17.894  -2.413  1.00  0.00     0.008 C 
ATOM     19  C   UNL     1      58.199 -15.916  -1.369  1.00  0.00     0.008 C 
ENDBRANCH  12  17
ENDBRANCH  11  12
ENDBRANCH   1  11
TORSDOF 1
ENDMDL
MODEL 8
REMARK VINA RESULT:    -2.661      2.113      4.471
REMARK INTER + INTRA:          -4.416
REMARK INTER:                  -4.206
REMARK INTRA:                  -0.210
REMARK UNBOUND:                -0.355
REMARK SMILES CC1=CCC[C@H](C)C(=O)C[C@@H](C(C)C)C(=O)C1
REMARK SMILES IDX 8 1 9 2 6 3 7 4 5 5 4 6 3 7 2 8 1 9 10 11 11 12 15 13 16 14
REMARK SMILES IDX 17 15 12 17 13 18 14 19
REMARK H PARENT
REMARK Flexibility Score: 70.00
ROOT
ATOM      1  C   UNL     1      54.946 -17.404  -2.322  1.00  0.00     0.136 C 
ATOM      2  O   UNL     1      54.011 -16.745  -1.889  1.00  0.00    -0.299 OA
ENDROOT
BRANCH   1   3
ATOM      3  C   UNL     1      55.277 -17.381  -3.809  1.00  0.00     0.053 C 
ATOM      4  C   UNL     1      54.104 -17.872  -4.673  1.00  0.00     0.016 C 
BRANCH   3   5
ATOM      5  C   UNL     1      55.768 -15.992  -4.272  1.00  0.00     0.015 C 
BRANCH   5   6
ATOM      6  C   UNL     1      57.223 -15.998  -4.778  1.00  0.00     0.028 C 
BRANCH   6   7
ATOM      7  C   UNL     1      58.192 -15.378  -3.803  1.00  0.00    -0.028 C 
ATOM      8  C   UNL     1      58.811 -16.015  -2.776  1.00  0.00    -0.070 CG0
ATOM      9  C   UNL     1      59.645 -15.168  -1.844  1.00  0.00     0.039 C 
ATOM     10  G   UNL     1      58.780 -17.524  -2.549  1.00  0.00     0.000 G0
ENDBRANCH   6   7
ENDBRANCH   5   6
ENDBRANCH   3   5
ENDBRANCH   1   3
BRANCH   1  11
ATOM     11  C   UNL     1      55.745 -18.254  -1.363  1.00  0.00     0.087 C 
BRANCH  11  12
ATOM     12  C   UNL     1      56.908 -17.477  -0.685  1.00  0.00     0.066 C 
BRANCH  12  13
ATOM     13  C   UNL     1      58.267 -17.949  -1.189  1.00  0.00     0.140 C 
ATOM     14  O   UNL     1      58.883 -18.782  -0.540  1.00  0.00    -0.299 OA
BRANCH  13  15
ATOM     15  C   UNL     1      58.791 -17.531  -2.544  1.00  0.00     0.106 CG0
ATOM     16  G   UNL     1      58.809 -16.025  -2.790  1.00  0.00     0.000 G0
ENDBRANCH  13  15
ENDBRANCH  12  13
BRANCH  12  17
ATOM     17  C   UNL     1      56.846 -17.549   0.876  1.00  0.00    -0.006 C 
ATOM     18  C   UNL     1      55.832 -18.593   1.378  1.00  0.00     0.008 C 
ATOM     19  C   UNL     1      56.483 -16.179   1.483  1.00  0.00     0.008 C 
ENDBRANCH  12  17
ENDBRANCH  11  12
ENDBRANCH   1  11
TORSDOF 1
ENDMDL
MODEL 9
REMARK VINA RESULT:    -2.625      2.525      4.179
REMARK INTER + INTRA:          -4.361
REMARK INTER:                  -4.097
REMARK INTRA:                  -0.264
REMARK UNBOUND:                -0.355
REMARK SMILES CC1=CCC[C@H](C)C(=O)C[C@@H](C(C)C)C(=O)C1
REMARK SMILES IDX 8 1 9 2 6 3 7 4 5 5 4 6 3 7 2 8 1 9 10 11 11 12 15 13 16 14
REMARK SMILES IDX 17 15 12 17 13 18 14 19
REMARK H PARENT
REMARK Flexibility Score: 70.00
ROOT
ATOM      1  C   UNL     1      58.995 -17.877  -1.592  1.00  0.00     0.136 C 
ATOM      2  O   UNL     1      59.171 -17.181  -2.582  1.00  0.00    -0.299 OA
ENDROOT
BRANCH   1   3
ATOM      3  C   UNL     1      60.061 -17.953  -0.507  1.00  0.00     0.053 C 
ATOM      4  C   UNL     1      61.403 -18.477  -1.046  1.00  0.00     0.016 C 
BRANCH   3   5
ATOM      5  C   UNL     1      60.242 -16.604   0.223  1.00  0.00     0.015 C 
BRANCH   5   6
ATOM      6  C   UNL     1      59.511 -16.543   1.578  1.00  0.00     0.028 C 
BRANCH   6   7
ATOM      7  C   UNL     1      59.667 -17.802   2.393  1.00  0.00    -0.028 C 
ATOM      8  C   UNL     1      58.666 -18.634   2.781  1.00  0.00    -0.070 CG0
ATOM      9  C   UNL     1      59.034 -19.771   3.703  1.00  0.00     0.039 C 
ATOM     10  G   UNL     1      57.224 -18.539   2.290  1.00  0.00     0.000 G0
ENDBRANCH   6   7
ENDBRANCH   5   6
ENDBRANCH   3   5
ENDBRANCH   1   3
BRANCH   1  11
ATOM     11  C   UNL     1      57.716 -18.673  -1.479  1.00  0.00     0.087 C 
BRANCH  11  12
ATOM     12  C   UNL     1      56.814 -18.211  -0.302  1.00  0.00     0.066 C 
BRANCH  12  13
ATOM     13  C   UNL     1      56.965 -19.122   0.912  1.00  0.00     0.140 C 
ATOM     14  O   UNL     1      57.015 -20.331   0.742  1.00  0.00    -0.299 OA
BRANCH  13  15
ATOM     15  C   UNL     1      57.213 -18.556   2.292  1.00  0.00     0.106 CG0
ATOM     16  G   UNL     1      58.662 -18.629   2.767  1.00  0.00     0.000 G0
ENDBRANCH  13  15
ENDBRANCH  12  13
BRANCH  12  17
ATOM     17  C   UNL     1      55.310 -18.089  -0.712  1.00  0.00    -0.006 C 
ATOM     18  C   UNL     1      54.873 -19.199  -1.685  1.00  0.00     0.008 C 
ATOM     19  C   UNL     1      55.019 -16.721  -1.362  1.00  0.00     0.008 C 
ENDBRANCH  12  17
ENDBRANCH  11  12
ENDBRANCH   1  11
TORSDOF 1
ENDMDL
