MODEL 1
REMARK VINA RESULT:    -2.888      0.000      0.000
REMARK INTER + INTRA:          -8.091
REMARK INTER:                  -5.589
REMARK INTRA:                  -2.502
REMARK UNBOUND:                -2.502
REMARK SMILES CCCCCCCCCCCCCCCCCC(=O)[O-]
REMARK SMILES IDX 10 1 11 2 12 3 13 4 14 5 15 6 16 7 17 8 18 9 19 10 20 11
REMARK SMILES IDX 9 12 8 13 7 14 6 15 5 16 4 17 3 18 2 19 1 20
REMARK H PARENT
REMARK Flexibility Score: inf
ROOT
ATOM      1  C   UNL     1      22.179   8.899  17.404  1.00  0.00     0.000 C 
ENDROOT
BRANCH   1   2
ATOM      2  C   UNL     1      22.434   9.040  18.919  1.00  0.00     0.000 C 
BRANCH   2   3
ATOM      3  C   UNL     1      23.474   8.046  19.464  1.00  0.00     0.000 C 
BRANCH   3   4
ATOM      4  C   UNL     1      24.800   8.719  19.848  1.00  0.00     0.000 C 
BRANCH   4   5
ATOM      5  C   UNL     1      25.989   7.983  19.221  1.00  0.00     0.000 C 
BRANCH   5   6
ATOM      6  C   UNL     1      26.039   8.203  17.705  1.00  0.00     0.000 C 
BRANCH   6   7
ATOM      7  C   UNL     1      25.972   6.869  16.953  1.00  0.00     0.006 C 
BRANCH   7   8
ATOM      8  C   UNL     1      24.833   6.869  15.928  1.00  0.00     0.053 C 
BRANCH   8   9
ATOM      9  C   UNL     1      24.028   5.614  16.041  1.00  0.00     0.041 C 
ATOM     10  O   UNL     1      23.712   5.164  17.174  1.00  0.00    -0.550 OA
ATOM     11  O   UNL     1      23.581   4.970  14.894  1.00  0.00    -0.550 OA
ENDBRANCH   8   9
ENDBRANCH   7   8
ENDBRANCH   6   7
ENDBRANCH   5   6
ENDBRANCH   4   5
ENDBRANCH   3   4
ENDBRANCH   2   3
ENDBRANCH   1   2
BRANCH   1  12
ATOM     12  C   UNL     1      21.235   7.728  17.079  1.00  0.00     0.000 C 
BRANCH  12  13
ATOM     13  C   UNL     1      20.348   7.992  15.849  1.00  0.00    -0.000 C 
BRANCH  13  14
ATOM     14  C   UNL     1      18.839   8.080  16.139  1.00  0.00    -0.000 C 
BRANCH  14  15
ATOM     15  C   UNL     1      18.358   9.521  16.380  1.00  0.00    -0.000 C 
BRANCH  15  16
ATOM     16  C   UNL     1      18.391   9.923  17.866  1.00  0.00    -0.000 C 
BRANCH  16  17
ATOM     17  C   UNL     1      19.191  11.203  18.181  1.00  0.00    -0.000 C 
BRANCH  17  18
ATOM     18  C   UNL     1      19.780  11.927  16.955  1.00  0.00    -0.000 C 
BRANCH  18  19
ATOM     19  C   UNL     1      21.229  12.416  17.128  1.00  0.00    -0.003 C 
ATOM     20  C   UNL     1      21.586  12.717  18.584  1.00  0.00     0.004 C 
ENDBRANCH  18  19
ENDBRANCH  17  18
ENDBRANCH  16  17
ENDBRANCH  15  16
ENDBRANCH  14  15
ENDBRANCH  13  14
ENDBRANCH  12  13
ENDBRANCH   1  12
TORSDOF 16
ENDMDL
MODEL 2
REMARK VINA RESULT:    -2.881      2.859      5.782
REMARK INTER + INTRA:          -8.078
REMARK INTER:                  -5.653
REMARK INTRA:                  -2.424
REMARK UNBOUND:                -2.502
REMARK SMILES CCCCCCCCCCCCCCCCCC(=O)[O-]
REMARK SMILES IDX 10 1 11 2 12 3 13 4 14 5 15 6 16 7 17 8 18 9 19 10 20 11
REMARK SMILES IDX 9 12 8 13 7 14 6 15 5 16 4 17 3 18 2 19 1 20
REMARK H PARENT
REMARK Flexibility Score: inf
ROOT
ATOM      1  C   UNL     1      26.188   8.315  19.168  1.00  0.00     0.000 C 
ENDROOT
BRANCH   1   2
ATOM      2  C   UNL     1      25.161   7.378  19.837  1.00  0.00     0.000 C 
BRANCH   2   3
ATOM      3  C   UNL     1      23.798   8.044  20.096  1.00  0.00     0.000 C 
BRANCH   3   4
ATOM      4  C   UNL     1      22.757   7.712  19.017  1.00  0.00     0.000 C 
BRANCH   4   5
ATOM      5  C   UNL     1      22.218   8.990  18.364  1.00  0.00     0.000 C 
BRANCH   5   6
ATOM      6  C   UNL     1      20.837   9.354  18.921  1.00  0.00     0.000 C 
BRANCH   6   7
ATOM      7  C   UNL     1      20.340  10.681  18.335  1.00  0.00     0.006 C 
BRANCH   7   8
ATOM      8  C   UNL     1      21.184  11.101  17.127  1.00  0.00     0.053 C 
BRANCH   8   9
ATOM      9  C   UNL     1      21.429  12.577  17.150  1.00  0.00     0.041 C 
ATOM     10  O   UNL     1      21.536  13.185  18.247  1.00  0.00    -0.550 OA
ATOM     11  O   UNL     1      21.591  13.271  15.958  1.00  0.00    -0.550 OA
ENDBRANCH   8   9
ENDBRANCH   7   8
ENDBRANCH   6   7
ENDBRANCH   5   6
ENDBRANCH   4   5
ENDBRANCH   3   4
ENDBRANCH   2   3
ENDBRANCH   1   2
BRANCH   1  12
ATOM     12  C   UNL     1      26.121   8.250  17.632  1.00  0.00     0.000 C 
BRANCH  12  13
ATOM     13  C   UNL     1      25.880   6.826  17.099  1.00  0.00    -0.000 C 
BRANCH  13  14
ATOM     14  C   UNL     1      24.930   6.732  15.891  1.00  0.00    -0.000 C 
BRANCH  14  15
ATOM     15  C   UNL     1      23.828   5.676  16.076  1.00  0.00    -0.000 C 
BRANCH  15  16
ATOM     16  C   UNL     1      22.583   5.951  15.214  1.00  0.00    -0.000 C 
BRANCH  16  17
ATOM     17  C   UNL     1      21.278   6.184  16.003  1.00  0.00    -0.000 C 
BRANCH  17  18
ATOM     18  C   UNL     1      20.469   7.427  15.581  1.00  0.00    -0.000 C 
BRANCH  18  19
ATOM     19  C   UNL     1      18.969   7.366  15.918  1.00  0.00    -0.003 C 
ATOM     20  C   UNL     1      18.317   8.747  15.981  1.00  0.00     0.004 C 
ENDBRANCH  18  19
ENDBRANCH  17  18
ENDBRANCH  16  17
ENDBRANCH  15  16
ENDBRANCH  14  15
ENDBRANCH  13  14
ENDBRANCH  12  13
ENDBRANCH   1  12
TORSDOF 16
ENDMDL
MODEL 3
REMARK VINA RESULT:    -2.880      2.782      6.770
REMARK INTER + INTRA:          -8.076
REMARK INTER:                  -5.299
REMARK INTRA:                  -2.776
REMARK UNBOUND:                -2.502
REMARK SMILES CCCCCCCCCCCCCCCCCC(=O)[O-]
REMARK SMILES IDX 10 1 11 2 12 3 13 4 14 5 15 6 16 7 17 8 18 9 19 10 20 11
REMARK SMILES IDX 9 12 8 13 7 14 6 15 5 16 4 17 3 18 2 19 1 20
REMARK H PARENT
REMARK Flexibility Score: inf
ROOT
ATOM      1  C   UNL     1      21.969   8.899  16.988  1.00  0.00     0.000 C 
ENDROOT
BRANCH   1   2
ATOM      2  C   UNL     1      21.262   7.616  16.504  1.00  0.00     0.000 C 
BRANCH   2   3
ATOM      3  C   UNL     1      20.082   7.885  15.554  1.00  0.00     0.000 C 
BRANCH   3   4
ATOM      4  C   UNL     1      18.746   8.047  16.292  1.00  0.00     0.000 C 
BRANCH   4   5
ATOM      5  C   UNL     1      18.294   9.512  16.291  1.00  0.00     0.000 C 
BRANCH   5   6
ATOM      6  C   UNL     1      18.063  10.019  17.719  1.00  0.00     0.000 C 
BRANCH   6   7
ATOM      7  C   UNL     1      19.160  11.005  18.137  1.00  0.00     0.006 C 
BRANCH   7   8
ATOM      8  C   UNL     1      19.602  11.874  16.955  1.00  0.00     0.053 C 
BRANCH   8   9
ATOM      9  C   UNL     1      20.930  12.501  17.235  1.00  0.00     0.041 C 
ATOM     10  O   UNL     1      21.442  12.417  18.382  1.00  0.00    -0.550 OA
ATOM     11  O   UNL     1      21.628  13.134  16.214  1.00  0.00    -0.550 OA
ENDBRANCH   8   9
ENDBRANCH   7   8
ENDBRANCH   6   7
ENDBRANCH   5   6
ENDBRANCH   4   5
ENDBRANCH   3   4
ENDBRANCH   2   3
ENDBRANCH   1   2
BRANCH   1  12
ATOM     12  C   UNL     1      22.203   8.896  18.509  1.00  0.00     0.000 C 
BRANCH  12  13
ATOM     13  C   UNL     1      21.453   7.763  19.231  1.00  0.00    -0.000 C 
BRANCH  13  14
ATOM     14  C   UNL     1      22.351   6.683  19.864  1.00  0.00    -0.000 C 
BRANCH  14  15
ATOM     15  C   UNL     1      23.850   6.963  19.669  1.00  0.00    -0.000 C 
BRANCH  15  16
ATOM     16  C   UNL     1      24.575   5.839  18.905  1.00  0.00    -0.000 C 
BRANCH  16  17
ATOM     17  C   UNL     1      24.207   5.719  17.412  1.00  0.00    -0.000 C 
BRANCH  17  18
ATOM     18  C   UNL     1      24.922   6.714  16.477  1.00  0.00    -0.000 C 
BRANCH  18  19
ATOM     19  C   UNL     1      24.921   6.318  14.990  1.00  0.00    -0.003 C 
ATOM     20  C   UNL     1      23.661   5.557  14.578  1.00  0.00     0.004 C 
ENDBRANCH  18  19
ENDBRANCH  17  18
ENDBRANCH  16  17
ENDBRANCH  15  16
ENDBRANCH  14  15
ENDBRANCH  13  14
ENDBRANCH  12  13
ENDBRANCH   1  12
TORSDOF 16
ENDMDL
MODEL 4
REMARK VINA RESULT:    -2.848      2.937      6.678
REMARK INTER + INTRA:          -8.013
REMARK INTER:                  -5.088
REMARK INTRA:                  -2.925
REMARK UNBOUND:                -2.502
REMARK SMILES CCCCCCCCCCCCCCCCCC(=O)[O-]
REMARK SMILES IDX 10 1 11 2 12 3 13 4 14 5 15 6 16 7 17 8 18 9 19 10 20 11
REMARK SMILES IDX 9 12 8 13 7 14 6 15 5 16 4 17 3 18 2 19 1 20
REMARK H PARENT
REMARK Flexibility Score: inf
ROOT
ATOM      1  C   UNL     1      21.353   8.268  16.631  1.00  0.00     0.000 C 
ENDROOT
BRANCH   1   2
ATOM      2  C   UNL     1      20.229   7.867  15.653  1.00  0.00     0.000 C 
BRANCH   2   3
ATOM      3  C   UNL     1      18.821   7.946  16.269  1.00  0.00     0.000 C 
BRANCH   3   4
ATOM      4  C   UNL     1      18.284   9.382  16.350  1.00  0.00     0.000 C 
BRANCH   4   5
ATOM      5  C   UNL     1      18.110   9.820  17.809  1.00  0.00     0.000 C 
BRANCH   5   6
ATOM      6  C   UNL     1      19.141  10.889  18.191  1.00  0.00     0.000 C 
BRANCH   6   7
ATOM      7  C   UNL     1      19.589  11.685  16.960  1.00  0.00     0.006 C 
BRANCH   7   8
ATOM      8  C   UNL     1      21.029  12.183  17.119  1.00  0.00     0.053 C 
BRANCH   8   9
ATOM      9  C   UNL     1      21.142  13.089  18.303  1.00  0.00     0.041 C 
ATOM     10  O   UNL     1      22.048  12.905  19.158  1.00  0.00    -0.550 OA
ATOM     11  O   UNL     1      20.279  14.169  18.435  1.00  0.00    -0.550 OA
ENDBRANCH   8   9
ENDBRANCH   7   8
ENDBRANCH   6   7
ENDBRANCH   5   6
ENDBRANCH   4   5
ENDBRANCH   3   4
ENDBRANCH   2   3
ENDBRANCH   1   2
BRANCH   1  12
ATOM     12  C   UNL     1      21.421   7.336  17.854  1.00  0.00     0.000 C 
BRANCH  12  13
ATOM     13  C   UNL     1      21.502   8.099  19.188  1.00  0.00    -0.000 C 
BRANCH  13  14
ATOM     14  C   UNL     1      22.357   9.380  19.159  1.00  0.00    -0.000 C 
BRANCH  14  15
ATOM     15  C   UNL     1      23.319   9.485  20.353  1.00  0.00    -0.000 C 
BRANCH  15  16
ATOM     16  C   UNL     1      24.355   8.346  20.390  1.00  0.00    -0.000 C 
BRANCH  16  17
ATOM     17  C   UNL     1      25.478   8.447  19.339  1.00  0.00    -0.000 C 
BRANCH  17  18
ATOM     18  C   UNL     1      25.440   7.376  18.231  1.00  0.00    -0.000 C 
BRANCH  18  19
ATOM     19  C   UNL     1      25.036   7.899  16.841  1.00  0.00    -0.003 C 
ATOM     20  C   UNL     1      24.739   6.776  15.846  1.00  0.00     0.004 C 
ENDBRANCH  18  19
ENDBRANCH  17  18
ENDBRANCH  16  17
ENDBRANCH  15  16
ENDBRANCH  14  15
ENDBRANCH  13  14
ENDBRANCH  12  13
ENDBRANCH   1  12
TORSDOF 16
ENDMDL
MODEL 5
REMARK VINA RESULT:    -2.802      1.435      2.118
REMARK INTER + INTRA:          -7.925
REMARK INTER:                  -5.287
REMARK INTRA:                  -2.638
REMARK UNBOUND:                -2.502
REMARK SMILES CCCCCCCCCCCCCCCCCC(=O)[O-]
REMARK SMILES IDX 10 1 11 2 12 3 13 4 14 5 15 6 16 7 17 8 18 9 19 10 20 11
REMARK SMILES IDX 9 12 8 13 7 14 6 15 5 16 4 17 3 18 2 19 1 20
REMARK H PARENT
REMARK Flexibility Score: inf
ROOT
ATOM      1  C   UNL     1      22.174   7.472  16.987  1.00  0.00     0.000 C 
ENDROOT
BRANCH   1   2
ATOM      2  C   UNL     1      22.199   6.634  18.282  1.00  0.00     0.000 C 
BRANCH   2   3
ATOM      3  C   UNL     1      22.352   7.478  19.559  1.00  0.00     0.000 C 
BRANCH   3   4
ATOM      4  C   UNL     1      23.149   8.770  19.329  1.00  0.00     0.000 C 
BRANCH   4   5
ATOM      5  C   UNL     1      24.240   8.938  20.393  1.00  0.00     0.000 C 
BRANCH   5   6
ATOM      6  C   UNL     1      25.127   7.690  20.475  1.00  0.00     0.000 C 
BRANCH   6   7
ATOM      7  C   UNL     1      26.272   7.762  19.459  1.00  0.00     0.006 C 
BRANCH   7   8
ATOM      8  C   UNL     1      26.175   6.625  18.436  1.00  0.00     0.053 C 
BRANCH   8   9
ATOM      9  C   UNL     1      25.792   7.160  17.093  1.00  0.00     0.041 C 
ATOM     10  O   UNL     1      25.505   6.371  16.155  1.00  0.00    -0.550 OA
ATOM     11  O   UNL     1      25.702   8.532  16.893  1.00  0.00    -0.550 OA
ENDBRANCH   8   9
ENDBRANCH   7   8
ENDBRANCH   6   7
ENDBRANCH   5   6
ENDBRANCH   4   5
ENDBRANCH   3   4
ENDBRANCH   2   3
ENDBRANCH   1   2
BRANCH   1  12
ATOM     12  C   UNL     1      21.390   6.779  15.860  1.00  0.00     0.000 C 
BRANCH  12  13
ATOM     13  C   UNL     1      20.169   7.589  15.389  1.00  0.00    -0.000 C 
BRANCH  13  14
ATOM     14  C   UNL     1      19.056   7.764  16.439  1.00  0.00    -0.000 C 
BRANCH  14  15
ATOM     15  C   UNL     1      18.235   9.048  16.234  1.00  0.00    -0.000 C 
BRANCH  15  16
ATOM     16  C   UNL     1      18.288   9.993  17.448  1.00  0.00    -0.000 C 
BRANCH  16  17
ATOM     17  C   UNL     1      19.540   9.851  18.337  1.00  0.00    -0.000 C 
BRANCH  17  18
ATOM     18  C   UNL     1      20.491  11.064  18.330  1.00  0.00    -0.000 C 
BRANCH  18  19
ATOM     19  C   UNL     1      21.258  11.276  17.012  1.00  0.00    -0.003 C 
ATOM     20  C   UNL     1      21.409  12.752  16.643  1.00  0.00     0.004 C 
ENDBRANCH  18  19
ENDBRANCH  17  18
ENDBRANCH  16  17
ENDBRANCH  15  16
ENDBRANCH  14  15
ENDBRANCH  13  14
ENDBRANCH  12  13
ENDBRANCH   1  12
TORSDOF 16
ENDMDL
MODEL 6
REMARK VINA RESULT:    -2.770      2.864      6.732
REMARK INTER + INTRA:          -7.863
REMARK INTER:                  -5.586
REMARK INTRA:                  -2.277
REMARK UNBOUND:                -2.502
REMARK SMILES CCCCCCCCCCCCCCCCCC(=O)[O-]
REMARK SMILES IDX 10 1 11 2 12 3 13 4 14 5 15 6 16 7 17 8 18 9 19 10 20 11
REMARK SMILES IDX 9 12 8 13 7 14 6 15 5 16 4 17 3 18 2 19 1 20
REMARK H PARENT
REMARK Flexibility Score: inf
ROOT
ATOM      1  C   UNL     1      20.908   7.375  15.876  1.00  0.00     0.000 C 
ENDROOT
BRANCH   1   2
ATOM      2  C   UNL     1      19.613   6.704  16.380  1.00  0.00     0.000 C 
BRANCH   2   3
ATOM      3  C   UNL     1      18.335   7.478  16.012  1.00  0.00     0.000 C 
BRANCH   3   4
ATOM      4  C   UNL     1      18.035   8.629  16.983  1.00  0.00     0.000 C 
BRANCH   4   5
ATOM      5  C   UNL     1      18.293   9.987  16.320  1.00  0.00     0.000 C 
BRANCH   5   6
ATOM      6  C   UNL     1      18.763  11.022  17.347  1.00  0.00     0.000 C 
BRANCH   6   7
ATOM      7  C   UNL     1      20.110  10.619  17.958  1.00  0.00     0.006 C 
BRANCH   7   8
ATOM      8  C   UNL     1      21.276  11.077  17.077  1.00  0.00     0.053 C 
BRANCH   8   9
ATOM      9  C   UNL     1      21.403  12.567  17.112  1.00  0.00     0.041 C 
ATOM     10  O   UNL     1      21.499  13.220  16.040  1.00  0.00    -0.550 OA
ATOM     11  O   UNL     1      21.363  13.239  18.327  1.00  0.00    -0.550 OA
ENDBRANCH   8   9
ENDBRANCH   7   8
ENDBRANCH   6   7
ENDBRANCH   5   6
ENDBRANCH   4   5
ENDBRANCH   3   4
ENDBRANCH   2   3
ENDBRANCH   1   2
BRANCH   1  12
ATOM     12  C   UNL     1      21.972   7.491  16.982  1.00  0.00     0.000 C 
BRANCH  12  13
ATOM     13  C   UNL     1      22.486   6.124  17.468  1.00  0.00    -0.000 C 
BRANCH  13  14
ATOM     14  C   UNL     1      23.860   5.707  16.910  1.00  0.00    -0.000 C 
BRANCH  14  15
ATOM     15  C   UNL     1      24.623   6.874  16.264  1.00  0.00    -0.000 C 
BRANCH  15  16
ATOM     16  C   UNL     1      26.018   7.092  16.879  1.00  0.00    -0.000 C 
BRANCH  16  17
ATOM     17  C   UNL     1      26.206   6.517  18.297  1.00  0.00    -0.000 C 
BRANCH  17  18
ATOM     18  C   UNL     1      26.170   7.555  19.436  1.00  0.00    -0.000 C 
BRANCH  18  19
ATOM     19  C   UNL     1      24.840   7.622  20.208  1.00  0.00    -0.003 C 
ATOM     20  C   UNL     1      23.980   8.821  19.808  1.00  0.00     0.004 C 
ENDBRANCH  18  19
ENDBRANCH  17  18
ENDBRANCH  16  17
ENDBRANCH  15  16
ENDBRANCH  14  15
ENDBRANCH  13  14
ENDBRANCH  12  13
ENDBRANCH   1  12
TORSDOF 16
ENDMDL
MODEL 7
REMARK VINA RESULT:    -2.760      2.933      6.375
REMARK INTER + INTRA:          -7.842
REMARK INTER:                  -4.976
REMARK INTRA:                  -2.867
REMARK UNBOUND:                -2.502
REMARK SMILES CCCCCCCCCCCCCCCCCC(=O)[O-]
REMARK SMILES IDX 10 1 11 2 12 3 13 4 14 5 15 6 16 7 17 8 18 9 19 10 20 11
REMARK SMILES IDX 9 12 8 13 7 14 6 15 5 16 4 17 3 18 2 19 1 20
REMARK H PARENT
REMARK Flexibility Score: inf
ROOT
ATOM      1  C   UNL     1      21.369   7.318  16.371  1.00  0.00     0.000 C 
ENDROOT
BRANCH   1   2
ATOM      2  C   UNL     1      20.132   7.663  15.515  1.00  0.00     0.000 C 
BRANCH   2   3
ATOM      3  C   UNL     1      18.801   7.235  16.157  1.00  0.00     0.000 C 
BRANCH   3   4
ATOM      4  C   UNL     1      18.094   8.385  16.890  1.00  0.00     0.000 C 
BRANCH   4   5
ATOM      5  C   UNL     1      18.549   9.743  16.345  1.00  0.00     0.000 C 
BRANCH   5   6
ATOM      6  C   UNL     1      18.671  10.777  17.471  1.00  0.00     0.000 C 
BRANCH   6   7
ATOM      7  C   UNL     1      20.069  10.745  18.098  1.00  0.00     0.006 C 
BRANCH   7   8
ATOM      8  C   UNL     1      21.139  11.162  17.084  1.00  0.00     0.053 C 
BRANCH   8   9
ATOM      9  C   UNL     1      21.304  12.649  17.081  1.00  0.00     0.041 C 
ATOM     10  O   UNL     1      21.655  13.245  16.028  1.00  0.00    -0.550 OA
ATOM     11  O   UNL     1      21.019  13.382  18.226  1.00  0.00    -0.550 OA
ENDBRANCH   8   9
ENDBRANCH   7   8
ENDBRANCH   6   7
ENDBRANCH   5   6
ENDBRANCH   4   5
ENDBRANCH   3   4
ENDBRANCH   2   3
ENDBRANCH   1   2
BRANCH   1  12
ATOM     12  C   UNL     1      21.217   5.969  17.096  1.00  0.00     0.000 C 
BRANCH  12  13
ATOM     13  C   UNL     1      21.365   6.087  18.623  1.00  0.00    -0.000 C 
BRANCH  13  14
ATOM     14  C   UNL     1      20.994   7.461  19.212  1.00  0.00    -0.000 C 
BRANCH  14  15
ATOM     15  C   UNL     1      22.097   8.046  20.109  1.00  0.00    -0.000 C 
BRANCH  15  16
ATOM     16  C   UNL     1      23.169   8.816  19.315  1.00  0.00    -0.000 C 
BRANCH  16  17
ATOM     17  C   UNL     1      24.614   8.643  19.827  1.00  0.00    -0.000 C 
BRANCH  17  18
ATOM     18  C   UNL     1      25.592   8.000  18.825  1.00  0.00    -0.000 C 
BRANCH  18  19
ATOM     19  C   UNL     1      25.031   6.787  18.062  1.00  0.00    -0.003 C 
ATOM     20  C   UNL     1      25.000   7.000  16.548  1.00  0.00     0.004 C 
ENDBRANCH  18  19
ENDBRANCH  17  18
ENDBRANCH  16  17
ENDBRANCH  15  16
ENDBRANCH  14  15
ENDBRANCH  13  14
ENDBRANCH  12  13
ENDBRANCH   1  12
TORSDOF 16
ENDMDL
MODEL 8
REMARK VINA RESULT:    -2.752      1.702      2.804
REMARK INTER + INTRA:          -7.828
REMARK INTER:                  -5.125
REMARK INTRA:                  -2.703
REMARK UNBOUND:                -2.502
REMARK SMILES CCCCCCCCCCCCCCCCCC(=O)[O-]
REMARK SMILES IDX 10 1 11 2 12 3 13 4 14 5 15 6 16 7 17 8 18 9 19 10 20 11
REMARK SMILES IDX 9 12 8 13 7 14 6 15 5 16 4 17 3 18 2 19 1 20
REMARK H PARENT
REMARK Flexibility Score: inf
ROOT
ATOM      1  C   UNL     1      21.492   8.074  18.614  1.00  0.00     0.000 C 
ENDROOT
BRANCH   1   2
ATOM      2  C   UNL     1      22.201   6.714  18.784  1.00  0.00     0.000 C 
BRANCH   2   3
ATOM      3  C   UNL     1      21.376   5.522  18.268  1.00  0.00     0.000 C 
BRANCH   3   4
ATOM      4  C   UNL     1      21.887   4.980  16.925  1.00  0.00     0.000 C 
BRANCH   4   5
ATOM      5  C   UNL     1      23.403   5.166  16.800  1.00  0.00     0.000 C 
BRANCH   5   6
ATOM      6  C   UNL     1      23.762   5.934  15.523  1.00  0.00     0.000 C 
BRANCH   6   7
ATOM      7  C   UNL     1      25.126   6.621  15.658  1.00  0.00     0.006 C 
BRANCH   7   8
ATOM      8  C   UNL     1      25.052   7.812  16.619  1.00  0.00     0.053 C 
BRANCH   8   9
ATOM      9  C   UNL     1      26.070   7.671  17.706  1.00  0.00     0.041 C 
ATOM     10  O   UNL     1      26.483   8.688  18.322  1.00  0.00    -0.550 OA
ATOM     11  O   UNL     1      26.522   6.410  18.074  1.00  0.00    -0.550 OA
ENDBRANCH   8   9
ENDBRANCH   7   8
ENDBRANCH   6   7
ENDBRANCH   5   6
ENDBRANCH   4   5
ENDBRANCH   3   4
ENDBRANCH   2   3
ENDBRANCH   1   2
BRANCH   1  12
ATOM     12  C   UNL     1      21.787   8.717  17.248  1.00  0.00     0.000 C 
BRANCH  12  13
ATOM     13  C   UNL     1      20.672   8.474  16.215  1.00  0.00    -0.000 C 
BRANCH  13  14
ATOM     14  C   UNL     1      19.275   8.218  16.809  1.00  0.00    -0.000 C 
BRANCH  14  15
ATOM     15  C   UNL     1      18.191   9.125  16.203  1.00  0.00    -0.000 C 
BRANCH  15  16
ATOM     16  C   UNL     1      18.056  10.471  16.938  1.00  0.00    -0.000 C 
BRANCH  16  17
ATOM     17  C   UNL     1      18.559  10.476  18.395  1.00  0.00    -0.000 C 
BRANCH  17  18
ATOM     18  C   UNL     1      19.732  11.434  18.682  1.00  0.00    -0.000 C 
BRANCH  18  19
ATOM     19  C   UNL     1      19.957  12.517  17.611  1.00  0.00    -0.003 C 
ATOM     20  C   UNL     1      21.302  12.377  16.898  1.00  0.00     0.004 C 
ENDBRANCH  18  19
ENDBRANCH  17  18
ENDBRANCH  16  17
ENDBRANCH  15  16
ENDBRANCH  14  15
ENDBRANCH  13  14
ENDBRANCH  12  13
ENDBRANCH   1  12
TORSDOF 16
ENDMDL
MODEL 9
REMARK VINA RESULT:    -2.737      1.922      4.128
REMARK INTER + INTRA:          -7.799
REMARK INTER:                  -4.746
REMARK INTRA:                  -3.053
REMARK UNBOUND:                -2.502
REMARK SMILES CCCCCCCCCCCCCCCCCC(=O)[O-]
REMARK SMILES IDX 10 1 11 2 12 3 13 4 14 5 15 6 16 7 17 8 18 9 19 10 20 11
REMARK SMILES IDX 9 12 8 13 7 14 6 15 5 16 4 17 3 18 2 19 1 20
REMARK H PARENT
REMARK Flexibility Score: inf
ROOT
ATOM      1  C   UNL     1      18.610   8.239  15.837  1.00  0.00     0.000 C 
ENDROOT
BRANCH   1   2
ATOM      2  C   UNL     1      19.792   7.294  15.535  1.00  0.00     0.000 C 
BRANCH   2   3
ATOM      3  C   UNL     1      19.977   6.186  16.587  1.00  0.00     0.000 C 
BRANCH   3   4
ATOM      4  C   UNL     1      21.324   5.460  16.458  1.00  0.00     0.000 C 
BRANCH   4   5
ATOM      5  C   UNL     1      22.419   6.418  15.974  1.00  0.00     0.000 C 
BRANCH   5   6
ATOM      6  C   UNL     1      23.787   6.026  16.545  1.00  0.00     0.000 C 
BRANCH   6   7
ATOM      7  C   UNL     1      24.783   7.185  16.430  1.00  0.00     0.006 C 
BRANCH   7   8
ATOM      8  C   UNL     1      26.081   6.874  17.181  1.00  0.00     0.053 C 
BRANCH   8   9
ATOM      9  C   UNL     1      26.100   7.571  18.504  1.00  0.00     0.041 C 
ATOM     10  O   UNL     1      25.163   8.350  18.823  1.00  0.00    -0.550 OA
ATOM     11  O   UNL     1      27.125   7.321  19.407  1.00  0.00    -0.550 OA
ENDBRANCH   8   9
ENDBRANCH   7   8
ENDBRANCH   6   7
ENDBRANCH   5   6
ENDBRANCH   4   5
ENDBRANCH   3   4
ENDBRANCH   2   3
ENDBRANCH   1   2
BRANCH   1  12
ATOM     12  C   UNL     1      18.218   8.224  17.324  1.00  0.00     0.000 C 
BRANCH  12  13
ATOM     13  C   UNL     1      18.122   9.634  17.936  1.00  0.00    -0.000 C 
BRANCH  13  14
ATOM     14  C   UNL     1      18.767  10.754  17.100  1.00  0.00    -0.000 C 
BRANCH  14  15
ATOM     15  C   UNL     1      20.140  11.189  17.639  1.00  0.00    -0.000 C 
BRANCH  15  16
ATOM     16  C   UNL     1      21.312  10.488  16.928  1.00  0.00    -0.000 C 
BRANCH  16  17
ATOM     17  C   UNL     1      21.991   9.364  17.736  1.00  0.00    -0.000 C 
BRANCH  17  18
ATOM     18  C   UNL     1      21.609   9.306  19.228  1.00  0.00    -0.000 C 
BRANCH  18  19
ATOM     19  C   UNL     1      21.048   7.953  19.700  1.00  0.00    -0.003 C 
ATOM     20  C   UNL     1      22.121   6.868  19.805  1.00  0.00     0.004 C 
ENDBRANCH  18  19
ENDBRANCH  17  18
ENDBRANCH  16  17
ENDBRANCH  15  16
ENDBRANCH  14  15
ENDBRANCH  13  14
ENDBRANCH  12  13
ENDBRANCH   1  12
TORSDOF 16
ENDMDL
