MODEL 1
REMARK VINA RESULT:    -2.330      0.000      0.000
REMARK INTER + INTRA:          -2.330
REMARK INTER:                  -2.330
REMARK INTRA:                   0.000
REMARK UNBOUND:                 0.000
REMARK SMILES CC(=O)[O-]
REMARK SMILES IDX 1 1 2 2 3 3 4 4
REMARK H PARENT
REMARK Flexibility Score: inf
ROOT
ATOM      1  C   UNL     1     140.341 140.607 119.852  1.00  0.00     0.063 C 
ATOM      2  C   UNL     1     140.190 141.308 118.544  1.00  0.00     0.038 C 
ATOM      3  O   UNL     1     139.105 141.234 117.909  1.00  0.00    -0.550 OA
ATOM      4  O   UNL     1     141.226 142.090 118.050  1.00  0.00    -0.550 OA
ENDROOT
TORSDOF 0
ENDMDL
MODEL 2
REMARK VINA RESULT:    -2.325      6.895      6.895
REMARK INTER + INTRA:          -2.325
REMARK INTER:                  -2.325
REMARK INTRA:                   0.000
REMARK UNBOUND:                 0.000
REMARK SMILES CC(=O)[O-]
REMARK SMILES IDX 1 1 2 2 3 3 4 4
REMARK H PARENT
REMARK Flexibility Score: inf
ROOT
ATOM      1  C   UNL     1     136.217 135.876 120.521  1.00  0.00     0.063 C 
ATOM      2  C   UNL     1     136.160 135.797 119.033  1.00  0.00     0.038 C 
ATOM      3  O   UNL     1     135.196 136.315 118.410  1.00  0.00    -0.550 OA
ATOM      4  O   UNL     1     137.197 135.203 118.327  1.00  0.00    -0.550 OA
ENDROOT
TORSDOF 0
ENDMDL
MODEL 3
REMARK VINA RESULT:    -2.303      5.400      5.906
REMARK INTER + INTRA:          -2.303
REMARK INTER:                  -2.303
REMARK INTRA:                   0.000
REMARK UNBOUND:                 0.000
REMARK SMILES CC(=O)[O-]
REMARK SMILES IDX 1 1 2 2 3 3 4 4
REMARK H PARENT
REMARK Flexibility Score: inf
ROOT
ATOM      1  C   UNL     1     144.342 140.662 113.868  1.00  0.00     0.063 C 
ATOM      2  C   UNL     1     143.364 141.785 113.937  1.00  0.00     0.038 C 
ATOM      3  O   UNL     1     143.192 142.407 115.019  1.00  0.00    -0.550 OA
ATOM      4  O   UNL     1     142.682 142.186 112.796  1.00  0.00    -0.550 OA
ENDROOT
TORSDOF 0
ENDMDL
MODEL 4
REMARK VINA RESULT:    -2.300      5.341      5.819
REMARK INTER + INTRA:          -2.300
REMARK INTER:                  -2.300
REMARK INTRA:                   0.000
REMARK UNBOUND:                 0.000
REMARK SMILES CC(=O)[O-]
REMARK SMILES IDX 1 1 2 2 3 3 4 4
REMARK H PARENT
REMARK Flexibility Score: inf
ROOT
ATOM      1  C   UNL     1     144.367 140.627 113.893  1.00  0.00     0.063 C 
ATOM      2  C   UNL     1     143.419 141.777 113.951  1.00  0.00     0.038 C 
ATOM      3  O   UNL     1     142.860 142.188 112.901  1.00  0.00    -0.550 OA
ATOM      4  O   UNL     1     143.108 142.361 115.172  1.00  0.00    -0.550 OA
ENDROOT
TORSDOF 0
ENDMDL
MODEL 5
REMARK VINA RESULT:    -2.297     10.714     10.831
REMARK INTER + INTRA:          -2.297
REMARK INTER:                  -2.297
REMARK INTRA:                   0.000
REMARK UNBOUND:                 0.000
REMARK SMILES CC(=O)[O-]
REMARK SMILES IDX 1 1 2 2 3 3 4 4
REMARK H PARENT
REMARK Flexibility Score: inf
ROOT
ATOM      1  C   UNL     1     132.410 135.405 113.925  1.00  0.00     0.063 C 
ATOM      2  C   UNL     1     133.420 134.353 114.238  1.00  0.00     0.038 C 
ATOM      3  O   UNL     1     133.468 133.847 115.391  1.00  0.00    -0.550 OA
ATOM      4  O   UNL     1     134.272 133.888 113.245  1.00  0.00    -0.550 OA
ENDROOT
TORSDOF 0
ENDMDL
MODEL 6
REMARK VINA RESULT:    -2.245      6.922      7.231
REMARK INTER + INTRA:          -2.245
REMARK INTER:                  -2.245
REMARK INTRA:                   0.000
REMARK UNBOUND:                 0.000
REMARK SMILES CC(=O)[O-]
REMARK SMILES IDX 1 1 2 2 3 3 4 4
REMARK H PARENT
REMARK Flexibility Score: inf
ROOT
ATOM      1  C   UNL     1     134.945 136.110 118.119  1.00  0.00     0.063 C 
ATOM      2  C   UNL     1     136.149 135.708 118.903  1.00  0.00     0.038 C 
ATOM      3  O   UNL     1     137.185 135.308 118.309  1.00  0.00    -0.550 OA
ATOM      4  O   UNL     1     136.149 135.827 120.286  1.00  0.00    -0.550 OA
ENDROOT
TORSDOF 0
ENDMDL
MODEL 7
REMARK VINA RESULT:    -2.235     10.545     10.598
REMARK INTER + INTRA:          -2.235
REMARK INTER:                  -2.235
REMARK INTRA:                   0.000
REMARK UNBOUND:                 0.000
REMARK SMILES CC(=O)[O-]
REMARK SMILES IDX 1 1 2 2 3 3 4 4
REMARK H PARENT
REMARK Flexibility Score: inf
ROOT
ATOM      1  C   UNL     1     133.598 133.897 115.031  1.00  0.00     0.063 C 
ATOM      2  C   UNL     1     134.725 133.517 114.132  1.00  0.00     0.038 C 
ATOM      3  O   UNL     1     134.734 133.903 112.933  1.00  0.00    -0.550 OA
ATOM      4  O   UNL     1     135.794 132.783 114.628  1.00  0.00    -0.550 OA
ENDROOT
TORSDOF 0
ENDMDL
MODEL 8
REMARK VINA RESULT:    -2.226     10.479     10.654
REMARK INTER + INTRA:          -2.226
REMARK INTER:                  -2.226
REMARK INTRA:                   0.000
REMARK UNBOUND:                 0.000
REMARK SMILES CC(=O)[O-]
REMARK SMILES IDX 1 1 2 2 3 3 4 4
REMARK H PARENT
REMARK Flexibility Score: inf
ROOT
ATOM      1  C   UNL     1     135.779 133.112 114.621  1.00  0.00     0.063 C 
ATOM      2  C   UNL     1     134.402 133.612 114.345  1.00  0.00     0.038 C 
ATOM      3  O   UNL     1     134.063 133.913 113.170  1.00  0.00    -0.550 OA
ATOM      4  O   UNL     1     133.472 133.693 115.373  1.00  0.00    -0.550 OA
ENDROOT
TORSDOF 0
ENDMDL
MODEL 9
REMARK VINA RESULT:    -2.207      4.707      5.128
REMARK INTER + INTRA:          -2.207
REMARK INTER:                  -2.207
REMARK INTRA:                   0.000
REMARK UNBOUND:                 0.000
REMARK SMILES CC(=O)[O-]
REMARK SMILES IDX 1 1 2 2 3 3 4 4
REMARK H PARENT
REMARK Flexibility Score: inf
ROOT
ATOM      1  C   UNL     1     142.876 142.553 115.001  1.00  0.00     0.063 C 
ATOM      2  C   UNL     1     141.711 142.888 114.132  1.00  0.00     0.038 C 
ATOM      3  O   UNL     1     140.756 143.568 114.591  1.00  0.00    -0.550 OA
ATOM      4  O   UNL     1     141.702 142.499 112.799  1.00  0.00    -0.550 OA
ENDROOT
TORSDOF 0
ENDMDL
