MODEL 1
REMARK VINA RESULT:    -7.091      0.000      0.000
REMARK INTER + INTRA:          -8.649
REMARK INTER:                  -8.335
REMARK INTRA:                  -0.314
REMARK UNBOUND:                -0.314
REMARK SMILES O=c1c(O)c(-c2ccc(O)c(O)c2)oc2cc(O)ccc12
REMARK SMILES IDX 5 1 3 2 2 3 1 4 21 5 15 6 14 7 16 8 17 9 19 10 20 11 6 12
REMARK SMILES IDX 7 13 8 14 9 15 13 16 11 17 10 18 12 20 4 22 18 24
REMARK H PARENT 10 19 12 21 4 23 18 25
REMARK Flexibility Score: inf
ROOT
ATOM      1  C   UNL     1     -36.594 -13.050 -10.473  1.00  0.00     0.180 A 
ATOM      2  C   UNL     1     -37.531 -12.885 -11.515  1.00  0.00     0.208 A 
ATOM      3  C   UNL     1     -37.437 -13.710 -12.646  1.00  0.00     0.235 A 
ATOM      4  O   UNL     1     -38.257 -13.574 -13.596  1.00  0.00    -0.285 OA
ATOM      5  C   UNL     1     -36.432 -14.688 -12.706  1.00  0.00     0.069 A 
ATOM      6  C   UNL     1     -35.548 -14.806 -11.611  1.00  0.00     0.142 A 
ATOM      7  O   UNL     1     -35.666 -13.999 -10.563  1.00  0.00    -0.452 OA
ATOM      8  C   UNL     1     -34.539 -15.775 -11.628  1.00  0.00     0.094 A 
ATOM      9  C   UNL     1     -34.401 -16.631 -12.731  1.00  0.00     0.119 A 
ATOM     10  C   UNL     1     -35.275 -16.514 -13.817  1.00  0.00     0.047 A 
ATOM     11  C   UNL     1     -36.286 -15.550 -13.809  1.00  0.00     0.020 A 
ENDROOT
BRANCH   1  12
ATOM     12  C   UNL     1     -36.616 -12.207  -9.255  1.00  0.00     0.025 A 
ATOM     13  C   UNL     1     -35.811 -11.059  -9.146  1.00  0.00     0.016 A 
ATOM     14  C   UNL     1     -35.830 -10.294  -7.978  1.00  0.00     0.051 A 
ATOM     15  C   UNL     1     -36.638 -10.666  -6.900  1.00  0.00     0.157 A 
ATOM     16  C   UNL     1     -37.411 -12.591  -8.163  1.00  0.00     0.062 A 
ATOM     17  C   UNL     1     -37.431 -11.823  -6.990  1.00  0.00     0.158 A 
BRANCH  15  18
ATOM     18  O   UNL     1     -36.637  -9.880  -5.748  1.00  0.00    -0.504 OA
ATOM     19  H   UNL     1     -35.805  -9.403  -5.422  1.00  0.00     0.293 HD
ENDBRANCH  15  18
BRANCH  17  20
ATOM     20  O   UNL     1     -38.234 -12.205  -5.917  1.00  0.00    -0.504 OA
ATOM     21  H   UNL     1     -39.044 -11.663  -5.641  1.00  0.00     0.293 HD
ENDBRANCH  17  20
ENDBRANCH   1  12
BRANCH   2  22
ATOM     22  O   UNL     1     -38.551 -11.936 -11.405  1.00  0.00    -0.502 OA
ATOM     23  H   UNL     1     -38.821 -11.533 -10.516  1.00  0.00     0.293 HD
ENDBRANCH   2  22
BRANCH   9  24
ATOM     24  O   UNL     1     -33.399 -17.598 -12.756  1.00  0.00    -0.508 OA
ATOM     25  H   UNL     1     -33.119 -18.047 -13.620  1.00  0.00     0.293 HD
ENDBRANCH   9  24
TORSDOF 5
ENDMDL
MODEL 2
REMARK VINA RESULT:    -6.782      1.646      3.322
REMARK INTER + INTRA:          -8.286
REMARK INTER:                  -7.962
REMARK INTRA:                  -0.323
REMARK UNBOUND:                -0.314
REMARK SMILES O=c1c(O)c(-c2ccc(O)c(O)c2)oc2cc(O)ccc12
REMARK SMILES IDX 5 1 3 2 2 3 1 4 21 5 15 6 14 7 16 8 17 9 19 10 20 11 6 12
REMARK SMILES IDX 7 13 8 14 9 15 13 16 11 17 10 18 12 20 4 22 18 24
REMARK H PARENT 10 19 12 21 4 23 18 25
REMARK Flexibility Score: inf
ROOT
ATOM      1  C   UNL     1     -36.075 -14.598 -10.630  1.00  0.00     0.180 A 
ATOM      2  C   UNL     1     -34.740 -15.030 -10.770  1.00  0.00     0.208 A 
ATOM      3  C   UNL     1     -34.366 -15.705 -11.942  1.00  0.00     0.235 A 
ATOM      4  O   UNL     1     -33.180 -16.111 -12.085  1.00  0.00    -0.285 OA
ATOM      5  C   UNL     1     -35.318 -15.916 -12.951  1.00  0.00     0.069 A 
ATOM      6  C   UNL     1     -36.629 -15.431 -12.745  1.00  0.00     0.142 A 
ATOM      7  O   UNL     1     -36.944 -14.805 -11.616  1.00  0.00    -0.452 OA
ATOM      8  C   UNL     1     -37.605 -15.613 -13.731  1.00  0.00     0.094 A 
ATOM      9  C   UNL     1     -37.287 -16.276 -14.925  1.00  0.00     0.119 A 
ATOM     10  C   UNL     1     -35.990 -16.758 -15.130  1.00  0.00     0.047 A 
ATOM     11  C   UNL     1     -35.008 -16.581 -14.151  1.00  0.00     0.020 A 
ENDROOT
BRANCH   1  12
ATOM     12  C   UNL     1     -36.552 -13.896  -9.416  1.00  0.00     0.025 A 
ATOM     13  C   UNL     1     -37.037 -14.605  -8.303  1.00  0.00     0.016 A 
ATOM     14  C   UNL     1     -37.503 -13.920  -7.179  1.00  0.00     0.051 A 
ATOM     15  C   UNL     1     -37.506 -12.523  -7.152  1.00  0.00     0.157 A 
ATOM     16  C   UNL     1     -36.575 -12.492  -9.395  1.00  0.00     0.062 A 
ATOM     17  C   UNL     1     -37.044 -11.803  -8.267  1.00  0.00     0.158 A 
BRANCH  15  18
ATOM     18  O   UNL     1     -37.977 -11.867  -6.015  1.00  0.00    -0.504 OA
ATOM     19  H   UNL     1     -37.363 -11.339  -5.405  1.00  0.00     0.293 HD
ENDBRANCH  15  18
BRANCH  17  20
ATOM     20  O   UNL     1     -37.050 -10.409  -8.251  1.00  0.00    -0.504 OA
ATOM     21  H   UNL     1     -37.169  -9.889  -7.390  1.00  0.00     0.293 HD
ENDBRANCH  17  20
ENDBRANCH   1  12
BRANCH   2  22
ATOM     22  O   UNL     1     -33.801 -14.763  -9.769  1.00  0.00    -0.502 OA
ATOM     23  H   UNL     1     -33.250 -15.494  -9.336  1.00  0.00     0.293 HD
ENDBRANCH   2  22
BRANCH   9  24
ATOM     24  O   UNL     1     -38.253 -16.461 -15.912  1.00  0.00    -0.508 OA
ATOM     25  H   UNL     1     -39.077 -15.875 -15.962  1.00  0.00     0.293 HD
ENDBRANCH   9  24
TORSDOF 5
ENDMDL
MODEL 3
REMARK VINA RESULT:    -6.629      1.264      2.827
REMARK INTER + INTRA:          -8.105
REMARK INTER:                  -7.912
REMARK INTRA:                  -0.194
REMARK UNBOUND:                -0.314
REMARK SMILES O=c1c(O)c(-c2ccc(O)c(O)c2)oc2cc(O)ccc12
REMARK SMILES IDX 5 1 3 2 2 3 1 4 21 5 15 6 14 7 16 8 17 9 19 10 20 11 6 12
REMARK SMILES IDX 7 13 8 14 9 15 13 16 11 17 10 18 12 20 4 22 18 24
REMARK H PARENT 10 19 12 21 4 23 18 25
REMARK Flexibility Score: inf
ROOT
ATOM      1  C   UNL     1     -36.479 -13.407 -10.327  1.00  0.00     0.180 A 
ATOM      2  C   UNL     1     -35.891 -14.683 -10.204  1.00  0.00     0.208 A 
ATOM      3  C   UNL     1     -35.872 -15.530 -11.322  1.00  0.00     0.235 A 
ATOM      4  O   UNL     1     -35.361 -16.682 -11.233  1.00  0.00    -0.285 OA
ATOM      5  C   UNL     1     -36.415 -15.084 -12.536  1.00  0.00     0.069 A 
ATOM      6  C   UNL     1     -36.963 -13.783 -12.585  1.00  0.00     0.142 A 
ATOM      7  O   UNL     1     -36.971 -13.016 -11.501  1.00  0.00    -0.452 OA
ATOM      8  C   UNL     1     -37.506 -13.297 -13.780  1.00  0.00     0.094 A 
ATOM      9  C   UNL     1     -37.509 -14.098 -14.931  1.00  0.00     0.119 A 
ATOM     10  C   UNL     1     -36.968 -15.387 -14.884  1.00  0.00     0.047 A 
ATOM     11  C   UNL     1     -36.423 -15.881 -13.696  1.00  0.00     0.020 A 
ENDROOT
BRANCH   1  12
ATOM     12  C   UNL     1     -36.555 -12.463  -9.189  1.00  0.00     0.025 A 
ATOM     13  C   UNL     1     -35.777 -11.292  -9.155  1.00  0.00     0.016 A 
ATOM     14  C   UNL     1     -35.848 -10.429  -8.059  1.00  0.00     0.051 A 
ATOM     15  C   UNL     1     -36.683 -10.725  -6.978  1.00  0.00     0.157 A 
ATOM     16  C   UNL     1     -37.377 -12.768  -8.092  1.00  0.00     0.062 A 
ATOM     17  C   UNL     1     -37.450 -11.903  -6.991  1.00  0.00     0.158 A 
BRANCH  15  18
ATOM     18  O   UNL     1     -36.734  -9.843  -5.899  1.00  0.00    -0.504 OA
ATOM     19  H   UNL     1     -37.100  -8.903  -5.990  1.00  0.00     0.293 HD
ENDBRANCH  15  18
BRANCH  17  20
ATOM     20  O   UNL     1     -38.280 -12.208  -5.914  1.00  0.00    -0.504 OA
ATOM     21  H   UNL     1     -38.745 -11.484  -5.381  1.00  0.00     0.293 HD
ENDBRANCH  17  20
ENDBRANCH   1  12
BRANCH   2  22
ATOM     22  O   UNL     1     -35.314 -15.082  -8.995  1.00  0.00    -0.502 OA
ATOM     23  H   UNL     1     -35.196 -16.057  -8.748  1.00  0.00     0.293 HD
ENDBRANCH   2  22
BRANCH   9  24
ATOM     24  O   UNL     1     -38.048 -13.622 -16.125  1.00  0.00    -0.508 OA
ATOM     25  H   UNL     1     -38.023 -12.637 -16.361  1.00  0.00     0.293 HD
ENDBRANCH   9  24
TORSDOF 5
ENDMDL
MODEL 4
REMARK VINA RESULT:    -6.553      3.621      5.997
REMARK INTER + INTRA:          -8.016
REMARK INTER:                  -8.457
REMARK INTRA:                   0.441
REMARK UNBOUND:                -0.314
REMARK SMILES O=c1c(O)c(-c2ccc(O)c(O)c2)oc2cc(O)ccc12
REMARK SMILES IDX 5 1 3 2 2 3 1 4 21 5 15 6 14 7 16 8 17 9 19 10 20 11 6 12
REMARK SMILES IDX 7 13 8 14 9 15 13 16 11 17 10 18 12 20 4 22 18 24
REMARK H PARENT 10 19 12 21 4 23 18 25
REMARK Flexibility Score: inf
ROOT
ATOM      1  C   UNL     1     -36.556 -12.552  -7.907  1.00  0.00     0.180 A 
ATOM      2  C   UNL     1     -36.903 -11.533  -6.996  1.00  0.00     0.208 A 
ATOM      3  C   UNL     1     -36.316 -10.267  -7.142  1.00  0.00     0.235 A 
ATOM      4  O   UNL     1     -36.602  -9.341  -6.333  1.00  0.00    -0.285 OA
ATOM      5  C   UNL     1     -35.418 -10.039  -8.197  1.00  0.00     0.069 A 
ATOM      6  C   UNL     1     -35.142 -11.104  -9.081  1.00  0.00     0.142 A 
ATOM      7  O   UNL     1     -35.711 -12.291  -8.902  1.00  0.00    -0.452 OA
ATOM      8  C   UNL     1     -34.260 -10.915 -10.150  1.00  0.00     0.094 A 
ATOM      9  C   UNL     1     -33.648  -9.669 -10.349  1.00  0.00     0.119 A 
ATOM     10  C   UNL     1     -33.920  -8.613  -9.473  1.00  0.00     0.047 A 
ATOM     11  C   UNL     1     -34.800  -8.792  -8.402  1.00  0.00     0.020 A 
ENDROOT
BRANCH   1  12
ATOM     12  C   UNL     1     -37.117 -13.919  -7.809  1.00  0.00     0.025 A 
ATOM     13  C   UNL     1     -36.508 -15.009  -8.455  1.00  0.00     0.016 A 
ATOM     14  C   UNL     1     -37.070 -16.285  -8.368  1.00  0.00     0.051 A 
ATOM     15  C   UNL     1     -38.250 -16.491  -7.649  1.00  0.00     0.157 A 
ATOM     16  C   UNL     1     -38.314 -14.125  -7.104  1.00  0.00     0.062 A 
ATOM     17  C   UNL     1     -38.880 -15.405  -7.016  1.00  0.00     0.158 A 
BRANCH  15  18
ATOM     18  O   UNL     1     -38.786 -17.777  -7.578  1.00  0.00    -0.504 OA
ATOM     19  H   UNL     1     -38.608 -18.474  -8.291  1.00  0.00     0.293 HD
ENDBRANCH  15  18
BRANCH  17  20
ATOM     20  O   UNL     1     -40.061 -15.601  -6.303  1.00  0.00    -0.504 OA
ATOM     21  H   UNL     1     -40.053 -15.872  -5.327  1.00  0.00     0.293 HD
ENDBRANCH  17  20
ENDBRANCH   1  12
BRANCH   2  22
ATOM     22  O   UNL     1     -37.837 -11.775  -5.985  1.00  0.00    -0.502 OA
ATOM     23  H   UNL     1     -37.754 -11.365  -5.063  1.00  0.00     0.293 HD
ENDBRANCH   2  22
BRANCH   9  24
ATOM     24  O   UNL     1     -32.768  -9.472 -11.411  1.00  0.00    -0.508 OA
ATOM     25  H   UNL     1     -32.059  -8.749 -11.383  1.00  0.00     0.293 HD
ENDBRANCH   9  24
TORSDOF 5
ENDMDL
MODEL 5
REMARK VINA RESULT:    -6.454      3.114      4.582
REMARK INTER + INTRA:          -7.900
REMARK INTER:                  -7.672
REMARK INTRA:                  -0.228
REMARK UNBOUND:                -0.314
REMARK SMILES O=c1c(O)c(-c2ccc(O)c(O)c2)oc2cc(O)ccc12
REMARK SMILES IDX 5 1 3 2 2 3 1 4 21 5 15 6 14 7 16 8 17 9 19 10 20 11 6 12
REMARK SMILES IDX 7 13 8 14 9 15 13 16 11 17 10 18 12 20 4 22 18 24
REMARK H PARENT 10 19 12 21 4 23 18 25
REMARK Flexibility Score: inf
ROOT
ATOM      1  C   UNL     1     -36.275 -16.537  -9.825  1.00  0.00     0.180 A 
ATOM      2  C   UNL     1     -35.210 -17.451  -9.685  1.00  0.00     0.208 A 
ATOM      3  C   UNL     1     -34.456 -17.789 -10.819  1.00  0.00     0.235 A 
ATOM      4  O   UNL     1     -33.505 -18.614 -10.721  1.00  0.00    -0.285 OA
ATOM      5  C   UNL     1     -34.763 -17.199 -12.054  1.00  0.00     0.069 A 
ATOM      6  C   UNL     1     -35.828 -16.274 -12.107  1.00  0.00     0.142 A 
ATOM      7  O   UNL     1     -36.524 -15.988 -11.012  1.00  0.00    -0.452 OA
ATOM      8  C   UNL     1     -36.160 -15.656 -13.318  1.00  0.00     0.094 A 
ATOM      9  C   UNL     1     -35.437 -15.952 -14.482  1.00  0.00     0.119 A 
ATOM     10  C   UNL     1     -34.381 -16.869 -14.432  1.00  0.00     0.047 A 
ATOM     11  C   UNL     1     -34.042 -17.491 -13.227  1.00  0.00     0.020 A 
ENDROOT
BRANCH   1  12
ATOM     12  C   UNL     1     -37.129 -16.143  -8.681  1.00  0.00     0.025 A 
ATOM     13  C   UNL     1     -37.013 -14.876  -8.082  1.00  0.00     0.016 A 
ATOM     14  C   UNL     1     -37.812 -14.537  -6.989  1.00  0.00     0.051 A 
ATOM     15  C   UNL     1     -38.728 -15.456  -6.469  1.00  0.00     0.157 A 
ATOM     16  C   UNL     1     -38.035 -17.072  -8.144  1.00  0.00     0.062 A 
ATOM     17  C   UNL     1     -38.839 -16.732  -7.046  1.00  0.00     0.158 A 
BRANCH  15  18
ATOM     18  O   UNL     1     -39.514 -15.087  -5.377  1.00  0.00    -0.504 OA
ATOM     19  H   UNL     1     -40.421 -15.504  -5.201  1.00  0.00     0.293 HD
ENDBRANCH  15  18
BRANCH  17  20
ATOM     20  O   UNL     1     -39.744 -17.657  -6.529  1.00  0.00    -0.504 OA
ATOM     21  H   UNL     1     -40.736 -17.455  -6.475  1.00  0.00     0.293 HD
ENDBRANCH  17  20
ENDBRANCH   1  12
BRANCH   2  22
ATOM     22  O   UNL     1     -34.897 -17.985  -8.432  1.00  0.00    -0.502 OA
ATOM     23  H   UNL     1     -34.874 -17.418  -7.593  1.00  0.00     0.293 HD
ENDBRANCH   2  22
BRANCH   9  24
ATOM     24  O   UNL     1     -35.760 -15.342 -15.692  1.00  0.00    -0.508 OA
ATOM     25  H   UNL     1     -36.168 -14.415 -15.725  1.00  0.00     0.293 HD
ENDBRANCH   9  24
TORSDOF 5
ENDMDL
MODEL 6
REMARK VINA RESULT:    -6.288     10.427     12.086
REMARK INTER + INTRA:          -7.704
REMARK INTER:                  -7.411
REMARK INTRA:                  -0.294
REMARK UNBOUND:                -0.314
REMARK SMILES O=c1c(O)c(-c2ccc(O)c(O)c2)oc2cc(O)ccc12
REMARK SMILES IDX 5 1 3 2 2 3 1 4 21 5 15 6 14 7 16 8 17 9 19 10 20 11 6 12
REMARK SMILES IDX 7 13 8 14 9 15 13 16 11 17 10 18 12 20 4 22 18 24
REMARK H PARENT 10 19 12 21 4 23 18 25
REMARK Flexibility Score: inf
ROOT
ATOM      1  C   UNL     1     -28.050 -13.170  -1.747  1.00  0.00     0.180 A 
ATOM      2  C   UNL     1     -27.229 -12.812  -2.837  1.00  0.00     0.208 A 
ATOM      3  C   UNL     1     -27.456 -13.417  -4.082  1.00  0.00     0.235 A 
ATOM      4  O   UNL     1     -26.727 -13.121  -5.070  1.00  0.00    -0.285 OA
ATOM      5  C   UNL     1     -28.501 -14.343  -4.220  1.00  0.00     0.069 A 
ATOM      6  C   UNL     1     -29.293 -14.630  -3.087  1.00  0.00     0.142 A 
ATOM      7  O   UNL     1     -29.039 -14.042  -1.923  1.00  0.00    -0.452 OA
ATOM      8  C   UNL     1     -30.351 -15.541  -3.186  1.00  0.00     0.094 A 
ATOM      9  C   UNL     1     -30.627 -16.172  -4.406  1.00  0.00     0.119 A 
ATOM     10  C   UNL     1     -29.843 -15.890  -5.530  1.00  0.00     0.047 A 
ATOM     11  C   UNL     1     -28.784 -14.981  -5.442  1.00  0.00     0.020 A 
ENDROOT
BRANCH   1  12
ATOM     12  C   UNL     1     -27.862 -12.590  -0.397  1.00  0.00     0.025 A 
ATOM     13  C   UNL     1     -27.187 -13.295   0.615  1.00  0.00     0.016 A 
ATOM     14  C   UNL     1     -27.043 -12.738   1.887  1.00  0.00     0.051 A 
ATOM     15  C   UNL     1     -27.580 -11.480   2.174  1.00  0.00     0.157 A 
ATOM     16  C   UNL     1     -28.418 -11.336  -0.101  1.00  0.00     0.062 A 
ATOM     17  C   UNL     1     -28.275 -10.775   1.176  1.00  0.00     0.158 A 
BRANCH  15  18
ATOM     18  O   UNL     1     -27.419 -10.948   3.453  1.00  0.00    -0.504 OA
ATOM     19  H   UNL     1     -27.996 -10.190   3.798  1.00  0.00     0.293 HD
ENDBRANCH  15  18
BRANCH  17  20
ATOM     20  O   UNL     1     -28.819  -9.523   1.456  1.00  0.00    -0.504 OA
ATOM     21  H   UNL     1     -28.656  -9.059   2.341  1.00  0.00     0.293 HD
ENDBRANCH  17  20
ENDBRANCH   1  12
BRANCH   2  22
ATOM     22  O   UNL     1     -26.227 -11.849  -2.682  1.00  0.00    -0.502 OA
ATOM     23  H   UNL     1     -26.387 -10.977  -2.193  1.00  0.00     0.293 HD
ENDBRANCH   2  22
BRANCH   9  24
ATOM     24  O   UNL     1     -31.678 -17.081  -4.514  1.00  0.00    -0.508 OA
ATOM     25  H   UNL     1     -31.513 -18.058  -4.722  1.00  0.00     0.293 HD
ENDBRANCH   9  24
TORSDOF 5
ENDMDL
MODEL 7
REMARK VINA RESULT:    -6.239      1.745      6.861
REMARK INTER + INTRA:          -7.647
REMARK INTER:                  -7.323
REMARK INTRA:                  -0.324
REMARK UNBOUND:                -0.314
REMARK SMILES O=c1c(O)c(-c2ccc(O)c(O)c2)oc2cc(O)ccc12
REMARK SMILES IDX 5 1 3 2 2 3 1 4 21 5 15 6 14 7 16 8 17 9 19 10 20 11 6 12
REMARK SMILES IDX 7 13 8 14 9 15 13 16 11 17 10 18 12 20 4 22 18 24
REMARK H PARENT 10 19 12 21 4 23 18 25
REMARK Flexibility Score: inf
ROOT
ATOM      1  C   UNL     1     -36.120 -13.229 -11.456  1.00  0.00     0.180 A 
ATOM      2  C   UNL     1     -35.021 -12.346 -11.503  1.00  0.00     0.208 A 
ATOM      3  C   UNL     1     -34.792 -11.492 -10.414  1.00  0.00     0.235 A 
ATOM      4  O   UNL     1     -33.821 -10.685 -10.437  1.00  0.00    -0.285 OA
ATOM      5  C   UNL     1     -35.645 -11.549  -9.301  1.00  0.00     0.069 A 
ATOM      6  C   UNL     1     -36.708 -12.477  -9.320  1.00  0.00     0.142 A 
ATOM      7  O   UNL     1     -36.896 -13.262 -10.376  1.00  0.00    -0.452 OA
ATOM      8  C   UNL     1     -37.575 -12.572  -8.226  1.00  0.00     0.094 A 
ATOM      9  C   UNL     1     -37.392 -11.747  -7.107  1.00  0.00     0.119 A 
ATOM     10  C   UNL     1     -36.339 -10.826  -7.086  1.00  0.00     0.047 A 
ATOM     11  C   UNL     1     -35.468 -10.724  -8.175  1.00  0.00     0.020 A 
ENDROOT
BRANCH   1  12
ATOM     12  C   UNL     1     -36.439 -14.148 -12.573  1.00  0.00     0.025 A 
ATOM     13  C   UNL     1     -37.302 -13.763 -13.614  1.00  0.00     0.016 A 
ATOM     14  C   UNL     1     -37.607 -14.656 -14.644  1.00  0.00     0.051 A 
ATOM     15  C   UNL     1     -37.069 -15.946 -14.645  1.00  0.00     0.157 A 
ATOM     16  C   UNL     1     -35.916 -15.451 -12.566  1.00  0.00     0.062 A 
ATOM     17  C   UNL     1     -36.221 -16.349 -13.599  1.00  0.00     0.158 A 
BRANCH  15  18
ATOM     18  O   UNL     1     -37.390 -16.814 -15.688  1.00  0.00    -0.504 OA
ATOM     19  H   UNL     1     -36.711 -17.455 -16.084  1.00  0.00     0.293 HD
ENDBRANCH  15  18
BRANCH  17  20
ATOM     20  O   UNL     1     -35.686 -17.635 -13.589  1.00  0.00    -0.504 OA
ATOM     21  H   UNL     1     -34.892 -17.876 -13.008  1.00  0.00     0.293 HD
ENDBRANCH  17  20
ENDBRANCH   1  12
BRANCH   2  22
ATOM     22  O   UNL     1     -34.160 -12.346 -12.605  1.00  0.00    -0.502 OA
ATOM     23  H   UNL     1     -34.088 -13.136 -13.234  1.00  0.00     0.293 HD
ENDBRANCH   2  22
BRANCH   9  24
ATOM     24  O   UNL     1     -38.250 -11.834  -6.013  1.00  0.00    -0.508 OA
ATOM     25  H   UNL     1     -37.925 -11.655  -5.070  1.00  0.00     0.293 HD
ENDBRANCH   9  24
TORSDOF 5
ENDMDL
MODEL 8
REMARK VINA RESULT:    -6.212      2.038      6.868
REMARK INTER + INTRA:          -7.615
REMARK INTER:                  -7.298
REMARK INTRA:                  -0.318
REMARK UNBOUND:                -0.314
REMARK SMILES O=c1c(O)c(-c2ccc(O)c(O)c2)oc2cc(O)ccc12
REMARK SMILES IDX 5 1 3 2 2 3 1 4 21 5 15 6 14 7 16 8 17 9 19 10 20 11 6 12
REMARK SMILES IDX 7 13 8 14 9 15 13 16 11 17 10 18 12 20 4 22 18 24
REMARK H PARENT 10 19 12 21 4 23 18 25
REMARK Flexibility Score: inf
ROOT
ATOM      1  C   UNL     1     -36.153 -12.261  -9.597  1.00  0.00     0.180 A 
ATOM      2  C   UNL     1     -36.984 -12.204  -8.458  1.00  0.00     0.208 A 
ATOM      3  C   UNL     1     -36.825 -11.139  -7.558  1.00  0.00     0.235 A 
ATOM      4  O   UNL     1     -37.549 -11.072  -6.526  1.00  0.00    -0.285 OA
ATOM      5  C   UNL     1     -35.863 -10.151  -7.819  1.00  0.00     0.069 A 
ATOM      6  C   UNL     1     -35.088 -10.268  -8.993  1.00  0.00     0.142 A 
ATOM      7  O   UNL     1     -35.263 -11.297  -9.815  1.00  0.00    -0.452 OA
ATOM      8  C   UNL     1     -34.125  -9.299  -9.295  1.00  0.00     0.094 A 
ATOM      9  C   UNL     1     -33.925  -8.210  -8.434  1.00  0.00     0.119 A 
ATOM     10  C   UNL     1     -34.692  -8.094  -7.269  1.00  0.00     0.047 A 
ATOM     11  C   UNL     1     -35.656  -9.057  -6.960  1.00  0.00     0.020 A 
ENDROOT
BRANCH   1  12
ATOM     12  C   UNL     1     -36.247 -13.361 -10.584  1.00  0.00     0.025 A 
ATOM     13  C   UNL     1     -35.585 -14.585 -10.381  1.00  0.00     0.016 A 
ATOM     14  C   UNL     1     -35.668 -15.599 -11.338  1.00  0.00     0.051 A 
ATOM     15  C   UNL     1     -36.399 -15.405 -12.513  1.00  0.00     0.157 A 
ATOM     16  C   UNL     1     -36.964 -13.162 -11.775  1.00  0.00     0.062 A 
ATOM     17  C   UNL     1     -37.048 -14.178 -12.736  1.00  0.00     0.158 A 
BRANCH  15  18
ATOM     18  O   UNL     1     -36.466 -16.437 -13.449  1.00  0.00    -0.504 OA
ATOM     19  H   UNL     1     -35.706 -16.633 -14.090  1.00  0.00     0.293 HD
ENDBRANCH  15  18
BRANCH  17  20
ATOM     20  O   UNL     1     -37.773 -13.975 -13.909  1.00  0.00    -0.504 OA
ATOM     21  H   UNL     1     -38.083 -13.052 -14.188  1.00  0.00     0.293 HD
ENDBRANCH  17  20
ENDBRANCH   1  12
BRANCH   2  22
ATOM     22  O   UNL     1     -37.967 -13.175  -8.250  1.00  0.00    -0.502 OA
ATOM     23  H   UNL     1     -38.299 -13.419  -7.324  1.00  0.00     0.293 HD
ENDBRANCH   2  22
BRANCH   9  24
ATOM     24  O   UNL     1     -32.968  -7.240  -8.726  1.00  0.00    -0.508 OA
ATOM     25  H   UNL     1     -32.242  -6.998  -8.063  1.00  0.00     0.293 HD
ENDBRANCH   9  24
TORSDOF 5
ENDMDL
MODEL 9
REMARK VINA RESULT:    -6.154      5.271      6.177
REMARK INTER + INTRA:          -7.547
REMARK INTER:                  -7.534
REMARK INTRA:                  -0.013
REMARK UNBOUND:                -0.314
REMARK SMILES O=c1c(O)c(-c2ccc(O)c(O)c2)oc2cc(O)ccc12
REMARK SMILES IDX 5 1 3 2 2 3 1 4 21 5 15 6 14 7 16 8 17 9 19 10 20 11 6 12
REMARK SMILES IDX 7 13 8 14 9 15 13 16 11 17 10 18 12 20 4 22 18 24
REMARK H PARENT 10 19 12 21 4 23 18 25
REMARK Flexibility Score: inf
ROOT
ATOM      1  C   UNL     1     -37.265 -16.988  -7.230  1.00  0.00     0.180 A 
ATOM      2  C   UNL     1     -38.432 -17.642  -6.783  1.00  0.00     0.208 A 
ATOM      3  C   UNL     1     -38.353 -18.996  -6.422  1.00  0.00     0.235 A 
ATOM      4  O   UNL     1     -39.386 -19.606  -6.030  1.00  0.00    -0.285 OA
ATOM      5  C   UNL     1     -37.117 -19.658  -6.492  1.00  0.00     0.069 A 
ATOM      6  C   UNL     1     -35.990 -18.926  -6.926  1.00  0.00     0.142 A 
ATOM      7  O   UNL     1     -36.110 -17.648  -7.268  1.00  0.00    -0.452 OA
ATOM      8  C   UNL     1     -34.739 -19.548  -7.001  1.00  0.00     0.094 A 
ATOM      9  C   UNL     1     -34.599 -20.897  -6.647  1.00  0.00     0.119 A 
ATOM     10  C   UNL     1     -35.714 -21.624  -6.218  1.00  0.00     0.047 A 
ATOM     11  C   UNL     1     -36.969 -21.012  -6.140  1.00  0.00     0.020 A 
ENDROOT
BRANCH   1  12
ATOM     12  C   UNL     1     -37.271 -15.567  -7.646  1.00  0.00     0.025 A 
ATOM     13  C   UNL     1     -36.747 -15.166  -8.888  1.00  0.00     0.016 A 
ATOM     14  C   UNL     1     -36.741 -13.817  -9.249  1.00  0.00     0.051 A 
ATOM     15  C   UNL     1     -37.243 -12.848  -8.375  1.00  0.00     0.157 A 
ATOM     16  C   UNL     1     -37.755 -14.589  -6.762  1.00  0.00     0.062 A 
ATOM     17  C   UNL     1     -37.750 -13.235  -7.122  1.00  0.00     0.158 A 
BRANCH  15  18
ATOM     18  O   UNL     1     -37.226 -11.509  -8.764  1.00  0.00    -0.504 OA
ATOM     19  H   UNL     1     -37.655 -10.780  -8.206  1.00  0.00     0.293 HD
ENDBRANCH  15  18
BRANCH  17  20
ATOM     20  O   UNL     1     -38.246 -12.274  -6.243  1.00  0.00    -0.504 OA
ATOM     21  H   UNL     1     -39.070 -11.729  -6.463  1.00  0.00     0.293 HD
ENDBRANCH  17  20
ENDBRANCH   1  12
BRANCH   2  22
ATOM     22  O   UNL     1     -39.638 -16.943  -6.677  1.00  0.00    -0.502 OA
ATOM     23  H   UNL     1     -40.325 -16.935  -7.421  1.00  0.00     0.293 HD
ENDBRANCH   2  22
BRANCH   9  24
ATOM     24  O   UNL     1     -33.357 -21.524  -6.719  1.00  0.00    -0.508 OA
ATOM     25  H   UNL     1     -32.967 -22.018  -5.925  1.00  0.00     0.293 HD
ENDBRANCH   9  24
TORSDOF 5
ENDMDL
