MODEL 1
REMARK VINA RESULT:    -3.788      0.000      0.000
REMARK INTER + INTRA:          -5.999
REMARK INTER:                  -5.781
REMARK INTRA:                  -0.218
REMARK UNBOUND:                -0.218
REMARK SMILES CC1=CCC[C@H](C)C(=O)C[C@H](C(C)C)C(=O)C1
REMARK SMILES IDX 8 1 9 2 6 3 7 4 5 5 4 6 3 7 2 8 1 9 10 11 11 12 15 13 16 14
REMARK SMILES IDX 17 15 12 17 13 18 14 19
REMARK H PARENT
REMARK Flexibility Score: 70.00
ROOT
ATOM      1  C   UNL     1     133.941 183.011 191.533  1.00  0.00     0.136 C 
ATOM      2  O   UNL     1     133.369 181.932 191.583  1.00  0.00    -0.299 OA
ENDROOT
BRANCH   1   3
ATOM      3  C   UNL     1     133.118 184.280 191.662  1.00  0.00     0.053 C 
ATOM      4  C   UNL     1     131.617 183.965 191.670  1.00  0.00     0.016 C 
BRANCH   3   5
ATOM      5  C   UNL     1     133.524 185.090 192.907  1.00  0.00     0.015 C 
BRANCH   5   6
ATOM      6  C   UNL     1     134.421 186.288 192.546  1.00  0.00     0.028 C 
BRANCH   6   7
ATOM      7  C   UNL     1     135.753 186.199 193.243  1.00  0.00    -0.028 C 
ATOM      8  C   UNL     1     136.944 186.077 192.613  1.00  0.00    -0.070 CG0
ATOM      9  C   UNL     1     138.186 185.956 193.460  1.00  0.00     0.039 C 
ATOM     10  G   UNL     1     137.082 186.064 191.097  1.00  0.00     0.000 G0
ENDBRANCH   6   7
ENDBRANCH   5   6
ENDBRANCH   3   5
ENDBRANCH   1   3
BRANCH   1  11
ATOM     11  C   UNL     1     135.447 183.027 191.378  1.00  0.00     0.087 C 
BRANCH  11  12
ATOM     12  C   UNL     1     135.905 183.892 190.172  1.00  0.00     0.066 C 
BRANCH  12  13
ATOM     13  C   UNL     1     137.167 184.651 190.550  1.00  0.00     0.140 C 
ATOM     14  O   UNL     1     138.261 184.148 190.326  1.00  0.00    -0.299 OA
BRANCH  13  15
ATOM     15  C   UNL     1     137.096 186.058 191.090  1.00  0.00     0.106 CG0
ATOM     16  G   UNL     1     136.963 186.087 192.606  1.00  0.00     0.000 G0
ENDBRANCH  13  15
ENDBRANCH  12  13
BRANCH  12  17
ATOM     17  C   UNL     1     136.143 183.042 188.880  1.00  0.00    -0.006 C 
ATOM     18  C   UNL     1     136.478 181.572 189.202  1.00  0.00     0.008 C 
ATOM     19  C   UNL     1     134.911 183.070 187.952  1.00  0.00     0.008 C 
ENDBRANCH  12  17
ENDBRANCH  11  12
ENDBRANCH   1  11
TORSDOF 1
ENDMDL
MODEL 2
REMARK VINA RESULT:    -3.671      2.192      4.033
REMARK INTER + INTRA:          -5.821
REMARK INTER:                  -5.526
REMARK INTRA:                  -0.295
REMARK UNBOUND:                -0.218
REMARK SMILES CC1=CCC[C@H](C)C(=O)C[C@H](C(C)C)C(=O)C1
REMARK SMILES IDX 8 1 9 2 6 3 7 4 5 5 4 6 3 7 2 8 1 9 10 11 11 12 15 13 16 14
REMARK SMILES IDX 17 15 12 17 13 18 14 19
REMARK H PARENT
REMARK Flexibility Score: 70.00
ROOT
ATOM      1  C   UNL     1     136.435 185.695 190.981  1.00  0.00     0.136 C 
ATOM      2  O   UNL     1     135.773 186.609 191.451  1.00  0.00    -0.299 OA
ENDROOT
BRANCH   1   3
ATOM      3  C   UNL     1     137.879 185.539 191.421  1.00  0.00     0.053 C 
ATOM      4  C   UNL     1     138.752 186.669 190.860  1.00  0.00     0.016 C 
BRANCH   3   5
ATOM      5  C   UNL     1     137.995 185.455 192.955  1.00  0.00     0.015 C 
BRANCH   5   6
ATOM      6  C   UNL     1     137.704 184.036 193.477  1.00  0.00     0.028 C 
BRANCH   6   7
ATOM      7  C   UNL     1     136.442 184.008 194.298  1.00  0.00    -0.028 C 
ATOM      8  C   UNL     1     135.353 183.258 194.008  1.00  0.00    -0.070 CG0
ATOM      9  C   UNL     1     134.151 183.376 194.911  1.00  0.00     0.039 C 
ATOM     10  G   UNL     1     135.295 182.305 192.823  1.00  0.00     0.000 G0
ENDBRANCH   6   7
ENDBRANCH   5   6
ENDBRANCH   3   5
ENDBRANCH   1   3
BRANCH   1  11
ATOM     11  C   UNL     1     135.770 184.743 190.010  1.00  0.00     0.087 C 
BRANCH  11  12
ATOM     12  C   UNL     1     135.912 183.260 190.448  1.00  0.00     0.066 C 
BRANCH  12  13
ATOM     13  C   UNL     1     134.886 182.956 191.530  1.00  0.00     0.140 C 
ATOM     14  O   UNL     1     133.702 183.179 191.314  1.00  0.00    -0.299 OA
BRANCH  13  15
ATOM     15  C   UNL     1     135.292 182.282 192.817  1.00  0.00     0.106 CG0
ATOM     16  G   UNL     1     135.356 183.257 193.983  1.00  0.00     0.000 G0
ENDBRANCH  13  15
ENDBRANCH  12  13
BRANCH  12  17
ATOM     17  C   UNL     1     135.758 182.263 189.252  1.00  0.00    -0.006 C 
ATOM     18  C   UNL     1     135.024 182.898 188.054  1.00  0.00     0.008 C 
ATOM     19  C   UNL     1     137.128 181.749 188.767  1.00  0.00     0.008 C 
ENDBRANCH  12  17
ENDBRANCH  11  12
ENDBRANCH   1  11
TORSDOF 1
ENDMDL
MODEL 3
REMARK VINA RESULT:    -3.320      2.369      4.012
REMARK INTER + INTRA:          -5.285
REMARK INTER:                  -4.866
REMARK INTRA:                  -0.419
REMARK UNBOUND:                -0.218
REMARK SMILES CC1=CCC[C@H](C)C(=O)C[C@H](C(C)C)C(=O)C1
REMARK SMILES IDX 8 1 9 2 6 3 7 4 5 5 4 6 3 7 2 8 1 9 10 11 11 12 15 13 16 14
REMARK SMILES IDX 17 15 12 17 13 18 14 19
REMARK H PARENT
REMARK Flexibility Score: 70.00
ROOT
ATOM      1  C   UNL     1     136.877 183.264 190.048  1.00  0.00     0.136 C 
ATOM      2  O   UNL     1     137.304 182.523 189.175  1.00  0.00    -0.299 OA
ENDROOT
BRANCH   1   3
ATOM      3  C   UNL     1     135.375 183.398 190.221  1.00  0.00     0.053 C 
ATOM      4  C   UNL     1     134.727 184.000 188.968  1.00  0.00     0.016 C 
BRANCH   3   5
ATOM      5  C   UNL     1     134.728 182.050 190.589  1.00  0.00     0.015 C 
BRANCH   5   6
ATOM      6  C   UNL     1     135.076 181.619 192.026  1.00  0.00     0.028 C 
BRANCH   6   7
ATOM      7  C   UNL     1     134.517 182.588 193.034  1.00  0.00    -0.028 C 
ATOM      8  C   UNL     1     135.265 183.327 193.886  1.00  0.00    -0.070 CG0
ATOM      9  C   UNL     1     134.548 184.221 194.866  1.00  0.00     0.039 C 
ATOM     10  G   UNL     1     136.787 183.297 193.893  1.00  0.00     0.000 G0
ENDBRANCH   6   7
ENDBRANCH   5   6
ENDBRANCH   3   5
ENDBRANCH   1   3
BRANCH   1  11
ATOM     11  C   UNL     1     137.869 183.986 190.934  1.00  0.00     0.087 C 
BRANCH  11  12
ATOM     12  C   UNL     1     137.177 184.992 191.895  1.00  0.00     0.066 C 
BRANCH  12  13
ATOM     13  C   UNL     1     137.419 184.560 193.333  1.00  0.00     0.140 C 
ATOM     14  O   UNL     1     138.048 185.295 194.083  1.00  0.00    -0.299 OA
BRANCH  13  15
ATOM     15  C   UNL     1     136.800 183.298 193.880  1.00  0.00     0.106 CG0
ATOM     16  G   UNL     1     135.279 183.343 193.853  1.00  0.00     0.000 G0
ENDBRANCH  13  15
ENDBRANCH  12  13
BRANCH  12  17
ATOM     17  C   UNL     1     137.663 186.463 191.675  1.00  0.00    -0.006 C 
ATOM     18  C   UNL     1     138.773 186.558 190.610  1.00  0.00     0.008 C 
ATOM     19  C   UNL     1     136.500 187.383 191.251  1.00  0.00     0.008 C 
ENDBRANCH  12  17
ENDBRANCH  11  12
ENDBRANCH   1  11
TORSDOF 1
ENDMDL
MODEL 4
REMARK VINA RESULT:    -3.319      1.588      3.797
REMARK INTER + INTRA:          -5.283
REMARK INTER:                  -5.255
REMARK INTRA:                  -0.028
REMARK UNBOUND:                -0.218
REMARK SMILES CC1=CCC[C@H](C)C(=O)C[C@H](C(C)C)C(=O)C1
REMARK SMILES IDX 8 1 9 2 6 3 7 4 5 5 4 6 3 7 2 8 1 9 10 11 11 12 15 13 16 14
REMARK SMILES IDX 17 15 12 17 13 18 14 19
REMARK H PARENT
REMARK Flexibility Score: 70.00
ROOT
ATOM      1  C   UNL     1     137.522 184.549 190.476  1.00  0.00     0.136 C 
ATOM      2  O   UNL     1     138.132 183.627 189.955  1.00  0.00    -0.299 OA
ENDROOT
BRANCH   1   3
ATOM      3  C   UNL     1     138.287 185.531 191.344  1.00  0.00     0.053 C 
ATOM      4  C   UNL     1     137.932 186.979 190.986  1.00  0.00     0.016 C 
BRANCH   3   5
ATOM      5  C   UNL     1     138.057 185.256 192.843  1.00  0.00     0.015 C 
BRANCH   5   6
ATOM      6  C   UNL     1     137.355 186.434 193.542  1.00  0.00     0.028 C 
BRANCH   6   7
ATOM      7  C   UNL     1     136.216 185.954 194.403  1.00  0.00    -0.028 C 
ATOM      8  C   UNL     1     134.946 185.781 193.971  1.00  0.00    -0.070 CG0
ATOM      9  C   UNL     1     133.911 185.334 194.972  1.00  0.00     0.039 C 
ATOM     10  G   UNL     1     134.523 186.011 192.527  1.00  0.00     0.000 G0
ENDBRANCH   6   7
ENDBRANCH   5   6
ENDBRANCH   3   5
ENDBRANCH   1   3
BRANCH   1  11
ATOM     11  C   UNL     1     136.039 184.684 190.202  1.00  0.00     0.087 C 
BRANCH  11  12
ATOM     12  C   UNL     1     135.181 183.829 191.173  1.00  0.00     0.066 C 
BRANCH  12  13
ATOM     13  C   UNL     1     134.128 184.714 191.824  1.00  0.00     0.140 C 
ATOM     14  O   UNL     1     132.966 184.332 191.867  1.00  0.00    -0.299 OA
BRANCH  13  15
ATOM     15  C   UNL     1     134.512 185.999 192.515  1.00  0.00     0.106 CG0
ATOM     16  G   UNL     1     134.943 185.771 193.957  1.00  0.00     0.000 G0
ENDBRANCH  13  15
ENDBRANCH  12  13
BRANCH  12  17
ATOM     17  C   UNL     1     134.507 182.608 190.464  1.00  0.00    -0.006 C 
ATOM     18  C   UNL     1     133.840 183.004 189.131  1.00  0.00     0.008 C 
ATOM     19  C   UNL     1     135.527 181.486 190.184  1.00  0.00     0.008 C 
ENDBRANCH  12  17
ENDBRANCH  11  12
ENDBRANCH   1  11
TORSDOF 1
ENDMDL
MODEL 5
REMARK VINA RESULT:    -3.245      2.120      5.051
REMARK INTER + INTRA:          -5.170
REMARK INTER:                  -5.060
REMARK INTRA:                  -0.110
REMARK UNBOUND:                -0.218
REMARK SMILES CC1=CCC[C@H](C)C(=O)C[C@H](C(C)C)C(=O)C1
REMARK SMILES IDX 8 1 9 2 6 3 7 4 5 5 4 6 3 7 2 8 1 9 10 11 11 12 15 13 16 14
REMARK SMILES IDX 17 15 12 17 13 18 14 19
REMARK H PARENT
REMARK Flexibility Score: 70.00
ROOT
ATOM      1  C   UNL     1     136.891 183.484 190.182  1.00  0.00     0.136 C 
ATOM      2  O   UNL     1     137.930 184.127 190.146  1.00  0.00    -0.299 OA
ENDROOT
BRANCH   1   3
ATOM      3  C   UNL     1     136.349 182.899 188.890  1.00  0.00     0.053 C 
ATOM      4  C   UNL     1     136.275 181.369 188.965  1.00  0.00     0.016 C 
BRANCH   3   5
ATOM      5  C   UNL     1     134.980 183.506 188.528  1.00  0.00     0.015 C 
BRANCH   5   6
ATOM      6  C   UNL     1     133.818 182.569 188.904  1.00  0.00     0.028 C 
BRANCH   6   7
ATOM      7  C   UNL     1     132.644 183.347 189.436  1.00  0.00    -0.028 C 
ATOM      8  C   UNL     1     132.410 183.585 190.748  1.00  0.00    -0.070 CG0
ATOM      9  C   UNL     1     131.162 184.347 191.119  1.00  0.00     0.039 C 
ATOM     10  G   UNL     1     133.349 183.126 191.853  1.00  0.00     0.000 G0
ENDBRANCH   6   7
ENDBRANCH   5   6
ENDBRANCH   3   5
ENDBRANCH   1   3
BRANCH   1  11
ATOM     11  C   UNL     1     136.214 183.275 191.520  1.00  0.00     0.087 C 
BRANCH  11  12
ATOM     12  C   UNL     1     135.568 184.580 192.062  1.00  0.00     0.066 C 
BRANCH  12  13
ATOM     13  C   UNL     1     134.132 184.294 192.476  1.00  0.00     0.140 C 
ATOM     14  O   UNL     1     133.562 185.064 193.238  1.00  0.00    -0.299 OA
BRANCH  13  15
ATOM     15  C   UNL     1     133.365 183.143 191.875  1.00  0.00     0.106 CG0
ATOM     16  G   UNL     1     132.437 183.590 190.756  1.00  0.00     0.000 G0
ENDBRANCH  13  15
ENDBRANCH  12  13
BRANCH  12  17
ATOM     17  C   UNL     1     136.369 185.196 193.256  1.00  0.00    -0.006 C 
ATOM     18  C   UNL     1     137.622 184.368 193.606  1.00  0.00     0.008 C 
ATOM     19  C   UNL     1     136.810 186.642 192.952  1.00  0.00     0.008 C 
ENDBRANCH  12  17
ENDBRANCH  11  12
ENDBRANCH   1  11
TORSDOF 1
ENDMDL
MODEL 6
REMARK VINA RESULT:    -3.147      2.983      5.328
REMARK INTER + INTRA:          -5.021
REMARK INTER:                  -5.087
REMARK INTRA:                   0.066
REMARK UNBOUND:                -0.218
REMARK SMILES CC1=CCC[C@H](C)C(=O)C[C@H](C(C)C)C(=O)C1
REMARK SMILES IDX 8 1 9 2 6 3 7 4 5 5 4 6 3 7 2 8 1 9 10 11 11 12 15 13 16 14
REMARK SMILES IDX 17 15 12 17 13 18 14 19
REMARK H PARENT
REMARK Flexibility Score: 70.00
ROOT
ATOM      1  C   UNL     1     133.701 182.291 186.828  1.00  0.00     0.136 C 
ATOM      2  O   UNL     1     133.209 181.177 186.729  1.00  0.00    -0.299 OA
ENDROOT
BRANCH   1   3
ATOM      3  C   UNL     1     132.926 183.481 186.291  1.00  0.00     0.053 C 
ATOM      4  C   UNL     1     132.994 183.539 184.760  1.00  0.00     0.016 C 
BRANCH   3   5
ATOM      5  C   UNL     1     131.466 183.471 186.784  1.00  0.00     0.015 C 
BRANCH   5   6
ATOM      6  C   UNL     1     131.322 184.129 188.168  1.00  0.00     0.028 C 
BRANCH   6   7
ATOM      7  C   UNL     1     130.886 183.125 189.203  1.00  0.00    -0.028 C 
ATOM      8  C   UNL     1     131.638 182.731 190.257  1.00  0.00    -0.070 CG0
ATOM      9  C   UNL     1     131.070 181.683 191.181  1.00  0.00     0.039 C 
ATOM     10  G   UNL     1     133.019 183.301 190.548  1.00  0.00     0.000 G0
ENDBRANCH   6   7
ENDBRANCH   5   6
ENDBRANCH   3   5
ENDBRANCH   1   3
BRANCH   1  11
ATOM     11  C   UNL     1     135.045 182.432 187.510  1.00  0.00     0.087 C 
BRANCH  11  12
ATOM     12  C   UNL     1     134.966 183.311 188.789  1.00  0.00     0.066 C 
BRANCH  12  13
ATOM     13  C   UNL     1     134.127 182.597 189.837  1.00  0.00     0.140 C 
ATOM     14  O   UNL     1     134.414 181.451 190.159  1.00  0.00    -0.299 OA
BRANCH  13  15
ATOM     15  C   UNL     1     133.020 183.317 190.567  1.00  0.00     0.106 CG0
ATOM     16  G   UNL     1     131.650 182.729 190.261  1.00  0.00     0.000 G0
ENDBRANCH  13  15
ENDBRANCH  12  13
BRANCH  12  17
ATOM     17  C   UNL     1     136.378 183.662 189.364  1.00  0.00    -0.006 C 
ATOM     18  C   UNL     1     136.300 184.234 190.793  1.00  0.00     0.008 C 
ATOM     19  C   UNL     1     137.302 182.427 189.383  1.00  0.00     0.008 C 
ENDBRANCH  12  17
ENDBRANCH  11  12
ENDBRANCH   1  11
TORSDOF 1
ENDMDL
MODEL 7
REMARK VINA RESULT:    -3.102      2.561      5.547
REMARK INTER + INTRA:          -4.953
REMARK INTER:                  -4.670
REMARK INTRA:                  -0.283
REMARK UNBOUND:                -0.218
REMARK SMILES CC1=CCC[C@H](C)C(=O)C[C@H](C(C)C)C(=O)C1
REMARK SMILES IDX 8 1 9 2 6 3 7 4 5 5 4 6 3 7 2 8 1 9 10 11 11 12 15 13 16 14
REMARK SMILES IDX 17 15 12 17 13 18 14 19
REMARK H PARENT
REMARK Flexibility Score: 70.00
ROOT
ATOM      1  C   UNL     1     135.735 182.214 190.728  1.00  0.00     0.136 C 
ATOM      2  O   UNL     1     135.888 181.005 190.823  1.00  0.00    -0.299 OA
ENDROOT
BRANCH   1   3
ATOM      3  C   UNL     1     136.237 182.917 189.480  1.00  0.00     0.053 C 
ATOM      4  C   UNL     1     137.768 182.869 189.398  1.00  0.00     0.016 C 
BRANCH   3   5
ATOM      5  C   UNL     1     135.592 182.336 188.208  1.00  0.00     0.015 C 
BRANCH   5   6
ATOM      6  C   UNL     1     134.313 183.095 187.812  1.00  0.00     0.028 C 
BRANCH   6   7
ATOM      7  C   UNL     1     133.083 182.280 188.111  1.00  0.00    -0.028 C 
ATOM      8  C   UNL     1     132.122 182.633 188.996  1.00  0.00    -0.070 CG0
ATOM      9  C   UNL     1     130.972 181.682 189.211  1.00  0.00     0.039 C 
ATOM     10  G   UNL     1     132.151 183.942 189.772  1.00  0.00     0.000 G0
ENDBRANCH   6   7
ENDBRANCH   5   6
ENDBRANCH   3   5
ENDBRANCH   1   3
BRANCH   1  11
ATOM     11  C   UNL     1     135.021 182.944 191.846  1.00  0.00     0.087 C 
BRANCH  11  12
ATOM     12  C   UNL     1     134.241 184.185 191.334  1.00  0.00     0.066 C 
BRANCH  12  13
ATOM     13  C   UNL     1     132.783 183.810 191.121  1.00  0.00     0.140 C 
ATOM     14  O   UNL     1     132.099 183.486 192.083  1.00  0.00    -0.299 OA
BRANCH  13  15
ATOM     15  C   UNL     1     132.138 183.939 189.763  1.00  0.00     0.106 CG0
ATOM     16  G   UNL     1     132.127 182.621 189.002  1.00  0.00     0.000 G0
ENDBRANCH  13  15
ENDBRANCH  12  13
BRANCH  12  17
ATOM     17  C   UNL     1     134.355 185.408 192.303  1.00  0.00    -0.006 C 
ATOM     18  C   UNL     1     134.505 184.973 193.775  1.00  0.00     0.008 C 
ATOM     19  C   UNL     1     135.553 186.308 191.937  1.00  0.00     0.008 C 
ENDBRANCH  12  17
ENDBRANCH  11  12
ENDBRANCH   1  11
TORSDOF 1
ENDMDL
MODEL 8
REMARK VINA RESULT:    -3.079      2.292      4.350
REMARK INTER + INTRA:          -4.917
REMARK INTER:                  -4.869
REMARK INTRA:                  -0.048
REMARK UNBOUND:                -0.218
REMARK SMILES CC1=CCC[C@H](C)C(=O)C[C@H](C(C)C)C(=O)C1
REMARK SMILES IDX 8 1 9 2 6 3 7 4 5 5 4 6 3 7 2 8 1 9 10 11 11 12 15 13 16 14
REMARK SMILES IDX 17 15 12 17 13 18 14 19
REMARK H PARENT
REMARK Flexibility Score: 70.00
ROOT
ATOM      1  C   UNL     1     134.094 184.561 191.202  1.00  0.00     0.136 C 
ATOM      2  O   UNL     1     133.898 185.370 192.097  1.00  0.00    -0.299 OA
ENDROOT
BRANCH   1   3
ATOM      3  C   UNL     1     133.102 183.427 191.014  1.00  0.00     0.053 C 
ATOM      4  C   UNL     1     132.185 183.287 192.236  1.00  0.00     0.016 C 
BRANCH   3   5
ATOM      5  C   UNL     1     132.283 183.605 189.721  1.00  0.00     0.015 C 
BRANCH   5   6
ATOM      6  C   UNL     1     132.804 182.707 188.584  1.00  0.00     0.028 C 
BRANCH   6   7
ATOM      7  C   UNL     1     133.584 181.540 189.127  1.00  0.00    -0.028 C 
ATOM      8  C   UNL     1     134.930 181.416 189.058  1.00  0.00    -0.070 CG0
ATOM      9  C   UNL     1     135.556 180.161 189.613  1.00  0.00     0.039 C 
ATOM     10  G   UNL     1     135.831 182.484 188.454  1.00  0.00     0.000 G0
ENDBRANCH   6   7
ENDBRANCH   5   6
ENDBRANCH   3   5
ENDBRANCH   1   3
BRANCH   1  11
ATOM     11  C   UNL     1     135.299 184.748 190.306  1.00  0.00     0.087 C 
BRANCH  11  12
ATOM     12  C   UNL     1     136.460 183.784 190.671  1.00  0.00     0.066 C 
BRANCH  12  13
ATOM     13  C   UNL     1     136.872 183.001 189.434  1.00  0.00     0.140 C 
ATOM     14  O   UNL     1     138.049 182.707 189.273  1.00  0.00    -0.299 OA
BRANCH  13  15
ATOM     15  C   UNL     1     135.839 182.486 188.462  1.00  0.00     0.106 CG0
ATOM     16  G   UNL     1     134.957 181.409 189.076  1.00  0.00     0.000 G0
ENDBRANCH  13  15
ENDBRANCH  12  13
BRANCH  12  17
ATOM     17  C   UNL     1     137.692 184.531 191.281  1.00  0.00    -0.006 C 
ATOM     18  C   UNL     1     137.820 185.973 190.751  1.00  0.00     0.008 C 
ATOM     19  C   UNL     1     137.615 184.583 192.820  1.00  0.00     0.008 C 
ENDBRANCH  12  17
ENDBRANCH  11  12
ENDBRANCH   1  11
TORSDOF 1
ENDMDL
MODEL 9
REMARK VINA RESULT:    -3.058      1.952      4.016
REMARK INTER + INTRA:          -4.885
REMARK INTER:                  -4.852
REMARK INTRA:                  -0.033
REMARK UNBOUND:                -0.218
REMARK SMILES CC1=CCC[C@H](C)C(=O)C[C@H](C(C)C)C(=O)C1
REMARK SMILES IDX 8 1 9 2 6 3 7 4 5 5 4 6 3 7 2 8 1 9 10 11 11 12 15 13 16 14
REMARK SMILES IDX 17 15 12 17 13 18 14 19
REMARK H PARENT
REMARK Flexibility Score: 70.00
ROOT
ATOM      1  C   UNL     1     136.356 185.525 191.141  1.00  0.00     0.136 C 
ATOM      2  O   UNL     1     137.032 186.476 190.776  1.00  0.00    -0.299 OA
ENDROOT
BRANCH   1   3
ATOM      3  C   UNL     1     136.508 185.026 192.567  1.00  0.00     0.053 C 
ATOM      4  C   UNL     1     137.968 184.670 192.874  1.00  0.00     0.016 C 
BRANCH   3   5
ATOM      5  C   UNL     1     135.958 186.046 193.582  1.00  0.00     0.015 C 
BRANCH   5   6
ATOM      6  C   UNL     1     134.460 185.829 193.861  1.00  0.00     0.028 C 
BRANCH   6   7
ATOM      7  C   UNL     1     134.160 184.375 194.116  1.00  0.00    -0.028 C 
ATOM      8  C   UNL     1     133.448 183.580 193.284  1.00  0.00    -0.070 CG0
ATOM      9  C   UNL     1     133.199 182.154 193.708  1.00  0.00     0.039 C 
ATOM     10  G   UNL     1     132.898 184.058 191.949  1.00  0.00     0.000 G0
ENDBRANCH   6   7
ENDBRANCH   5   6
ENDBRANCH   3   5
ENDBRANCH   1   3
BRANCH   1  11
ATOM     11  C   UNL     1     135.377 184.913 190.162  1.00  0.00     0.087 C 
BRANCH  11  12
ATOM     12  C   UNL     1     135.033 183.440 190.516  1.00  0.00     0.066 C 
BRANCH  12  13
ATOM     13  C   UNL     1     133.540 183.323 190.780  1.00  0.00     0.140 C 
ATOM     14  O   UNL     1     132.867 182.562 190.097  1.00  0.00    -0.299 OA
BRANCH  13  15
ATOM     15  C   UNL     1     132.898 184.041 191.941  1.00  0.00     0.106 CG0
ATOM     16  G   UNL     1     133.459 183.587 193.281  1.00  0.00     0.000 G0
ENDBRANCH  13  15
ENDBRANCH  12  13
BRANCH  12  17
ATOM     17  C   UNL     1     135.472 182.436 189.399  1.00  0.00    -0.006 C 
ATOM     18  C   UNL     1     135.098 182.934 187.988  1.00  0.00     0.008 C 
ATOM     19  C   UNL     1     136.992 182.179 189.438  1.00  0.00     0.008 C 
ENDBRANCH  12  17
ENDBRANCH  11  12
ENDBRANCH   1  11
TORSDOF 1
ENDMDL
