MODEL 1
REMARK VINA RESULT:    14.082      0.000      0.000
REMARK INTER + INTRA:          29.333
REMARK INTER:                  30.546
REMARK INTRA:                  -1.212
REMARK UNBOUND:                -1.212
REMARK SMILES CCCCCCCCCCCCCCCCCCCCCC(=O)[O-]
REMARK SMILES IDX 12 1 11 2 10 3 9 4 8 5 7 6 6 7 5 8 4 9 3 10 2 11 1 12 13 13
REMARK SMILES IDX 14 14 15 15 16 16 17 17 18 18 19 19 20 20 21 21 22 22 23 23
REMARK SMILES IDX 24 24
REMARK H PARENT
REMARK Flexibility Score: inf
ROOT
ATOM      1  C   UNL     1     -32.786  11.878  19.461  1.00  0.00     0.000 C 
ENDROOT
BRANCH   1   2
ATOM      2  C   UNL     1     -33.183  11.622  17.996  1.00  0.00     0.000 C 
BRANCH   2   3
ATOM      3  C   UNL     1     -32.816  12.786  17.065  1.00  0.00     0.000 C 
BRANCH   3   4
ATOM      4  C   UNL     1     -34.071  13.460  16.500  1.00  0.00    -0.000 C 
BRANCH   4   5
ATOM      5  C   UNL     1     -34.574  14.561  17.447  1.00  0.00    -0.000 C 
BRANCH   5   6
ATOM      6  C   UNL     1     -35.047  15.817  16.699  1.00  0.00    -0.000 C 
BRANCH   6   7
ATOM      7  C   UNL     1     -35.257  17.021  17.635  1.00  0.00    -0.000 C 
BRANCH   7   8
ATOM      8  C   UNL     1     -36.500  16.866  18.526  1.00  0.00    -0.000 C 
BRANCH   8   9
ATOM      9  C   UNL     1     -37.649  16.133  17.815  1.00  0.00    -0.000 C 
BRANCH   9  10
ATOM     10  C   UNL     1     -38.551  15.415  18.830  1.00  0.00    -0.000 C 
BRANCH  10  11
ATOM     11  C   UNL     1     -40.027  15.818  18.699  1.00  0.00    -0.003 C 
ATOM     12  C   UNL     1     -40.313  16.614  17.425  1.00  0.00     0.004 C 
ENDBRANCH  10  11
ENDBRANCH   9  10
ENDBRANCH   8   9
ENDBRANCH   7   8
ENDBRANCH   6   7
ENDBRANCH   5   6
ENDBRANCH   4   5
ENDBRANCH   3   4
ENDBRANCH   2   3
ENDBRANCH   1   2
BRANCH   1  13
ATOM     13  C   UNL     1     -33.990  12.105  20.400  1.00  0.00     0.000 C 
BRANCH  13  14
ATOM     14  C   UNL     1     -34.013  11.100  21.564  1.00  0.00     0.000 C 
BRANCH  14  15
ATOM     15  C   UNL     1     -33.656   9.671  21.121  1.00  0.00     0.000 C 
BRANCH  15  16
ATOM     16  C   UNL     1     -34.601   8.613  21.721  1.00  0.00     0.000 C 
BRANCH  16  17
ATOM     17  C   UNL     1     -33.843   7.422  22.344  1.00  0.00     0.000 C 
BRANCH  17  18
ATOM     18  C   UNL     1     -34.760   6.317  22.903  1.00  0.00     0.000 C 
BRANCH  18  19
ATOM     19  C   UNL     1     -35.313   6.575  24.317  1.00  0.00     0.000 C 
BRANCH  19  20
ATOM     20  C   UNL     1     -34.343   7.291  25.276  1.00  0.00     0.006 C 
BRANCH  20  21
ATOM     21  C   UNL     1     -34.963   8.526  25.943  1.00  0.00     0.053 C 
BRANCH  21  22
ATOM     22  C   UNL     1     -33.915   9.557  26.225  1.00  0.00     0.041 C 
ATOM     23  O   UNL     1     -33.013   9.330  27.075  1.00  0.00    -0.550 OA
ATOM     24  O   UNL     1     -33.943  10.778  25.563  1.00  0.00    -0.550 OA
ENDBRANCH  21  22
ENDBRANCH  20  21
ENDBRANCH  19  20
ENDBRANCH  18  19
ENDBRANCH  17  18
ENDBRANCH  16  17
ENDBRANCH  15  16
ENDBRANCH  14  15
ENDBRANCH  13  14
ENDBRANCH   1  13
TORSDOF 20
ENDMDL
MODEL 2
REMARK VINA RESULT:    14.165      0.716      1.014
REMARK INTER + INTRA:          29.515
REMARK INTER:                  30.537
REMARK INTRA:                  -1.022
REMARK UNBOUND:                -1.212
REMARK SMILES CCCCCCCCCCCCCCCCCCCCCC(=O)[O-]
REMARK SMILES IDX 12 1 11 2 10 3 9 4 8 5 7 6 6 7 5 8 4 9 3 10 2 11 1 12 13 13
REMARK SMILES IDX 14 14 15 15 16 16 17 17 18 18 19 19 20 20 21 21 22 22 23 23
REMARK SMILES IDX 24 24
REMARK H PARENT
REMARK Flexibility Score: inf
ROOT
ATOM      1  C   UNL     1     -32.737  12.407  18.713  1.00  0.00     0.000 C 
ENDROOT
BRANCH   1   2
ATOM      2  C   UNL     1     -32.979  12.388  17.193  1.00  0.00     0.000 C 
BRANCH   2   3
ATOM      3  C   UNL     1     -34.280  13.092  16.785  1.00  0.00     0.000 C 
BRANCH   3   4
ATOM      4  C   UNL     1     -34.485  14.383  17.586  1.00  0.00    -0.000 C 
BRANCH   4   5
ATOM      5  C   UNL     1     -35.028  15.504  16.686  1.00  0.00    -0.000 C 
BRANCH   5   6
ATOM      6  C   UNL     1     -34.865  16.899  17.310  1.00  0.00    -0.000 C 
BRANCH   6   7
ATOM      7  C   UNL     1     -35.775  17.113  18.533  1.00  0.00    -0.000 C 
BRANCH   7   8
ATOM      8  C   UNL     1     -37.267  17.011  18.182  1.00  0.00    -0.000 C 
BRANCH   8   9
ATOM      9  C   UNL     1     -37.828  15.595  18.387  1.00  0.00    -0.000 C 
BRANCH   9  10
ATOM     10  C   UNL     1     -39.357  15.627  18.536  1.00  0.00    -0.000 C 
BRANCH  10  11
ATOM     11  C   UNL     1     -39.996  16.828  17.824  1.00  0.00    -0.003 C 
ATOM     12  C   UNL     1     -41.024  16.414  16.771  1.00  0.00     0.004 C 
ENDBRANCH  10  11
ENDBRANCH   9  10
ENDBRANCH   8   9
ENDBRANCH   7   8
ENDBRANCH   6   7
ENDBRANCH   5   6
ENDBRANCH   4   5
ENDBRANCH   3   4
ENDBRANCH   2   3
ENDBRANCH   1   2
BRANCH   1  13
ATOM     13  C   UNL     1     -33.020  11.056  19.403  1.00  0.00     0.000 C 
BRANCH  13  14
ATOM     14  C   UNL     1     -33.897  11.220  20.657  1.00  0.00     0.000 C 
BRANCH  14  15
ATOM     15  C   UNL     1     -34.412   9.877  21.200  1.00  0.00     0.000 C 
BRANCH  15  16
ATOM     16  C   UNL     1     -33.318   8.792  21.227  1.00  0.00     0.000 C 
BRANCH  16  17
ATOM     17  C   UNL     1     -33.441   7.852  22.445  1.00  0.00     0.000 C 
BRANCH  17  18
ATOM     18  C   UNL     1     -34.748   7.036  22.479  1.00  0.00     0.000 C 
BRANCH  18  19
ATOM     19  C   UNL     1     -35.067   6.363  23.826  1.00  0.00     0.000 C 
BRANCH  19  20
ATOM     20  C   UNL     1     -34.386   7.001  25.052  1.00  0.00     0.006 C 
BRANCH  20  21
ATOM     21  C   UNL     1     -35.141   8.224  25.588  1.00  0.00     0.053 C 
BRANCH  21  22
ATOM     22  C   UNL     1     -34.184   9.251  26.109  1.00  0.00     0.041 C 
ATOM     23  O   UNL     1     -33.339   8.942  26.991  1.00  0.00    -0.550 OA
ATOM     24  O   UNL     1     -34.235  10.555  25.633  1.00  0.00    -0.550 OA
ENDBRANCH  21  22
ENDBRANCH  20  21
ENDBRANCH  19  20
ENDBRANCH  18  19
ENDBRANCH  17  18
ENDBRANCH  16  17
ENDBRANCH  15  16
ENDBRANCH  14  15
ENDBRANCH  13  14
ENDBRANCH   1  13
TORSDOF 20
ENDMDL
MODEL 3
REMARK VINA RESULT:    14.248      4.929      7.370
REMARK INTER + INTRA:          29.694
REMARK INTER:                  30.829
REMARK INTRA:                  -1.135
REMARK UNBOUND:                -1.212
REMARK SMILES CCCCCCCCCCCCCCCCCCCCCC(=O)[O-]
REMARK SMILES IDX 12 1 11 2 10 3 9 4 8 5 7 6 6 7 5 8 4 9 3 10 2 11 1 12 13 13
REMARK SMILES IDX 14 14 15 15 16 16 17 17 18 18 19 19 20 20 21 21 22 22 23 23
REMARK SMILES IDX 24 24
REMARK H PARENT
REMARK Flexibility Score: inf
ROOT
ATOM      1  C   UNL     1     -31.383  12.386  18.486  1.00  0.00     0.000 C 
ENDROOT
BRANCH   1   2
ATOM      2  C   UNL     1     -32.918  12.402  18.594  1.00  0.00     0.000 C 
BRANCH   2   3
ATOM      3  C   UNL     1     -33.614  11.947  17.304  1.00  0.00     0.000 C 
BRANCH   3   4
ATOM      4  C   UNL     1     -34.406  13.094  16.667  1.00  0.00    -0.000 C 
BRANCH   4   5
ATOM      5  C   UNL     1     -34.333  14.358  17.538  1.00  0.00    -0.000 C 
BRANCH   5   6
ATOM      6  C   UNL     1     -35.191  15.509  16.988  1.00  0.00    -0.000 C 
BRANCH   6   7
ATOM      7  C   UNL     1     -35.400  16.635  18.015  1.00  0.00    -0.000 C 
BRANCH   7   8
ATOM      8  C   UNL     1     -36.887  16.919  18.284  1.00  0.00    -0.000 C 
BRANCH   8   9
ATOM      9  C   UNL     1     -37.790  15.727  17.929  1.00  0.00    -0.000 C 
BRANCH   9  10
ATOM     10  C   UNL     1     -38.907  15.557  18.969  1.00  0.00    -0.000 C 
BRANCH  10  11
ATOM     11  C   UNL     1     -40.302  15.846  18.393  1.00  0.00    -0.003 C 
ATOM     12  C   UNL     1     -40.277  16.892  17.278  1.00  0.00     0.004 C 
ENDBRANCH  10  11
ENDBRANCH   9  10
ENDBRANCH   8   9
ENDBRANCH   7   8
ENDBRANCH   6   7
ENDBRANCH   5   6
ENDBRANCH   4   5
ENDBRANCH   3   4
ENDBRANCH   2   3
ENDBRANCH   1   2
BRANCH   1  13
ATOM     13  C   UNL     1     -30.856  12.748  17.081  1.00  0.00     0.000 C 
BRANCH  13  14
ATOM     14  C   UNL     1     -29.328  12.926  17.065  1.00  0.00     0.000 C 
BRANCH  14  15
ATOM     15  C   UNL     1     -28.850  13.847  15.930  1.00  0.00     0.000 C 
BRANCH  15  16
ATOM     16  C   UNL     1     -27.962  14.999  16.438  1.00  0.00     0.000 C 
BRANCH  16  17
ATOM     17  C   UNL     1     -27.126  14.605  17.675  1.00  0.00     0.000 C 
BRANCH  17  18
ATOM     18  C   UNL     1     -26.032  15.626  18.043  1.00  0.00     0.000 C 
BRANCH  18  19
ATOM     19  C   UNL     1     -26.355  16.527  19.250  1.00  0.00     0.000 C 
BRANCH  19  20
ATOM     20  C   UNL     1     -26.031  15.915  20.626  1.00  0.00     0.006 C 
BRANCH  20  21
ATOM     21  C   UNL     1     -26.831  16.555  21.769  1.00  0.00     0.053 C 
BRANCH  21  22
ATOM     22  C   UNL     1     -27.745  15.552  22.400  1.00  0.00     0.041 C 
ATOM     23  O   UNL     1     -27.616  14.326  22.145  1.00  0.00    -0.550 OA
ATOM     24  O   UNL     1     -28.754  15.972  23.259  1.00  0.00    -0.550 OA
ENDBRANCH  21  22
ENDBRANCH  20  21
ENDBRANCH  19  20
ENDBRANCH  18  19
ENDBRANCH  17  18
ENDBRANCH  16  17
ENDBRANCH  15  16
ENDBRANCH  14  15
ENDBRANCH  13  14
ENDBRANCH   1  13
TORSDOF 20
ENDMDL
MODEL 4
REMARK VINA RESULT:    14.514      1.818      2.896
REMARK INTER + INTRA:          30.271
REMARK INTER:                  31.198
REMARK INTRA:                  -0.927
REMARK UNBOUND:                -1.212
REMARK SMILES CCCCCCCCCCCCCCCCCCCCCC(=O)[O-]
REMARK SMILES IDX 12 1 11 2 10 3 9 4 8 5 7 6 6 7 5 8 4 9 3 10 2 11 1 12 13 13
REMARK SMILES IDX 14 14 15 15 16 16 17 17 18 18 19 19 20 20 21 21 22 22 23 23
REMARK SMILES IDX 24 24
REMARK H PARENT
REMARK Flexibility Score: inf
ROOT
ATOM      1  C   UNL     1     -33.713  10.749  19.731  1.00  0.00     0.000 C 
ENDROOT
BRANCH   1   2
ATOM      2  C   UNL     1     -32.881  12.016  19.458  1.00  0.00     0.000 C 
BRANCH   2   3
ATOM      3  C   UNL     1     -32.457  12.148  17.989  1.00  0.00     0.000 C 
BRANCH   3   4
ATOM      4  C   UNL     1     -33.678  12.251  17.068  1.00  0.00    -0.000 C 
BRANCH   4   5
ATOM      5  C   UNL     1     -33.824  13.676  16.512  1.00  0.00    -0.000 C 
BRANCH   5   6
ATOM      6  C   UNL     1     -34.746  14.557  17.370  1.00  0.00    -0.000 C 
BRANCH   6   7
ATOM      7  C   UNL     1     -35.081  15.899  16.696  1.00  0.00    -0.000 C 
BRANCH   7   8
ATOM      8  C   UNL     1     -35.177  17.057  17.702  1.00  0.00    -0.000 C 
BRANCH   8   9
ATOM      9  C   UNL     1     -36.610  17.281  18.211  1.00  0.00    -0.000 C 
BRANCH   9  10
ATOM     10  C   UNL     1     -37.493  16.059  17.916  1.00  0.00    -0.000 C 
BRANCH  10  11
ATOM     11  C   UNL     1     -38.771  16.033  18.767  1.00  0.00    -0.003 C 
ATOM     12  C   UNL     1     -39.209  14.615  19.136  1.00  0.00     0.004 C 
ENDBRANCH  10  11
ENDBRANCH   9  10
ENDBRANCH   8   9
ENDBRANCH   7   8
ENDBRANCH   6   7
ENDBRANCH   5   6
ENDBRANCH   4   5
ENDBRANCH   3   4
ENDBRANCH   2   3
ENDBRANCH   1   2
BRANCH   1  13
ATOM     13  C   UNL     1     -34.109  10.575  21.212  1.00  0.00     0.000 C 
BRANCH  13  14
ATOM     14  C   UNL     1     -34.066  11.907  21.983  1.00  0.00     0.000 C 
BRANCH  14  15
ATOM     15  C   UNL     1     -34.757  11.821  23.354  1.00  0.00     0.000 C 
BRANCH  15  16
ATOM     16  C   UNL     1     -33.840  11.231  24.441  1.00  0.00     0.000 C 
BRANCH  16  17
ATOM     17  C   UNL     1     -34.627  10.545  25.577  1.00  0.00     0.000 C 
BRANCH  17  18
ATOM     18  C   UNL     1     -33.762   9.658  26.494  1.00  0.00     0.000 C 
BRANCH  18  19
ATOM     19  C   UNL     1     -33.855   8.145  26.221  1.00  0.00     0.000 C 
BRANCH  19  20
ATOM     20  C   UNL     1     -34.973   7.725  25.248  1.00  0.00     0.006 C 
BRANCH  20  21
ATOM     21  C   UNL     1     -34.707   6.368  24.581  1.00  0.00     0.053 C 
BRANCH  21  22
ATOM     22  C   UNL     1     -34.588   6.523  23.097  1.00  0.00     0.041 C 
ATOM     23  O   UNL     1     -35.119   5.681  22.326  1.00  0.00    -0.550 OA
ATOM     24  O   UNL     1     -33.874   7.589  22.563  1.00  0.00    -0.550 OA
ENDBRANCH  21  22
ENDBRANCH  20  21
ENDBRANCH  19  20
ENDBRANCH  18  19
ENDBRANCH  17  18
ENDBRANCH  16  17
ENDBRANCH  15  16
ENDBRANCH  14  15
ENDBRANCH  13  14
ENDBRANCH   1  13
TORSDOF 20
ENDMDL
MODEL 5
REMARK VINA RESULT:    14.717      3.068      9.612
REMARK INTER + INTRA:          30.712
REMARK INTER:                  31.736
REMARK INTRA:                  -1.024
REMARK UNBOUND:                -1.212
REMARK SMILES CCCCCCCCCCCCCCCCCCCCCC(=O)[O-]
REMARK SMILES IDX 12 1 11 2 10 3 9 4 8 5 7 6 6 7 5 8 4 9 3 10 2 11 1 12 13 13
REMARK SMILES IDX 14 14 15 15 16 16 17 17 18 18 19 19 20 20 21 21 22 22 23 23
REMARK SMILES IDX 24 24
REMARK H PARENT
REMARK Flexibility Score: inf
ROOT
ATOM      1  C   UNL     1     -32.460  11.540  19.586  1.00  0.00     0.000 C 
ENDROOT
BRANCH   1   2
ATOM      2  C   UNL     1     -33.893  11.575  20.147  1.00  0.00     0.000 C 
BRANCH   2   3
ATOM      3  C   UNL     1     -34.445  10.178  20.464  1.00  0.00     0.000 C 
BRANCH   3   4
ATOM      4  C   UNL     1     -33.393   9.314  21.168  1.00  0.00    -0.000 C 
BRANCH   4   5
ATOM      5  C   UNL     1     -33.980   8.650  22.423  1.00  0.00    -0.000 C 
BRANCH   5   6
ATOM      6  C   UNL     1     -34.096   7.123  22.289  1.00  0.00    -0.000 C 
BRANCH   6   7
ATOM      7  C   UNL     1     -34.985   6.498  23.378  1.00  0.00    -0.000 C 
BRANCH   7   8
ATOM      8  C   UNL     1     -34.398   6.667  24.788  1.00  0.00    -0.000 C 
BRANCH   8   9
ATOM      9  C   UNL     1     -34.983   7.877  25.532  1.00  0.00    -0.000 C 
BRANCH   9  10
ATOM     10  C   UNL     1     -34.010   8.382  26.607  1.00  0.00    -0.000 C 
BRANCH  10  11
ATOM     11  C   UNL     1     -33.515   9.810  26.333  1.00  0.00    -0.003 C 
ATOM     12  C   UNL     1     -34.468  10.607  25.443  1.00  0.00     0.004 C 
ENDBRANCH  10  11
ENDBRANCH   9  10
ENDBRANCH   8   9
ENDBRANCH   7   8
ENDBRANCH   6   7
ENDBRANCH   5   6
ENDBRANCH   4   5
ENDBRANCH   3   4
ENDBRANCH   2   3
ENDBRANCH   1   2
BRANCH   1  13
ATOM     13  C   UNL     1     -32.324  12.193  18.194  1.00  0.00     0.000 C 
BRANCH  13  14
ATOM     14  C   UNL     1     -33.627  12.097  17.380  1.00  0.00     0.000 C 
BRANCH  14  15
ATOM     15  C   UNL     1     -33.974  13.410  16.660  1.00  0.00     0.000 C 
BRANCH  15  16
ATOM     16  C   UNL     1     -34.510  14.487  17.622  1.00  0.00     0.000 C 
BRANCH  16  17
ATOM     17  C   UNL     1     -35.037  15.736  16.884  1.00  0.00     0.000 C 
BRANCH  17  18
ATOM     18  C   UNL     1     -34.742  17.064  17.609  1.00  0.00     0.000 C 
BRANCH  18  19
ATOM     19  C   UNL     1     -35.937  17.681  18.360  1.00  0.00     0.000 C 
BRANCH  19  20
ATOM     20  C   UNL     1     -37.309  17.068  18.019  1.00  0.00     0.006 C 
BRANCH  20  21
ATOM     21  C   UNL     1     -37.600  15.780  18.802  1.00  0.00     0.053 C 
BRANCH  21  22
ATOM     22  C   UNL     1     -39.056  15.439  18.736  1.00  0.00     0.041 C 
ATOM     23  O   UNL     1     -39.857  16.190  18.118  1.00  0.00    -0.550 OA
ATOM     24  O   UNL     1     -39.535  14.300  19.372  1.00  0.00    -0.550 OA
ENDBRANCH  21  22
ENDBRANCH  20  21
ENDBRANCH  19  20
ENDBRANCH  18  19
ENDBRANCH  17  18
ENDBRANCH  16  17
ENDBRANCH  15  16
ENDBRANCH  14  15
ENDBRANCH  13  14
ENDBRANCH   1  13
TORSDOF 20
ENDMDL
MODEL 6
REMARK VINA RESULT:    14.742      3.083      9.604
REMARK INTER + INTRA:          30.766
REMARK INTER:                  32.074
REMARK INTRA:                  -1.308
REMARK UNBOUND:                -1.212
REMARK SMILES CCCCCCCCCCCCCCCCCCCCCC(=O)[O-]
REMARK SMILES IDX 12 1 11 2 10 3 9 4 8 5 7 6 6 7 5 8 4 9 3 10 2 11 1 12 13 13
REMARK SMILES IDX 14 14 15 15 16 16 17 17 18 18 19 19 20 20 21 21 22 22 23 23
REMARK SMILES IDX 24 24
REMARK H PARENT
REMARK Flexibility Score: inf
ROOT
ATOM      1  C   UNL     1     -33.178  10.622  19.927  1.00  0.00     0.000 C 
ENDROOT
BRANCH   1   2
ATOM      2  C   UNL     1     -33.994  10.624  21.233  1.00  0.00     0.000 C 
BRANCH   2   3
ATOM      3  C   UNL     1     -34.301  12.039  21.744  1.00  0.00     0.000 C 
BRANCH   3   4
ATOM      4  C   UNL     1     -34.730  12.014  23.215  1.00  0.00    -0.000 C 
BRANCH   4   5
ATOM      5  C   UNL     1     -33.787  11.130  24.045  1.00  0.00    -0.000 C 
BRANCH   5   6
ATOM      6  C   UNL     1     -34.291  10.905  25.480  1.00  0.00    -0.000 C 
BRANCH   6   7
ATOM      7  C   UNL     1     -33.371   9.979  26.294  1.00  0.00    -0.000 C 
BRANCH   7   8
ATOM      8  C   UNL     1     -34.102   8.731  26.814  1.00  0.00    -0.000 C 
BRANCH   8   9
ATOM      9  C   UNL     1     -35.043   8.116  25.766  1.00  0.00    -0.000 C 
BRANCH   9  10
ATOM     10  C   UNL     1     -34.366   6.943  25.043  1.00  0.00    -0.000 C 
BRANCH  10  11
ATOM     11  C   UNL     1     -35.253   6.330  23.949  1.00  0.00    -0.003 C 
ATOM     12  C   UNL     1     -34.636   6.439  22.555  1.00  0.00     0.004 C 
ENDBRANCH  10  11
ENDBRANCH   9  10
ENDBRANCH   8   9
ENDBRANCH   7   8
ENDBRANCH   6   7
ENDBRANCH   5   6
ENDBRANCH   4   5
ENDBRANCH   3   4
ENDBRANCH   2   3
ENDBRANCH   1   2
BRANCH   1  13
ATOM     13  C   UNL     1     -33.090  12.006  19.250  1.00  0.00     0.000 C 
BRANCH  13  14
ATOM     14  C   UNL     1     -33.035  11.896  17.715  1.00  0.00     0.000 C 
BRANCH  14  15
ATOM     15  C   UNL     1     -34.030  12.838  17.017  1.00  0.00     0.000 C 
BRANCH  15  16
ATOM     16  C   UNL     1     -34.159  14.196  17.733  1.00  0.00     0.000 C 
BRANCH  16  17
ATOM     17  C   UNL     1     -34.939  15.236  16.900  1.00  0.00     0.000 C 
BRANCH  17  18
ATOM     18  C   UNL     1     -34.752  16.689  17.377  1.00  0.00     0.000 C 
BRANCH  18  19
ATOM     19  C   UNL     1     -35.936  17.280  18.164  1.00  0.00     0.000 C 
BRANCH  19  20
ATOM     20  C   UNL     1     -37.013  16.261  18.584  1.00  0.00     0.006 C 
BRANCH  20  21
ATOM     21  C   UNL     1     -38.340  16.449  17.836  1.00  0.00     0.053 C 
BRANCH  21  22
ATOM     22  C   UNL     1     -39.452  15.740  18.544  1.00  0.00     0.041 C 
ATOM     23  O   UNL     1     -40.652  16.011  18.275  1.00  0.00    -0.550 OA
ATOM     24  O   UNL     1     -39.164  14.789  19.516  1.00  0.00    -0.550 OA
ENDBRANCH  21  22
ENDBRANCH  20  21
ENDBRANCH  19  20
ENDBRANCH  18  19
ENDBRANCH  17  18
ENDBRANCH  16  17
ENDBRANCH  15  16
ENDBRANCH  14  15
ENDBRANCH  13  14
ENDBRANCH   1  13
TORSDOF 20
ENDMDL
MODEL 7
REMARK VINA RESULT:    14.900      5.240      9.385
REMARK INTER + INTRA:          31.108
REMARK INTER:                  32.496
REMARK INTRA:                  -1.388
REMARK UNBOUND:                -1.212
REMARK SMILES CCCCCCCCCCCCCCCCCCCCCC(=O)[O-]
REMARK SMILES IDX 12 1 11 2 10 3 9 4 8 5 7 6 6 7 5 8 4 9 3 10 2 11 1 12 13 13
REMARK SMILES IDX 14 14 15 15 16 16 17 17 18 18 19 19 20 20 21 21 22 22 23 23
REMARK SMILES IDX 24 24
REMARK H PARENT
REMARK Flexibility Score: inf
ROOT
ATOM      1  C   UNL     1     -31.442  12.679  18.493  1.00  0.00     0.000 C 
ENDROOT
BRANCH   1   2
ATOM      2  C   UNL     1     -30.840  12.752  17.079  1.00  0.00     0.000 C 
BRANCH   2   3
ATOM      3  C   UNL     1     -29.305  12.795  17.083  1.00  0.00     0.000 C 
BRANCH   3   4
ATOM      4  C   UNL     1     -28.773  13.674  15.946  1.00  0.00    -0.000 C 
BRANCH   4   5
ATOM      5  C   UNL     1     -28.019  14.892  16.503  1.00  0.00    -0.000 C 
BRANCH   5   6
ATOM      6  C   UNL     1     -27.410  14.630  17.890  1.00  0.00    -0.000 C 
BRANCH   6   7
ATOM      7  C   UNL     1     -26.094  15.395  18.113  1.00  0.00    -0.000 C 
BRANCH   7   8
ATOM      8  C   UNL     1     -26.212  16.462  19.214  1.00  0.00    -0.000 C 
BRANCH   8   9
ATOM      9  C   UNL     1     -26.156  15.861  20.628  1.00  0.00    -0.000 C 
BRANCH   9  10
ATOM     10  C   UNL     1     -27.022  16.673  21.602  1.00  0.00    -0.000 C 
BRANCH  10  11
ATOM     11  C   UNL     1     -27.866  15.783  22.527  1.00  0.00    -0.003 C 
ATOM     12  C   UNL     1     -27.857  14.314  22.105  1.00  0.00     0.004 C 
ENDBRANCH  10  11
ENDBRANCH   9  10
ENDBRANCH   8   9
ENDBRANCH   7   8
ENDBRANCH   6   7
ENDBRANCH   5   6
ENDBRANCH   4   5
ENDBRANCH   3   4
ENDBRANCH   2   3
ENDBRANCH   1   2
BRANCH   1  13
ATOM     13  C   UNL     1     -32.908  12.197  18.519  1.00  0.00     0.000 C 
BRANCH  13  14
ATOM     14  C   UNL     1     -33.475  11.997  17.102  1.00  0.00     0.000 C 
BRANCH  14  15
ATOM     15  C   UNL     1     -34.661  12.928  16.801  1.00  0.00     0.000 C 
BRANCH  15  16
ATOM     16  C   UNL     1     -34.480  14.331  17.411  1.00  0.00     0.000 C 
BRANCH  16  17
ATOM     17  C   UNL     1     -34.775  15.461  16.402  1.00  0.00     0.000 C 
BRANCH  17  18
ATOM     18  C   UNL     1     -34.834  16.866  17.034  1.00  0.00     0.000 C 
BRANCH  18  19
ATOM     19  C   UNL     1     -35.581  16.950  18.378  1.00  0.00     0.000 C 
BRANCH  19  20
ATOM     20  C   UNL     1     -37.117  16.879  18.276  1.00  0.00     0.006 C 
BRANCH  20  21
ATOM     21  C   UNL     1     -37.665  15.459  18.468  1.00  0.00     0.053 C 
BRANCH  21  22
ATOM     22  C   UNL     1     -39.144  15.488  18.694  1.00  0.00     0.041 C 
ATOM     23  O   UNL     1     -39.859  16.345  18.108  1.00  0.00    -0.550 OA
ATOM     24  O   UNL     1     -39.735  14.581  19.565  1.00  0.00    -0.550 OA
ENDBRANCH  21  22
ENDBRANCH  20  21
ENDBRANCH  19  20
ENDBRANCH  18  19
ENDBRANCH  17  18
ENDBRANCH  16  17
ENDBRANCH  15  16
ENDBRANCH  14  15
ENDBRANCH  13  14
ENDBRANCH   1  13
TORSDOF 20
ENDMDL
MODEL 8
REMARK VINA RESULT:    14.960      1.723      2.493
REMARK INTER + INTRA:          31.240
REMARK INTER:                  31.529
REMARK INTRA:                  -0.289
REMARK UNBOUND:                -1.212
REMARK SMILES CCCCCCCCCCCCCCCCCCCCCC(=O)[O-]
REMARK SMILES IDX 12 1 11 2 10 3 9 4 8 5 7 6 6 7 5 8 4 9 3 10 2 11 1 12 13 13
REMARK SMILES IDX 14 14 15 15 16 16 17 17 18 18 19 19 20 20 21 21 22 22 23 23
REMARK SMILES IDX 24 24
REMARK H PARENT
REMARK Flexibility Score: inf
ROOT
ATOM      1  C   UNL     1     -32.805  12.168  17.537  1.00  0.00     0.000 C 
ENDROOT
BRANCH   1   2
ATOM      2  C   UNL     1     -34.099  12.823  17.019  1.00  0.00     0.000 C 
BRANCH   2   3
ATOM      3  C   UNL     1     -34.323  14.233  17.585  1.00  0.00     0.000 C 
BRANCH   3   4
ATOM      4  C   UNL     1     -35.187  15.076  16.640  1.00  0.00    -0.000 C 
BRANCH   4   5
ATOM      5  C   UNL     1     -34.930  16.575  16.858  1.00  0.00    -0.000 C 
BRANCH   5   6
ATOM      6  C   UNL     1     -35.279  17.038  18.281  1.00  0.00    -0.000 C 
BRANCH   6   7
ATOM      7  C   UNL     1     -36.786  17.281  18.474  1.00  0.00    -0.000 C 
BRANCH   7   8
ATOM      8  C   UNL     1     -37.646  16.165  17.860  1.00  0.00    -0.000 C 
BRANCH   8   9
ATOM      9  C   UNL     1     -38.478  15.412  18.911  1.00  0.00    -0.000 C 
BRANCH   9  10
ATOM     10  C   UNL     1     -39.914  15.955  18.965  1.00  0.00    -0.000 C 
BRANCH  10  11
ATOM     11  C   UNL     1     -40.612  15.918  17.598  1.00  0.00    -0.003 C 
ATOM     12  C   UNL     1     -40.848  17.312  17.015  1.00  0.00     0.004 C 
ENDBRANCH  10  11
ENDBRANCH   9  10
ENDBRANCH   8   9
ENDBRANCH   7   8
ENDBRANCH   6   7
ENDBRANCH   5   6
ENDBRANCH   4   5
ENDBRANCH   3   4
ENDBRANCH   2   3
ENDBRANCH   1   2
BRANCH   1  13
ATOM     13  C   UNL     1     -32.728  12.081  19.076  1.00  0.00     0.000 C 
BRANCH  13  14
ATOM     14  C   UNL     1     -33.069  10.672  19.594  1.00  0.00     0.000 C 
BRANCH  14  15
ATOM     15  C   UNL     1     -34.109  10.692  20.726  1.00  0.00     0.000 C 
BRANCH  15  16
ATOM     16  C   UNL     1     -33.957  11.918  21.646  1.00  0.00     0.000 C 
BRANCH  16  17
ATOM     17  C   UNL     1     -34.667  11.735  23.004  1.00  0.00     0.000 C 
BRANCH  17  18
ATOM     18  C   UNL     1     -33.757  11.180  24.117  1.00  0.00     0.000 C 
BRANCH  18  19
ATOM     19  C   UNL     1     -34.444  10.959  25.478  1.00  0.00     0.000 C 
BRANCH  19  20
ATOM     20  C   UNL     1     -35.058   9.561  25.680  1.00  0.00     0.006 C 
BRANCH  20  21
ATOM     21  C   UNL     1     -34.684   8.932  27.029  1.00  0.00     0.053 C 
BRANCH  21  22
ATOM     22  C   UNL     1     -33.198   8.821  27.167  1.00  0.00     0.041 C 
ATOM     23  O   UNL     1     -32.494   9.855  27.307  1.00  0.00    -0.550 OA
ATOM     24  O   UNL     1     -32.585   7.574  27.123  1.00  0.00    -0.550 OA
ENDBRANCH  21  22
ENDBRANCH  20  21
ENDBRANCH  19  20
ENDBRANCH  18  19
ENDBRANCH  17  18
ENDBRANCH  16  17
ENDBRANCH  15  16
ENDBRANCH  14  15
ENDBRANCH  13  14
ENDBRANCH   1  13
TORSDOF 20
ENDMDL
