MODEL 1
REMARK VINA RESULT:    -4.655      0.000      0.000
REMARK INTER + INTRA:         -13.040
REMARK INTER:                 -11.730
REMARK INTRA:                  -1.310
REMARK UNBOUND:                -1.310
REMARK SMILES CCCCCCCCCCCCCCCCCCCCCCCCCCCC(=O)[O-]
REMARK SMILES IDX 15 1 16 2 17 3 18 4 19 5 20 6 21 7 22 8 23 9 24 10 25 11
REMARK SMILES IDX 26 12 27 13 28 14 29 15 30 16 14 17 13 18 12 19 11 20 10 21
REMARK SMILES IDX 9 22 8 23 7 24 6 25 5 26 4 27 3 28 2 29 1 30
REMARK H PARENT
REMARK Flexibility Score: inf
ROOT
ATOM      1  C   UNL     1    -101.492 -60.391 -66.176  1.00  0.00     0.000 C 
ENDROOT
BRANCH   1   2
ATOM      2  C   UNL     1    -100.957 -59.059 -66.724  1.00  0.00     0.000 C 
BRANCH   2   3
ATOM      3  C   UNL     1     -99.497 -59.197 -67.173  1.00  0.00     0.000 C 
BRANCH   3   4
ATOM      4  C   UNL     1     -98.583 -58.277 -66.355  1.00  0.00     0.000 C 
BRANCH   4   5
ATOM      5  C   UNL     1     -97.137 -58.791 -66.356  1.00  0.00     0.000 C 
BRANCH   5   6
ATOM      6  C   UNL     1     -96.961 -59.929 -65.344  1.00  0.00     0.000 C 
BRANCH   6   7
ATOM      7  C   UNL     1     -96.366 -61.178 -66.010  1.00  0.00     0.000 C 
BRANCH   7   8
ATOM      8  C   UNL     1     -94.917 -60.968 -66.490  1.00  0.00     0.000 C 
BRANCH   8   9
ATOM      9  C   UNL     1     -93.940 -62.113 -66.152  1.00  0.00     0.000 C 
BRANCH   9  10
ATOM     10  C   UNL     1     -92.875 -62.404 -67.226  1.00  0.00     0.000 C 
BRANCH  10  11
ATOM     11  C   UNL     1     -93.461 -63.088 -68.472  1.00  0.00     0.000 C 
BRANCH  11  12
ATOM     12  C   UNL     1     -94.716 -62.381 -69.008  1.00  0.00     0.006 C 
BRANCH  12  13
ATOM     13  C   UNL     1     -95.030 -62.738 -70.468  1.00  0.00     0.053 C 
BRANCH  13  14
ATOM     14  C   UNL     1     -95.177 -61.505 -71.304  1.00  0.00     0.041 C 
ATOM     15  O   UNL     1     -96.283 -60.904 -71.360  1.00  0.00    -0.550 OA
ATOM     16  O   UNL     1     -94.104 -61.041 -72.056  1.00  0.00    -0.550 OA
ENDBRANCH  13  14
ENDBRANCH  12  13
ENDBRANCH  11  12
ENDBRANCH  10  11
ENDBRANCH   9  10
ENDBRANCH   8   9
ENDBRANCH   7   8
ENDBRANCH   6   7
ENDBRANCH   5   6
ENDBRANCH   4   5
ENDBRANCH   3   4
ENDBRANCH   2   3
ENDBRANCH   1   2
BRANCH   1  17
ATOM     17  C   UNL     1    -100.413 -61.208 -65.445  1.00  0.00     0.000 C 
BRANCH  17  18
ATOM     18  C   UNL     1    -100.023 -62.486 -66.208  1.00  0.00     0.000 C 
BRANCH  18  19
ATOM     19  C   UNL     1     -99.928 -62.268 -67.729  1.00  0.00     0.000 C 
BRANCH  19  20
ATOM     20  C   UNL     1    -100.048 -63.544 -68.587  1.00  0.00     0.000 C 
BRANCH  20  21
ATOM     21  C   UNL     1    -101.217 -63.558 -69.589  1.00  0.00     0.000 C 
BRANCH  21  22
ATOM     22  C   UNL     1    -101.547 -64.969 -70.104  1.00  0.00    -0.000 C 
BRANCH  22  23
ATOM     23  C   UNL     1    -102.828 -65.010 -70.958  1.00  0.00    -0.000 C 
BRANCH  23  24
ATOM     24  C   UNL     1    -104.057 -64.326 -70.330  1.00  0.00    -0.000 C 
BRANCH  24  25
ATOM     25  C   UNL     1    -105.337 -64.516 -71.158  1.00  0.00    -0.000 C 
BRANCH  25  26
ATOM     26  C   UNL     1    -105.500 -63.391 -72.188  1.00  0.00    -0.000 C 
BRANCH  26  27
ATOM     27  C   UNL     1    -104.980 -62.059 -71.635  1.00  0.00    -0.000 C 
BRANCH  27  28
ATOM     28  C   UNL     1    -105.935 -60.908 -71.987  1.00  0.00    -0.000 C 
BRANCH  28  29
ATOM     29  C   UNL     1    -106.908 -61.274 -73.117  1.00  0.00    -0.003 C 
ATOM     30  C   UNL     1    -108.352 -60.888 -72.799  1.00  0.00     0.004 C 
ENDBRANCH  28  29
ENDBRANCH  27  28
ENDBRANCH  26  27
ENDBRANCH  25  26
ENDBRANCH  24  25
ENDBRANCH  23  24
ENDBRANCH  22  23
ENDBRANCH  21  22
ENDBRANCH  20  21
ENDBRANCH  19  20
ENDBRANCH  18  19
ENDBRANCH  17  18
ENDBRANCH   1  17
TORSDOF 26
ENDMDL
MODEL 2
REMARK VINA RESULT:    -4.592     16.183     19.241
REMARK INTER + INTRA:         -12.882
REMARK INTER:                  -6.765
REMARK INTRA:                  -6.117
REMARK UNBOUND:                -1.310
REMARK SMILES CCCCCCCCCCCCCCCCCCCCCCCCCCCC(=O)[O-]
REMARK SMILES IDX 15 1 16 2 17 3 18 4 19 5 20 6 21 7 22 8 23 9 24 10 25 11
REMARK SMILES IDX 26 12 27 13 28 14 29 15 30 16 14 17 13 18 12 19 11 20 10 21
REMARK SMILES IDX 9 22 8 23 7 24 6 25 5 26 4 27 3 28 2 29 1 30
REMARK H PARENT
REMARK Flexibility Score: inf
ROOT
ATOM      1  C   UNL     1    -105.991 -50.945 -56.642  1.00  0.00     0.000 C 
ENDROOT
BRANCH   1   2
ATOM      2  C   UNL     1    -105.433 -49.519 -56.513  1.00  0.00     0.000 C 
BRANCH   2   3
ATOM      3  C   UNL     1    -106.561 -48.481 -56.568  1.00  0.00     0.000 C 
BRANCH   3   4
ATOM      4  C   UNL     1    -107.034 -48.110 -55.157  1.00  0.00     0.000 C 
BRANCH   4   5
ATOM      5  C   UNL     1    -108.565 -48.120 -55.066  1.00  0.00     0.000 C 
BRANCH   5   6
ATOM      6  C   UNL     1    -109.172 -49.027 -56.143  1.00  0.00     0.000 C 
BRANCH   6   7
ATOM      7  C   UNL     1    -110.493 -48.452 -56.675  1.00  0.00     0.000 C 
BRANCH   7   8
ATOM      8  C   UNL     1    -110.284 -47.371 -57.753  1.00  0.00     0.000 C 
BRANCH   8   9
ATOM      9  C   UNL     1    -109.179 -47.676 -58.785  1.00  0.00     0.000 C 
BRANCH   9  10
ATOM     10  C   UNL     1    -109.521 -47.306 -60.240  1.00  0.00     0.000 C 
BRANCH  10  11
ATOM     11  C   UNL     1    -108.481 -47.829 -61.245  1.00  0.00     0.000 C 
BRANCH  11  12
ATOM     12  C   UNL     1    -109.105 -48.682 -62.361  1.00  0.00     0.006 C 
BRANCH  12  13
ATOM     13  C   UNL     1    -108.196 -49.831 -62.818  1.00  0.00     0.053 C 
BRANCH  13  14
ATOM     14  C   UNL     1    -108.978 -50.879 -63.548  1.00  0.00     0.041 C 
ATOM     15  O   UNL     1    -108.385 -51.745 -64.244  1.00  0.00    -0.550 OA
ATOM     16  O   UNL     1    -110.368 -50.875 -63.494  1.00  0.00    -0.550 OA
ENDBRANCH  13  14
ENDBRANCH  12  13
ENDBRANCH  11  12
ENDBRANCH  10  11
ENDBRANCH   9  10
ENDBRANCH   8   9
ENDBRANCH   7   8
ENDBRANCH   6   7
ENDBRANCH   5   6
ENDBRANCH   4   5
ENDBRANCH   3   4
ENDBRANCH   2   3
ENDBRANCH   1   2
BRANCH   1  17
ATOM     17  C   UNL     1    -106.010 -51.698 -55.302  1.00  0.00     0.000 C 
BRANCH  17  18
ATOM     18  C   UNL     1    -107.431 -52.092 -54.866  1.00  0.00     0.000 C 
BRANCH  18  19
ATOM     19  C   UNL     1    -107.839 -51.464 -53.521  1.00  0.00     0.000 C 
BRANCH  19  20
ATOM     20  C   UNL     1    -109.358 -51.349 -53.280  1.00  0.00     0.000 C 
BRANCH  20  21
ATOM     21  C   UNL     1    -110.220 -52.418 -53.976  1.00  0.00     0.000 C 
BRANCH  21  22
ATOM     22  C   UNL     1    -111.407 -51.821 -54.749  1.00  0.00    -0.000 C 
BRANCH  22  23
ATOM     23  C   UNL     1    -111.298 -52.031 -56.270  1.00  0.00    -0.000 C 
BRANCH  23  24
ATOM     24  C   UNL     1    -110.601 -53.334 -56.703  1.00  0.00    -0.000 C 
BRANCH  24  25
ATOM     25  C   UNL     1    -109.950 -53.232 -58.092  1.00  0.00    -0.000 C 
BRANCH  25  26
ATOM     26  C   UNL     1    -109.132 -51.941 -58.224  1.00  0.00    -0.000 C 
BRANCH  26  27
ATOM     27  C   UNL     1    -109.379 -51.270 -59.580  1.00  0.00    -0.000 C 
BRANCH  27  28
ATOM     28  C   UNL     1    -110.824 -51.494 -60.049  1.00  0.00    -0.000 C 
BRANCH  28  29
ATOM     29  C   UNL     1    -111.669 -50.212 -59.990  1.00  0.00    -0.003 C 
ATOM     30  C   UNL     1    -112.862 -50.337 -59.042  1.00  0.00     0.004 C 
ENDBRANCH  28  29
ENDBRANCH  27  28
ENDBRANCH  26  27
ENDBRANCH  25  26
ENDBRANCH  24  25
ENDBRANCH  23  24
ENDBRANCH  22  23
ENDBRANCH  21  22
ENDBRANCH  20  21
ENDBRANCH  19  20
ENDBRANCH  18  19
ENDBRANCH  17  18
ENDBRANCH   1  17
TORSDOF 26
ENDMDL
MODEL 3
REMARK VINA RESULT:    -4.519     15.878     19.916
REMARK INTER + INTRA:         -12.698
REMARK INTER:                  -7.424
REMARK INTRA:                  -5.274
REMARK UNBOUND:                -1.310
REMARK SMILES CCCCCCCCCCCCCCCCCCCCCCCCCCCC(=O)[O-]
REMARK SMILES IDX 15 1 16 2 17 3 18 4 19 5 20 6 21 7 22 8 23 9 24 10 25 11
REMARK SMILES IDX 26 12 27 13 28 14 29 15 30 16 14 17 13 18 12 19 11 20 10 21
REMARK SMILES IDX 9 22 8 23 7 24 6 25 5 26 4 27 3 28 2 29 1 30
REMARK H PARENT
REMARK Flexibility Score: inf
ROOT
ATOM      1  C   UNL     1    -109.628 -51.778 -55.618  1.00  0.00     0.000 C 
ENDROOT
BRANCH   1   2
ATOM      2  C   UNL     1    -109.042 -52.334 -56.925  1.00  0.00     0.000 C 
BRANCH   2   3
ATOM      3  C   UNL     1    -109.000 -51.252 -58.011  1.00  0.00     0.000 C 
BRANCH   3   4
ATOM      4  C   UNL     1    -110.339 -51.168 -58.754  1.00  0.00     0.000 C 
BRANCH   4   5
ATOM      5  C   UNL     1    -111.004 -49.802 -58.542  1.00  0.00     0.000 C 
BRANCH   5   6
ATOM      6  C   UNL     1    -110.042 -48.824 -57.859  1.00  0.00     0.000 C 
BRANCH   6   7
ATOM      7  C   UNL     1    -109.687 -47.654 -58.787  1.00  0.00     0.000 C 
BRANCH   7   8
ATOM      8  C   UNL     1    -108.457 -47.941 -59.669  1.00  0.00     0.000 C 
BRANCH   8   9
ATOM      9  C   UNL     1    -108.656 -47.682 -61.177  1.00  0.00     0.000 C 
BRANCH   9  10
ATOM     10  C   UNL     1    -110.076 -47.952 -61.706  1.00  0.00     0.000 C 
BRANCH  10  11
ATOM     11  C   UNL     1    -110.127 -49.123 -62.701  1.00  0.00     0.000 C 
BRANCH  11  12
ATOM     12  C   UNL     1    -109.349 -50.356 -62.213  1.00  0.00     0.006 C 
BRANCH  12  13
ATOM     13  C   UNL     1    -108.798 -51.212 -63.362  1.00  0.00     0.053 C 
BRANCH  13  14
ATOM     14  C   UNL     1    -107.508 -50.655 -63.879  1.00  0.00     0.041 C 
ATOM     15  O   UNL     1    -107.508 -49.640 -64.625  1.00  0.00    -0.550 OA
ATOM     16  O   UNL     1    -106.305 -51.281 -63.569  1.00  0.00    -0.550 OA
ENDBRANCH  13  14
ENDBRANCH  12  13
ENDBRANCH  11  12
ENDBRANCH  10  11
ENDBRANCH   9  10
ENDBRANCH   8   9
ENDBRANCH   7   8
ENDBRANCH   6   7
ENDBRANCH   5   6
ENDBRANCH   4   5
ENDBRANCH   3   4
ENDBRANCH   2   3
ENDBRANCH   1   2
BRANCH   1  17
ATOM     17  C   UNL     1    -108.623 -51.814 -54.455  1.00  0.00     0.000 C 
BRANCH  17  18
ATOM     18  C   UNL     1    -107.371 -52.647 -54.782  1.00  0.00     0.000 C 
BRANCH  18  19
ATOM     19  C   UNL     1    -106.072 -51.997 -54.273  1.00  0.00     0.000 C 
BRANCH  19  20
ATOM     20  C   UNL     1    -105.035 -51.655 -55.363  1.00  0.00     0.000 C 
BRANCH  20  21
ATOM     21  C   UNL     1    -105.598 -50.954 -56.613  1.00  0.00     0.000 C 
BRANCH  21  22
ATOM     22  C   UNL     1    -105.570 -49.421 -56.504  1.00  0.00    -0.000 C 
BRANCH  22  23
ATOM     23  C   UNL     1    -106.964 -48.812 -56.266  1.00  0.00    -0.000 C 
BRANCH  23  24
ATOM     24  C   UNL     1    -107.062 -47.845 -55.071  1.00  0.00    -0.000 C 
BRANCH  24  25
ATOM     25  C   UNL     1    -107.486 -48.541 -53.769  1.00  0.00    -0.000 C 
BRANCH  25  26
ATOM     26  C   UNL     1    -108.802 -47.961 -53.236  1.00  0.00    -0.000 C 
BRANCH  26  27
ATOM     27  C   UNL     1    -109.351 -46.885 -54.179  1.00  0.00    -0.000 C 
BRANCH  27  28
ATOM     28  C   UNL     1    -110.736 -47.279 -54.714  1.00  0.00    -0.000 C 
BRANCH  28  29
ATOM     29  C   UNL     1    -111.170 -48.678 -54.253  1.00  0.00    -0.003 C 
ATOM     30  C   UNL     1    -112.341 -49.229 -55.067  1.00  0.00     0.004 C 
ENDBRANCH  28  29
ENDBRANCH  27  28
ENDBRANCH  26  27
ENDBRANCH  25  26
ENDBRANCH  24  25
ENDBRANCH  23  24
ENDBRANCH  22  23
ENDBRANCH  21  22
ENDBRANCH  20  21
ENDBRANCH  19  20
ENDBRANCH  18  19
ENDBRANCH  17  18
ENDBRANCH   1  17
TORSDOF 26
ENDMDL
MODEL 4
REMARK VINA RESULT:    -4.395     15.837     18.476
REMARK INTER + INTRA:         -12.386
REMARK INTER:                  -8.430
REMARK INTRA:                  -3.955
REMARK UNBOUND:                -1.310
REMARK SMILES CCCCCCCCCCCCCCCCCCCCCCCCCCCC(=O)[O-]
REMARK SMILES IDX 15 1 16 2 17 3 18 4 19 5 20 6 21 7 22 8 23 9 24 10 25 11
REMARK SMILES IDX 26 12 27 13 28 14 29 15 30 16 14 17 13 18 12 19 11 20 10 21
REMARK SMILES IDX 9 22 8 23 7 24 6 25 5 26 4 27 3 28 2 29 1 30
REMARK H PARENT
REMARK Flexibility Score: inf
ROOT
ATOM      1  C   UNL     1    -106.988 -48.434 -55.160  1.00  0.00     0.000 C 
ENDROOT
BRANCH   1   2
ATOM      2  C   UNL     1    -106.467 -48.644 -56.590  1.00  0.00     0.000 C 
BRANCH   2   3
ATOM      3  C   UNL     1    -105.252 -49.579 -56.600  1.00  0.00     0.000 C 
BRANCH   3   4
ATOM      4  C   UNL     1    -105.662 -51.015 -56.254  1.00  0.00     0.000 C 
BRANCH   4   5
ATOM      5  C   UNL     1    -104.591 -51.706 -55.399  1.00  0.00     0.000 C 
BRANCH   5   6
ATOM      6  C   UNL     1    -105.235 -52.572 -54.311  1.00  0.00     0.000 C 
BRANCH   6   7
ATOM      7  C   UNL     1    -106.766 -52.455 -54.341  1.00  0.00     0.000 C 
BRANCH   7   8
ATOM      8  C   UNL     1    -107.475 -53.812 -54.165  1.00  0.00     0.000 C 
BRANCH   8   9
ATOM      9  C   UNL     1    -106.607 -54.932 -53.554  1.00  0.00     0.000 C 
BRANCH   9  10
ATOM     10  C   UNL     1    -106.555 -56.237 -54.369  1.00  0.00     0.000 C 
BRANCH  10  11
ATOM     11  C   UNL     1    -105.118 -56.726 -54.616  1.00  0.00     0.000 C 
BRANCH  11  12
ATOM     12  C   UNL     1    -104.089 -56.044 -53.701  1.00  0.00     0.006 C 
BRANCH  12  13
ATOM     13  C   UNL     1    -102.991 -55.304 -54.477  1.00  0.00     0.053 C 
BRANCH  13  14
ATOM     14  C   UNL     1    -101.630 -55.749 -54.039  1.00  0.00     0.041 C 
ATOM     15  O   UNL     1    -101.092 -55.238 -53.021  1.00  0.00    -0.550 OA
ATOM     16  O   UNL     1    -100.935 -56.699 -54.780  1.00  0.00    -0.550 OA
ENDBRANCH  13  14
ENDBRANCH  12  13
ENDBRANCH  11  12
ENDBRANCH  10  11
ENDBRANCH   9  10
ENDBRANCH   8   9
ENDBRANCH   7   8
ENDBRANCH   6   7
ENDBRANCH   5   6
ENDBRANCH   4   5
ENDBRANCH   3   4
ENDBRANCH   2   3
ENDBRANCH   1   2
BRANCH   1  17
ATOM     17  C   UNL     1    -108.442 -47.935 -55.124  1.00  0.00     0.000 C 
BRANCH  17  18
ATOM     18  C   UNL     1    -109.281 -48.639 -54.044  1.00  0.00     0.000 C 
BRANCH  18  19
ATOM     19  C   UNL     1    -109.597 -50.103 -54.395  1.00  0.00     0.000 C 
BRANCH  19  20
ATOM     20  C   UNL     1    -110.175 -50.334 -55.807  1.00  0.00     0.000 C 
BRANCH  20  21
ATOM     21  C   UNL     1    -109.481 -51.431 -56.634  1.00  0.00     0.000 C 
BRANCH  21  22
ATOM     22  C   UNL     1    -109.024 -50.940 -58.017  1.00  0.00    -0.000 C 
BRANCH  22  23
ATOM     23  C   UNL     1    -109.659 -49.595 -58.415  1.00  0.00    -0.000 C 
BRANCH  23  24
ATOM     24  C   UNL     1    -108.664 -48.508 -58.863  1.00  0.00    -0.000 C 
BRANCH  24  25
ATOM     25  C   UNL     1    -109.356 -47.225 -59.349  1.00  0.00    -0.000 C 
BRANCH  25  26
ATOM     26  C   UNL     1    -109.680 -47.306 -60.846  1.00  0.00    -0.000 C 
BRANCH  26  27
ATOM     27  C   UNL     1    -108.598 -48.085 -61.601  1.00  0.00    -0.000 C 
BRANCH  27  28
ATOM     28  C   UNL     1    -109.090 -48.495 -62.997  1.00  0.00    -0.000 C 
BRANCH  28  29
ATOM     29  C   UNL     1    -108.902 -49.995 -63.272  1.00  0.00    -0.003 C 
ATOM     30  C   UNL     1    -109.203 -50.860 -62.048  1.00  0.00     0.004 C 
ENDBRANCH  28  29
ENDBRANCH  27  28
ENDBRANCH  26  27
ENDBRANCH  25  26
ENDBRANCH  24  25
ENDBRANCH  23  24
ENDBRANCH  22  23
ENDBRANCH  21  22
ENDBRANCH  20  21
ENDBRANCH  19  20
ENDBRANCH  18  19
ENDBRANCH  17  18
ENDBRANCH   1  17
TORSDOF 26
ENDMDL
MODEL 5
REMARK VINA RESULT:    -4.388     16.779     19.006
REMARK INTER + INTRA:         -12.368
REMARK INTER:                  -6.666
REMARK INTRA:                  -5.702
REMARK UNBOUND:                -1.310
REMARK SMILES CCCCCCCCCCCCCCCCCCCCCCCCCCCC(=O)[O-]
REMARK SMILES IDX 15 1 16 2 17 3 18 4 19 5 20 6 21 7 22 8 23 9 24 10 25 11
REMARK SMILES IDX 26 12 27 13 28 14 29 15 30 16 14 17 13 18 12 19 11 20 10 21
REMARK SMILES IDX 9 22 8 23 7 24 6 25 5 26 4 27 3 28 2 29 1 30
REMARK H PARENT
REMARK Flexibility Score: inf
ROOT
ATOM      1  C   UNL     1    -105.259 -50.884 -56.266  1.00  0.00     0.000 C 
ENDROOT
BRANCH   1   2
ATOM      2  C   UNL     1    -106.586 -50.156 -56.531  1.00  0.00     0.000 C 
BRANCH   2   3
ATOM      3  C   UNL     1    -106.448 -48.651 -56.267  1.00  0.00     0.000 C 
BRANCH   3   4
ATOM      4  C   UNL     1    -107.688 -48.105 -55.549  1.00  0.00     0.000 C 
BRANCH   4   5
ATOM      5  C   UNL     1    -108.718 -49.214 -55.302  1.00  0.00     0.000 C 
BRANCH   5   6
ATOM      6  C   UNL     1    -110.139 -48.713 -55.583  1.00  0.00     0.000 C 
BRANCH   6   7
ATOM      7  C   UNL     1    -110.121 -47.315 -56.217  1.00  0.00     0.000 C 
BRANCH   7   8
ATOM      8  C   UNL     1    -110.712 -47.294 -57.639  1.00  0.00     0.000 C 
BRANCH   8   9
ATOM      9  C   UNL     1    -109.709 -46.956 -58.762  1.00  0.00     0.000 C 
BRANCH   9  10
ATOM     10  C   UNL     1    -108.740 -48.092 -59.138  1.00  0.00     0.000 C 
BRANCH  10  11
ATOM     11  C   UNL     1    -109.439 -49.457 -59.244  1.00  0.00     0.000 C 
BRANCH  11  12
ATOM     12  C   UNL     1    -110.161 -49.657 -60.587  1.00  0.00     0.006 C 
BRANCH  12  13
ATOM     13  C   UNL     1    -109.355 -50.504 -61.581  1.00  0.00     0.053 C 
BRANCH  13  14
ATOM     14  C   UNL     1    -108.691 -49.642 -62.610  1.00  0.00     0.041 C 
ATOM     15  O   UNL     1    -107.918 -50.153 -63.463  1.00  0.00    -0.550 OA
ATOM     16  O   UNL     1    -108.894 -48.266 -62.602  1.00  0.00    -0.550 OA
ENDBRANCH  13  14
ENDBRANCH  12  13
ENDBRANCH  11  12
ENDBRANCH  10  11
ENDBRANCH   9  10
ENDBRANCH   8   9
ENDBRANCH   7   8
ENDBRANCH   6   7
ENDBRANCH   5   6
ENDBRANCH   4   5
ENDBRANCH   3   4
ENDBRANCH   2   3
ENDBRANCH   1   2
BRANCH   1  17
ATOM     17  C   UNL     1    -105.380 -51.961 -55.176  1.00  0.00     0.000 C 
BRANCH  17  18
ATOM     18  C   UNL     1    -106.540 -51.689 -54.204  1.00  0.00     0.000 C 
BRANCH  18  19
ATOM     19  C   UNL     1    -107.319 -52.963 -53.832  1.00  0.00     0.000 C 
BRANCH  19  20
ATOM     20  C   UNL     1    -108.302 -53.472 -54.907  1.00  0.00     0.000 C 
BRANCH  20  21
ATOM     21  C   UNL     1    -109.692 -52.810 -54.898  1.00  0.00     0.000 C 
BRANCH  21  22
ATOM     22  C   UNL     1    -110.171 -52.406 -56.302  1.00  0.00    -0.000 C 
BRANCH  22  23
ATOM     23  C   UNL     1    -109.074 -52.547 -57.373  1.00  0.00    -0.000 C 
BRANCH  23  24
ATOM     24  C   UNL     1    -109.548 -53.111 -58.726  1.00  0.00    -0.000 C 
BRANCH  24  25
ATOM     25  C   UNL     1    -111.070 -53.015 -58.916  1.00  0.00    -0.000 C 
BRANCH  25  26
ATOM     26  C   UNL     1    -111.647 -54.343 -59.422  1.00  0.00    -0.000 C 
BRANCH  26  27
ATOM     27  C   UNL     1    -111.056 -55.529 -58.653  1.00  0.00    -0.000 C 
BRANCH  27  28
ATOM     28  C   UNL     1    -111.727 -55.684 -57.280  1.00  0.00    -0.000 C 
BRANCH  28  29
ATOM     29  C   UNL     1    -110.749 -56.157 -56.195  1.00  0.00    -0.003 C 
ATOM     30  C   UNL     1    -109.367 -56.494 -56.754  1.00  0.00     0.004 C 
ENDBRANCH  28  29
ENDBRANCH  27  28
ENDBRANCH  26  27
ENDBRANCH  25  26
ENDBRANCH  24  25
ENDBRANCH  23  24
ENDBRANCH  22  23
ENDBRANCH  21  22
ENDBRANCH  20  21
ENDBRANCH  19  20
ENDBRANCH  18  19
ENDBRANCH  17  18
ENDBRANCH   1  17
TORSDOF 26
ENDMDL
MODEL 6
REMARK VINA RESULT:    -4.383     16.054     19.482
REMARK INTER + INTRA:         -12.354
REMARK INTER:                  -6.917
REMARK INTRA:                  -5.436
REMARK UNBOUND:                -1.310
REMARK SMILES CCCCCCCCCCCCCCCCCCCCCCCCCCCC(=O)[O-]
REMARK SMILES IDX 15 1 16 2 17 3 18 4 19 5 20 6 21 7 22 8 23 9 24 10 25 11
REMARK SMILES IDX 26 12 27 13 28 14 29 15 30 16 14 17 13 18 12 19 11 20 10 21
REMARK SMILES IDX 9 22 8 23 7 24 6 25 5 26 4 27 3 28 2 29 1 30
REMARK H PARENT
REMARK Flexibility Score: inf
ROOT
ATOM      1  C   UNL     1    -108.619 -48.131 -59.250  1.00  0.00     0.000 C 
ENDROOT
BRANCH   1   2
ATOM      2  C   UNL     1    -108.627 -47.530 -60.664  1.00  0.00     0.000 C 
BRANCH   2   3
ATOM      3  C   UNL     1    -109.913 -46.732 -60.914  1.00  0.00     0.000 C 
BRANCH   3   4
ATOM      4  C   UNL     1    -110.588 -47.175 -62.217  1.00  0.00     0.000 C 
BRANCH   4   5
ATOM      5  C   UNL     1    -111.790 -48.086 -61.936  1.00  0.00     0.000 C 
BRANCH   5   6
ATOM      6  C   UNL     1    -111.557 -49.490 -62.506  1.00  0.00     0.000 C 
BRANCH   6   7
ATOM      7  C   UNL     1    -111.136 -50.474 -61.405  1.00  0.00     0.000 C 
BRANCH   7   8
ATOM      8  C   UNL     1    -109.662 -50.907 -61.519  1.00  0.00     0.000 C 
BRANCH   8   9
ATOM      9  C   UNL     1    -109.207 -51.322 -62.934  1.00  0.00     0.000 C 
BRANCH   9  10
ATOM     10  C   UNL     1    -107.876 -50.704 -63.400  1.00  0.00     0.000 C 
BRANCH  10  11
ATOM     11  C   UNL     1    -108.017 -49.228 -63.809  1.00  0.00     0.000 C 
BRANCH  11  12
ATOM     12  C   UNL     1    -108.281 -49.046 -65.312  1.00  0.00     0.006 C 
BRANCH  12  13
ATOM     13  C   UNL     1    -109.742 -48.698 -65.628  1.00  0.00     0.053 C 
BRANCH  13  14
ATOM     14  C   UNL     1    -109.848 -47.344 -66.259  1.00  0.00     0.041 C 
ATOM     15  O   UNL     1    -109.418 -46.326 -65.654  1.00  0.00    -0.550 OA
ATOM     16  O   UNL     1    -110.459 -47.200 -67.500  1.00  0.00    -0.550 OA
ENDBRANCH  13  14
ENDBRANCH  12  13
ENDBRANCH  11  12
ENDBRANCH  10  11
ENDBRANCH   9  10
ENDBRANCH   8   9
ENDBRANCH   7   8
ENDBRANCH   6   7
ENDBRANCH   5   6
ENDBRANCH   4   5
ENDBRANCH   3   4
ENDBRANCH   2   3
ENDBRANCH   1   2
BRANCH   1  17
ATOM     17  C   UNL     1    -110.022 -48.192 -58.623  1.00  0.00     0.000 C 
BRANCH  17  18
ATOM     18  C   UNL     1    -110.080 -47.521 -57.239  1.00  0.00     0.000 C 
BRANCH  18  19
ATOM     19  C   UNL     1    -110.562 -48.476 -56.133  1.00  0.00     0.000 C 
BRANCH  19  20
ATOM     20  C   UNL     1    -109.647 -48.565 -54.894  1.00  0.00     0.000 C 
BRANCH  20  21
ATOM     21  C   UNL     1    -108.566 -47.475 -54.791  1.00  0.00     0.000 C 
BRANCH  21  22
ATOM     22  C   UNL     1    -107.138 -48.044 -54.795  1.00  0.00    -0.000 C 
BRANCH  22  23
ATOM     23  C   UNL     1    -106.659 -48.450 -56.200  1.00  0.00    -0.000 C 
BRANCH  23  24
ATOM     24  C   UNL     1    -106.130 -49.891 -56.323  1.00  0.00    -0.000 C 
BRANCH  24  25
ATOM     25  C   UNL     1    -107.128 -50.840 -57.005  1.00  0.00    -0.000 C 
BRANCH  25  26
ATOM     26  C   UNL     1    -107.884 -51.682 -55.969  1.00  0.00    -0.000 C 
BRANCH  26  27
ATOM     27  C   UNL     1    -109.340 -51.903 -56.397  1.00  0.00    -0.000 C 
BRANCH  27  28
ATOM     28  C   UNL     1    -109.488 -51.791 -57.921  1.00  0.00    -0.000 C 
BRANCH  28  29
ATOM     29  C   UNL     1    -109.485 -53.161 -58.616  1.00  0.00    -0.003 C 
ATOM     30  C   UNL     1    -110.890 -53.641 -58.977  1.00  0.00     0.004 C 
ENDBRANCH  28  29
ENDBRANCH  27  28
ENDBRANCH  26  27
ENDBRANCH  25  26
ENDBRANCH  24  25
ENDBRANCH  23  24
ENDBRANCH  22  23
ENDBRANCH  21  22
ENDBRANCH  20  21
ENDBRANCH  19  20
ENDBRANCH  18  19
ENDBRANCH  17  18
ENDBRANCH   1  17
TORSDOF 26
ENDMDL
MODEL 7
REMARK VINA RESULT:    -4.371     15.502     19.520
REMARK INTER + INTRA:         -12.324
REMARK INTER:                  -6.897
REMARK INTRA:                  -5.427
REMARK UNBOUND:                -1.310
REMARK SMILES CCCCCCCCCCCCCCCCCCCCCCCCCCCC(=O)[O-]
REMARK SMILES IDX 15 1 16 2 17 3 18 4 19 5 20 6 21 7 22 8 23 9 24 10 25 11
REMARK SMILES IDX 26 12 27 13 28 14 29 15 30 16 14 17 13 18 12 19 11 20 10 21
REMARK SMILES IDX 9 22 8 23 7 24 6 25 5 26 4 27 3 28 2 29 1 30
REMARK H PARENT
REMARK Flexibility Score: inf
ROOT
ATOM      1  C   UNL     1    -109.141 -51.390 -58.466  1.00  0.00     0.000 C 
ENDROOT
BRANCH   1   2
ATOM      2  C   UNL     1    -110.646 -51.081 -58.484  1.00  0.00     0.000 C 
BRANCH   2   3
ATOM      3  C   UNL     1    -110.963 -49.853 -57.623  1.00  0.00     0.000 C 
BRANCH   3   4
ATOM      4  C   UNL     1    -112.133 -49.056 -58.213  1.00  0.00     0.000 C 
BRANCH   4   5
ATOM      5  C   UNL     1    -111.754 -47.583 -58.413  1.00  0.00     0.000 C 
BRANCH   5   6
ATOM      6  C   UNL     1    -110.272 -47.351 -58.098  1.00  0.00     0.000 C 
BRANCH   6   7
ATOM      7  C   UNL     1    -109.520 -46.816 -59.325  1.00  0.00     0.000 C 
BRANCH   7   8
ATOM      8  C   UNL     1    -108.598 -47.869 -59.969  1.00  0.00     0.000 C 
BRANCH   8   9
ATOM      9  C   UNL     1    -108.991 -48.303 -61.396  1.00  0.00     0.000 C 
BRANCH   9  10
ATOM     10  C   UNL     1    -110.315 -49.083 -61.502  1.00  0.00     0.000 C 
BRANCH  10  11
ATOM     11  C   UNL     1    -110.134 -50.477 -62.126  1.00  0.00     0.000 C 
BRANCH  11  12
ATOM     12  C   UNL     1    -108.709 -50.718 -62.648  1.00  0.00     0.006 C 
BRANCH  12  13
ATOM     13  C   UNL     1    -108.650 -50.903 -64.171  1.00  0.00     0.053 C 
BRANCH  13  14
ATOM     14  C   UNL     1    -107.240 -51.097 -64.635  1.00  0.00     0.041 C 
ATOM     15  O   UNL     1    -106.394 -51.651 -63.884  1.00  0.00    -0.550 OA
ATOM     16  O   UNL     1    -106.847 -50.629 -65.885  1.00  0.00    -0.550 OA
ENDBRANCH  13  14
ENDBRANCH  12  13
ENDBRANCH  11  12
ENDBRANCH  10  11
ENDBRANCH   9  10
ENDBRANCH   8   9
ENDBRANCH   7   8
ENDBRANCH   6   7
ENDBRANCH   5   6
ENDBRANCH   4   5
ENDBRANCH   3   4
ENDBRANCH   2   3
ENDBRANCH   1   2
BRANCH   1  17
ATOM     17  C   UNL     1    -108.356 -50.468 -57.518  1.00  0.00     0.000 C 
BRANCH  17  18
ATOM     18  C   UNL     1    -107.082 -51.133 -56.969  1.00  0.00     0.000 C 
BRANCH  18  19
ATOM     19  C   UNL     1    -106.062 -50.115 -56.430  1.00  0.00     0.000 C 
BRANCH  19  20
ATOM     20  C   UNL     1    -106.526 -48.644 -56.449  1.00  0.00     0.000 C 
BRANCH  20  21
ATOM     21  C   UNL     1    -107.037 -48.095 -55.104  1.00  0.00     0.000 C 
BRANCH  21  22
ATOM     22  C   UNL     1    -108.557 -47.863 -55.090  1.00  0.00    -0.000 C 
BRANCH  22  23
ATOM     23  C   UNL     1    -109.298 -48.809 -54.127  1.00  0.00    -0.000 C 
BRANCH  23  24
ATOM     24  C   UNL     1    -108.407 -49.829 -53.395  1.00  0.00    -0.000 C 
BRANCH  24  25
ATOM     25  C   UNL     1    -109.080 -51.200 -53.225  1.00  0.00    -0.000 C 
BRANCH  25  26
ATOM     26  C   UNL     1    -109.607 -51.726 -54.566  1.00  0.00    -0.000 C 
BRANCH  26  27
ATOM     27  C   UNL     1    -110.595 -52.878 -54.355  1.00  0.00    -0.000 C 
BRANCH  27  28
ATOM     28  C   UNL     1    -111.007 -53.502 -55.697  1.00  0.00    -0.000 C 
BRANCH  28  29
ATOM     29  C   UNL     1    -109.860 -54.276 -56.364  1.00  0.00    -0.003 C 
ATOM     30  C   UNL     1    -110.260 -54.877 -57.711  1.00  0.00     0.004 C 
ENDBRANCH  28  29
ENDBRANCH  27  28
ENDBRANCH  26  27
ENDBRANCH  25  26
ENDBRANCH  24  25
ENDBRANCH  23  24
ENDBRANCH  22  23
ENDBRANCH  21  22
ENDBRANCH  20  21
ENDBRANCH  19  20
ENDBRANCH  18  19
ENDBRANCH  17  18
ENDBRANCH   1  17
TORSDOF 26
ENDMDL
MODEL 8
REMARK VINA RESULT:    -4.362     15.863     19.426
REMARK INTER + INTRA:         -12.300
REMARK INTER:                  -7.061
REMARK INTRA:                  -5.240
REMARK UNBOUND:                -1.310
REMARK SMILES CCCCCCCCCCCCCCCCCCCCCCCCCCCC(=O)[O-]
REMARK SMILES IDX 15 1 16 2 17 3 18 4 19 5 20 6 21 7 22 8 23 9 24 10 25 11
REMARK SMILES IDX 26 12 27 13 28 14 29 15 30 16 14 17 13 18 12 19 11 20 10 21
REMARK SMILES IDX 9 22 8 23 7 24 6 25 5 26 4 27 3 28 2 29 1 30
REMARK H PARENT
REMARK Flexibility Score: inf
ROOT
ATOM      1  C   UNL     1    -107.174 -49.717 -56.525  1.00  0.00     0.000 C 
ENDROOT
BRANCH   1   2
ATOM      2  C   UNL     1    -106.057 -50.770 -56.590  1.00  0.00     0.000 C 
BRANCH   2   3
ATOM      3  C   UNL     1    -106.170 -51.762 -55.426  1.00  0.00     0.000 C 
BRANCH   3   4
ATOM      4  C   UNL     1    -107.518 -51.617 -54.710  1.00  0.00     0.000 C 
BRANCH   4   5
ATOM      5  C   UNL     1    -108.481 -52.741 -55.111  1.00  0.00     0.000 C 
BRANCH   5   6
ATOM      6  C   UNL     1    -109.798 -52.168 -55.648  1.00  0.00     0.000 C 
BRANCH   6   7
ATOM      7  C   UNL     1    -110.353 -53.029 -56.792  1.00  0.00     0.000 C 
BRANCH   7   8
ATOM      8  C   UNL     1    -109.378 -53.151 -57.978  1.00  0.00     0.000 C 
BRANCH   8   9
ATOM      9  C   UNL     1    -109.197 -51.867 -58.815  1.00  0.00     0.000 C 
BRANCH   9  10
ATOM     10  C   UNL     1    -110.193 -51.698 -59.976  1.00  0.00     0.000 C 
BRANCH  10  11
ATOM     11  C   UNL     1    -109.591 -50.932 -61.167  1.00  0.00     0.000 C 
BRANCH  11  12
ATOM     12  C   UNL     1    -110.350 -51.177 -62.481  1.00  0.00     0.006 C 
BRANCH  12  13
ATOM     13  C   UNL     1    -109.419 -51.458 -63.669  1.00  0.00     0.053 C 
BRANCH  13  14
ATOM     14  C   UNL     1    -108.259 -50.511 -63.679  1.00  0.00     0.041 C 
ATOM     15  O   UNL     1    -108.429 -49.300 -63.983  1.00  0.00    -0.550 OA
ATOM     16  O   UNL     1    -106.979 -50.974 -63.391  1.00  0.00    -0.550 OA
ENDBRANCH  13  14
ENDBRANCH  12  13
ENDBRANCH  11  12
ENDBRANCH  10  11
ENDBRANCH   9  10
ENDBRANCH   8   9
ENDBRANCH   7   8
ENDBRANCH   6   7
ENDBRANCH   5   6
ENDBRANCH   4   5
ENDBRANCH   3   4
ENDBRANCH   2   3
ENDBRANCH   1   2
BRANCH   1  17
ATOM     17  C   UNL     1    -106.649 -48.317 -56.163  1.00  0.00     0.000 C 
BRANCH  17  18
ATOM     18  C   UNL     1    -107.127 -47.849 -54.777  1.00  0.00     0.000 C 
BRANCH  18  19
ATOM     19  C   UNL     1    -108.620 -47.476 -54.756  1.00  0.00     0.000 C 
BRANCH  19  20
ATOM     20  C   UNL     1    -109.525 -48.423 -53.942  1.00  0.00     0.000 C 
BRANCH  20  21
ATOM     21  C   UNL     1    -110.862 -48.794 -54.609  1.00  0.00     0.000 C 
BRANCH  21  22
ATOM     22  C   UNL     1    -111.064 -48.107 -55.969  1.00  0.00    -0.000 C 
BRANCH  22  23
ATOM     23  C   UNL     1    -111.072 -49.099 -57.146  1.00  0.00    -0.000 C 
BRANCH  23  24
ATOM     24  C   UNL     1    -110.942 -48.461 -58.542  1.00  0.00    -0.000 C 
BRANCH  24  25
ATOM     25  C   UNL     1    -109.833 -47.400 -58.615  1.00  0.00    -0.000 C 
BRANCH  25  26
ATOM     26  C   UNL     1    -108.576 -47.961 -59.292  1.00  0.00    -0.000 C 
BRANCH  26  27
ATOM     27  C   UNL     1    -108.510 -47.537 -60.764  1.00  0.00    -0.000 C 
BRANCH  27  28
ATOM     28  C   UNL     1    -109.591 -46.496 -61.086  1.00  0.00    -0.000 C 
BRANCH  28  29
ATOM     29  C   UNL     1    -110.390 -46.846 -62.350  1.00  0.00    -0.003 C 
ATOM     30  C   UNL     1    -111.622 -47.701 -62.050  1.00  0.00     0.004 C 
ENDBRANCH  28  29
ENDBRANCH  27  28
ENDBRANCH  26  27
ENDBRANCH  25  26
ENDBRANCH  24  25
ENDBRANCH  23  24
ENDBRANCH  22  23
ENDBRANCH  21  22
ENDBRANCH  20  21
ENDBRANCH  19  20
ENDBRANCH  18  19
ENDBRANCH  17  18
ENDBRANCH   1  17
TORSDOF 26
ENDMDL
MODEL 9
REMARK VINA RESULT:    -4.337     15.740     19.518
REMARK INTER + INTRA:         -12.239
REMARK INTER:                  -6.106
REMARK INTRA:                  -6.132
REMARK UNBOUND:                -1.310
REMARK SMILES CCCCCCCCCCCCCCCCCCCCCCCCCCCC(=O)[O-]
REMARK SMILES IDX 15 1 16 2 17 3 18 4 19 5 20 6 21 7 22 8 23 9 24 10 25 11
REMARK SMILES IDX 26 12 27 13 28 14 29 15 30 16 14 17 13 18 12 19 11 20 10 21
REMARK SMILES IDX 9 22 8 23 7 24 6 25 5 26 4 27 3 28 2 29 1 30
REMARK H PARENT
REMARK Flexibility Score: inf
ROOT
ATOM      1  C   UNL     1    -106.846 -48.649 -55.698  1.00  0.00     0.000 C 
ENDROOT
BRANCH   1   2
ATOM      2  C   UNL     1    -108.190 -48.403 -56.402  1.00  0.00     0.000 C 
BRANCH   2   3
ATOM      3  C   UNL     1    -108.172 -48.963 -57.829  1.00  0.00     0.000 C 
BRANCH   3   4
ATOM      4  C   UNL     1    -109.270 -50.016 -58.019  1.00  0.00     0.000 C 
BRANCH   4   5
ATOM      5  C   UNL     1    -108.670 -51.385 -58.365  1.00  0.00     0.000 C 
BRANCH   5   6
ATOM      6  C   UNL     1    -109.764 -52.371 -58.789  1.00  0.00     0.000 C 
BRANCH   6   7
ATOM      7  C   UNL     1    -111.123 -51.669 -58.927  1.00  0.00     0.000 C 
BRANCH   7   8
ATOM      8  C   UNL     1    -111.902 -52.112 -60.180  1.00  0.00     0.000 C 
BRANCH   8   9
ATOM      9  C   UNL     1    -111.450 -51.456 -61.501  1.00  0.00     0.000 C 
BRANCH   9  10
ATOM     10  C   UNL     1    -111.574 -49.922 -61.546  1.00  0.00     0.000 C 
BRANCH  10  11
ATOM     11  C   UNL     1    -110.208 -49.217 -61.587  1.00  0.00     0.000 C 
BRANCH  11  12
ATOM     12  C   UNL     1    -109.039 -50.191 -61.803  1.00  0.00     0.006 C 
BRANCH  12  13
ATOM     13  C   UNL     1    -108.244 -49.901 -63.083  1.00  0.00     0.053 C 
BRANCH  13  14
ATOM     14  C   UNL     1    -107.731 -51.167 -63.696  1.00  0.00     0.041 C 
ATOM     15  O   UNL     1    -108.535 -52.042 -64.114  1.00  0.00    -0.550 OA
ATOM     16  O   UNL     1    -106.362 -51.400 -63.771  1.00  0.00    -0.550 OA
ENDBRANCH  13  14
ENDBRANCH  12  13
ENDBRANCH  11  12
ENDBRANCH  10  11
ENDBRANCH   9  10
ENDBRANCH   8   9
ENDBRANCH   7   8
ENDBRANCH   6   7
ENDBRANCH   5   6
ENDBRANCH   4   5
ENDBRANCH   3   4
ENDBRANCH   2   3
ENDBRANCH   1   2
BRANCH   1  17
ATOM     17  C   UNL     1    -105.836 -49.389 -56.591  1.00  0.00     0.000 C 
BRANCH  17  18
ATOM     18  C   UNL     1    -105.694 -50.874 -56.215  1.00  0.00     0.000 C 
BRANCH  18  19
ATOM     19  C   UNL     1    -106.396 -51.225 -54.891  1.00  0.00     0.000 C 
BRANCH  19  20
ATOM     20  C   UNL     1    -107.632 -52.140 -55.023  1.00  0.00     0.000 C 
BRANCH  20  21
ATOM     21  C   UNL     1    -108.950 -51.550 -54.491  1.00  0.00     0.000 C 
BRANCH  21  22
ATOM     22  C   UNL     1    -110.194 -52.245 -55.068  1.00  0.00    -0.000 C 
BRANCH  22  23
ATOM     23  C   UNL     1    -111.388 -51.289 -55.241  1.00  0.00    -0.000 C 
BRANCH  23  24
ATOM     24  C   UNL     1    -111.148 -49.846 -54.760  1.00  0.00    -0.000 C 
BRANCH  24  25
ATOM     25  C   UNL     1    -112.211 -48.860 -55.270  1.00  0.00    -0.000 C 
BRANCH  25  26
ATOM     26  C   UNL     1    -112.527 -49.106 -56.750  1.00  0.00    -0.000 C 
BRANCH  26  27
ATOM     27  C   UNL     1    -112.821 -47.789 -57.477  1.00  0.00    -0.000 C 
BRANCH  27  28
ATOM     28  C   UNL     1    -111.831 -47.564 -58.629  1.00  0.00    -0.000 C 
BRANCH  28  29
ATOM     29  C   UNL     1    -110.892 -46.375 -58.377  1.00  0.00    -0.003 C 
ATOM     30  C   UNL     1    -109.913 -46.144 -59.528  1.00  0.00     0.004 C 
ENDBRANCH  28  29
ENDBRANCH  27  28
ENDBRANCH  26  27
ENDBRANCH  25  26
ENDBRANCH  24  25
ENDBRANCH  23  24
ENDBRANCH  22  23
ENDBRANCH  21  22
ENDBRANCH  20  21
ENDBRANCH  19  20
ENDBRANCH  18  19
ENDBRANCH  17  18
ENDBRANCH   1  17
TORSDOF 26
ENDMDL
