MODEL 1
REMARK VINA RESULT:    -6.564      0.000      0.000
REMARK INTER + INTRA:          -7.126
REMARK INTER:                  -6.947
REMARK INTRA:                  -0.179
REMARK UNBOUND:                -0.179
REMARK SMILES CC1=CCC(C(C)C)=CC1
REMARK SMILES IDX 1 1 2 2 3 3 4 4 5 5 9 6 10 7 6 8 7 9 8 10
REMARK H PARENT
REMARK Flexibility Score: inf
ROOT
ATOM      1  C   UNL     1      -1.281 -17.612  13.425  1.00  0.00     0.039 C 
ATOM      2  C   UNL     1      -0.098 -18.051  14.241  1.00  0.00    -0.073 C 
ATOM      3  C   UNL     1       0.977 -18.587  13.632  1.00  0.00    -0.023 C 
ATOM      4  C   UNL     1       2.156 -19.071  14.439  1.00  0.00     0.058 C 
ATOM      5  C   UNL     1       2.354 -18.225  15.688  1.00  0.00    -0.068 C 
ATOM      6  C   UNL     1       1.272 -17.687  16.291  1.00  0.00    -0.023 C 
ATOM      7  C   UNL     1      -0.117 -17.925  15.750  1.00  0.00     0.057 C 
ENDROOT
BRANCH   5   8
ATOM      8  C   UNL     1       3.746 -17.961  16.239  1.00  0.00     0.009 C 
ATOM      9  C   UNL     1       3.718 -16.814  17.255  1.00  0.00     0.012 C 
ATOM     10  C   UNL     1       4.747 -17.676  15.114  1.00  0.00     0.012 C 
ENDBRANCH   5   8
TORSDOF 1
ENDMDL
MODEL 2
REMARK VINA RESULT:    -6.411      1.300      4.830
REMARK INTER + INTRA:          -6.964
REMARK INTER:                  -6.788
REMARK INTRA:                  -0.176
REMARK UNBOUND:                -0.179
REMARK SMILES CC1=CCC(C(C)C)=CC1
REMARK SMILES IDX 1 1 2 2 3 3 4 4 5 5 9 6 10 7 6 8 7 9 8 10
REMARK H PARENT
REMARK Flexibility Score: inf
ROOT
ATOM      1  C   UNL     1       6.119 -15.715  17.345  1.00  0.00     0.039 C 
ATOM      2  C   UNL     1       5.196 -16.802  16.871  1.00  0.00    -0.073 C 
ATOM      3  C   UNL     1       4.236 -17.274  17.690  1.00  0.00    -0.023 C 
ATOM      4  C   UNL     1       3.327 -18.392  17.246  1.00  0.00     0.058 C 
ATOM      5  C   UNL     1       3.061 -18.325  15.749  1.00  0.00    -0.068 C 
ATOM      6  C   UNL     1       4.027 -17.848  14.934  1.00  0.00    -0.023 C 
ATOM      7  C   UNL     1       5.356 -17.398  15.488  1.00  0.00     0.057 C 
ENDROOT
BRANCH   5   8
ATOM      8  C   UNL     1       1.722 -18.760  15.174  1.00  0.00     0.009 C 
ATOM      9  C   UNL     1       1.750 -18.717  13.643  1.00  0.00     0.012 C 
ATOM     10  C   UNL     1       0.574 -17.909  15.729  1.00  0.00     0.012 C 
ENDBRANCH   5   8
TORSDOF 1
ENDMDL
MODEL 3
REMARK VINA RESULT:    -6.269      6.484      9.201
REMARK INTER + INTRA:          -6.814
REMARK INTER:                  -6.640
REMARK INTRA:                  -0.174
REMARK UNBOUND:                -0.179
REMARK SMILES CC1=CCC(C(C)C)=CC1
REMARK SMILES IDX 1 1 2 2 3 3 4 4 5 5 9 6 10 7 6 8 7 9 8 10
REMARK H PARENT
REMARK Flexibility Score: inf
ROOT
ATOM      1  C   UNL     1      -2.368 -14.252  12.700  1.00  0.00     0.039 C 
ATOM      2  C   UNL     1      -2.332 -14.469  11.213  1.00  0.00    -0.073 C 
ATOM      3  C   UNL     1      -2.607 -15.685  10.704  1.00  0.00    -0.023 C 
ATOM      4  C   UNL     1      -2.536 -15.930   9.218  1.00  0.00     0.058 C 
ATOM      5  C   UNL     1      -2.935 -14.689   8.434  1.00  0.00    -0.068 C 
ATOM      6  C   UNL     1      -2.658 -13.473   8.952  1.00  0.00    -0.023 C 
ATOM      7  C   UNL     1      -1.956 -13.337  10.281  1.00  0.00     0.057 C 
ENDROOT
BRANCH   5   8
ATOM      8  C   UNL     1      -3.656 -14.806   7.101  1.00  0.00     0.009 C 
ATOM      9  C   UNL     1      -4.877 -13.880   7.063  1.00  0.00     0.012 C 
ATOM     10  C   UNL     1      -4.056 -16.257   6.809  1.00  0.00     0.012 C 
ENDBRANCH   5   8
TORSDOF 1
ENDMDL
MODEL 4
REMARK VINA RESULT:    -6.133      6.697      8.787
REMARK INTER + INTRA:          -6.670
REMARK INTER:                  -6.496
REMARK INTRA:                  -0.175
REMARK UNBOUND:                -0.179
REMARK SMILES CC1=CCC(C(C)C)=CC1
REMARK SMILES IDX 1 1 2 2 3 3 4 4 5 5 9 6 10 7 6 8 7 9 8 10
REMARK H PARENT
REMARK Flexibility Score: inf
ROOT
ATOM      1  C   UNL     1      -5.298 -15.379   5.776  1.00  0.00     0.039 C 
ATOM      2  C   UNL     1      -4.386 -15.681   6.932  1.00  0.00    -0.073 C 
ATOM      3  C   UNL     1      -3.131 -15.192   6.943  1.00  0.00    -0.023 C 
ATOM      4  C   UNL     1      -2.190 -15.518   8.076  1.00  0.00     0.058 C 
ATOM      5  C   UNL     1      -2.940 -15.672   9.390  1.00  0.00    -0.068 C 
ATOM      6  C   UNL     1      -4.199 -16.160   9.371  1.00  0.00    -0.023 C 
ATOM      7  C   UNL     1      -4.856 -16.559   8.073  1.00  0.00     0.057 C 
ENDROOT
BRANCH   5   8
ATOM      8  C   UNL     1      -2.300 -15.261  10.707  1.00  0.00     0.009 C 
ATOM      9  C   UNL     1      -3.143 -15.743  11.893  1.00  0.00     0.012 C 
ATOM     10  C   UNL     1      -2.077 -13.746  10.769  1.00  0.00     0.012 C 
ENDBRANCH   5   8
TORSDOF 1
ENDMDL
MODEL 5
REMARK VINA RESULT:    -6.104      6.894      8.562
REMARK INTER + INTRA:          -6.640
REMARK INTER:                  -6.482
REMARK INTRA:                  -0.158
REMARK UNBOUND:                -0.179
REMARK SMILES CC1=CCC(C(C)C)=CC1
REMARK SMILES IDX 1 1 2 2 3 3 4 4 5 5 9 6 10 7 6 8 7 9 8 10
REMARK H PARENT
REMARK Flexibility Score: inf
ROOT
ATOM      1  C   UNL     1      -1.254 -12.766  10.256  1.00  0.00     0.039 C 
ATOM      2  C   UNL     1      -1.617 -14.216  10.092  1.00  0.00    -0.073 C 
ATOM      3  C   UNL     1      -2.454 -14.802  10.969  1.00  0.00    -0.023 C 
ATOM      4  C   UNL     1      -2.797 -16.266  10.843  1.00  0.00     0.058 C 
ATOM      5  C   UNL     1      -2.818 -16.704   9.386  1.00  0.00    -0.068 C 
ATOM      6  C   UNL     1      -1.978 -16.109   8.512  1.00  0.00    -0.023 C 
ATOM      7  C   UNL     1      -1.021 -15.034   8.966  1.00  0.00     0.057 C 
ENDROOT
BRANCH   5   8
ATOM      8  C   UNL     1      -3.785 -17.776   8.907  1.00  0.00     0.009 C 
ATOM      9  C   UNL     1      -3.074 -18.776   7.990  1.00  0.00     0.012 C 
ATOM     10  C   UNL     1      -5.002 -17.156   8.209  1.00  0.00     0.012 C 
ENDBRANCH   5   8
TORSDOF 1
ENDMDL
MODEL 6
REMARK VINA RESULT:    -6.076      6.024      9.712
REMARK INTER + INTRA:          -6.611
REMARK INTER:                  -6.466
REMARK INTRA:                  -0.145
REMARK UNBOUND:                -0.179
REMARK SMILES CC1=CCC(C(C)C)=CC1
REMARK SMILES IDX 1 1 2 2 3 3 4 4 5 5 9 6 10 7 6 8 7 9 8 10
REMARK H PARENT
REMARK Flexibility Score: inf
ROOT
ATOM      1  C   UNL     1      -2.439 -15.915  12.185  1.00  0.00     0.039 C 
ATOM      2  C   UNL     1      -3.059 -16.071  10.825  1.00  0.00    -0.073 C 
ATOM      3  C   UNL     1      -4.367 -16.371  10.713  1.00  0.00    -0.023 C 
ATOM      4  C   UNL     1      -4.997 -16.571   9.358  1.00  0.00     0.058 C 
ATOM      5  C   UNL     1      -4.347 -15.680   8.311  1.00  0.00    -0.068 C 
ATOM      6  C   UNL     1      -3.035 -15.380   8.431  1.00  0.00    -0.023 C 
ATOM      7  C   UNL     1      -2.217 -15.925   9.575  1.00  0.00     0.057 C 
ENDROOT
BRANCH   5   8
ATOM      8  C   UNL     1      -5.158 -15.109   7.158  1.00  0.00     0.009 C 
ATOM      9  C   UNL     1      -4.754 -15.765   5.833  1.00  0.00     0.012 C 
ATOM     10  C   UNL     1      -5.021 -13.584   7.082  1.00  0.00     0.012 C 
ENDBRANCH   5   8
TORSDOF 1
ENDMDL
MODEL 7
REMARK VINA RESULT:    -6.056      7.400      9.340
REMARK INTER + INTRA:          -6.589
REMARK INTER:                  -6.432
REMARK INTRA:                  -0.156
REMARK UNBOUND:                -0.179
REMARK SMILES CC1=CCC(C(C)C)=CC1
REMARK SMILES IDX 1 1 2 2 3 3 4 4 5 5 9 6 10 7 6 8 7 9 8 10
REMARK H PARENT
REMARK Flexibility Score: inf
ROOT
ATOM      1  C   UNL     1      -5.398 -15.371   5.213  1.00  0.00     0.039 C 
ATOM      2  C   UNL     1      -4.839 -15.246   6.602  1.00  0.00    -0.073 C 
ATOM      3  C   UNL     1      -4.498 -16.352   7.291  1.00  0.00    -0.023 C 
ATOM      4  C   UNL     1      -3.974 -16.248   8.701  1.00  0.00     0.058 C 
ATOM      5  C   UNL     1      -3.171 -14.971   8.899  1.00  0.00    -0.068 C 
ATOM      6  C   UNL     1      -3.517 -13.867   8.203  1.00  0.00    -0.023 C 
ATOM      7  C   UNL     1      -4.688 -13.886   7.250  1.00  0.00     0.057 C 
ENDROOT
BRANCH   5   8
ATOM      8  C   UNL     1      -1.979 -14.936   9.843  1.00  0.00     0.009 C 
ATOM      9  C   UNL     1      -2.026 -13.687  10.729  1.00  0.00     0.012 C 
ATOM     10  C   UNL     1      -0.656 -15.017   9.073  1.00  0.00     0.012 C 
ENDBRANCH   5   8
TORSDOF 1
ENDMDL
MODEL 8
REMARK VINA RESULT:    -6.023      6.203      9.000
REMARK INTER + INTRA:          -6.554
REMARK INTER:                  -6.409
REMARK INTRA:                  -0.145
REMARK UNBOUND:                -0.179
REMARK SMILES CC1=CCC(C(C)C)=CC1
REMARK SMILES IDX 1 1 2 2 3 3 4 4 5 5 9 6 10 7 6 8 7 9 8 10
REMARK H PARENT
REMARK Flexibility Score: inf
ROOT
ATOM      1  C   UNL     1      -5.371 -15.368   5.497  1.00  0.00     0.039 C 
ATOM      2  C   UNL     1      -4.597 -15.670   6.749  1.00  0.00    -0.073 C 
ATOM      3  C   UNL     1      -3.417 -15.060   6.974  1.00  0.00    -0.023 C 
ATOM      4  C   UNL     1      -2.608 -15.382   8.205  1.00  0.00     0.058 C 
ATOM      5  C   UNL     1      -3.508 -15.717   9.385  1.00  0.00    -0.068 C 
ATOM      6  C   UNL     1      -4.691 -16.325   9.152  1.00  0.00    -0.023 C 
ATOM      7  C   UNL     1      -5.117 -16.682   7.749  1.00  0.00     0.057 C 
ENDROOT
BRANCH   5   8
ATOM      8  C   UNL     1      -3.102 -15.353  10.805  1.00  0.00     0.009 C 
ATOM      9  C   UNL     1      -2.162 -14.143  10.806  1.00  0.00     0.012 C 
ATOM     10  C   UNL     1      -2.466 -16.547  11.526  1.00  0.00     0.012 C 
ENDBRANCH   5   8
TORSDOF 1
ENDMDL
MODEL 9
REMARK VINA RESULT:    -5.695      5.722      8.592
REMARK INTER + INTRA:          -6.207
REMARK INTER:                  -6.043
REMARK INTRA:                  -0.163
REMARK UNBOUND:                -0.179
REMARK SMILES CC1=CCC(C(C)C)=CC1
REMARK SMILES IDX 1 1 2 2 3 3 4 4 5 5 9 6 10 7 6 8 7 9 8 10
REMARK H PARENT
REMARK Flexibility Score: inf
ROOT
ATOM      1  C   UNL     1      -2.421 -15.435  13.257  1.00  0.00     0.039 C 
ATOM      2  C   UNL     1      -3.094 -15.533  11.917  1.00  0.00    -0.073 C 
ATOM      3  C   UNL     1      -2.451 -15.117  10.809  1.00  0.00    -0.023 C 
ATOM      4  C   UNL     1      -3.126 -15.171   9.462  1.00  0.00     0.058 C 
ATOM      5  C   UNL     1      -4.079 -16.353   9.369  1.00  0.00    -0.068 C 
ATOM      6  C   UNL     1      -4.718 -16.766  10.485  1.00  0.00    -0.023 C 
ATOM      7  C   UNL     1      -4.507 -16.066  11.804  1.00  0.00     0.057 C 
ENDROOT
BRANCH   5   8
ATOM      8  C   UNL     1      -4.294 -17.081   8.051  1.00  0.00     0.009 C 
ATOM      9  C   UNL     1      -3.480 -18.379   8.011  1.00  0.00     0.012 C 
ATOM     10  C   UNL     1      -3.957 -16.182   6.856  1.00  0.00     0.012 C 
ENDBRANCH   5   8
TORSDOF 1
ENDMDL
