MODEL 1
REMARK VINA RESULT:    -4.349      0.000      0.000
REMARK INTER + INTRA:         -12.961
REMARK INTER:                  -9.942
REMARK INTRA:                  -3.020
REMARK UNBOUND:                -3.020
REMARK SMILES CCCCCCCCCCCCCCCCCCCCCCCC(=O)[O-]
REMARK SMILES IDX 13 1 14 2 15 3 16 4 17 5 18 6 19 7 20 8 21 9 22 10 23 11
REMARK SMILES IDX 24 12 25 13 26 14 12 15 11 16 10 17 9 18 8 19 7 20 6 21 5 22
REMARK SMILES IDX 4 23 3 24 2 25 1 26
REMARK H PARENT
REMARK Flexibility Score: inf
ROOT
ATOM      1  C   UNL     1       3.420  -1.919   5.167  1.00  0.00     0.000 C 
ENDROOT
BRANCH   1   2
ATOM      2  C   UNL     1       4.563  -1.783   6.192  1.00  0.00     0.000 C 
BRANCH   2   3
ATOM      3  C   UNL     1       4.059  -1.705   7.649  1.00  0.00     0.000 C 
BRANCH   3   4
ATOM      4  C   UNL     1       3.573  -0.305   8.082  1.00  0.00     0.000 C 
BRANCH   4   5
ATOM      5  C   UNL     1       2.206  -0.258   8.795  1.00  0.00     0.000 C 
BRANCH   5   6
ATOM      6  C   UNL     1       1.316   0.941   8.414  1.00  0.00     0.000 C 
BRANCH   6   7
ATOM      7  C   UNL     1       1.580   1.454   6.989  1.00  0.00     0.000 C 
BRANCH   7   8
ATOM      8  C   UNL     1       1.690   2.992   6.931  1.00  0.00     0.000 C 
BRANCH   8   9
ATOM      9  C   UNL     1       0.502   3.753   7.562  1.00  0.00     0.000 C 
BRANCH   9  10
ATOM     10  C   UNL     1       0.558   5.293   7.434  1.00  0.00     0.006 C 
BRANCH  10  11
ATOM     11  C   UNL     1      -0.368   5.877   6.352  1.00  0.00     0.053 C 
BRANCH  11  12
ATOM     12  C   UNL     1       0.341   6.038   5.040  1.00  0.00     0.041 C 
ATOM     13  O   UNL     1       1.131   7.003   4.860  1.00  0.00    -0.550 OA
ATOM     14  O   UNL     1       0.174   5.087   4.039  1.00  0.00    -0.550 OA
ENDBRANCH  11  12
ENDBRANCH  10  11
ENDBRANCH   9  10
ENDBRANCH   8   9
ENDBRANCH   7   8
ENDBRANCH   6   7
ENDBRANCH   5   6
ENDBRANCH   4   5
ENDBRANCH   3   4
ENDBRANCH   2   3
ENDBRANCH   1   2
BRANCH   1  15
ATOM     15  C   UNL     1       2.196  -2.657   5.732  1.00  0.00     0.000 C 
BRANCH  15  16
ATOM     16  C   UNL     1       0.884  -1.898   5.488  1.00  0.00     0.000 C 
BRANCH  16  17
ATOM     17  C   UNL     1      -0.159  -2.232   6.567  1.00  0.00     0.000 C 
BRANCH  17  18
ATOM     18  C   UNL     1      -0.749  -3.648   6.420  1.00  0.00    -0.000 C 
BRANCH  18  19
ATOM     19  C   UNL     1      -2.178  -3.819   6.969  1.00  0.00    -0.000 C 
BRANCH  19  20
ATOM     20  C   UNL     1      -2.666  -2.602   7.777  1.00  0.00    -0.000 C 
BRANCH  20  21
ATOM     21  C   UNL     1      -4.170  -2.341   7.586  1.00  0.00    -0.000 C 
BRANCH  21  22
ATOM     22  C   UNL     1      -4.609  -2.450   6.114  1.00  0.00    -0.000 C 
BRANCH  22  23
ATOM     23  C   UNL     1      -4.592  -1.092   5.394  1.00  0.00    -0.000 C 
BRANCH  23  24
ATOM     24  C   UNL     1      -4.087  -1.193   3.948  1.00  0.00    -0.000 C 
BRANCH  24  25
ATOM     25  C   UNL     1      -2.640  -1.704   3.913  1.00  0.00    -0.003 C 
ATOM     26  C   UNL     1      -2.539  -3.037   3.174  1.00  0.00     0.004 C 
ENDBRANCH  24  25
ENDBRANCH  23  24
ENDBRANCH  22  23
ENDBRANCH  21  22
ENDBRANCH  20  21
ENDBRANCH  19  20
ENDBRANCH  18  19
ENDBRANCH  17  18
ENDBRANCH  16  17
ENDBRANCH  15  16
ENDBRANCH   1  15
TORSDOF 22
ENDMDL
MODEL 2
REMARK VINA RESULT:    -4.253      1.548      2.564
REMARK INTER + INTRA:         -12.743
REMARK INTER:                  -9.626
REMARK INTRA:                  -3.117
REMARK UNBOUND:                -3.020
REMARK SMILES CCCCCCCCCCCCCCCCCCCCCCCC(=O)[O-]
REMARK SMILES IDX 13 1 14 2 15 3 16 4 17 5 18 6 19 7 20 8 21 9 22 10 23 11
REMARK SMILES IDX 24 12 25 13 26 14 12 15 11 16 10 17 9 18 8 19 7 20 6 21 5 22
REMARK SMILES IDX 4 23 3 24 2 25 1 26
REMARK H PARENT
REMARK Flexibility Score: inf
ROOT
ATOM      1  C   UNL     1       1.574  -1.790   5.224  1.00  0.00     0.000 C 
ENDROOT
BRANCH   1   2
ATOM      2  C   UNL     1       1.393  -0.330   5.685  1.00  0.00     0.000 C 
BRANCH   2   3
ATOM      3  C   UNL     1       1.333  -0.188   7.221  1.00  0.00     0.000 C 
BRANCH   3   4
ATOM      4  C   UNL     1       2.600   0.425   7.856  1.00  0.00     0.000 C 
BRANCH   4   5
ATOM      5  C   UNL     1       2.406   1.778   8.572  1.00  0.00     0.000 C 
BRANCH   5   6
ATOM      6  C   UNL     1       0.941   2.151   8.869  1.00  0.00     0.000 C 
BRANCH   6   7
ATOM      7  C   UNL     1       0.493   3.436   8.152  1.00  0.00     0.000 C 
BRANCH   7   8
ATOM      8  C   UNL     1       1.580   3.988   7.206  1.00  0.00     0.000 C 
BRANCH   8   9
ATOM      9  C   UNL     1       1.238   3.899   5.701  1.00  0.00     0.000 C 
BRANCH   9  10
ATOM     10  C   UNL     1       0.909   5.244   5.015  1.00  0.00     0.006 C 
BRANCH  10  11
ATOM     11  C   UNL     1      -0.581   5.627   5.044  1.00  0.00     0.053 C 
BRANCH  11  12
ATOM     12  C   UNL     1      -0.872   6.649   6.102  1.00  0.00     0.041 C 
ATOM     13  O   UNL     1      -1.389   6.300   7.197  1.00  0.00    -0.550 OA
ATOM     14  O   UNL     1      -0.518   7.979   5.899  1.00  0.00    -0.550 OA
ENDBRANCH  11  12
ENDBRANCH  10  11
ENDBRANCH   9  10
ENDBRANCH   8   9
ENDBRANCH   7   8
ENDBRANCH   6   7
ENDBRANCH   5   6
ENDBRANCH   4   5
ENDBRANCH   3   4
ENDBRANCH   2   3
ENDBRANCH   1   2
BRANCH   1  15
ATOM     15  C   UNL     1       3.044  -2.243   5.238  1.00  0.00     0.000 C 
BRANCH  15  16
ATOM     16  C   UNL     1       3.421  -2.983   6.529  1.00  0.00     0.000 C 
BRANCH  16  17
ATOM     17  C   UNL     1       2.369  -4.047   6.885  1.00  0.00     0.000 C 
BRANCH  17  18
ATOM     18  C   UNL     1       1.809  -3.890   8.311  1.00  0.00    -0.000 C 
BRANCH  18  19
ATOM     19  C   UNL     1       0.322  -3.496   8.388  1.00  0.00    -0.000 C 
BRANCH  19  20
ATOM     20  C   UNL     1      -0.485  -3.939   7.154  1.00  0.00    -0.000 C 
BRANCH  20  21
ATOM     21  C   UNL     1      -1.515  -2.880   6.721  1.00  0.00    -0.000 C 
BRANCH  21  22
ATOM     22  C   UNL     1      -2.007  -3.088   5.277  1.00  0.00    -0.000 C 
BRANCH  22  23
ATOM     23  C   UNL     1      -2.065  -1.774   4.481  1.00  0.00    -0.000 C 
BRANCH  23  24
ATOM     24  C   UNL     1      -3.403  -1.578   3.755  1.00  0.00    -0.000 C 
BRANCH  24  25
ATOM     25  C   UNL     1      -4.578  -1.910   4.685  1.00  0.00    -0.003 C 
ATOM     26  C   UNL     1      -4.901  -0.739   5.611  1.00  0.00     0.004 C 
ENDBRANCH  24  25
ENDBRANCH  23  24
ENDBRANCH  22  23
ENDBRANCH  21  22
ENDBRANCH  20  21
ENDBRANCH  19  20
ENDBRANCH  18  19
ENDBRANCH  17  18
ENDBRANCH  16  17
ENDBRANCH  15  16
ENDBRANCH   1  15
TORSDOF 22
ENDMDL
MODEL 3
REMARK VINA RESULT:    -4.216      1.211      2.060
REMARK INTER + INTRA:         -12.658
REMARK INTER:                 -10.075
REMARK INTRA:                  -2.583
REMARK UNBOUND:                -3.020
REMARK SMILES CCCCCCCCCCCCCCCCCCCCCCCC(=O)[O-]
REMARK SMILES IDX 13 1 14 2 15 3 16 4 17 5 18 6 19 7 20 8 21 9 22 10 23 11
REMARK SMILES IDX 24 12 25 13 26 14 12 15 11 16 10 17 9 18 8 19 7 20 6 21 5 22
REMARK SMILES IDX 4 23 3 24 2 25 1 26
REMARK H PARENT
REMARK Flexibility Score: inf
ROOT
ATOM      1  C   UNL     1       4.475  -1.867   6.591  1.00  0.00     0.000 C 
ENDROOT
BRANCH   1   2
ATOM      2  C   UNL     1       3.687  -2.609   7.689  1.00  0.00     0.000 C 
BRANCH   2   3
ATOM      3  C   UNL     1       3.356  -1.714   8.902  1.00  0.00     0.000 C 
BRANCH   3   4
ATOM      4  C   UNL     1       1.928  -1.128   8.892  1.00  0.00     0.000 C 
BRANCH   4   5
ATOM      5  C   UNL     1       1.832   0.411   8.836  1.00  0.00     0.000 C 
BRANCH   5   6
ATOM      6  C   UNL     1       2.298   1.042   7.509  1.00  0.00     0.000 C 
BRANCH   6   7
ATOM      7  C   UNL     1       1.498   2.299   7.131  1.00  0.00     0.000 C 
BRANCH   7   8
ATOM      8  C   UNL     1       0.710   2.874   8.327  1.00  0.00     0.000 C 
BRANCH   8   9
ATOM      9  C   UNL     1       0.710   4.417   8.425  1.00  0.00     0.000 C 
BRANCH   9  10
ATOM     10  C   UNL     1      -0.342   5.137   7.550  1.00  0.00     0.006 C 
BRANCH  10  11
ATOM     11  C   UNL     1       0.251   6.070   6.478  1.00  0.00     0.053 C 
BRANCH  11  12
ATOM     12  C   UNL     1      -0.499   5.973   5.182  1.00  0.00     0.041 C 
ATOM     13  O   UNL     1      -1.563   6.626   5.015  1.00  0.00    -0.550 OA
ATOM     14  O   UNL     1       0.012   5.205   4.141  1.00  0.00    -0.550 OA
ENDBRANCH  11  12
ENDBRANCH  10  11
ENDBRANCH   9  10
ENDBRANCH   8   9
ENDBRANCH   7   8
ENDBRANCH   6   7
ENDBRANCH   5   6
ENDBRANCH   4   5
ENDBRANCH   3   4
ENDBRANCH   2   3
ENDBRANCH   1   2
BRANCH   1  15
ATOM     15  C   UNL     1       3.749  -1.864   5.235  1.00  0.00     0.000 C 
BRANCH  15  16
ATOM     16  C   UNL     1       2.322  -2.420   5.328  1.00  0.00     0.000 C 
BRANCH  16  17
ATOM     17  C   UNL     1       1.280  -1.292   5.233  1.00  0.00     0.000 C 
BRANCH  17  18
ATOM     18  C   UNL     1      -0.101  -1.698   5.781  1.00  0.00    -0.000 C 
BRANCH  18  19
ATOM     19  C   UNL     1      -0.826  -2.794   4.977  1.00  0.00    -0.000 C 
BRANCH  19  20
ATOM     20  C   UNL     1      -1.817  -3.612   5.825  1.00  0.00    -0.000 C 
BRANCH  20  21
ATOM     21  C   UNL     1      -2.997  -4.143   4.993  1.00  0.00    -0.000 C 
BRANCH  21  22
ATOM     22  C   UNL     1      -3.127  -3.435   3.631  1.00  0.00    -0.000 C 
BRANCH  22  23
ATOM     23  C   UNL     1      -4.361  -2.521   3.560  1.00  0.00    -0.000 C 
BRANCH  23  24
ATOM     24  C   UNL     1      -4.076  -1.100   4.067  1.00  0.00    -0.000 C 
BRANCH  24  25
ATOM     25  C   UNL     1      -4.692  -0.886   5.456  1.00  0.00    -0.003 C 
ATOM     26  C   UNL     1      -5.999  -1.660   5.609  1.00  0.00     0.004 C 
ENDBRANCH  24  25
ENDBRANCH  23  24
ENDBRANCH  22  23
ENDBRANCH  21  22
ENDBRANCH  20  21
ENDBRANCH  19  20
ENDBRANCH  18  19
ENDBRANCH  17  18
ENDBRANCH  16  17
ENDBRANCH  15  16
ENDBRANCH   1  15
TORSDOF 22
ENDMDL
MODEL 4
REMARK VINA RESULT:    -4.216      4.412      7.968
REMARK INTER + INTRA:         -12.657
REMARK INTER:                  -9.857
REMARK INTRA:                  -2.801
REMARK UNBOUND:                -3.020
REMARK SMILES CCCCCCCCCCCCCCCCCCCCCCCC(=O)[O-]
REMARK SMILES IDX 13 1 14 2 15 3 16 4 17 5 18 6 19 7 20 8 21 9 22 10 23 11
REMARK SMILES IDX 24 12 25 13 26 14 12 15 11 16 10 17 9 18 8 19 7 20 6 21 5 22
REMARK SMILES IDX 4 23 3 24 2 25 1 26
REMARK H PARENT
REMARK Flexibility Score: inf
ROOT
ATOM      1  C   UNL     1      -2.661  -1.633   3.895  1.00  0.00     0.000 C 
ENDROOT
BRANCH   1   2
ATOM      2  C   UNL     1      -4.187  -1.426   3.963  1.00  0.00     0.000 C 
BRANCH   2   3
ATOM      3  C   UNL     1      -4.694  -1.150   5.395  1.00  0.00     0.000 C 
BRANCH   3   4
ATOM      4  C   UNL     1      -5.447  -2.331   6.044  1.00  0.00     0.000 C 
BRANCH   4   5
ATOM      5  C   UNL     1      -4.639  -3.168   7.057  1.00  0.00     0.000 C 
BRANCH   5   6
ATOM      6  C   UNL     1      -3.298  -2.545   7.491  1.00  0.00     0.000 C 
BRANCH   6   7
ATOM      7  C   UNL     1      -2.081  -3.360   7.025  1.00  0.00     0.000 C 
BRANCH   7   8
ATOM      8  C   UNL     1      -0.759  -2.579   7.180  1.00  0.00     0.000 C 
BRANCH   8   9
ATOM      9  C   UNL     1       0.199  -2.673   5.971  1.00  0.00     0.000 C 
BRANCH   9  10
ATOM     10  C   UNL     1       0.708  -1.321   5.421  1.00  0.00     0.006 C 
BRANCH  10  11
ATOM     11  C   UNL     1       2.113  -0.923   5.908  1.00  0.00     0.053 C 
BRANCH  11  12
ATOM     12  C   UNL     1       3.123  -1.996   5.629  1.00  0.00     0.041 C 
ATOM     13  O   UNL     1       3.703  -2.584   6.581  1.00  0.00    -0.550 OA
ATOM     14  O   UNL     1       3.379  -2.385   4.318  1.00  0.00    -0.550 OA
ENDBRANCH  11  12
ENDBRANCH  10  11
ENDBRANCH   9  10
ENDBRANCH   8   9
ENDBRANCH   7   8
ENDBRANCH   6   7
ENDBRANCH   5   6
ENDBRANCH   4   5
ENDBRANCH   3   4
ENDBRANCH   2   3
ENDBRANCH   1   2
BRANCH   1  15
ATOM     15  C   UNL     1      -2.268  -2.983   3.273  1.00  0.00     0.000 C 
BRANCH  15  16
ATOM     16  C   UNL     1      -3.318  -4.075   3.521  1.00  0.00     0.000 C 
BRANCH  16  17
ATOM     17  C   UNL     1      -3.094  -5.281   2.594  1.00  0.00     0.000 C 
BRANCH  17  18
ATOM     18  C   UNL     1      -3.424  -4.979   1.120  1.00  0.00    -0.000 C 
BRANCH  18  19
ATOM     19  C   UNL     1      -2.524  -5.689   0.091  1.00  0.00    -0.000 C 
BRANCH  19  20
ATOM     20  C   UNL     1      -2.384  -4.910  -1.230  1.00  0.00    -0.000 C 
BRANCH  20  21
ATOM     21  C   UNL     1      -1.104  -4.057  -1.271  1.00  0.00    -0.000 C 
BRANCH  21  22
ATOM     22  C   UNL     1      -0.216  -4.379  -2.487  1.00  0.00    -0.000 C 
BRANCH  22  23
ATOM     23  C   UNL     1       0.871  -5.416  -2.163  1.00  0.00    -0.000 C 
BRANCH  23  24
ATOM     24  C   UNL     1       0.775  -6.671  -3.043  1.00  0.00    -0.000 C 
BRANCH  24  25
ATOM     25  C   UNL     1      -0.417  -7.540  -2.621  1.00  0.00    -0.003 C 
ATOM     26  C   UNL     1      -1.471  -7.609  -3.724  1.00  0.00     0.004 C 
ENDBRANCH  24  25
ENDBRANCH  23  24
ENDBRANCH  22  23
ENDBRANCH  21  22
ENDBRANCH  20  21
ENDBRANCH  19  20
ENDBRANCH  18  19
ENDBRANCH  17  18
ENDBRANCH  16  17
ENDBRANCH  15  16
ENDBRANCH   1  15
TORSDOF 22
ENDMDL
MODEL 5
REMARK VINA RESULT:    -4.210      5.290      9.702
REMARK INTER + INTRA:         -12.644
REMARK INTER:                 -10.457
REMARK INTRA:                  -2.186
REMARK UNBOUND:                -3.020
REMARK SMILES CCCCCCCCCCCCCCCCCCCCCCCC(=O)[O-]
REMARK SMILES IDX 13 1 14 2 15 3 16 4 17 5 18 6 19 7 20 8 21 9 22 10 23 11
REMARK SMILES IDX 24 12 25 13 26 14 12 15 11 16 10 17 9 18 8 19 7 20 6 21 5 22
REMARK SMILES IDX 4 23 3 24 2 25 1 26
REMARK H PARENT
REMARK Flexibility Score: inf
ROOT
ATOM      1  C   UNL     1      -2.715  -1.543   3.920  1.00  0.00     0.000 C 
ENDROOT
BRANCH   1   2
ATOM      2  C   UNL     1      -2.481  -2.972   3.391  1.00  0.00     0.000 C 
BRANCH   2   3
ATOM      3  C   UNL     1      -3.754  -3.609   2.794  1.00  0.00     0.000 C 
BRANCH   3   4
ATOM      4  C   UNL     1      -3.522  -4.966   2.094  1.00  0.00     0.000 C 
BRANCH   4   5
ATOM      5  C   UNL     1      -2.592  -4.937   0.864  1.00  0.00     0.000 C 
BRANCH   5   6
ATOM      6  C   UNL     1      -3.200  -5.528  -0.423  1.00  0.00     0.000 C 
BRANCH   6   7
ATOM      7  C   UNL     1      -2.534  -4.992  -1.701  1.00  0.00     0.000 C 
BRANCH   7   8
ATOM      8  C   UNL     1      -1.234  -4.216  -1.404  1.00  0.00     0.000 C 
BRANCH   8   9
ATOM      9  C   UNL     1      -0.147  -4.325  -2.496  1.00  0.00     0.000 C 
BRANCH   9  10
ATOM     10  C   UNL     1       0.989  -5.332  -2.204  1.00  0.00     0.006 C 
BRANCH  10  11
ATOM     11  C   UNL     1       0.726  -6.757  -2.722  1.00  0.00     0.053 C 
BRANCH  11  12
ATOM     12  C   UNL     1       1.429  -7.789  -1.890  1.00  0.00     0.041 C 
ATOM     13  O   UNL     1       0.832  -8.847  -1.555  1.00  0.00    -0.550 OA
ATOM     14  O   UNL     1       2.761  -7.605  -1.535  1.00  0.00    -0.550 OA
ENDBRANCH  11  12
ENDBRANCH  10  11
ENDBRANCH   9  10
ENDBRANCH   8   9
ENDBRANCH   7   8
ENDBRANCH   6   7
ENDBRANCH   5   6
ENDBRANCH   4   5
ENDBRANCH   3   4
ENDBRANCH   2   3
ENDBRANCH   1   2
BRANCH   1  15
ATOM     15  C   UNL     1      -4.207  -1.193   4.052  1.00  0.00     0.000 C 
BRANCH  15  16
ATOM     16  C   UNL     1      -4.668  -1.120   5.514  1.00  0.00     0.000 C 
BRANCH  16  17
ATOM     17  C   UNL     1      -5.270  -2.459   5.974  1.00  0.00     0.000 C 
BRANCH  17  18
ATOM     18  C   UNL     1      -4.732  -2.926   7.340  1.00  0.00    -0.000 C 
BRANCH  18  19
ATOM     19  C   UNL     1      -3.290  -2.489   7.657  1.00  0.00    -0.000 C 
BRANCH  19  20
ATOM     20  C   UNL     1      -2.298  -3.667   7.707  1.00  0.00    -0.000 C 
BRANCH  20  21
ATOM     21  C   UNL     1      -1.272  -3.613   6.561  1.00  0.00    -0.000 C 
BRANCH  21  22
ATOM     22  C   UNL     1      -0.197  -2.533   6.778  1.00  0.00    -0.000 C 
BRANCH  22  23
ATOM     23  C   UNL     1       0.612  -2.244   5.503  1.00  0.00    -0.000 C 
BRANCH  23  24
ATOM     24  C   UNL     1       1.500  -0.998   5.634  1.00  0.00    -0.000 C 
BRANCH  24  25
ATOM     25  C   UNL     1       2.964  -1.397   5.858  1.00  0.00    -0.003 C 
ATOM     26  C   UNL     1       3.427  -2.417   4.820  1.00  0.00     0.004 C 
ENDBRANCH  24  25
ENDBRANCH  23  24
ENDBRANCH  22  23
ENDBRANCH  21  22
ENDBRANCH  20  21
ENDBRANCH  19  20
ENDBRANCH  18  19
ENDBRANCH  17  18
ENDBRANCH  16  17
ENDBRANCH  15  16
ENDBRANCH   1  15
TORSDOF 22
ENDMDL
MODEL 6
REMARK VINA RESULT:    -4.147      1.493      3.112
REMARK INTER + INTRA:         -12.500
REMARK INTER:                  -9.946
REMARK INTRA:                  -2.555
REMARK UNBOUND:                -3.020
REMARK SMILES CCCCCCCCCCCCCCCCCCCCCCCC(=O)[O-]
REMARK SMILES IDX 13 1 14 2 15 3 16 4 17 5 18 6 19 7 20 8 21 9 22 10 23 11
REMARK SMILES IDX 24 12 25 13 26 14 12 15 11 16 10 17 9 18 8 19 7 20 6 21 5 22
REMARK SMILES IDX 4 23 3 24 2 25 1 26
REMARK H PARENT
REMARK Flexibility Score: inf
ROOT
ATOM      1  C   UNL     1       0.503  -1.461   5.446  1.00  0.00     0.000 C 
ENDROOT
BRANCH   1   2
ATOM      2  C   UNL     1       1.854  -2.101   5.069  1.00  0.00     0.000 C 
BRANCH   2   3
ATOM      3  C   UNL     1       2.668  -2.556   6.299  1.00  0.00     0.000 C 
BRANCH   3   4
ATOM      4  C   UNL     1       3.806  -1.595   6.702  1.00  0.00     0.000 C 
BRANCH   4   5
ATOM      5  C   UNL     1       3.385  -0.365   7.534  1.00  0.00     0.000 C 
BRANCH   5   6
ATOM      6  C   UNL     1       2.345  -0.652   8.634  1.00  0.00     0.000 C 
BRANCH   6   7
ATOM      7  C   UNL     1       1.162   0.330   8.610  1.00  0.00     0.000 C 
BRANCH   7   8
ATOM      8  C   UNL     1       1.430   1.547   7.700  1.00  0.00     0.000 C 
BRANCH   8   9
ATOM      9  C   UNL     1       0.878   2.890   8.230  1.00  0.00     0.000 C 
BRANCH   9  10
ATOM     10  C   UNL     1       1.334   4.147   7.455  1.00  0.00     0.006 C 
BRANCH  10  11
ATOM     11  C   UNL     1       0.280   4.719   6.489  1.00  0.00     0.053 C 
BRANCH  11  12
ATOM     12  C   UNL     1       0.805   4.816   5.088  1.00  0.00     0.041 C 
ATOM     13  O   UNL     1       0.055   5.210   4.155  1.00  0.00    -0.550 OA
ATOM     14  O   UNL     1       2.140   4.526   4.824  1.00  0.00    -0.550 OA
ENDBRANCH  11  12
ENDBRANCH  10  11
ENDBRANCH   9  10
ENDBRANCH   8   9
ENDBRANCH   7   8
ENDBRANCH   6   7
ENDBRANCH   5   6
ENDBRANCH   4   5
ENDBRANCH   3   4
ENDBRANCH   2   3
ENDBRANCH   1   2
BRANCH   1  15
ATOM     15  C   UNL     1      -0.313  -2.322   6.425  1.00  0.00     0.000 C 
BRANCH  15  16
ATOM     16  C   UNL     1      -1.704  -2.676   5.881  1.00  0.00     0.000 C 
BRANCH  16  17
ATOM     17  C   UNL     1      -1.687  -2.797   4.348  1.00  0.00     0.000 C 
BRANCH  17  18
ATOM     18  C   UNL     1      -2.611  -1.780   3.651  1.00  0.00    -0.000 C 
BRANCH  18  19
ATOM     19  C   UNL     1      -3.802  -1.294   4.498  1.00  0.00    -0.000 C 
BRANCH  19  20
ATOM     20  C   UNL     1      -5.166  -1.718   3.924  1.00  0.00    -0.000 C 
BRANCH  20  21
ATOM     21  C   UNL     1      -5.855  -2.788   4.788  1.00  0.00    -0.000 C 
BRANCH  21  22
ATOM     22  C   UNL     1      -6.668  -2.180   5.946  1.00  0.00    -0.000 C 
BRANCH  22  23
ATOM     23  C   UNL     1      -5.953  -2.314   7.300  1.00  0.00    -0.000 C 
BRANCH  23  24
ATOM     24  C   UNL     1      -5.552  -0.956   7.896  1.00  0.00    -0.000 C 
BRANCH  24  25
ATOM     25  C   UNL     1      -6.043   0.193   7.006  1.00  0.00    -0.003 C 
ATOM     26  C   UNL     1      -6.848   1.212   7.809  1.00  0.00     0.004 C 
ENDBRANCH  24  25
ENDBRANCH  23  24
ENDBRANCH  22  23
ENDBRANCH  21  22
ENDBRANCH  20  21
ENDBRANCH  19  20
ENDBRANCH  18  19
ENDBRANCH  17  18
ENDBRANCH  16  17
ENDBRANCH  15  16
ENDBRANCH   1  15
TORSDOF 22
ENDMDL
MODEL 7
REMARK VINA RESULT:    -4.129      1.271      2.818
REMARK INTER + INTRA:         -12.460
REMARK INTER:                  -9.522
REMARK INTRA:                  -2.938
REMARK UNBOUND:                -3.020
REMARK SMILES CCCCCCCCCCCCCCCCCCCCCCCC(=O)[O-]
REMARK SMILES IDX 13 1 14 2 15 3 16 4 17 5 18 6 19 7 20 8 21 9 22 10 23 11
REMARK SMILES IDX 24 12 25 13 26 14 12 15 11 16 10 17 9 18 8 19 7 20 6 21 5 22
REMARK SMILES IDX 4 23 3 24 2 25 1 26
REMARK H PARENT
REMARK Flexibility Score: inf
ROOT
ATOM      1  C   UNL     1      -0.147  -1.973   5.313  1.00  0.00     0.000 C 
ENDROOT
BRANCH   1   2
ATOM      2  C   UNL     1       1.198  -1.226   5.209  1.00  0.00     0.000 C 
BRANCH   2   3
ATOM      3  C   UNL     1       2.418  -2.170   5.275  1.00  0.00     0.000 C 
BRANCH   3   4
ATOM      4  C   UNL     1       3.311  -1.973   6.518  1.00  0.00     0.000 C 
BRANCH   4   5
ATOM      5  C   UNL     1       3.160  -0.622   7.248  1.00  0.00     0.000 C 
BRANCH   5   6
ATOM      6  C   UNL     1       2.336  -0.675   8.549  1.00  0.00     0.000 C 
BRANCH   6   7
ATOM      7  C   UNL     1       1.160   0.316   8.553  1.00  0.00     0.000 C 
BRANCH   7   8
ATOM      8  C   UNL     1       1.630   1.783   8.479  1.00  0.00     0.000 C 
BRANCH   8   9
ATOM      9  C   UNL     1       1.167   2.552   7.220  1.00  0.00     0.000 C 
BRANCH   9  10
ATOM     10  C   UNL     1       1.486   4.064   7.212  1.00  0.00     0.006 C 
BRANCH  10  11
ATOM     11  C   UNL     1       0.543   4.911   6.337  1.00  0.00     0.053 C 
BRANCH  11  12
ATOM     12  C   UNL     1       0.976   4.919   4.901  1.00  0.00     0.041 C 
ATOM     13  O   UNL     1       0.123   5.041   3.982  1.00  0.00    -0.550 OA
ATOM     14  O   UNL     1       2.328   4.850   4.583  1.00  0.00    -0.550 OA
ENDBRANCH  11  12
ENDBRANCH  10  11
ENDBRANCH   9  10
ENDBRANCH   8   9
ENDBRANCH   7   8
ENDBRANCH   6   7
ENDBRANCH   5   6
ENDBRANCH   4   5
ENDBRANCH   3   4
ENDBRANCH   2   3
ENDBRANCH   1   2
BRANCH   1  15
ATOM     15  C   UNL     1      -0.464  -2.434   6.745  1.00  0.00     0.000 C 
BRANCH  15  16
ATOM     16  C   UNL     1      -1.691  -3.354   6.811  1.00  0.00     0.000 C 
BRANCH  16  17
ATOM     17  C   UNL     1      -2.893  -2.632   7.442  1.00  0.00     0.000 C 
BRANCH  17  18
ATOM     18  C   UNL     1      -4.249  -3.187   6.966  1.00  0.00    -0.000 C 
BRANCH  18  19
ATOM     19  C   UNL     1      -5.248  -2.126   6.466  1.00  0.00    -0.000 C 
BRANCH  19  20
ATOM     20  C   UNL     1      -4.569  -0.955   5.730  1.00  0.00    -0.000 C 
BRANCH  20  21
ATOM     21  C   UNL     1      -4.585  -1.140   4.203  1.00  0.00    -0.000 C 
BRANCH  21  22
ATOM     22  C   UNL     1      -3.318  -1.840   3.678  1.00  0.00    -0.000 C 
BRANCH  22  23
ATOM     23  C   UNL     1      -3.627  -3.189   3.008  1.00  0.00    -0.000 C 
BRANCH  23  24
ATOM     24  C   UNL     1      -2.479  -4.199   3.152  1.00  0.00    -0.000 C 
BRANCH  24  25
ATOM     25  C   UNL     1      -2.863  -5.323   4.123  1.00  0.00    -0.003 C 
ATOM     26  C   UNL     1      -2.329  -6.673   3.649  1.00  0.00     0.004 C 
ENDBRANCH  24  25
ENDBRANCH  23  24
ENDBRANCH  22  23
ENDBRANCH  21  22
ENDBRANCH  20  21
ENDBRANCH  19  20
ENDBRANCH  18  19
ENDBRANCH  17  18
ENDBRANCH  16  17
ENDBRANCH  15  16
ENDBRANCH   1  15
TORSDOF 22
ENDMDL
MODEL 8
REMARK VINA RESULT:    -4.115      4.670      8.985
REMARK INTER + INTRA:         -12.428
REMARK INTER:                  -8.600
REMARK INTRA:                  -3.828
REMARK UNBOUND:                -3.020
REMARK SMILES CCCCCCCCCCCCCCCCCCCCCCCC(=O)[O-]
REMARK SMILES IDX 13 1 14 2 15 3 16 4 17 5 18 6 19 7 20 8 21 9 22 10 23 11
REMARK SMILES IDX 24 12 25 13 26 14 12 15 11 16 10 17 9 18 8 19 7 20 6 21 5 22
REMARK SMILES IDX 4 23 3 24 2 25 1 26
REMARK H PARENT
REMARK Flexibility Score: inf
ROOT
ATOM      1  C   UNL     1      -4.337  -0.856   4.224  1.00  0.00     0.000 C 
ENDROOT
BRANCH   1   2
ATOM      2  C   UNL     1      -5.216  -1.104   5.466  1.00  0.00     0.000 C 
BRANCH   2   3
ATOM      3  C   UNL     1      -6.196  -2.283   5.285  1.00  0.00     0.000 C 
BRANCH   3   4
ATOM      4  C   UNL     1      -6.595  -2.562   3.820  1.00  0.00     0.000 C 
BRANCH   4   5
ATOM      5  C   UNL     1      -6.381  -4.009   3.329  1.00  0.00     0.000 C 
BRANCH   5   6
ATOM      6  C   UNL     1      -5.954  -4.137   1.853  1.00  0.00     0.000 C 
BRANCH   6   7
ATOM      7  C   UNL     1      -4.836  -5.171   1.641  1.00  0.00     0.000 C 
BRANCH   7   8
ATOM      8  C   UNL     1      -4.298  -5.164   0.195  1.00  0.00     0.000 C 
BRANCH   8   9
ATOM      9  C   UNL     1      -2.761  -5.275   0.071  1.00  0.00     0.000 C 
BRANCH   9  10
ATOM     10  C   UNL     1      -2.194  -5.064  -1.351  1.00  0.00     0.006 C 
BRANCH  10  11
ATOM     11  C   UNL     1      -0.939  -4.174  -1.412  1.00  0.00     0.053 C 
BRANCH  11  12
ATOM     12  C   UNL     1      -0.191  -4.355  -2.700  1.00  0.00     0.041 C 
ATOM     13  O   UNL     1      -0.452  -3.624  -3.693  1.00  0.00    -0.550 OA
ATOM     14  O   UNL     1       0.833  -5.293  -2.782  1.00  0.00    -0.550 OA
ENDBRANCH  11  12
ENDBRANCH  10  11
ENDBRANCH   9  10
ENDBRANCH   8   9
ENDBRANCH   7   8
ENDBRANCH   6   7
ENDBRANCH   5   6
ENDBRANCH   4   5
ENDBRANCH   3   4
ENDBRANCH   2   3
ENDBRANCH   1   2
BRANCH   1  15
ATOM     15  C   UNL     1      -2.955  -1.523   4.329  1.00  0.00     0.000 C 
BRANCH  15  16
ATOM     16  C   UNL     1      -2.786  -2.688   3.344  1.00  0.00     0.000 C 
BRANCH  16  17
ATOM     17  C   UNL     1      -2.149  -3.908   4.031  1.00  0.00     0.000 C 
BRANCH  17  18
ATOM     18  C   UNL     1      -3.146  -4.702   4.897  1.00  0.00    -0.000 C 
BRANCH  18  19
ATOM     19  C   UNL     1      -2.806  -4.757   6.398  1.00  0.00    -0.000 C 
BRANCH  19  20
ATOM     20  C   UNL     1      -3.621  -3.759   7.240  1.00  0.00    -0.000 C 
BRANCH  20  21
ATOM     21  C   UNL     1      -2.726  -2.730   7.953  1.00  0.00    -0.000 C 
BRANCH  21  22
ATOM     22  C   UNL     1      -1.250  -3.168   8.010  1.00  0.00    -0.000 C 
BRANCH  22  23
ATOM     23  C   UNL     1      -0.314  -2.175   7.303  1.00  0.00    -0.000 C 
BRANCH  23  24
ATOM     24  C   UNL     1       0.661  -2.864   6.337  1.00  0.00    -0.000 C 
BRANCH  24  25
ATOM     25  C   UNL     1       1.064  -1.912   5.203  1.00  0.00    -0.003 C 
ATOM     26  C   UNL     1       1.076  -0.459   5.675  1.00  0.00     0.004 C 
ENDBRANCH  24  25
ENDBRANCH  23  24
ENDBRANCH  22  23
ENDBRANCH  21  22
ENDBRANCH  20  21
ENDBRANCH  19  20
ENDBRANCH  18  19
ENDBRANCH  17  18
ENDBRANCH  16  17
ENDBRANCH  15  16
ENDBRANCH   1  15
TORSDOF 22
ENDMDL
MODEL 9
REMARK VINA RESULT:    -4.072      1.123      2.844
REMARK INTER + INTRA:         -12.330
REMARK INTER:                  -9.299
REMARK INTRA:                  -3.030
REMARK UNBOUND:                -3.020
REMARK SMILES CCCCCCCCCCCCCCCCCCCCCCCC(=O)[O-]
REMARK SMILES IDX 13 1 14 2 15 3 16 4 17 5 18 6 19 7 20 8 21 9 22 10 23 11
REMARK SMILES IDX 24 12 25 13 26 14 12 15 11 16 10 17 9 18 8 19 7 20 6 21 5 22
REMARK SMILES IDX 4 23 3 24 2 25 1 26
REMARK H PARENT
REMARK Flexibility Score: inf
ROOT
ATOM      1  C   UNL     1       0.088  -1.931   5.526  1.00  0.00     0.000 C 
ENDROOT
BRANCH   1   2
ATOM      2  C   UNL     1       1.434  -1.230   5.258  1.00  0.00     0.000 C 
BRANCH   2   3
ATOM      3  C   UNL     1       2.646  -2.175   5.404  1.00  0.00     0.000 C 
BRANCH   3   4
ATOM      4  C   UNL     1       3.869  -1.543   6.103  1.00  0.00     0.000 C 
BRANCH   4   5
ATOM      5  C   UNL     1       3.736  -1.325   7.624  1.00  0.00     0.000 C 
BRANCH   5   6
ATOM      6  C   UNL     1       3.344   0.105   8.044  1.00  0.00     0.000 C 
BRANCH   6   7
ATOM      7  C   UNL     1       1.919   0.193   8.613  1.00  0.00     0.000 C 
BRANCH   7   8
ATOM      8  C   UNL     1       1.184   1.471   8.158  1.00  0.00     0.000 C 
BRANCH   8   9
ATOM      9  C   UNL     1       2.060   2.488   7.392  1.00  0.00     0.000 C 
BRANCH   9  10
ATOM     10  C   UNL     1       1.302   3.690   6.783  1.00  0.00     0.006 C 
BRANCH  10  11
ATOM     11  C   UNL     1       1.391   3.789   5.249  1.00  0.00     0.053 C 
BRANCH  11  12
ATOM     12  C   UNL     1       0.962   5.139   4.754  1.00  0.00     0.041 C 
ATOM     13  O   UNL     1      -0.228   5.331   4.386  1.00  0.00    -0.550 OA
ATOM     14  O   UNL     1       1.864   6.197   4.754  1.00  0.00    -0.550 OA
ENDBRANCH  11  12
ENDBRANCH  10  11
ENDBRANCH   9  10
ENDBRANCH   8   9
ENDBRANCH   7   8
ENDBRANCH   6   7
ENDBRANCH   5   6
ENDBRANCH   4   5
ENDBRANCH   3   4
ENDBRANCH   2   3
ENDBRANCH   1   2
BRANCH   1  15
ATOM     15  C   UNL     1      -0.033  -2.462   6.964  1.00  0.00     0.000 C 
BRANCH  15  16
ATOM     16  C   UNL     1      -1.357  -3.197   7.212  1.00  0.00     0.000 C 
BRANCH  16  17
ATOM     17  C   UNL     1      -1.500  -4.412   6.281  1.00  0.00     0.000 C 
BRANCH  17  18
ATOM     18  C   UNL     1      -2.950  -4.924   6.174  1.00  0.00    -0.000 C 
BRANCH  18  19
ATOM     19  C   UNL     1      -3.402  -5.307   4.753  1.00  0.00    -0.000 C 
BRANCH  19  20
ATOM     20  C   UNL     1      -2.653  -4.536   3.650  1.00  0.00    -0.000 C 
BRANCH  20  21
ATOM     21  C   UNL     1      -3.498  -3.392   3.063  1.00  0.00    -0.000 C 
BRANCH  21  22
ATOM     22  C   UNL     1      -2.923  -2.002   3.391  1.00  0.00    -0.000 C 
BRANCH  22  23
ATOM     23  C   UNL     1      -3.357  -1.498   4.777  1.00  0.00    -0.000 C 
BRANCH  23  24
ATOM     24  C   UNL     1      -4.750  -0.852   4.764  1.00  0.00    -0.000 C 
BRANCH  24  25
ATOM     25  C   UNL     1      -5.264  -0.642   6.194  1.00  0.00    -0.003 C 
ATOM     26  C   UNL     1      -4.884  -1.813   7.098  1.00  0.00     0.004 C 
ENDBRANCH  24  25
ENDBRANCH  23  24
ENDBRANCH  22  23
ENDBRANCH  21  22
ENDBRANCH  20  21
ENDBRANCH  19  20
ENDBRANCH  18  19
ENDBRANCH  17  18
ENDBRANCH  16  17
ENDBRANCH  15  16
ENDBRANCH   1  15
TORSDOF 22
ENDMDL
