MODEL 1
REMARK VINA RESULT:    -4.408      0.000      0.000
REMARK INTER + INTRA:          -4.992
REMARK INTER:                  -5.181
REMARK INTRA:                   0.189
REMARK UNBOUND:                 0.189
REMARK SMILES COc1cc2ccc(=O)oc2c(OC)c1OC
REMARK SMILES IDX 3 1 15 2 12 3 11 4 5 5 4 6 6 7 7 8 8 9 9 10 10 11 2 12 1 13
REMARK SMILES IDX 16 14 17 15 13 16 14 17
REMARK H PARENT
REMARK Flexibility Score: inf
ROOT
ATOM      1  C   UNL     1      10.556  12.937  22.694  1.00  0.00     0.165 A 
ATOM      2  C   UNL     1      10.936  12.989  21.342  1.00  0.00     0.207 A 
ATOM      3  C   UNL     1      12.002  13.823  20.936  1.00  0.00     0.208 A 
ATOM      4  C   UNL     1      12.614  14.670  21.867  1.00  0.00     0.184 A 
ATOM      5  C   UNL     1      12.210  14.642  23.219  1.00  0.00     0.025 A 
ATOM      6  C   UNL     1      11.199  13.767  23.631  1.00  0.00     0.062 A 
ATOM      7  C   UNL     1      12.852  15.494  24.125  1.00  0.00     0.020 A 
ATOM      8  C   UNL     1      13.864  16.339  23.673  1.00  0.00     0.094 A 
ATOM      9  C   UNL     1      14.213  16.312  22.319  1.00  0.00     0.336 A 
ATOM     10  O   UNL     1      15.125  17.066  21.890  1.00  0.00    -0.246 OA
ATOM     11  O   UNL     1      13.588  15.491  21.480  1.00  0.00    -0.419 OA
ENDROOT
BRANCH   1  12
ATOM     12  O   UNL     1       9.522  12.061  23.060  1.00  0.00    -0.493 OA
ATOM     13  C   UNL     1       8.604  12.294  24.124  1.00  0.00     0.278 C 
ENDBRANCH   1  12
BRANCH   2  14
ATOM     14  O   UNL     1      10.225  12.211  20.423  1.00  0.00    -0.490 OA
ATOM     15  C   UNL     1       9.656  12.762  19.240  1.00  0.00     0.278 C 
ENDBRANCH   2  14
BRANCH   3  16
ATOM     16  O   UNL     1      12.480  13.820  19.621  1.00  0.00    -0.490 OA
ATOM     17  C   UNL     1      13.737  13.254  19.266  1.00  0.00     0.278 C 
ENDBRANCH   3  16
TORSDOF 3
ENDMDL
MODEL 2
REMARK VINA RESULT:    -4.369      1.358      4.646
REMARK INTER + INTRA:          -4.946
REMARK INTER:                  -4.898
REMARK INTRA:                  -0.048
REMARK UNBOUND:                 0.189
REMARK SMILES COc1cc2ccc(=O)oc2c(OC)c1OC
REMARK SMILES IDX 3 1 15 2 12 3 11 4 5 5 4 6 6 7 7 8 8 9 9 10 10 11 2 12 1 13
REMARK SMILES IDX 16 14 17 15 13 16 14 17
REMARK H PARENT
REMARK Flexibility Score: inf
ROOT
ATOM      1  C   UNL     1      13.887  14.936  20.858  1.00  0.00     0.165 A 
ATOM      2  C   UNL     1      13.315  14.014  19.965  1.00  0.00     0.207 A 
ATOM      3  C   UNL     1      12.144  13.310  20.324  1.00  0.00     0.208 A 
ATOM      4  C   UNL     1      11.611  13.460  21.610  1.00  0.00     0.184 A 
ATOM      5  C   UNL     1      12.205  14.362  22.520  1.00  0.00     0.025 A 
ATOM      6  C   UNL     1      13.325  15.107  22.137  1.00  0.00     0.062 A 
ATOM      7  C   UNL     1      11.638  14.496  23.792  1.00  0.00     0.020 A 
ATOM      8  C   UNL     1      10.513  13.744  24.125  1.00  0.00     0.094 A 
ATOM      9  C   UNL     1       9.977  12.871  23.172  1.00  0.00     0.336 A 
ATOM     10  O   UNL     1       8.961  12.184  23.452  1.00  0.00    -0.246 OA
ATOM     11  O   UNL     1      10.534  12.764  21.969  1.00  0.00    -0.419 OA
ENDROOT
BRANCH   1  12
ATOM     12  O   UNL     1      15.023  15.647  20.442  1.00  0.00    -0.493 OA
ATOM     13  C   UNL     1      15.004  16.980  19.941  1.00  0.00     0.278 C 
ENDBRANCH   1  12
BRANCH   2  14
ATOM     14  O   UNL     1      13.943  13.809  18.732  1.00  0.00    -0.490 OA
ATOM     15  C   UNL     1      15.125  13.025  18.603  1.00  0.00     0.278 C 
ENDBRANCH   2  14
BRANCH   3  16
ATOM     16  O   UNL     1      11.485  12.467  19.423  1.00  0.00    -0.490 OA
ATOM     17  C   UNL     1      10.321  12.871  18.710  1.00  0.00     0.278 C 
ENDBRANCH   3  16
TORSDOF 3
ENDMDL
MODEL 3
REMARK VINA RESULT:    -4.189      1.556      3.259
REMARK INTER + INTRA:          -4.734
REMARK INTER:                  -4.914
REMARK INTRA:                   0.180
REMARK UNBOUND:                 0.189
REMARK SMILES COc1cc2ccc(=O)oc2c(OC)c1OC
REMARK SMILES IDX 3 1 15 2 12 3 11 4 5 5 4 6 6 7 7 8 8 9 9 10 10 11 2 12 1 13
REMARK SMILES IDX 16 14 17 15 13 16 14 17
REMARK H PARENT
REMARK Flexibility Score: inf
ROOT
ATOM      1  C   UNL     1      11.403  13.183  19.662  1.00  0.00     0.165 A 
ATOM      2  C   UNL     1      11.317  12.945  21.045  1.00  0.00     0.207 A 
ATOM      3  C   UNL     1      12.037  13.756  21.951  1.00  0.00     0.208 A 
ATOM      4  C   UNL     1      12.913  14.733  21.463  1.00  0.00     0.184 A 
ATOM      5  C   UNL     1      13.025  14.950  20.073  1.00  0.00     0.025 A 
ATOM      6  C   UNL     1      12.260  14.191  19.180  1.00  0.00     0.062 A 
ATOM      7  C   UNL     1      13.900  15.944  19.621  1.00  0.00     0.020 A 
ATOM      8  C   UNL     1      14.632  16.686  20.546  1.00  0.00     0.094 A 
ATOM      9  C   UNL     1      14.469  16.418  21.909  1.00  0.00     0.336 A 
ATOM     10  O   UNL     1      15.118  17.077  22.761  1.00  0.00    -0.246 OA
ATOM     11  O   UNL     1      13.628  15.468  22.311  1.00  0.00    -0.419 OA
ENDROOT
BRANCH   1  12
ATOM     12  O   UNL     1      10.636  12.384  18.801  1.00  0.00    -0.493 OA
ATOM     13  C   UNL     1       9.278  12.640  18.456  1.00  0.00     0.278 C 
ENDBRANCH   1  12
BRANCH   2  14
ATOM     14  O   UNL     1      10.519  11.885  21.486  1.00  0.00    -0.490 OA
ATOM     15  C   UNL     1       9.527  12.050  22.494  1.00  0.00     0.278 C 
ENDBRANCH   2  14
BRANCH   3  16
ATOM     16  O   UNL     1      11.893  13.620  23.336  1.00  0.00    -0.490 OA
ATOM     17  C   UNL     1      12.788  12.843  24.125  1.00  0.00     0.278 C 
ENDBRANCH   3  16
TORSDOF 3
ENDMDL
MODEL 4
REMARK VINA RESULT:    -4.081      1.406      4.765
REMARK INTER + INTRA:          -4.608
REMARK INTER:                  -4.440
REMARK INTRA:                  -0.168
REMARK UNBOUND:                 0.189
REMARK SMILES COc1cc2ccc(=O)oc2c(OC)c1OC
REMARK SMILES IDX 3 1 15 2 12 3 11 4 5 5 4 6 6 7 7 8 8 9 9 10 10 11 2 12 1 13
REMARK SMILES IDX 16 14 17 15 13 16 14 17
REMARK H PARENT
REMARK Flexibility Score: inf
ROOT
ATOM      1  C   UNL     1      14.121  15.904  22.681  1.00  0.00     0.165 A 
ATOM      2  C   UNL     1      14.080  15.449  21.352  1.00  0.00     0.207 A 
ATOM      3  C   UNL     1      13.060  14.564  20.936  1.00  0.00     0.208 A 
ATOM      4  C   UNL     1      12.148  14.066  21.874  1.00  0.00     0.184 A 
ATOM      5  C   UNL     1      12.210  14.497  23.217  1.00  0.00     0.025 A 
ATOM      6  C   UNL     1      13.180  15.424  23.612  1.00  0.00     0.062 A 
ATOM      7  C   UNL     1      11.275  13.988  24.125  1.00  0.00     0.020 A 
ATOM      8  C   UNL     1      10.317  13.076  23.684  1.00  0.00     0.094 A 
ATOM      9  C   UNL     1      10.314  12.695  22.339  1.00  0.00     0.336 A 
ATOM     10  O   UNL     1       9.457  11.875  21.919  1.00  0.00    -0.246 OA
ATOM     11  O   UNL     1      11.213  13.197  21.496  1.00  0.00    -0.419 OA
ENDROOT
BRANCH   1  12
ATOM     12  O   UNL     1      15.125  16.817  23.040  1.00  0.00    -0.493 OA
ATOM     13  C   UNL     1      14.996  17.797  24.066  1.00  0.00     0.278 C 
ENDBRANCH   1  12
BRANCH   2  14
ATOM     14  O   UNL     1      15.077  15.882  20.472  1.00  0.00    -0.490 OA
ATOM     15  C   UNL     1      14.882  16.978  19.584  1.00  0.00     0.278 C 
ENDBRANCH   2  14
BRANCH   3  16
ATOM     16  O   UNL     1      12.922  14.176  19.599  1.00  0.00    -0.490 OA
ATOM     17  C   UNL     1      12.153  14.922  18.662  1.00  0.00     0.278 C 
ENDBRANCH   3  16
TORSDOF 3
ENDMDL
MODEL 5
REMARK VINA RESULT:    -4.038      1.777      5.298
REMARK INTER + INTRA:          -4.557
REMARK INTER:                  -4.346
REMARK INTRA:                  -0.212
REMARK UNBOUND:                 0.189
REMARK SMILES COc1cc2ccc(=O)oc2c(OC)c1OC
REMARK SMILES IDX 3 1 15 2 12 3 11 4 5 5 4 6 6 7 7 8 8 9 9 10 10 11 2 12 1 13
REMARK SMILES IDX 16 14 17 15 13 16 14 17
REMARK H PARENT
REMARK Flexibility Score: inf
ROOT
ATOM      1  C   UNL     1      13.797  14.942  21.920  1.00  0.00     0.165 A 
ATOM      2  C   UNL     1      13.306  13.857  22.665  1.00  0.00     0.207 A 
ATOM      3  C   UNL     1      12.273  13.046  22.142  1.00  0.00     0.208 A 
ATOM      4  C   UNL     1      11.674  13.385  20.923  1.00  0.00     0.184 A 
ATOM      5  C   UNL     1      12.145  14.496  20.190  1.00  0.00     0.025 A 
ATOM      6  C   UNL     1      13.212  15.258  20.679  1.00  0.00     0.062 A 
ATOM      7  C   UNL     1      11.531  14.798  18.970  1.00  0.00     0.020 A 
ATOM      8  C   UNL     1      10.480  14.004  18.514  1.00  0.00     0.094 A 
ATOM      9  C   UNL     1      10.068  12.918  19.293  1.00  0.00     0.336 A 
ATOM     10  O   UNL     1       9.122  12.186  18.900  1.00  0.00    -0.246 OA
ATOM     11  O   UNL     1      10.671  12.651  20.449  1.00  0.00    -0.419 OA
ENDROOT
BRANCH   1  12
ATOM     12  O   UNL     1      14.854  15.694  22.458  1.00  0.00    -0.493 OA
ATOM     13  C   UNL     1      14.720  17.004  22.998  1.00  0.00     0.278 C 
ENDBRANCH   1  12
BRANCH   2  14
ATOM     14  O   UNL     1      13.854  13.619  23.929  1.00  0.00    -0.490 OA
ATOM     15  C   UNL     1      14.960  12.743  24.125  1.00  0.00     0.278 C 
ENDBRANCH   2  14
BRANCH   3  16
ATOM     16  O   UNL     1      11.834  11.894  22.804  1.00  0.00    -0.490 OA
ATOM     17  C   UNL     1      10.889  11.938  23.868  1.00  0.00     0.278 C 
ENDBRANCH   3  16
TORSDOF 3
ENDMDL
MODEL 6
REMARK VINA RESULT:    -3.744      2.092      4.713
REMARK INTER + INTRA:          -4.212
REMARK INTER:                  -4.116
REMARK INTRA:                  -0.095
REMARK UNBOUND:                 0.189
REMARK SMILES COc1cc2ccc(=O)oc2c(OC)c1OC
REMARK SMILES IDX 3 1 15 2 12 3 11 4 5 5 4 6 6 7 7 8 8 9 9 10 10 11 2 12 1 13
REMARK SMILES IDX 16 14 17 15 13 16 14 17
REMARK H PARENT
REMARK Flexibility Score: inf
ROOT
ATOM      1  C   UNL     1      13.284  13.334  22.956  1.00  0.00     0.165 A 
ATOM      2  C   UNL     1      13.672  14.490  22.255  1.00  0.00     0.207 A 
ATOM      3  C   UNL     1      12.947  14.906  21.116  1.00  0.00     0.208 A 
ATOM      4  C   UNL     1      11.903  14.110  20.629  1.00  0.00     0.184 A 
ATOM      5  C   UNL     1      11.535  12.931  21.313  1.00  0.00     0.025 A 
ATOM      6  C   UNL     1      12.212  12.557  22.479  1.00  0.00     0.062 A 
ATOM      7  C   UNL     1      10.479  12.167  20.805  1.00  0.00     0.020 A 
ATOM      8  C   UNL     1       9.824  12.585  19.648  1.00  0.00     0.094 A 
ATOM      9  C   UNL     1      10.241  13.765  19.024  1.00  0.00     0.336 A 
ATOM     10  O   UNL     1       9.662  14.161  17.979  1.00  0.00    -0.246 OA
ATOM     11  O   UNL     1      11.247  14.474  19.529  1.00  0.00    -0.419 OA
ENDROOT
BRANCH   1  12
ATOM     12  O   UNL     1      14.004  12.983  24.108  1.00  0.00    -0.493 OA
ATOM     13  C   UNL     1      15.125  12.105  24.125  1.00  0.00     0.278 C 
ENDBRANCH   1  12
BRANCH   2  14
ATOM     14  O   UNL     1      14.791  15.195  22.708  1.00  0.00    -0.490 OA
ATOM     15  C   UNL     1      14.678  16.344  23.542  1.00  0.00     0.278 C 
ENDBRANCH   2  14
BRANCH   3  16
ATOM     16  O   UNL     1      13.234  16.106  20.458  1.00  0.00    -0.490 OA
ATOM     17  C   UNL     1      14.440  16.309  19.729  1.00  0.00     0.278 C 
ENDBRANCH   3  16
TORSDOF 3
ENDMDL
MODEL 7
REMARK VINA RESULT:    -2.783      1.641      5.271
REMARK INTER + INTRA:          -3.083
REMARK INTER:                  -3.353
REMARK INTRA:                   0.271
REMARK UNBOUND:                 0.189
REMARK SMILES COc1cc2ccc(=O)oc2c(OC)c1OC
REMARK SMILES IDX 3 1 15 2 12 3 11 4 5 5 4 6 6 7 7 8 8 9 9 10 10 11 2 12 1 13
REMARK SMILES IDX 16 14 17 15 13 16 14 17
REMARK H PARENT
REMARK Flexibility Score: inf
ROOT
ATOM      1  C   UNL     1      13.917  13.658  20.412  1.00  0.00     0.165 A 
ATOM      2  C   UNL     1      13.903  14.664  21.394  1.00  0.00     0.207 A 
ATOM      3  C   UNL     1      12.878  14.693  22.366  1.00  0.00     0.208 A 
ATOM      4  C   UNL     1      11.823  13.776  22.289  1.00  0.00     0.184 A 
ATOM      5  C   UNL     1      11.819  12.786  21.283  1.00  0.00     0.025 A 
ATOM      6  C   UNL     1      12.870  12.719  20.361  1.00  0.00     0.062 A 
ATOM      7  C   UNL     1      10.754  11.879  21.244  1.00  0.00     0.020 A 
ATOM      8  C   UNL     1       9.736  11.975  22.190  1.00  0.00     0.094 A 
ATOM      9  C   UNL     1       9.807  12.980  23.160  1.00  0.00     0.336 A 
ATOM     10  O   UNL     1       8.899  13.083  24.025  1.00  0.00    -0.246 OA
ATOM     11  O   UNL     1      10.831  13.828  23.176  1.00  0.00    -0.419 OA
ENDROOT
BRANCH   1  12
ATOM     12  O   UNL     1      14.978  13.640  19.493  1.00  0.00    -0.493 OA
ATOM     13  C   UNL     1      14.865  13.226  18.136  1.00  0.00     0.278 C 
ENDBRANCH   1  12
BRANCH   2  14
ATOM     14  O   UNL     1      14.914  15.629  21.367  1.00  0.00    -0.490 OA
ATOM     15  C   UNL     1      14.904  16.715  20.447  1.00  0.00     0.278 C 
ENDBRANCH   2  14
BRANCH   3  16
ATOM     16  O   UNL     1      12.890  15.610  23.422  1.00  0.00    -0.490 OA
ATOM     17  C   UNL     1      14.082  15.956  24.120  1.00  0.00     0.278 C 
ENDBRANCH   3  16
TORSDOF 3
ENDMDL
MODEL 8
REMARK VINA RESULT:    -2.641      1.815      5.702
REMARK INTER + INTRA:          -2.915
REMARK INTER:                  -2.653
REMARK INTRA:                  -0.262
REMARK UNBOUND:                 0.189
REMARK SMILES COc1cc2ccc(=O)oc2c(OC)c1OC
REMARK SMILES IDX 3 1 15 2 12 3 11 4 5 5 4 6 6 7 7 8 8 9 9 10 10 11 2 12 1 13
REMARK SMILES IDX 16 14 17 15 13 16 14 17
REMARK H PARENT
REMARK Flexibility Score: inf
ROOT
ATOM      1  C   UNL     1      14.154  15.872  20.431  1.00  0.00     0.165 A 
ATOM      2  C   UNL     1      14.158  15.547  21.799  1.00  0.00     0.207 A 
ATOM      3  C   UNL     1      13.227  14.614  22.310  1.00  0.00     0.208 A 
ATOM      4  C   UNL     1      12.239  14.089  21.469  1.00  0.00     0.184 A 
ATOM      5  C   UNL     1      12.214  14.440  20.102  1.00  0.00     0.025 A 
ATOM      6  C   UNL     1      13.178  15.313  19.585  1.00  0.00     0.062 A 
ATOM      7  C   UNL     1      11.219  13.886  19.289  1.00  0.00     0.020 A 
ATOM      8  C   UNL     1      10.288  13.011  19.844  1.00  0.00     0.094 A 
ATOM      9  C   UNL     1      10.375  12.706  21.206  1.00  0.00     0.336 A 
ATOM     10  O   UNL     1       9.545  11.916  21.727  1.00  0.00    -0.246 OA
ATOM     11  O   UNL     1      11.332  13.245  21.956  1.00  0.00    -0.419 OA
ENDROOT
BRANCH   1  12
ATOM     12  O   UNL     1      15.125  16.768  19.958  1.00  0.00    -0.493 OA
ATOM     13  C   UNL     1      14.857  17.867  19.093  1.00  0.00     0.278 C 
ENDBRANCH   1  12
BRANCH   2  14
ATOM     14  O   UNL     1      15.089  16.180  22.627  1.00  0.00    -0.490 OA
ATOM     15  C   UNL     1      14.781  17.368  23.350  1.00  0.00     0.278 C 
ENDBRANCH   2  14
BRANCH   3  16
ATOM     16  O   UNL     1      13.270  14.185  23.640  1.00  0.00    -0.490 OA
ATOM     17  C   UNL     1      14.159  13.166  24.086  1.00  0.00     0.278 C 
ENDBRANCH   3  16
TORSDOF 3
ENDMDL
MODEL 9
REMARK VINA RESULT:    -2.087      1.787      3.051
REMARK INTER + INTRA:          -2.264
REMARK INTER:                  -2.684
REMARK INTRA:                   0.421
REMARK UNBOUND:                 0.189
REMARK SMILES COc1cc2ccc(=O)oc2c(OC)c1OC
REMARK SMILES IDX 3 1 15 2 12 3 11 4 5 5 4 6 6 7 7 8 8 9 9 10 10 11 2 12 1 13
REMARK SMILES IDX 16 14 17 15 13 16 14 17
REMARK H PARENT
REMARK Flexibility Score: inf
ROOT
ATOM      1  C   UNL     1      11.786  13.283  19.896  1.00  0.00     0.165 A 
ATOM      2  C   UNL     1      12.875  13.950  19.308  1.00  0.00     0.207 A 
ATOM      3  C   UNL     1      13.728  14.752  20.100  1.00  0.00     0.208 A 
ATOM      4  C   UNL     1      13.428  14.959  21.452  1.00  0.00     0.184 A 
ATOM      5  C   UNL     1      12.315  14.316  22.035  1.00  0.00     0.025 A 
ATOM      6  C   UNL     1      11.511  13.469  21.263  1.00  0.00     0.062 A 
ATOM      7  C   UNL     1      12.052  14.536  23.391  1.00  0.00     0.020 A 
ATOM      8  C   UNL     1      12.888  15.376  24.125  1.00  0.00     0.094 A 
ATOM      9  C   UNL     1      13.974  15.978  23.481  1.00  0.00     0.336 A 
ATOM     10  O   UNL     1      14.742  16.739  24.125  1.00  0.00    -0.246 OA
ATOM     11  O   UNL     1      14.202  15.750  22.191  1.00  0.00    -0.419 OA
ENDROOT
BRANCH   1  12
ATOM     12  O   UNL     1      10.992  12.461  19.081  1.00  0.00    -0.493 OA
ATOM     13  C   UNL     1       9.732  12.838  18.537  1.00  0.00     0.278 C 
ENDBRANCH   1  12
BRANCH   2  14
ATOM     14  O   UNL     1      13.074  13.808  17.932  1.00  0.00    -0.490 OA
ATOM     15  C   UNL     1      14.285  13.293  17.388  1.00  0.00     0.278 C 
ENDBRANCH   2  14
BRANCH   3  16
ATOM     16  O   UNL     1      14.882  15.343  19.574  1.00  0.00    -0.490 OA
ATOM     17  C   UNL     1      15.118  16.745  19.636  1.00  0.00     0.278 C 
ENDBRANCH   3  16
TORSDOF 3
ENDMDL
