MODEL 1
REMARK VINA RESULT:    -3.654      0.000      0.000
REMARK INTER + INTRA:          -4.102
REMARK INTER:                  -3.974
REMARK INTRA:                  -0.127
REMARK UNBOUND:                -0.127
REMARK SMILES Cc1ccc(C(C)C)cc1O
REMARK SMILES IDX 1 1 2 2 10 3 9 4 5 5 4 6 3 7 11 8 6 10 7 11 8 12
REMARK H PARENT 11 9
REMARK Flexibility Score: inf
ROOT
ATOM      1  C   UNL     1      -6.353  23.256   8.951  1.00  0.00     0.048 C 
ATOM      2  C   UNL     1      -6.947  22.588  10.158  1.00  0.00    -0.009 A 
ATOM      3  C   UNL     1      -6.181  22.420  11.324  1.00  0.00     0.118 A 
ATOM      4  C   UNL     1      -6.742  21.796  12.448  1.00  0.00     0.050 A 
ATOM      5  C   UNL     1      -8.070  21.332  12.422  1.00  0.00    -0.042 A 
ATOM      6  C   UNL     1      -8.827  21.504  11.252  1.00  0.00     0.004 A 
ATOM      7  C   UNL     1      -8.272  22.126  10.132  1.00  0.00     0.007 A 
ENDROOT
BRANCH   3   8
ATOM      8  O   UNL     1      -4.863  22.875  11.364  1.00  0.00    -0.508 OA
ATOM      9  H   UNL     1      -4.396  23.077  12.241  1.00  0.00     0.293 HD
ENDBRANCH   3   8
BRANCH   5  10
ATOM     10  C   UNL     1      -8.687  20.655  13.633  1.00  0.00     0.013 C 
ATOM     11  C   UNL     1      -9.949  19.875  13.247  1.00  0.00     0.012 C 
ATOM     12  C   UNL     1      -8.981  21.669  14.743  1.00  0.00     0.012 C 
ENDBRANCH   5  10
TORSDOF 2
ENDMDL
MODEL 2
REMARK VINA RESULT:    -3.513      1.925      4.275
REMARK INTER + INTRA:          -3.948
REMARK INTER:                  -3.821
REMARK INTRA:                  -0.127
REMARK UNBOUND:                -0.127
REMARK SMILES Cc1ccc(C(C)C)cc1O
REMARK SMILES IDX 1 1 2 2 10 3 9 4 5 5 4 6 3 7 11 8 6 10 7 11 8 12
REMARK H PARENT 11 9
REMARK Flexibility Score: inf
ROOT
ATOM      1  C   UNL     1     -10.884  19.969  12.333  1.00  0.00     0.048 C 
ATOM      2  C   UNL     1      -9.624  20.697  11.958  1.00  0.00    -0.009 A 
ATOM      3  C   UNL     1      -8.510  20.673  12.814  1.00  0.00     0.118 A 
ATOM      4  C   UNL     1      -7.337  21.353  12.457  1.00  0.00     0.050 A 
ATOM      5  C   UNL     1      -7.261  22.066  11.245  1.00  0.00    -0.042 A 
ATOM      6  C   UNL     1      -8.380  22.084  10.397  1.00  0.00     0.004 A 
ATOM      7  C   UNL     1      -9.550  21.407  10.750  1.00  0.00     0.007 A 
ENDROOT
BRANCH   3   8
ATOM      8  O   UNL     1      -8.571  19.971  14.018  1.00  0.00    -0.508 OA
ATOM      9  H   UNL     1      -9.360  20.061  14.647  1.00  0.00     0.293 HD
ENDBRANCH   3   8
BRANCH   5  10
ATOM     10  C   UNL     1      -5.997  22.807  10.850  1.00  0.00     0.013 C 
ATOM     11  C   UNL     1      -5.880  24.140  11.598  1.00  0.00     0.012 C 
ATOM     12  C   UNL     1      -5.931  23.016   9.333  1.00  0.00     0.012 C 
ENDBRANCH   5  10
TORSDOF 2
ENDMDL
MODEL 3
REMARK VINA RESULT:    -3.458      2.080      4.653
REMARK INTER + INTRA:          -3.888
REMARK INTER:                  -3.761
REMARK INTRA:                  -0.127
REMARK UNBOUND:                -0.127
REMARK SMILES Cc1ccc(C(C)C)cc1O
REMARK SMILES IDX 1 1 2 2 10 3 9 4 5 5 4 6 3 7 11 8 6 10 7 11 8 12
REMARK H PARENT 11 9
REMARK Flexibility Score: inf
ROOT
ATOM      1  C   UNL     1      -9.456  22.340  15.335  1.00  0.00     0.048 C 
ATOM      2  C   UNL     1      -8.532  22.394  14.152  1.00  0.00    -0.009 A 
ATOM      3  C   UNL     1      -8.146  21.212  13.499  1.00  0.00     0.118 A 
ATOM      4  C   UNL     1      -7.285  21.270  12.394  1.00  0.00     0.050 A 
ATOM      5  C   UNL     1      -6.798  22.506  11.928  1.00  0.00    -0.042 A 
ATOM      6  C   UNL     1      -7.189  23.682  12.588  1.00  0.00     0.004 A 
ATOM      7  C   UNL     1      -8.047  23.627  13.688  1.00  0.00     0.007 A 
ENDROOT
BRANCH   3   8
ATOM      8  O   UNL     1      -8.621  19.979  13.948  1.00  0.00    -0.508 OA
ATOM      9  H   UNL     1      -9.611  19.765  13.965  1.00  0.00     0.293 HD
ENDBRANCH   3   8
BRANCH   5  10
ATOM     10  C   UNL     1      -5.864  22.580  10.734  1.00  0.00     0.013 C 
ATOM     11  C   UNL     1      -4.887  23.755  10.868  1.00  0.00     0.012 C 
ATOM     12  C   UNL     1      -6.651  22.663   9.421  1.00  0.00     0.012 C 
ENDBRANCH   5  10
TORSDOF 2
ENDMDL
MODEL 4
REMARK VINA RESULT:    -3.440      2.181      3.721
REMARK INTER + INTRA:          -3.869
REMARK INTER:                  -3.741
REMARK INTRA:                  -0.128
REMARK UNBOUND:                -0.127
REMARK SMILES Cc1ccc(C(C)C)cc1O
REMARK SMILES IDX 1 1 2 2 10 3 9 4 5 5 4 6 3 7 11 8 6 10 7 11 8 12
REMARK H PARENT 11 9
REMARK Flexibility Score: inf
ROOT
ATOM      1  C   UNL     1      -3.002  23.985   7.111  1.00  0.00     0.048 C 
ATOM      2  C   UNL     1      -4.049  23.644   8.133  1.00  0.00    -0.009 A 
ATOM      3  C   UNL     1      -3.810  23.880   9.498  1.00  0.00     0.118 A 
ATOM      4  C   UNL     1      -4.792  23.559  10.446  1.00  0.00     0.050 A 
ATOM      5  C   UNL     1      -6.021  23.001  10.047  1.00  0.00    -0.042 A 
ATOM      6  C   UNL     1      -6.249  22.769   8.681  1.00  0.00     0.004 A 
ATOM      7  C   UNL     1      -5.273  23.087   7.734  1.00  0.00     0.007 A 
ENDROOT
BRANCH   3   8
ATOM      8  O   UNL     1      -2.597  24.433   9.909  1.00  0.00    -0.508 OA
ATOM      9  H   UNL     1      -1.718  24.164   9.481  1.00  0.00     0.293 HD
ENDBRANCH   3   8
BRANCH   5  10
ATOM     10  C   UNL     1      -7.090  22.650  11.066  1.00  0.00     0.013 C 
ATOM     11  C   UNL     1      -6.557  21.660  12.108  1.00  0.00     0.012 C 
ATOM     12  C   UNL     1      -8.349  22.107  10.381  1.00  0.00     0.012 C 
ENDBRANCH   5  10
TORSDOF 2
ENDMDL
MODEL 5
REMARK VINA RESULT:    -3.416      3.545      5.600
REMARK INTER + INTRA:          -3.843
REMARK INTER:                  -3.718
REMARK INTRA:                  -0.125
REMARK UNBOUND:                -0.127
REMARK SMILES Cc1ccc(C(C)C)cc1O
REMARK SMILES IDX 1 1 2 2 10 3 9 4 5 5 4 6 3 7 11 8 6 10 7 11 8 12
REMARK H PARENT 11 9
REMARK Flexibility Score: inf
ROOT
ATOM      1  C   UNL     1      -3.488  22.627   4.527  1.00  0.00     0.048 C 
ATOM      2  C   UNL     1      -3.952  22.888   5.932  1.00  0.00    -0.009 A 
ATOM      3  C   UNL     1      -3.114  23.554   6.842  1.00  0.00     0.118 A 
ATOM      4  C   UNL     1      -3.555  23.796   8.152  1.00  0.00     0.050 A 
ATOM      5  C   UNL     1      -4.832  23.376   8.568  1.00  0.00    -0.042 A 
ATOM      6  C   UNL     1      -5.661  22.710   7.651  1.00  0.00     0.004 A 
ATOM      7  C   UNL     1      -5.225  22.469   6.346  1.00  0.00     0.007 A 
ENDROOT
BRANCH   3   8
ATOM      8  O   UNL     1      -1.846  23.976   6.444  1.00  0.00    -0.508 OA
ATOM      9  H   UNL     1      -1.285  24.592   7.022  1.00  0.00     0.293 HD
ENDBRANCH   3   8
BRANCH   5  10
ATOM     10  C   UNL     1      -5.318  23.632   9.983  1.00  0.00     0.013 C 
ATOM     11  C   UNL     1      -4.141  23.775  10.955  1.00  0.00     0.012 C 
ATOM     12  C   UNL     1      -6.284  22.534  10.443  1.00  0.00     0.012 C 
ENDBRANCH   5  10
TORSDOF 2
ENDMDL
MODEL 6
REMARK VINA RESULT:    -3.372      1.624      2.177
REMARK INTER + INTRA:          -3.795
REMARK INTER:                  -3.691
REMARK INTRA:                  -0.104
REMARK UNBOUND:                -0.127
REMARK SMILES Cc1ccc(C(C)C)cc1O
REMARK SMILES IDX 1 1 2 2 10 3 9 4 5 5 4 6 3 7 11 8 6 10 7 11 8 12
REMARK H PARENT 11 9
REMARK Flexibility Score: inf
ROOT
ATOM      1  C   UNL     1      -6.783  22.925   8.570  1.00  0.00     0.048 C 
ATOM      2  C   UNL     1      -7.266  22.382   9.885  1.00  0.00    -0.009 A 
ATOM      3  C   UNL     1      -8.626  22.083  10.072  1.00  0.00     0.118 A 
ATOM      4  C   UNL     1      -9.069  21.574  11.302  1.00  0.00     0.050 A 
ATOM      5  C   UNL     1      -8.163  21.360  12.358  1.00  0.00    -0.042 A 
ATOM      6  C   UNL     1      -6.806  21.664  12.161  1.00  0.00     0.004 A 
ATOM      7  C   UNL     1      -6.362  22.169  10.937  1.00  0.00     0.007 A 
ENDROOT
BRANCH   3   8
ATOM      8  O   UNL     1      -9.535  22.290   9.035  1.00  0.00    -0.508 OA
ATOM      9  H   UNL     1      -9.344  22.941   8.282  1.00  0.00     0.293 HD
ENDBRANCH   3   8
BRANCH   5  10
ATOM     10  C   UNL     1      -8.632  20.812  13.693  1.00  0.00     0.013 C 
ATOM     11  C   UNL     1      -9.834  19.876  13.515  1.00  0.00     0.012 C 
ATOM     12  C   UNL     1      -8.954  21.945  14.674  1.00  0.00     0.012 C 
ENDBRANCH   5  10
TORSDOF 2
ENDMDL
MODEL 7
REMARK VINA RESULT:    -3.350      1.904      4.708
REMARK INTER + INTRA:          -3.771
REMARK INTER:                  -3.643
REMARK INTRA:                  -0.127
REMARK UNBOUND:                -0.127
REMARK SMILES Cc1ccc(C(C)C)cc1O
REMARK SMILES IDX 1 1 2 2 10 3 9 4 5 5 4 6 3 7 11 8 6 10 7 11 8 12
REMARK H PARENT 11 9
REMARK Flexibility Score: inf
ROOT
ATOM      1  C   UNL     1      -8.991  20.336  13.608  1.00  0.00     0.048 C 
ATOM      2  C   UNL     1      -8.342  21.051  12.457  1.00  0.00    -0.009 A 
ATOM      3  C   UNL     1      -9.102  21.425  11.336  1.00  0.00     0.118 A 
ATOM      4  C   UNL     1      -8.490  22.094  10.266  1.00  0.00     0.050 A 
ATOM      5  C   UNL     1      -7.116  22.396  10.300  1.00  0.00    -0.042 A 
ATOM      6  C   UNL     1      -6.365  22.016  11.425  1.00  0.00     0.004 A 
ATOM      7  C   UNL     1      -6.972  21.351  12.492  1.00  0.00     0.007 A 
ENDROOT
BRANCH   3   8
ATOM      8  O   UNL     1     -10.465  21.133  11.288  1.00  0.00    -0.508 OA
ATOM      9  H   UNL     1     -11.123  21.555  11.934  1.00  0.00     0.293 HD
ENDBRANCH   3   8
BRANCH   5  10
ATOM     10  C   UNL     1      -6.444  23.118   9.147  1.00  0.00     0.013 C 
ATOM     11  C   UNL     1      -6.385  22.231   7.898  1.00  0.00     0.012 C 
ATOM     12  C   UNL     1      -5.046  23.609   9.542  1.00  0.00     0.012 C 
ENDBRANCH   5  10
TORSDOF 2
ENDMDL
MODEL 8
REMARK VINA RESULT:    -3.273      3.609      5.029
REMARK INTER + INTRA:          -3.688
REMARK INTER:                  -3.560
REMARK INTRA:                  -0.127
REMARK UNBOUND:                -0.127
REMARK SMILES Cc1ccc(C(C)C)cc1O
REMARK SMILES IDX 1 1 2 2 10 3 9 4 5 5 4 6 3 7 11 8 6 10 7 11 8 12
REMARK H PARENT 11 9
REMARK Flexibility Score: inf
ROOT
ATOM      1  C   UNL     1      -2.914  24.334  11.359  1.00  0.00     0.048 C 
ATOM      2  C   UNL     1      -3.957  23.882  10.377  1.00  0.00    -0.009 A 
ATOM      3  C   UNL     1      -3.744  24.034   8.997  1.00  0.00     0.118 A 
ATOM      4  C   UNL     1      -4.721  23.609   8.085  1.00  0.00     0.050 A 
ATOM      5  C   UNL     1      -5.921  23.028   8.538  1.00  0.00    -0.042 A 
ATOM      6  C   UNL     1      -6.124  22.881   9.920  1.00  0.00     0.004 A 
ATOM      7  C   UNL     1      -5.152  23.303  10.830  1.00  0.00     0.007 A 
ENDROOT
BRANCH   3   8
ATOM      8  O   UNL     1      -2.560  24.608   8.532  1.00  0.00    -0.508 OA
ATOM      9  H   UNL     1      -2.028  24.192   7.777  1.00  0.00     0.293 HD
ENDBRANCH   3   8
BRANCH   5  10
ATOM     10  C   UNL     1      -6.985  22.565   7.560  1.00  0.00     0.013 C 
ATOM     11  C   UNL     1      -8.289  22.216   8.287  1.00  0.00     0.012 C 
ATOM     12  C   UNL     1      -6.487  21.384   6.720  1.00  0.00     0.012 C 
ENDBRANCH   5  10
TORSDOF 2
ENDMDL
MODEL 9
REMARK VINA RESULT:    -3.269      4.809      6.719
REMARK INTER + INTRA:          -3.683
REMARK INTER:                  -3.556
REMARK INTRA:                  -0.127
REMARK UNBOUND:                -0.127
REMARK SMILES Cc1ccc(C(C)C)cc1O
REMARK SMILES IDX 1 1 2 2 10 3 9 4 5 5 4 6 3 7 11 8 6 10 7 11 8 12
REMARK H PARENT 11 9
REMARK Flexibility Score: inf
ROOT
ATOM      1  C   UNL     1      -4.842  24.551   9.657  1.00  0.00     0.048 C 
ATOM      2  C   UNL     1      -4.847  23.683   8.431  1.00  0.00    -0.009 A 
ATOM      3  C   UNL     1      -3.728  23.650   7.582  1.00  0.00     0.118 A 
ATOM      4  C   UNL     1      -3.738  22.835   6.440  1.00  0.00     0.050 A 
ATOM      5  C   UNL     1      -4.863  22.047   6.131  1.00  0.00    -0.042 A 
ATOM      6  C   UNL     1      -5.976  22.088   6.986  1.00  0.00     0.004 A 
ATOM      7  C   UNL     1      -5.968  22.897   8.125  1.00  0.00     0.007 A 
ENDROOT
BRANCH   3   8
ATOM      8  O   UNL     1      -2.606  24.425   7.875  1.00  0.00    -0.508 OA
ATOM      9  H   UNL     1      -1.823  24.490   7.236  1.00  0.00     0.293 HD
ENDBRANCH   3   8
BRANCH   5  10
ATOM     10  C   UNL     1      -4.885  21.163   4.898  1.00  0.00     0.013 C 
ATOM     11  C   UNL     1      -5.898  20.023   5.052  1.00  0.00     0.012 C 
ATOM     12  C   UNL     1      -3.487  20.621   4.581  1.00  0.00     0.012 C 
ENDBRANCH   5  10
TORSDOF 2
ENDMDL
