MODEL 1
REMARK VINA RESULT:    -2.205      0.000      0.000
REMARK INTER + INTRA:          -5.276
REMARK INTER:                  -4.138
REMARK INTRA:                  -1.138
REMARK UNBOUND:                -1.138
REMARK SMILES O=C([O-])CCCCCCCCCCCCCCC(=O)[O-]
REMARK SMILES IDX 10 1 9 2 8 3 7 4 6 5 5 6 4 7 2 8 1 9 3 10 11 11 12 12 13 13
REMARK SMILES IDX 14 14 15 15 16 16 17 17 18 18 19 19 20 20
REMARK H PARENT
REMARK Flexibility Score: inf
ROOT
ATOM      1  C   UNL     1       7.197  -6.986  -6.364  1.00  0.00     0.000 C 
ENDROOT
BRANCH   1   2
ATOM      2  C   UNL     1       6.491  -6.450  -7.620  1.00  0.00     0.000 C 
BRANCH   2   3
ATOM      3  C   UNL     1       6.752  -7.318  -8.860  1.00  0.00     0.000 C 
BRANCH   3   4
ATOM      4  C   UNL     1       7.630  -6.575  -9.876  1.00  0.00     0.000 C 
BRANCH   4   5
ATOM      5  C   UNL     1       8.980  -7.271 -10.124  1.00  0.00     0.000 C 
BRANCH   5   6
ATOM      6  C   UNL     1       8.904  -8.811 -10.048  1.00  0.00     0.006 C 
BRANCH   6   7
ATOM      7  C   UNL     1      10.103  -9.414  -9.304  1.00  0.00     0.053 C 
BRANCH   7   8
ATOM      8  C   UNL     1      10.014  -9.118  -7.840  1.00  0.00     0.041 C 
ATOM      9  O   UNL     1       9.802 -10.048  -7.019  1.00  0.00    -0.550 OA
ATOM     10  O   UNL     1      10.114  -7.809  -7.388  1.00  0.00    -0.550 OA
ENDBRANCH   7   8
ENDBRANCH   6   7
ENDBRANCH   5   6
ENDBRANCH   4   5
ENDBRANCH   3   4
ENDBRANCH   2   3
ENDBRANCH   1   2
BRANCH   1  11
ATOM     11  C   UNL     1       6.282  -7.876  -5.506  1.00  0.00     0.000 C 
BRANCH  11  12
ATOM     12  C   UNL     1       6.469  -9.373  -5.803  1.00  0.00     0.000 C 
BRANCH  12  13
ATOM     13  C   UNL     1       7.230 -10.104  -4.684  1.00  0.00     0.000 C 
BRANCH  13  14
ATOM     14  C   UNL     1       6.895  -9.555  -3.288  1.00  0.00     0.000 C 
BRANCH  14  15
ATOM     15  C   UNL     1       8.030  -9.788  -2.276  1.00  0.00     0.000 C 
BRANCH  15  16
ATOM     16  C   UNL     1       8.964  -8.569  -2.140  1.00  0.00     0.006 C 
BRANCH  16  17
ATOM     17  C   UNL     1       9.528  -8.055  -3.474  1.00  0.00     0.053 C 
BRANCH  17  18
ATOM     18  C   UNL     1       9.851  -6.593  -3.421  1.00  0.00     0.041 C 
ATOM     19  O   UNL     1       9.935  -6.003  -2.311  1.00  0.00    -0.550 OA
ATOM     20  O   UNL     1      10.094  -5.891  -4.594  1.00  0.00    -0.550 OA
ENDBRANCH  17  18
ENDBRANCH  16  17
ENDBRANCH  15  16
ENDBRANCH  14  15
ENDBRANCH  13  14
ENDBRANCH  12  13
ENDBRANCH  11  12
ENDBRANCH   1  11
TORSDOF 15
ENDMDL
MODEL 2
REMARK VINA RESULT:    -2.087      2.531      3.248
REMARK INTER + INTRA:          -5.055
REMARK INTER:                  -4.098
REMARK INTRA:                  -0.958
REMARK UNBOUND:                -1.138
REMARK SMILES O=C([O-])CCCCCCCCCCCCCCC(=O)[O-]
REMARK SMILES IDX 10 1 9 2 8 3 7 4 6 5 5 6 4 7 2 8 1 9 3 10 11 11 12 12 13 13
REMARK SMILES IDX 14 14 15 15 16 16 17 17 18 18 19 19 20 20
REMARK H PARENT
REMARK Flexibility Score: inf
ROOT
ATOM      1  C   UNL     1       8.975  -7.691  -7.136  1.00  0.00     0.000 C 
ENDROOT
BRANCH   1   2
ATOM      2  C   UNL     1       9.869  -7.254  -8.307  1.00  0.00     0.000 C 
BRANCH   2   3
ATOM      3  C   UNL     1       9.088  -7.103  -9.620  1.00  0.00     0.000 C 
BRANCH   3   4
ATOM      4  C   UNL     1       7.817  -6.268  -9.412  1.00  0.00     0.000 C 
BRANCH   4   5
ATOM      5  C   UNL     1       6.532  -7.031  -9.779  1.00  0.00     0.000 C 
BRANCH   5   6
ATOM      6  C   UNL     1       6.516  -8.490  -9.278  1.00  0.00     0.006 C 
BRANCH   6   7
ATOM      7  C   UNL     1       5.600  -9.384 -10.125  1.00  0.00     0.053 C 
BRANCH   7   8
ATOM      8  C   UNL     1       4.311  -9.640  -9.410  1.00  0.00     0.041 C 
ATOM      9  O   UNL     1       4.232  -9.465  -8.166  1.00  0.00    -0.550 OA
ATOM     10  O   UNL     1       3.212 -10.120 -10.110  1.00  0.00    -0.550 OA
ENDBRANCH   7   8
ENDBRANCH   6   7
ENDBRANCH   5   6
ENDBRANCH   4   5
ENDBRANCH   3   4
ENDBRANCH   2   3
ENDBRANCH   1   2
BRANCH   1  11
ATOM     11  C   UNL     1       9.643  -8.754  -6.246  1.00  0.00     0.000 C 
BRANCH  11  12
ATOM     12  C   UNL     1       8.652  -9.822  -5.759  1.00  0.00     0.000 C 
BRANCH  12  13
ATOM     13  C   UNL     1       7.206  -9.300  -5.700  1.00  0.00     0.000 C 
BRANCH  13  14
ATOM     14  C   UNL     1       6.709  -9.106  -4.258  1.00  0.00     0.000 C 
BRANCH  14  15
ATOM     15  C   UNL     1       7.756  -9.530  -3.213  1.00  0.00     0.000 C 
BRANCH  15  16
ATOM     16  C   UNL     1       8.841  -8.460  -2.990  1.00  0.00     0.006 C 
BRANCH  16  17
ATOM     17  C   UNL     1       8.321  -7.014  -3.044  1.00  0.00     0.053 C 
BRANCH  17  18
ATOM     18  C   UNL     1       9.437  -6.018  -3.122  1.00  0.00     0.041 C 
ATOM     19  O   UNL     1       9.843  -5.439  -2.080  1.00  0.00    -0.550 OA
ATOM     20  O   UNL     1      10.052  -5.755  -4.339  1.00  0.00    -0.550 OA
ENDBRANCH  17  18
ENDBRANCH  16  17
ENDBRANCH  15  16
ENDBRANCH  14  15
ENDBRANCH  13  14
ENDBRANCH  12  13
ENDBRANCH  11  12
ENDBRANCH   1  11
TORSDOF 15
ENDMDL
MODEL 3
REMARK VINA RESULT:    -1.908      2.216      3.028
REMARK INTER + INTRA:          -4.719
REMARK INTER:                  -3.322
REMARK INTRA:                  -1.397
REMARK UNBOUND:                -1.138
REMARK SMILES O=C([O-])CCCCCCCCCCCCCCC(=O)[O-]
REMARK SMILES IDX 10 1 9 2 8 3 7 4 6 5 5 6 4 7 2 8 1 9 3 10 11 11 12 12 13 13
REMARK SMILES IDX 14 14 15 15 16 16 17 17 18 18 19 19 20 20
REMARK H PARENT
REMARK Flexibility Score: inf
ROOT
ATOM      1  C   UNL     1       8.871  -8.999  -5.730  1.00  0.00     0.000 C 
ENDROOT
BRANCH   1   2
ATOM      2  C   UNL     1       9.717  -8.840  -7.003  1.00  0.00     0.000 C 
BRANCH   2   3
ATOM      3  C   UNL     1       9.240  -7.679  -7.888  1.00  0.00     0.000 C 
BRANCH   3   4
ATOM      4  C   UNL     1       9.140  -8.112  -9.357  1.00  0.00     0.000 C 
BRANCH   4   5
ATOM      5  C   UNL     1       8.573  -9.532  -9.526  1.00  0.00     0.000 C 
BRANCH   5   6
ATOM      6  C   UNL     1       7.152  -9.564 -10.125  1.00  0.00     0.006 C 
BRANCH   6   7
ATOM      7  C   UNL     1       6.067  -9.617  -9.041  1.00  0.00     0.053 C 
BRANCH   7   8
ATOM      8  C   UNL     1       5.152  -8.439  -9.157  1.00  0.00     0.041 C 
ATOM      9  O   UNL     1       5.600  -7.273  -9.000  1.00  0.00    -0.550 OA
ATOM     10  O   UNL     1       3.797  -8.632  -9.387  1.00  0.00    -0.550 OA
ENDBRANCH   7   8
ENDBRANCH   6   7
ENDBRANCH   5   6
ENDBRANCH   4   5
ENDBRANCH   3   4
ENDBRANCH   2   3
ENDBRANCH   1   2
BRANCH   1  11
ATOM     11  C   UNL     1       7.362  -8.894  -6.007  1.00  0.00     0.000 C 
BRANCH  11  12
ATOM     12  C   UNL     1       6.510  -9.303  -4.794  1.00  0.00     0.000 C 
BRANCH  12  13
ATOM     13  C   UNL     1       7.066  -8.747  -3.471  1.00  0.00     0.000 C 
BRANCH  13  14
ATOM     14  C   UNL     1       7.597  -9.854  -2.545  1.00  0.00     0.000 C 
BRANCH  14  15
ATOM     15  C   UNL     1       8.998  -9.537  -1.993  1.00  0.00     0.000 C 
BRANCH  15  16
ATOM     16  C   UNL     1       9.273  -8.024  -1.905  1.00  0.00     0.006 C 
BRANCH  16  17
ATOM     17  C   UNL     1      10.125  -7.469  -3.058  1.00  0.00     0.053 C 
BRANCH  17  18
ATOM     18  C   UNL     1       9.594  -6.167  -3.573  1.00  0.00     0.041 C 
ATOM     19  O   UNL     1       9.682  -5.888  -4.798  1.00  0.00    -0.550 OA
ATOM     20  O   UNL     1       8.971  -5.278  -2.707  1.00  0.00    -0.550 OA
ENDBRANCH  17  18
ENDBRANCH  16  17
ENDBRANCH  15  16
ENDBRANCH  14  15
ENDBRANCH  13  14
ENDBRANCH  12  13
ENDBRANCH  11  12
ENDBRANCH   1  11
TORSDOF 15
ENDMDL
MODEL 4
REMARK VINA RESULT:    -1.067      2.853      4.766
REMARK INTER + INTRA:          -3.140
REMARK INTER:                  -2.151
REMARK INTRA:                  -0.989
REMARK UNBOUND:                -1.138
REMARK SMILES O=C([O-])CCCCCCCCCCCCCCC(=O)[O-]
REMARK SMILES IDX 10 1 9 2 8 3 7 4 6 5 5 6 4 7 2 8 1 9 3 10 11 11 12 12 13 13
REMARK SMILES IDX 14 14 15 15 16 16 17 17 18 18 19 19 20 20
REMARK H PARENT
REMARK Flexibility Score: inf
ROOT
ATOM      1  C   UNL     1       9.868  -9.158  -5.168  1.00  0.00     0.000 C 
ENDROOT
BRANCH   1   2
ATOM      2  C   UNL     1      10.118 -10.123  -6.338  1.00  0.00     0.000 C 
BRANCH   2   3
ATOM      3  C   UNL     1      10.086  -9.419  -7.702  1.00  0.00     0.000 C 
BRANCH   3   4
ATOM      4  C   UNL     1       9.120 -10.124  -8.663  1.00  0.00     0.000 C 
BRANCH   4   5
ATOM      5  C   UNL     1       7.693  -9.550  -8.607  1.00  0.00     0.000 C 
BRANCH   5   6
ATOM      6  C   UNL     1       7.256  -8.851  -9.911  1.00  0.00     0.006 C 
BRANCH   6   7
ATOM      7  C   UNL     1       5.936  -8.087  -9.745  1.00  0.00     0.053 C 
BRANCH   7   8
ATOM      8  C   UNL     1       4.912  -8.950  -9.076  1.00  0.00     0.041 C 
ATOM      9  O   UNL     1       4.298  -9.829  -9.735  1.00  0.00    -0.550 OA
ATOM     10  O   UNL     1       4.602  -8.748  -7.738  1.00  0.00    -0.550 OA
ENDBRANCH   7   8
ENDBRANCH   6   7
ENDBRANCH   5   6
ENDBRANCH   4   5
ENDBRANCH   3   4
ENDBRANCH   2   3
ENDBRANCH   1   2
BRANCH   1  11
ATOM     11  C   UNL     1       8.405  -8.688  -5.092  1.00  0.00     0.000 C 
BRANCH  11  12
ATOM     12  C   UNL     1       8.109  -7.888  -3.813  1.00  0.00     0.000 C 
BRANCH  12  13
ATOM     13  C   UNL     1       8.316  -6.376  -4.005  1.00  0.00     0.000 C 
BRANCH  13  14
ATOM     14  C   UNL     1       9.802  -5.995  -4.120  1.00  0.00     0.000 C 
BRANCH  14  15
ATOM     15  C   UNL     1      10.125  -5.280  -5.443  1.00  0.00     0.000 C 
BRANCH  15  16
ATOM     16  C   UNL     1       9.267  -5.789  -6.618  1.00  0.00     0.006 C 
BRANCH  16  17
ATOM     17  C   UNL     1      10.067  -6.501  -7.721  1.00  0.00     0.053 C 
BRANCH  17  18
ATOM     18  C   UNL     1       9.767  -5.945  -9.079  1.00  0.00     0.041 C 
ATOM     19  O   UNL     1       9.627  -6.718 -10.063  1.00  0.00    -0.550 OA
ATOM     20  O   UNL     1       9.610  -4.575  -9.252  1.00  0.00    -0.550 OA
ENDBRANCH  17  18
ENDBRANCH  16  17
ENDBRANCH  15  16
ENDBRANCH  14  15
ENDBRANCH  13  14
ENDBRANCH  12  13
ENDBRANCH  11  12
ENDBRANCH   1  11
TORSDOF 15
ENDMDL
MODEL 5
REMARK VINA RESULT:     0.515      2.003      3.285
REMARK INTER + INTRA:          -0.170
REMARK INTER:                  -2.956
REMARK INTRA:                   2.785
REMARK UNBOUND:                -1.138
REMARK SMILES O=C([O-])CCCCCCCCCCCCCCC(=O)[O-]
REMARK SMILES IDX 10 1 9 2 8 3 7 4 6 5 5 6 4 7 2 8 1 9 3 10 11 11 12 12 13 13
REMARK SMILES IDX 14 14 15 15 16 16 17 17 18 18 19 19 20 20
REMARK H PARENT
REMARK Flexibility Score: inf
ROOT
ATOM      1  C   UNL     1       6.593  -8.962  -5.698  1.00  0.00     0.000 C 
ENDROOT
BRANCH   1   2
ATOM      2  C   UNL     1       5.664  -9.619  -6.730  1.00  0.00     0.000 C 
BRANCH   2   3
ATOM      3  C   UNL     1       6.419 -10.125  -7.967  1.00  0.00     0.000 C 
BRANCH   3   4
ATOM      4  C   UNL     1       6.462  -9.051  -9.063  1.00  0.00     0.000 C 
BRANCH   4   5
ATOM      5  C   UNL     1       6.199  -7.634  -8.524  1.00  0.00     0.000 C 
BRANCH   5   6
ATOM      6  C   UNL     1       6.070  -6.566  -9.630  1.00  0.00     0.006 C 
BRANCH   6   7
ATOM      7  C   UNL     1       7.335  -5.707  -9.757  1.00  0.00     0.053 C 
BRANCH   7   8
ATOM      8  C   UNL     1       8.525  -6.446  -9.230  1.00  0.00     0.041 C 
ATOM      9  O   UNL     1       9.022  -7.397  -9.890  1.00  0.00    -0.550 OA
ATOM     10  O   UNL     1       9.053  -6.118  -7.989  1.00  0.00    -0.550 OA
ENDBRANCH   7   8
ENDBRANCH   6   7
ENDBRANCH   5   6
ENDBRANCH   4   5
ENDBRANCH   3   4
ENDBRANCH   2   3
ENDBRANCH   1   2
BRANCH   1  11
ATOM     11  C   UNL     1       7.897  -9.752  -5.489  1.00  0.00     0.000 C 
BRANCH  11  12
ATOM     12  C   UNL     1       8.579 -10.125  -6.815  1.00  0.00     0.000 C 
BRANCH  12  13
ATOM     13  C   UNL     1       9.991  -9.528  -6.939  1.00  0.00     0.000 C 
BRANCH  13  14
ATOM     14  C   UNL     1      10.125  -8.177  -6.216  1.00  0.00     0.000 C 
BRANCH  14  15
ATOM     15  C   UNL     1      10.005  -8.313  -4.688  1.00  0.00     0.000 C 
BRANCH  15  16
ATOM     16  C   UNL     1       9.915  -6.950  -3.976  1.00  0.00     0.006 C 
BRANCH  16  17
ATOM     17  C   UNL     1       9.171  -6.989  -2.631  1.00  0.00     0.053 C 
BRANCH  17  18
ATOM     18  C   UNL     1       8.693  -8.367  -2.294  1.00  0.00     0.041 C 
ATOM     19  O   UNL     1       7.504  -8.703  -2.538  1.00  0.00    -0.550 OA
ATOM     20  O   UNL     1       9.569  -9.292  -1.740  1.00  0.00    -0.550 OA
ENDBRANCH  17  18
ENDBRANCH  16  17
ENDBRANCH  15  16
ENDBRANCH  14  15
ENDBRANCH  13  14
ENDBRANCH  12  13
ENDBRANCH  11  12
ENDBRANCH   1  11
TORSDOF 15
ENDMDL
