MODEL 1
REMARK VINA RESULT:    -5.379      0.000      0.000
REMARK INTER + INTRA:         -11.101
REMARK INTER:                  -9.781
REMARK INTRA:                  -1.320
REMARK UNBOUND:                -1.320
REMARK SMILES CCCCCCCCCCCCCC[C@@H](C)C(=O)[O-]
REMARK SMILES IDX 9 1 10 2 11 3 12 4 13 5 14 6 15 7 16 8 17 9 18 10 19 11 8 12
REMARK SMILES IDX 7 13 6 14 5 15 4 16 3 17 2 18 1 19
REMARK H PARENT
REMARK Flexibility Score: inf
ROOT
ATOM      1  C   UNL     1      44.456  50.571  11.173  1.00  0.00     0.000 C 
ENDROOT
BRANCH   1   2
ATOM      2  C   UNL     1      43.953  49.294  11.873  1.00  0.00     0.000 C 
BRANCH   2   3
ATOM      3  C   UNL     1      43.156  48.331  10.972  1.00  0.00     0.000 C 
BRANCH   3   4
ATOM      4  C   UNL     1      41.626  48.481  11.104  1.00  0.00     0.000 C 
BRANCH   4   5
ATOM      5  C   UNL     1      41.166  48.553  12.570  1.00  0.00     0.001 C 
BRANCH   5   6
ATOM      6  C   UNL     1      39.896  49.405  12.758  1.00  0.00     0.009 C 
BRANCH   6   7
ATOM      7  C   UNL     1      40.170  50.874  13.151  1.00  0.00     0.032 C 
ATOM      8  C   UNL     1      38.875  51.692  13.111  1.00  0.00     0.014 C 
BRANCH   7   9
ATOM      9  C   UNL     1      40.800  50.978  14.515  1.00  0.00     0.044 C 
ATOM     10  O   UNL     1      40.115  51.337  15.510  1.00  0.00    -0.550 OA
ATOM     11  O   UNL     1      42.145  50.677  14.683  1.00  0.00    -0.550 OA
ENDBRANCH   7   9
ENDBRANCH   6   7
ENDBRANCH   5   6
ENDBRANCH   4   5
ENDBRANCH   3   4
ENDBRANCH   2   3
ENDBRANCH   1   2
BRANCH   1  12
ATOM     12  C   UNL     1      45.853  51.055  11.618  1.00  0.00     0.000 C 
BRANCH  12  13
ATOM     13  C   UNL     1      47.035  50.238  11.069  1.00  0.00    -0.000 C 
BRANCH  13  14
ATOM     14  C   UNL     1      46.946  50.003   9.551  1.00  0.00    -0.000 C 
BRANCH  14  15
ATOM     15  C   UNL     1      46.612  48.543   9.200  1.00  0.00    -0.000 C 
BRANCH  15  16
ATOM     16  C   UNL     1      46.986  47.567  10.329  1.00  0.00    -0.000 C 
BRANCH  16  17
ATOM     17  C   UNL     1      46.507  46.129  10.059  1.00  0.00    -0.000 C 
BRANCH  17  18
ATOM     18  C   UNL     1      46.474  45.724   8.574  1.00  0.00    -0.003 C 
ATOM     19  C   UNL     1      47.498  44.644   8.227  1.00  0.00     0.004 C 
ENDBRANCH  17  18
ENDBRANCH  16  17
ENDBRANCH  15  16
ENDBRANCH  14  15
ENDBRANCH  13  14
ENDBRANCH  12  13
ENDBRANCH   1  12
TORSDOF 14
ENDMDL
MODEL 2
REMARK VINA RESULT:    -5.337      1.655      3.306
REMARK INTER + INTRA:         -11.025
REMARK INTER:                  -8.819
REMARK INTRA:                  -2.207
REMARK UNBOUND:                -1.320
REMARK SMILES CCCCCCCCCCCCCC[C@@H](C)C(=O)[O-]
REMARK SMILES IDX 9 1 10 2 11 3 12 4 13 5 14 6 15 7 16 8 17 9 18 10 19 11 8 12
REMARK SMILES IDX 7 13 6 14 5 15 4 16 3 17 2 18 1 19
REMARK H PARENT
REMARK Flexibility Score: inf
ROOT
ATOM      1  C   UNL     1      46.862  49.915   9.493  1.00  0.00     0.000 C 
ENDROOT
BRANCH   1   2
ATOM      2  C   UNL     1      47.047  50.322  10.967  1.00  0.00     0.000 C 
BRANCH   2   3
ATOM      3  C   UNL     1      45.743  50.668  11.713  1.00  0.00     0.000 C 
BRANCH   3   4
ATOM      4  C   UNL     1      44.563  51.004  10.777  1.00  0.00     0.000 C 
BRANCH   4   5
ATOM      5  C   UNL     1      43.309  50.169  11.089  1.00  0.00     0.001 C 
BRANCH   5   6
ATOM      6  C   UNL     1      43.556  49.095  12.166  1.00  0.00     0.009 C 
BRANCH   6   7
ATOM      7  C   UNL     1      42.428  48.979  13.215  1.00  0.00     0.032 C 
ATOM      8  C   UNL     1      42.428  50.200  14.141  1.00  0.00     0.014 C 
BRANCH   7   9
ATOM      9  C   UNL     1      41.077  48.829  12.567  1.00  0.00     0.044 C 
ATOM     10  O   UNL     1      40.796  47.793  11.906  1.00  0.00    -0.550 OA
ATOM     11  O   UNL     1      40.129  49.836  12.697  1.00  0.00    -0.550 OA
ENDBRANCH   7   9
ENDBRANCH   6   7
ENDBRANCH   5   6
ENDBRANCH   4   5
ENDBRANCH   3   4
ENDBRANCH   2   3
ENDBRANCH   1   2
BRANCH   1  12
ATOM     12  C   UNL     1      46.750  48.396   9.242  1.00  0.00     0.000 C 
BRANCH  12  13
ATOM     13  C   UNL     1      47.101  47.506  10.447  1.00  0.00    -0.000 C 
BRANCH  13  14
ATOM     14  C   UNL     1      46.018  46.457  10.751  1.00  0.00    -0.000 C 
BRANCH  14  15
ATOM     15  C   UNL     1      44.768  46.630   9.871  1.00  0.00    -0.000 C 
BRANCH  15  16
ATOM     16  C   UNL     1      44.408  45.346   9.104  1.00  0.00    -0.000 C 
BRANCH  16  17
ATOM     17  C   UNL     1      45.140  45.230   7.755  1.00  0.00    -0.000 C 
BRANCH  17  18
ATOM     18  C   UNL     1      46.203  44.119   7.685  1.00  0.00    -0.003 C 
ATOM     19  C   UNL     1      47.600  44.602   8.070  1.00  0.00     0.004 C 
ENDBRANCH  17  18
ENDBRANCH  16  17
ENDBRANCH  15  16
ENDBRANCH  14  15
ENDBRANCH  13  14
ENDBRANCH  12  13
ENDBRANCH   1  12
TORSDOF 14
ENDMDL
MODEL 3
REMARK VINA RESULT:    -5.304      1.868      4.580
REMARK INTER + INTRA:         -10.965
REMARK INTER:                  -8.846
REMARK INTRA:                  -2.119
REMARK UNBOUND:                -1.320
REMARK SMILES CCCCCCCCCCCCCC[C@@H](C)C(=O)[O-]
REMARK SMILES IDX 9 1 10 2 11 3 12 4 13 5 14 6 15 7 16 8 17 9 18 10 19 11 8 12
REMARK SMILES IDX 7 13 6 14 5 15 4 16 3 17 2 18 1 19
REMARK H PARENT
REMARK Flexibility Score: inf
ROOT
ATOM      1  C   UNL     1      47.245  47.989  10.615  1.00  0.00     0.000 C 
ENDROOT
BRANCH   1   2
ATOM      2  C   UNL     1      47.121  49.418  10.052  1.00  0.00     0.000 C 
BRANCH   2   3
ATOM      3  C   UNL     1      46.723  50.489  11.086  1.00  0.00     0.000 C 
BRANCH   3   4
ATOM      4  C   UNL     1      45.241  50.915  10.999  1.00  0.00     0.000 C 
BRANCH   4   5
ATOM      5  C   UNL     1      44.346  50.129  11.971  1.00  0.00     0.001 C 
BRANCH   5   6
ATOM      6  C   UNL     1      42.868  50.100  11.535  1.00  0.00     0.009 C 
BRANCH   6   7
ATOM      7  C   UNL     1      41.948  49.278  12.466  1.00  0.00     0.032 C 
ATOM      8  C   UNL     1      42.713  48.095  13.068  1.00  0.00     0.014 C 
BRANCH   7   9
ATOM      9  C   UNL     1      41.368  50.126  13.567  1.00  0.00     0.044 C 
ATOM     10  O   UNL     1      42.056  50.415  14.582  1.00  0.00    -0.550 OA
ATOM     11  O   UNL     1      40.065  50.596  13.466  1.00  0.00    -0.550 OA
ENDBRANCH   7   9
ENDBRANCH   6   7
ENDBRANCH   5   6
ENDBRANCH   4   5
ENDBRANCH   3   4
ENDBRANCH   2   3
ENDBRANCH   1   2
BRANCH   1  12
ATOM     12  C   UNL     1      46.012  47.088  10.391  1.00  0.00     0.000 C 
BRANCH  12  13
ATOM     13  C   UNL     1      45.308  47.267   9.035  1.00  0.00    -0.000 C 
BRANCH  13  14
ATOM     14  C   UNL     1      43.860  47.768   9.174  1.00  0.00    -0.000 C 
BRANCH  14  15
ATOM     15  C   UNL     1      42.894  46.660   9.626  1.00  0.00    -0.000 C 
BRANCH  15  16
ATOM     16  C   UNL     1      41.420  47.037   9.401  1.00  0.00    -0.000 C 
BRANCH  16  17
ATOM     17  C   UNL     1      40.494  45.810   9.324  1.00  0.00    -0.000 C 
BRANCH  17  18
ATOM     18  C   UNL     1      39.334  45.806  10.335  1.00  0.00    -0.003 C 
ATOM     19  C   UNL     1      39.759  46.246  11.735  1.00  0.00     0.004 C 
ENDBRANCH  17  18
ENDBRANCH  16  17
ENDBRANCH  15  16
ENDBRANCH  14  15
ENDBRANCH  13  14
ENDBRANCH  12  13
ENDBRANCH   1  12
TORSDOF 14
ENDMDL
MODEL 4
REMARK VINA RESULT:    -5.289      3.085      7.239
REMARK INTER + INTRA:         -10.938
REMARK INTER:                  -9.385
REMARK INTRA:                  -1.553
REMARK UNBOUND:                -1.320
REMARK SMILES CCCCCCCCCCCCCC[C@@H](C)C(=O)[O-]
REMARK SMILES IDX 9 1 10 2 11 3 12 4 13 5 14 6 15 7 16 8 17 9 18 10 19 11 8 12
REMARK SMILES IDX 7 13 6 14 5 15 4 16 3 17 2 18 1 19
REMARK H PARENT
REMARK Flexibility Score: inf
ROOT
ATOM      1  C   UNL     1      45.831  50.334  11.785  1.00  0.00     0.000 C 
ENDROOT
BRANCH   1   2
ATOM      2  C   UNL     1      47.082  49.914  10.991  1.00  0.00     0.000 C 
BRANCH   2   3
ATOM      3  C   UNL     1      46.845  49.669   9.488  1.00  0.00     0.000 C 
BRANCH   3   4
ATOM      4  C   UNL     1      46.497  48.205   9.145  1.00  0.00     0.000 C 
BRANCH   4   5
ATOM      5  C   UNL     1      46.907  47.227  10.259  1.00  0.00     0.001 C 
BRANCH   5   6
ATOM      6  C   UNL     1      46.926  45.759   9.790  1.00  0.00     0.009 C 
BRANCH   6   7
ATOM      7  C   UNL     1      45.557  45.046   9.882  1.00  0.00     0.032 C 
ATOM      8  C   UNL     1      44.773  45.545  11.100  1.00  0.00     0.014 C 
BRANCH   7   9
ATOM      9  C   UNL     1      44.742  45.244   8.631  1.00  0.00     0.044 C 
ATOM     10  O   UNL     1      43.591  45.755   8.692  1.00  0.00    -0.550 OA
ATOM     11  O   UNL     1      45.257  44.863   7.400  1.00  0.00    -0.550 OA
ENDBRANCH   7   9
ENDBRANCH   6   7
ENDBRANCH   5   6
ENDBRANCH   4   5
ENDBRANCH   3   4
ENDBRANCH   2   3
ENDBRANCH   1   2
BRANCH   1  12
ATOM     12  C   UNL     1      44.727  51.019  10.953  1.00  0.00     0.000 C 
BRANCH  12  13
ATOM     13  C   UNL     1      43.380  50.276  10.912  1.00  0.00    -0.000 C 
BRANCH  13  14
ATOM     14  C   UNL     1      43.466  48.850  11.483  1.00  0.00    -0.000 C 
BRANCH  14  15
ATOM     15  C   UNL     1      42.819  48.734  12.874  1.00  0.00    -0.000 C 
BRANCH  15  16
ATOM     16  C   UNL     1      41.817  49.868  13.152  1.00  0.00    -0.000 C 
BRANCH  16  17
ATOM     17  C   UNL     1      42.009  50.507  14.540  1.00  0.00    -0.000 C 
BRANCH  17  18
ATOM     18  C   UNL     1      40.821  51.351  15.036  1.00  0.00    -0.003 C 
ATOM     19  C   UNL     1      39.602  51.265  14.120  1.00  0.00     0.004 C 
ENDBRANCH  17  18
ENDBRANCH  16  17
ENDBRANCH  15  16
ENDBRANCH  14  15
ENDBRANCH  13  14
ENDBRANCH  12  13
ENDBRANCH   1  12
TORSDOF 14
ENDMDL
MODEL 5
REMARK VINA RESULT:    -5.243      3.567      6.909
REMARK INTER + INTRA:         -10.854
REMARK INTER:                  -8.912
REMARK INTRA:                  -1.943
REMARK UNBOUND:                -1.320
REMARK SMILES CCCCCCCCCCCCCC[C@@H](C)C(=O)[O-]
REMARK SMILES IDX 9 1 10 2 11 3 12 4 13 5 14 6 15 7 16 8 17 9 18 10 19 11 8 12
REMARK SMILES IDX 7 13 6 14 5 15 4 16 3 17 2 18 1 19
REMARK H PARENT
REMARK Flexibility Score: inf
ROOT
ATOM      1  C   UNL     1      46.366  51.012  11.735  1.00  0.00     0.000 C 
ENDROOT
BRANCH   1   2
ATOM      2  C   UNL     1      47.457  50.316  10.899  1.00  0.00     0.000 C 
BRANCH   2   3
ATOM      3  C   UNL     1      47.060  50.009   9.442  1.00  0.00     0.000 C 
BRANCH   3   4
ATOM      4  C   UNL     1      46.529  48.574   9.233  1.00  0.00     0.000 C 
BRANCH   4   5
ATOM      5  C   UNL     1      47.020  47.601  10.318  1.00  0.00     0.001 C 
BRANCH   5   6
ATOM      6  C   UNL     1      46.573  46.148  10.067  1.00  0.00     0.009 C 
BRANCH   6   7
ATOM      7  C   UNL     1      46.459  45.770   8.573  1.00  0.00     0.032 C 
ATOM      8  C   UNL     1      47.699  44.993   8.119  1.00  0.00     0.014 C 
BRANCH   7   9
ATOM      9  C   UNL     1      45.219  44.961   8.296  1.00  0.00     0.044 C 
ATOM     10  O   UNL     1      45.202  44.113   7.364  1.00  0.00    -0.550 OA
ATOM     11  O   UNL     1      44.082  45.147   9.072  1.00  0.00    -0.550 OA
ENDBRANCH   7   9
ENDBRANCH   6   7
ENDBRANCH   5   6
ENDBRANCH   4   5
ENDBRANCH   3   4
ENDBRANCH   2   3
ENDBRANCH   1   2
BRANCH   1  12
ATOM     12  C   UNL     1      45.023  51.231  11.006  1.00  0.00     0.000 C 
BRANCH  12  13
ATOM     13  C   UNL     1      43.894  50.265  11.407  1.00  0.00    -0.000 C 
BRANCH  13  14
ATOM     14  C   UNL     1      43.053  49.797  10.207  1.00  0.00    -0.000 C 
BRANCH  14  15
ATOM     15  C   UNL     1      42.754  48.289  10.250  1.00  0.00    -0.000 C 
BRANCH  15  16
ATOM     16  C   UNL     1      43.162  47.647  11.587  1.00  0.00    -0.000 C 
BRANCH  16  17
ATOM     17  C   UNL     1      42.239  46.486  11.999  1.00  0.00    -0.000 C 
BRANCH  17  18
ATOM     18  C   UNL     1      40.759  46.867  12.183  1.00  0.00    -0.003 C 
ATOM     19  C   UNL     1      39.806  45.949  11.420  1.00  0.00     0.004 C 
ENDBRANCH  17  18
ENDBRANCH  16  17
ENDBRANCH  15  16
ENDBRANCH  14  15
ENDBRANCH  13  14
ENDBRANCH  12  13
ENDBRANCH   1  12
TORSDOF 14
ENDMDL
MODEL 6
REMARK VINA RESULT:    -5.205      3.555      7.031
REMARK INTER + INTRA:         -10.786
REMARK INTER:                  -8.050
REMARK INTRA:                  -2.736
REMARK UNBOUND:                -1.320
REMARK SMILES CCCCCCCCCCCCCC[C@@H](C)C(=O)[O-]
REMARK SMILES IDX 9 1 10 2 11 3 12 4 13 5 14 6 15 7 16 8 17 9 18 10 19 11 8 12
REMARK SMILES IDX 7 13 6 14 5 15 4 16 3 17 2 18 1 19
REMARK H PARENT
REMARK Flexibility Score: inf
ROOT
ATOM      1  C   UNL     1      44.437  50.496   9.361  1.00  0.00     0.000 C 
ENDROOT
BRANCH   1   2
ATOM      2  C   UNL     1      44.749  50.985  10.788  1.00  0.00     0.000 C 
BRANCH   2   3
ATOM      3  C   UNL     1      45.895  50.235  11.494  1.00  0.00     0.000 C 
BRANCH   3   4
ATOM      4  C   UNL     1      47.060  49.855  10.555  1.00  0.00     0.000 C 
BRANCH   4   5
ATOM      5  C   UNL     1      47.388  48.353  10.602  1.00  0.00     0.001 C 
BRANCH   5   6
ATOM      6  C   UNL     1      46.747  47.563   9.444  1.00  0.00     0.009 C 
BRANCH   6   7
ATOM      7  C   UNL     1      47.079  46.054   9.447  1.00  0.00     0.032 C 
ATOM      8  C   UNL     1      46.547  45.389  10.720  1.00  0.00     0.014 C 
BRANCH   7   9
ATOM      9  C   UNL     1      46.520  45.358   8.233  1.00  0.00     0.044 C 
ATOM     10  O   UNL     1      47.263  45.083   7.254  1.00  0.00    -0.550 OA
ATOM     11  O   UNL     1      45.175  45.015   8.190  1.00  0.00    -0.550 OA
ENDBRANCH   7   9
ENDBRANCH   6   7
ENDBRANCH   5   6
ENDBRANCH   4   5
ENDBRANCH   3   4
ENDBRANCH   2   3
ENDBRANCH   1   2
BRANCH   1  12
ATOM     12  C   UNL     1      42.945  50.533   8.968  1.00  0.00     0.000 C 
BRANCH  12  13
ATOM     13  C   UNL     1      42.178  49.217   9.183  1.00  0.00    -0.000 C 
BRANCH  13  14
ATOM     14  C   UNL     1      43.054  47.972   8.968  1.00  0.00    -0.000 C 
BRANCH  14  15
ATOM     15  C   UNL     1      42.929  46.958  10.118  1.00  0.00    -0.000 C 
BRANCH  15  16
ATOM     16  C   UNL     1      43.588  47.458  11.415  1.00  0.00    -0.000 C 
BRANCH  16  17
ATOM     17  C   UNL     1      42.585  47.614  12.573  1.00  0.00    -0.000 C 
BRANCH  17  18
ATOM     18  C   UNL     1      42.595  48.991  13.260  1.00  0.00    -0.003 C 
ATOM     19  C   UNL     1      41.464  49.903  12.788  1.00  0.00     0.004 C 
ENDBRANCH  17  18
ENDBRANCH  16  17
ENDBRANCH  15  16
ENDBRANCH  14  15
ENDBRANCH  13  14
ENDBRANCH  12  13
ENDBRANCH   1  12
TORSDOF 14
ENDMDL
MODEL 7
REMARK VINA RESULT:    -5.196      1.820      4.252
REMARK INTER + INTRA:         -10.768
REMARK INTER:                  -8.257
REMARK INTRA:                  -2.511
REMARK UNBOUND:                -1.320
REMARK SMILES CCCCCCCCCCCCCC[C@@H](C)C(=O)[O-]
REMARK SMILES IDX 9 1 10 2 11 3 12 4 13 5 14 6 15 7 16 8 17 9 18 10 19 11 8 12
REMARK SMILES IDX 7 13 6 14 5 15 4 16 3 17 2 18 1 19
REMARK H PARENT
REMARK Flexibility Score: inf
ROOT
ATOM      1  C   UNL     1      47.342  48.519  10.579  1.00  0.00     0.000 C 
ENDROOT
BRANCH   1   2
ATOM      2  C   UNL     1      47.476  49.822   9.769  1.00  0.00     0.000 C 
BRANCH   2   3
ATOM      3  C   UNL     1      46.300  50.806   9.923  1.00  0.00     0.000 C 
BRANCH   3   4
ATOM      4  C   UNL     1      45.722  50.863  11.353  1.00  0.00     0.000 C 
BRANCH   4   5
ATOM      5  C   UNL     1      44.232  50.484  11.401  1.00  0.00     0.001 C 
BRANCH   5   6
ATOM      6  C   UNL     1      43.987  49.093  12.018  1.00  0.00     0.009 C 
BRANCH   6   7
ATOM      7  C   UNL     1      42.497  48.755  12.247  1.00  0.00     0.032 C 
ATOM      8  C   UNL     1      42.350  47.353  12.846  1.00  0.00     0.014 C 
BRANCH   7   9
ATOM      9  C   UNL     1      41.828  49.766  13.141  1.00  0.00     0.044 C 
ATOM     10  O   UNL     1      40.752  50.319  12.789  1.00  0.00    -0.550 OA
ATOM     11  O   UNL     1      42.397  50.093  14.365  1.00  0.00    -0.550 OA
ENDBRANCH   7   9
ENDBRANCH   6   7
ENDBRANCH   5   6
ENDBRANCH   4   5
ENDBRANCH   3   4
ENDBRANCH   2   3
ENDBRANCH   1   2
BRANCH   1  12
ATOM     12  C   UNL     1      46.684  47.344   9.825  1.00  0.00     0.000 C 
BRANCH  12  13
ATOM     13  C   UNL     1      46.293  46.140  10.700  1.00  0.00    -0.000 C 
BRANCH  13  14
ATOM     14  C   UNL     1      44.839  45.689  10.482  1.00  0.00    -0.000 C 
BRANCH  14  15
ATOM     15  C   UNL     1      44.178  46.391   9.284  1.00  0.00    -0.000 C 
BRANCH  15  16
ATOM     16  C   UNL     1      42.651  46.203   9.261  1.00  0.00    -0.000 C 
BRANCH  16  17
ATOM     17  C   UNL     1      41.897  47.490   8.879  1.00  0.00    -0.000 C 
BRANCH  17  18
ATOM     18  C   UNL     1      42.793  48.669   8.460  1.00  0.00    -0.003 C 
ATOM     19  C   UNL     1      42.415  49.253   7.100  1.00  0.00     0.004 C 
ENDBRANCH  17  18
ENDBRANCH  16  17
ENDBRANCH  15  16
ENDBRANCH  14  15
ENDBRANCH  13  14
ENDBRANCH  12  13
ENDBRANCH   1  12
TORSDOF 14
ENDMDL
MODEL 8
REMARK VINA RESULT:    -5.183      3.053      3.918
REMARK INTER + INTRA:         -10.746
REMARK INTER:                  -8.329
REMARK INTRA:                  -2.417
REMARK UNBOUND:                -1.320
REMARK SMILES CCCCCCCCCCCCCC[C@@H](C)C(=O)[O-]
REMARK SMILES IDX 9 1 10 2 11 3 12 4 13 5 14 6 15 7 16 8 17 9 18 10 19 11 8 12
REMARK SMILES IDX 7 13 6 14 5 15 4 16 3 17 2 18 1 19
REMARK H PARENT
REMARK Flexibility Score: inf
ROOT
ATOM      1  C   UNL     1      44.630  50.910  10.696  1.00  0.00     0.000 C 
ENDROOT
BRANCH   1   2
ATOM      2  C   UNL     1      43.319  50.293  11.221  1.00  0.00     0.000 C 
BRANCH   2   3
ATOM      3  C   UNL     1      43.491  49.296  12.383  1.00  0.00     0.000 C 
BRANCH   3   4
ATOM      4  C   UNL     1      42.500  48.113  12.337  1.00  0.00     0.000 C 
BRANCH   4   5
ATOM      5  C   UNL     1      43.179  46.791  11.943  1.00  0.00     0.001 C 
BRANCH   5   6
ATOM      6  C   UNL     1      43.037  46.468  10.443  1.00  0.00     0.009 C 
BRANCH   6   7
ATOM      7  C   UNL     1      41.911  47.251   9.730  1.00  0.00     0.032 C 
ATOM      8  C   UNL     1      42.428  47.871   8.429  1.00  0.00     0.014 C 
BRANCH   7   9
ATOM      9  C   UNL     1      40.720  46.375   9.442  1.00  0.00     0.044 C 
ATOM     10  O   UNL     1      40.291  46.245   8.265  1.00  0.00    -0.550 OA
ATOM     11  O   UNL     1      40.086  45.704  10.480  1.00  0.00    -0.550 OA
ENDBRANCH   7   9
ENDBRANCH   6   7
ENDBRANCH   5   6
ENDBRANCH   4   5
ENDBRANCH   3   4
ENDBRANCH   2   3
ENDBRANCH   1   2
BRANCH   1  12
ATOM     12  C   UNL     1      45.881  50.611  11.550  1.00  0.00     0.000 C 
BRANCH  12  13
ATOM     13  C   UNL     1      46.900  49.655  10.906  1.00  0.00    -0.000 C 
BRANCH  13  14
ATOM     14  C   UNL     1      46.553  49.303   9.450  1.00  0.00    -0.000 C 
BRANCH  14  15
ATOM     15  C   UNL     1      46.325  47.795   9.247  1.00  0.00    -0.000 C 
BRANCH  15  16
ATOM     16  C   UNL     1      46.842  46.958  10.430  1.00  0.00    -0.000 C 
BRANCH  16  17
ATOM     17  C   UNL     1      46.503  45.463  10.297  1.00  0.00    -0.000 C 
BRANCH  17  18
ATOM     18  C   UNL     1      46.252  44.979   8.858  1.00  0.00    -0.003 C 
ATOM     19  C   UNL     1      47.516  44.462   8.172  1.00  0.00     0.004 C 
ENDBRANCH  17  18
ENDBRANCH  16  17
ENDBRANCH  15  16
ENDBRANCH  14  15
ENDBRANCH  13  14
ENDBRANCH  12  13
ENDBRANCH   1  12
TORSDOF 14
ENDMDL
MODEL 9
REMARK VINA RESULT:    -5.177      3.369      6.407
REMARK INTER + INTRA:         -10.735
REMARK INTER:                  -8.469
REMARK INTRA:                  -2.266
REMARK UNBOUND:                -1.320
REMARK SMILES CCCCCCCCCCCCCC[C@@H](C)C(=O)[O-]
REMARK SMILES IDX 9 1 10 2 11 3 12 4 13 5 14 6 15 7 16 8 17 9 18 10 19 11 8 12
REMARK SMILES IDX 7 13 6 14 5 15 4 16 3 17 2 18 1 19
REMARK H PARENT
REMARK Flexibility Score: inf
ROOT
ATOM      1  C   UNL     1      43.418  50.493  10.846  1.00  0.00     0.000 C 
ENDROOT
BRANCH   1   2
ATOM      2  C   UNL     1      44.717  50.618  11.665  1.00  0.00     0.000 C 
BRANCH   2   3
ATOM      3  C   UNL     1      45.886  51.297  10.925  1.00  0.00     0.000 C 
BRANCH   3   4
ATOM      4  C   UNL     1      47.241  50.582  11.119  1.00  0.00     0.000 C 
BRANCH   4   5
ATOM      5  C   UNL     1      47.476  49.475  10.077  1.00  0.00     0.001 C 
BRANCH   5   6
ATOM      6  C   UNL     1      47.363  48.059  10.673  1.00  0.00     0.009 C 
BRANCH   6   7
ATOM      7  C   UNL     1      46.036  47.337  10.344  1.00  0.00     0.032 C 
ATOM      8  C   UNL     1      45.388  47.947   9.098  1.00  0.00     0.014 C 
BRANCH   7   9
ATOM      9  C   UNL     1      46.241  45.859  10.144  1.00  0.00     0.044 C 
ATOM     10  O   UNL     1      45.454  45.027  10.669  1.00  0.00    -0.550 OA
ATOM     11  O   UNL     1      47.303  45.404   9.374  1.00  0.00    -0.550 OA
ENDBRANCH   7   9
ENDBRANCH   6   7
ENDBRANCH   5   6
ENDBRANCH   4   5
ENDBRANCH   3   4
ENDBRANCH   2   3
ENDBRANCH   1   2
BRANCH   1  12
ATOM     12  C   UNL     1      42.284  49.703  11.535  1.00  0.00     0.000 C 
BRANCH  12  13
ATOM     13  C   UNL     1      42.546  49.327  13.004  1.00  0.00    -0.000 C 
BRANCH  13  14
ATOM     14  C   UNL     1      42.738  47.815  13.210  1.00  0.00    -0.000 C 
BRANCH  14  15
ATOM     15  C   UNL     1      42.615  47.022  11.897  1.00  0.00    -0.000 C 
BRANCH  15  16
ATOM     16  C   UNL     1      41.207  46.434  11.695  1.00  0.00    -0.000 C 
BRANCH  16  17
ATOM     17  C   UNL     1      40.763  46.440  10.221  1.00  0.00    -0.000 C 
BRANCH  17  18
ATOM     18  C   UNL     1      41.883  46.731   9.206  1.00  0.00    -0.003 C 
ATOM     19  C   UNL     1      41.564  47.907   8.285  1.00  0.00     0.004 C 
ENDBRANCH  17  18
ENDBRANCH  16  17
ENDBRANCH  15  16
ENDBRANCH  14  15
ENDBRANCH  13  14
ENDBRANCH  12  13
ENDBRANCH   1  12
TORSDOF 14
ENDMDL
