MODEL 1
REMARK VINA RESULT:     0.748      0.000      0.000
REMARK INTER + INTRA:           0.770
REMARK INTER:                   0.770
REMARK INTRA:                   0.000
REMARK UNBOUND:                 0.000
REMARK SMILES C[C@H]1CC[C@]2(OC1)O[C@H]1C[C@H]3[C@@H]4CC=C5C[C@@H](O)CC[C@@]5(C)[C@H]4CC[C@]3(C)[C@H]1[C@@H]2C
REMARK SMILES IDX 1 1 2 2 3 3 4 4 5 5 29 6 28 7 9 8 8 9 10 10 11 11 26 12
REMARK SMILES IDX 25 13 24 14 23 15 12 16 13 17 14 18 15 19 21 20 20 21 19 22
REMARK SMILES IDX 17 23 16 24 22 25 27 26 30 27 6 28 7 29 18 30
REMARK H PARENT 18 31
REMARK Flexibility Score: inf
ROOT
ATOM      1  C   UNL     1      -3.742 -14.286   6.928  1.00  0.00     0.010 C 
ATOM      2  C   UNL     1      -4.180 -14.604   8.362  1.00  0.00     0.012 C 
ATOM      3  C   UNL     1      -4.449 -16.105   8.530  1.00  0.00     0.011 C 
ATOM      4  C   UNL     1      -4.756 -16.416   9.995  1.00  0.00     0.066 C 
ATOM      5  C   UNL     1      -3.636 -15.856  10.919  1.00  0.00     0.171 C 
ATOM      6  C   UNL     1      -3.900 -16.080  12.439  1.00  0.00     0.052 C 
ATOM      7  C   UNL     1      -2.944 -17.211  12.818  1.00  0.00     0.033 C 
ATOM      8  C   UNL     1      -2.287 -17.595  11.494  1.00  0.00     0.126 C 
ATOM      9  O   UNL     1      -2.416 -16.512  10.607  1.00  0.00    -0.346 OA
ATOM     10  C   UNL     1      -0.806 -17.899  11.791  1.00  0.00     0.037 C 
ATOM     11  C   UNL     1      -0.767 -17.987  13.310  1.00  0.00     0.002 C 
ATOM     12  C   UNL     1      -1.750 -16.903  13.771  1.00  0.00    -0.024 C 
ATOM     13  C   UNL     1      -2.050 -17.155  15.263  1.00  0.00     0.008 C 
ATOM     14  C   UNL     1      -0.750 -17.108  16.098  1.00  0.00     0.005 C 
ATOM     15  C   UNL     1       0.362 -18.077  15.569  1.00  0.00     0.003 C 
ATOM     16  C   UNL     1       0.597 -17.939  14.034  1.00  0.00     0.000 C 
ATOM     17  C   UNL     1       1.483 -19.105  13.580  1.00  0.00     0.031 C 
ATOM     18  C   UNL     1       2.771 -19.125  14.343  1.00  0.00    -0.027 C 
ATOM     19  C   UNL     1       2.883 -18.680  15.613  1.00  0.00    -0.065 C 
ATOM     20  C   UNL     1       1.720 -18.021  16.382  1.00  0.00    -0.008 C 
ATOM     21  C   UNL     1       2.145 -16.548  16.684  1.00  0.00     0.014 C 
ATOM     22  C   UNL     1       3.561 -16.408  17.284  1.00  0.00     0.033 C 
ATOM     23  C   UNL     1       4.633 -17.111  16.439  1.00  0.00     0.118 C 
ATOM     24  C   UNL     1       4.270 -18.586  16.218  1.00  0.00     0.063 C 
ATOM     25  C   UNL     1       1.510 -18.787  17.715  1.00  0.00     0.016 C 
ATOM     26  C   UNL     1      -1.191 -15.452  13.568  1.00  0.00     0.012 C 
ATOM     27  C   UNL     1      -5.350 -16.401  12.842  1.00  0.00     0.014 C 
ATOM     28  O   UNL     1      -3.502 -14.454  10.704  1.00  0.00    -0.349 OA
ATOM     29  C   UNL     1      -3.113 -14.152   9.375  1.00  0.00     0.167 C 
ENDROOT
BRANCH  23  30
ATOM     30  O   UNL     1       4.766 -16.451  15.206  1.00  0.00    -0.393 OA
ATOM     31  H   UNL     1       5.487 -15.777  15.317  1.00  0.00     0.210 HD
ENDBRANCH  23  30
TORSDOF 1
ENDMDL
