MODEL 1
REMARK VINA RESULT:    -3.583      0.000      0.000
REMARK INTER + INTRA:          -5.025
REMARK INTER:                  -4.840
REMARK INTRA:                  -0.185
REMARK UNBOUND:                -0.185
REMARK SMILES CCCCCCCC(=O)[O-]
REMARK SMILES IDX 5 1 6 2 7 3 8 4 9 5 10 6 4 7 3 8 2 9 1 10
REMARK H PARENT
REMARK Flexibility Score: inf
ROOT
ATOM      1  C   UNL     1      -6.496   1.638  -3.358  1.00  0.00     0.000 C 
ENDROOT
BRANCH   1   2
ATOM      2  C   UNL     1      -7.860   2.360  -3.319  1.00  0.00     0.006 C 
BRANCH   2   3
ATOM      3  C   UNL     1      -8.762   1.965  -4.496  1.00  0.00     0.053 C 
BRANCH   3   4
ATOM      4  C   UNL     1      -8.953   3.125  -5.421  1.00  0.00     0.041 C 
ATOM      5  O   UNL     1      -9.453   4.200  -4.995  1.00  0.00    -0.550 OA
ATOM      6  O   UNL     1      -8.533   3.037  -6.742  1.00  0.00    -0.550 OA
ENDBRANCH   3   4
ENDBRANCH   2   3
ENDBRANCH   1   2
BRANCH   1   7
ATOM      7  C   UNL     1      -5.551   2.034  -2.208  1.00  0.00     0.000 C 
BRANCH   7   8
ATOM      8  C   UNL     1      -6.222   2.800  -1.055  1.00  0.00    -0.000 C 
BRANCH   8   9
ATOM      9  C   UNL     1      -5.214   3.318  -0.019  1.00  0.00    -0.003 C 
ATOM     10  C   UNL     1      -5.182   2.419   1.213  1.00  0.00     0.004 C 
ENDBRANCH   8   9
ENDBRANCH   7   8
ENDBRANCH   1   7
TORSDOF 6
ENDMDL
MODEL 2
REMARK VINA RESULT:    -3.537      1.834      2.146
REMARK INTER + INTRA:          -4.963
REMARK INTER:                  -4.870
REMARK INTRA:                  -0.093
REMARK UNBOUND:                -0.185
REMARK SMILES CCCCCCCC(=O)[O-]
REMARK SMILES IDX 5 1 6 2 7 3 8 4 9 5 10 6 4 7 3 8 2 9 1 10
REMARK H PARENT
REMARK Flexibility Score: inf
ROOT
ATOM      1  C   UNL     1      -7.009   2.507  -2.544  1.00  0.00     0.000 C 
ENDROOT
BRANCH   1   2
ATOM      2  C   UNL     1      -7.148   1.510  -3.715  1.00  0.00     0.006 C 
BRANCH   2   3
ATOM      3  C   UNL     1      -8.528   1.582  -4.380  1.00  0.00     0.053 C 
BRANCH   3   4
ATOM      4  C   UNL     1      -8.784   0.350  -5.190  1.00  0.00     0.041 C 
ATOM      5  O   UNL     1      -9.348  -0.647  -4.666  1.00  0.00    -0.550 OA
ATOM      6  O   UNL     1      -8.447   0.321  -6.537  1.00  0.00    -0.550 OA
ENDBRANCH   3   4
ENDBRANCH   2   3
ENDBRANCH   1   2
BRANCH   1   7
ATOM      7  C   UNL     1      -5.708   2.339  -1.737  1.00  0.00     0.000 C 
BRANCH   7   8
ATOM      8  C   UNL     1      -5.729   2.975  -0.337  1.00  0.00    -0.000 C 
BRANCH   8   9
ATOM      9  C   UNL     1      -4.953   2.152   0.702  1.00  0.00    -0.003 C 
ATOM     10  C   UNL     1      -5.377   2.519   2.120  1.00  0.00     0.004 C 
ENDBRANCH   8   9
ENDBRANCH   7   8
ENDBRANCH   1   7
TORSDOF 6
ENDMDL
MODEL 3
REMARK VINA RESULT:    -3.386     13.902     15.194
REMARK INTER + INTRA:          -4.758
REMARK INTER:                  -4.268
REMARK INTRA:                  -0.490
REMARK UNBOUND:                -0.185
REMARK SMILES CCCCCCCC(=O)[O-]
REMARK SMILES IDX 5 1 6 2 7 3 8 4 9 5 10 6 4 7 3 8 2 9 1 10
REMARK H PARENT
REMARK Flexibility Score: inf
ROOT
ATOM      1  C   UNL     1       3.976   8.207  -3.740  1.00  0.00     0.000 C 
ENDROOT
BRANCH   1   2
ATOM      2  C   UNL     1       4.951   7.279  -2.984  1.00  0.00     0.006 C 
BRANCH   2   3
ATOM      3  C   UNL     1       6.154   8.040  -2.412  1.00  0.00     0.053 C 
BRANCH   3   4
ATOM      4  C   UNL     1       7.404   7.230  -2.557  1.00  0.00     0.041 C 
ATOM      5  O   UNL     1       7.432   6.245  -3.342  1.00  0.00    -0.550 OA
ATOM      6  O   UNL     1       8.552   7.593  -1.865  1.00  0.00    -0.550 OA
ENDBRANCH   3   4
ENDBRANCH   2   3
ENDBRANCH   1   2
BRANCH   1   7
ATOM      7  C   UNL     1       4.677   9.238  -4.645  1.00  0.00     0.000 C 
BRANCH   7   8
ATOM      8  C   UNL     1       4.463   9.024  -6.153  1.00  0.00    -0.000 C 
BRANCH   8   9
ATOM      9  C   UNL     1       5.782   8.974  -6.939  1.00  0.00    -0.003 C 
ATOM     10  C   UNL     1       6.972   8.784  -6.004  1.00  0.00     0.004 C 
ENDBRANCH   8   9
ENDBRANCH   7   8
ENDBRANCH   1   7
TORSDOF 6
ENDMDL
MODEL 4
REMARK VINA RESULT:    -3.304     13.628     14.920
REMARK INTER + INTRA:          -4.648
REMARK INTER:                  -4.178
REMARK INTRA:                  -0.470
REMARK UNBOUND:                -0.185
REMARK SMILES CCCCCCCC(=O)[O-]
REMARK SMILES IDX 5 1 6 2 7 3 8 4 9 5 10 6 4 7 3 8 2 9 1 10
REMARK H PARENT
REMARK Flexibility Score: inf
ROOT
ATOM      1  C   UNL     1       4.080   8.016  -3.639  1.00  0.00     0.000 C 
ENDROOT
BRANCH   1   2
ATOM      2  C   UNL     1       4.993   7.056  -2.846  1.00  0.00     0.006 C 
BRANCH   2   3
ATOM      3  C   UNL     1       6.297   7.730  -2.398  1.00  0.00     0.053 C 
BRANCH   3   4
ATOM      4  C   UNL     1       7.471   7.113  -3.091  1.00  0.00     0.041 C 
ATOM      5  O   UNL     1       8.168   6.244  -2.504  1.00  0.00    -0.550 OA
ATOM      6  O   UNL     1       7.764   7.459  -4.404  1.00  0.00    -0.550 OA
ENDBRANCH   3   4
ENDBRANCH   2   3
ENDBRANCH   1   2
BRANCH   1   7
ATOM      7  C   UNL     1       4.567   9.477  -3.638  1.00  0.00     0.000 C 
BRANCH   7   8
ATOM      8  C   UNL     1       4.937  10.036  -5.022  1.00  0.00    -0.000 C 
BRANCH   8   9
ATOM      9  C   UNL     1       4.954   8.957  -6.114  1.00  0.00    -0.003 C 
ATOM     10  C   UNL     1       3.785   9.133  -7.078  1.00  0.00     0.004 C 
ENDBRANCH   8   9
ENDBRANCH   7   8
ENDBRANCH   1   7
TORSDOF 6
ENDMDL
MODEL 5
REMARK VINA RESULT:    -3.181     13.923     15.125
REMARK INTER + INTRA:          -4.481
REMARK INTER:                  -3.887
REMARK INTRA:                  -0.594
REMARK UNBOUND:                -0.185
REMARK SMILES CCCCCCCC(=O)[O-]
REMARK SMILES IDX 5 1 6 2 7 3 8 4 9 5 10 6 4 7 3 8 2 9 1 10
REMARK H PARENT
REMARK Flexibility Score: inf
ROOT
ATOM      1  C   UNL     1       4.237   8.743  -4.559  1.00  0.00     0.000 C 
ENDROOT
BRANCH   1   2
ATOM      2  C   UNL     1       4.347   8.358  -3.068  1.00  0.00     0.006 C 
BRANCH   2   3
ATOM      3  C   UNL     1       5.048   7.009  -2.865  1.00  0.00     0.053 C 
BRANCH   3   4
ATOM      4  C   UNL     1       6.534   7.182  -2.892  1.00  0.00     0.041 C 
ATOM      5  O   UNL     1       7.274   6.241  -3.282  1.00  0.00    -0.550 OA
ATOM      6  O   UNL     1       7.099   8.399  -2.534  1.00  0.00    -0.550 OA
ENDBRANCH   3   4
ENDBRANCH   2   3
ENDBRANCH   1   2
BRANCH   1   7
ATOM      7  C   UNL     1       4.868  10.107  -4.896  1.00  0.00     0.000 C 
BRANCH   7   8
ATOM      8  C   UNL     1       5.788  10.106  -6.128  1.00  0.00    -0.000 C 
BRANCH   8   9
ATOM      9  C   UNL     1       6.502   8.762  -6.337  1.00  0.00    -0.003 C 
ATOM     10  C   UNL     1       7.967   8.849  -5.921  1.00  0.00     0.004 C 
ENDBRANCH   8   9
ENDBRANCH   7   8
ENDBRANCH   1   7
TORSDOF 6
ENDMDL
MODEL 6
REMARK VINA RESULT:    -3.102     13.176     14.273
REMARK INTER + INTRA:          -4.375
REMARK INTER:                  -3.993
REMARK INTRA:                  -0.382
REMARK UNBOUND:                -0.185
REMARK SMILES CCCCCCCC(=O)[O-]
REMARK SMILES IDX 5 1 6 2 7 3 8 4 9 5 10 6 4 7 3 8 2 9 1 10
REMARK H PARENT
REMARK Flexibility Score: inf
ROOT
ATOM      1  C   UNL     1       5.117   7.178  -2.784  1.00  0.00     0.000 C 
ENDROOT
BRANCH   1   2
ATOM      2  C   UNL     1       4.196   8.132  -3.575  1.00  0.00     0.006 C 
BRANCH   2   3
ATOM      3  C   UNL     1       4.988   9.166  -4.386  1.00  0.00     0.053 C 
BRANCH   3   4
ATOM      4  C   UNL     1       4.759   8.969  -5.851  1.00  0.00     0.041 C 
ATOM      5  O   UNL     1       5.695   8.566  -6.590  1.00  0.00    -0.550 OA
ATOM      6  O   UNL     1       3.497   9.183  -6.392  1.00  0.00    -0.550 OA
ENDBRANCH   3   4
ENDBRANCH   2   3
ENDBRANCH   1   2
BRANCH   1   7
ATOM      7  C   UNL     1       6.609   7.320  -3.138  1.00  0.00     0.000 C 
BRANCH   7   8
ATOM      8  C   UNL     1       7.525   7.663  -1.951  1.00  0.00    -0.000 C 
BRANCH   8   9
ATOM      9  C   UNL     1       7.320   9.094  -1.434  1.00  0.00    -0.003 C 
ATOM     10  C   UNL     1       7.689   9.203   0.041  1.00  0.00     0.004 C 
ENDBRANCH   8   9
ENDBRANCH   7   8
ENDBRANCH   1   7
TORSDOF 6
ENDMDL
MODEL 7
REMARK VINA RESULT:    -3.075     14.207     15.452
REMARK INTER + INTRA:          -4.339
REMARK INTER:                  -3.759
REMARK INTRA:                  -0.579
REMARK UNBOUND:                -0.185
REMARK SMILES CCCCCCCC(=O)[O-]
REMARK SMILES IDX 5 1 6 2 7 3 8 4 9 5 10 6 4 7 3 8 2 9 1 10
REMARK H PARENT
REMARK Flexibility Score: inf
ROOT
ATOM      1  C   UNL     1       7.121   9.476  -5.753  1.00  0.00     0.000 C 
ENDROOT
BRANCH   1   2
ATOM      2  C   UNL     1       7.880   8.300  -5.100  1.00  0.00     0.006 C 
BRANCH   2   3
ATOM      3  C   UNL     1       7.779   8.321  -3.569  1.00  0.00     0.053 C 
BRANCH   3   4
ATOM      4  C   UNL     1       7.576   6.936  -3.039  1.00  0.00     0.041 C 
ATOM      5  O   UNL     1       6.558   6.274  -3.372  1.00  0.00    -0.550 OA
ATOM      6  O   UNL     1       8.537   6.358  -2.219  1.00  0.00    -0.550 OA
ENDBRANCH   3   4
ENDBRANCH   2   3
ENDBRANCH   1   2
BRANCH   1   7
ATOM      7  C   UNL     1       5.881   9.930  -4.959  1.00  0.00     0.000 C 
BRANCH   7   8
ATOM      8  C   UNL     1       4.586   9.171  -5.293  1.00  0.00    -0.000 C 
BRANCH   8   9
ATOM      9  C   UNL     1       3.995   8.441  -4.078  1.00  0.00    -0.003 C 
ATOM     10  C   UNL     1       4.213   9.241  -2.798  1.00  0.00     0.004 C 
ENDBRANCH   8   9
ENDBRANCH   7   8
ENDBRANCH   1   7
TORSDOF 6
ENDMDL
MODEL 8
REMARK VINA RESULT:    -3.019     14.391     15.911
REMARK INTER + INTRA:          -4.262
REMARK INTER:                  -3.700
REMARK INTRA:                  -0.562
REMARK UNBOUND:                -0.185
REMARK SMILES CCCCCCCC(=O)[O-]
REMARK SMILES IDX 5 1 6 2 7 3 8 4 9 5 10 6 4 7 3 8 2 9 1 10
REMARK H PARENT
REMARK Flexibility Score: inf
ROOT
ATOM      1  C   UNL     1       7.510   9.779  -2.407  1.00  0.00     0.000 C 
ENDROOT
BRANCH   1   2
ATOM      2  C   UNL     1       7.550   8.598  -1.413  1.00  0.00     0.006 C 
BRANCH   2   3
ATOM      3  C   UNL     1       8.580   7.534  -1.814  1.00  0.00     0.053 C 
BRANCH   3   4
ATOM      4  C   UNL     1       8.215   6.920  -3.129  1.00  0.00     0.041 C 
ATOM      5  O   UNL     1       9.002   7.008  -4.108  1.00  0.00    -0.550 OA
ATOM      6  O   UNL     1       7.029   6.208  -3.259  1.00  0.00    -0.550 OA
ENDBRANCH   3   4
ENDBRANCH   2   3
ENDBRANCH   1   2
BRANCH   1   7
ATOM      7  C   UNL     1       6.107  10.065  -2.974  1.00  0.00     0.000 C 
BRANCH   7   8
ATOM      8  C   UNL     1       5.990   9.938  -4.502  1.00  0.00    -0.000 C 
BRANCH   8   9
ATOM      9  C   UNL     1       5.142   8.732  -4.935  1.00  0.00    -0.003 C 
ATOM     10  C   UNL     1       4.159   8.331  -3.840  1.00  0.00     0.004 C 
ENDBRANCH   8   9
ENDBRANCH   7   8
ENDBRANCH   1   7
TORSDOF 6
ENDMDL
MODEL 9
REMARK VINA RESULT:    -2.938     14.412     15.654
REMARK INTER + INTRA:          -4.153
REMARK INTER:                  -3.643
REMARK INTRA:                  -0.510
REMARK UNBOUND:                -0.185
REMARK SMILES CCCCCCCC(=O)[O-]
REMARK SMILES IDX 5 1 6 2 7 3 8 4 9 5 10 6 4 7 3 8 2 9 1 10
REMARK H PARENT
REMARK Flexibility Score: inf
ROOT
ATOM      1  C   UNL     1       7.836   9.624  -3.407  1.00  0.00     0.000 C 
ENDROOT
BRANCH   1   2
ATOM      2  C   UNL     1       7.087   8.681  -4.374  1.00  0.00     0.006 C 
BRANCH   2   3
ATOM      3  C   UNL     1       5.708   8.274  -3.839  1.00  0.00     0.053 C 
BRANCH   3   4
ATOM      4  C   UNL     1       5.773   6.926  -3.194  1.00  0.00     0.041 C 
ATOM      5  O   UNL     1       6.829   6.243  -3.261  1.00  0.00    -0.550 OA
ATOM      6  O   UNL     1       4.686   6.446  -2.475  1.00  0.00    -0.550 OA
ENDBRANCH   3   4
ENDBRANCH   2   3
ENDBRANCH   1   2
BRANCH   1   7
ATOM      7  C   UNL     1       9.155   9.039  -2.867  1.00  0.00     0.000 C 
BRANCH   7   8
ATOM      8  C   UNL     1       9.075   8.475  -1.439  1.00  0.00    -0.000 C 
BRANCH   8   9
ATOM      9  C   UNL     1       7.751   8.815  -0.738  1.00  0.00    -0.003 C 
ATOM     10  C   UNL     1       8.000   9.430   0.635  1.00  0.00     0.004 C 
ENDBRANCH   8   9
ENDBRANCH   7   8
ENDBRANCH   1   7
TORSDOF 6
ENDMDL
