MODEL 1
REMARK VINA RESULT:    -5.710      0.000      0.000
REMARK INTER + INTRA:          -5.877
REMARK INTER:                  -5.877
REMARK INTRA:                   0.000
REMARK UNBOUND:                 0.000
REMARK SMILES CC1(C)CC[C@@]2(C)CC[C@]3(C)C(=CC[C@H]4[C@]5(C)CC[C@H](O)C(C)(C)[C@@H]5CC[C@]43C)[C@H]2C1
REMARK SMILES IDX 1 1 2 2 4 3 5 4 6 5 8 6 9 7 10 8 12 9 13 10 14 11 15 12
REMARK SMILES IDX 28 13 27 14 26 15 25 16 16 17 18 18 19 19 20 20 22 21 23 22
REMARK SMILES IDX 24 23 17 24 29 25 30 26 31 27 11 28 7 29 3 30 21 31
REMARK H PARENT 21 32
REMARK Flexibility Score: inf
ROOT
ATOM      1  C   UNL     1      -1.119   4.975  -3.566  1.00  0.00     0.011 C 
ATOM      2  C   UNL     1      -2.009   5.179  -2.320  1.00  0.00    -0.035 C 
ATOM      3  C   UNL     1      -2.160   6.704  -2.029  1.00  0.00     0.007 C 
ATOM      4  C   UNL     1      -3.436   7.287  -2.654  1.00  0.00     0.008 C 
ATOM      5  C   UNL     1      -4.740   6.671  -2.046  1.00  0.00    -0.026 C 
ATOM      6  C   UNL     1      -5.925   6.966  -3.032  1.00  0.00     0.008 C 
ATOM      7  C   UNL     1      -6.431   5.735  -3.789  1.00  0.00     0.012 C 
ATOM      8  C   UNL     1      -6.917   4.597  -2.835  1.00  0.00    -0.006 C 
ATOM      9  C   UNL     1      -5.795   4.276  -1.847  1.00  0.00    -0.064 C 
ATOM     10  C   UNL     1      -5.857   3.128  -1.141  1.00  0.00    -0.027 C 
ATOM     11  C   UNL     1      -7.055   2.227  -1.201  1.00  0.00     0.032 C 
ATOM     12  C   UNL     1      -7.592   2.019  -2.653  1.00  0.00     0.006 C 
ATOM     13  C   UNL     1      -7.298   3.252  -3.638  1.00  0.00    -0.020 C 
ATOM     14  C   UNL     1      -8.499   3.495  -4.599  1.00  0.00     0.008 C 
ATOM     15  C   UNL     1      -9.032   2.206  -5.228  1.00  0.00     0.005 C 
ATOM     16  C   UNL     1      -9.517   1.125  -4.210  1.00  0.00     0.003 C 
ATOM     17  C   UNL     1      -9.043   1.361  -2.709  1.00  0.00    -0.025 C 
ATOM     18  C   UNL     1      -8.998   0.003  -1.921  1.00  0.00     0.010 C 
ATOM     19  C   UNL     1     -10.116  -0.965  -2.305  1.00  0.00     0.033 C 
ATOM     20  C   UNL     1     -10.125  -1.349  -3.802  1.00  0.00     0.120 C 
ATOM     21  C   UNL     1      -9.364  -0.355  -4.755  1.00  0.00    -0.006 C 
ATOM     22  C   UNL     1      -7.878  -0.783  -4.944  1.00  0.00     0.014 C 
ATOM     23  C   UNL     1     -10.035  -0.467  -6.153  1.00  0.00     0.014 C 
ATOM     24  C   UNL     1     -10.125   2.230  -1.986  1.00  0.00     0.012 C 
ATOM     25  C   UNL     1      -6.082   2.837  -4.542  1.00  0.00     0.012 C 
ATOM     26  C   UNL     1      -4.530   5.131  -1.736  1.00  0.00     0.022 C 
ATOM     27  C   UNL     1      -3.393   4.508  -2.581  1.00  0.00     0.015 C 
ATOM     28  C   UNL     1      -8.122   5.159  -2.023  1.00  0.00     0.017 C 
ATOM     29  C   UNL     1      -5.046   7.405  -0.713  1.00  0.00     0.012 C 
ATOM     30  C   UNL     1      -1.316   4.499  -1.119  1.00  0.00     0.011 C 
ENDROOT
BRANCH  20  31
ATOM     31  O   UNL     1      -9.635  -2.660  -3.960  1.00  0.00    -0.393 OA
ATOM     32  H   UNL     1     -10.322  -3.174  -4.459  1.00  0.00     0.210 HD
ENDBRANCH  20  31
TORSDOF 1
ENDMDL
MODEL 2
REMARK VINA RESULT:    -5.615      6.450      9.782
REMARK INTER + INTRA:          -5.779
REMARK INTER:                  -5.779
REMARK INTRA:                   0.000
REMARK UNBOUND:                 0.000
REMARK SMILES CC1(C)CC[C@@]2(C)CC[C@]3(C)C(=CC[C@H]4[C@]5(C)CC[C@H](O)C(C)(C)[C@@H]5CC[C@]43C)[C@H]2C1
REMARK SMILES IDX 1 1 2 2 4 3 5 4 6 5 8 6 9 7 10 8 12 9 13 10 14 11 15 12
REMARK SMILES IDX 28 13 27 14 26 15 25 16 16 17 18 18 19 19 20 20 22 21 23 22
REMARK SMILES IDX 24 23 17 24 29 25 30 26 31 27 11 28 7 29 3 30 21 31
REMARK H PARENT 21 32
REMARK Flexibility Score: inf
ROOT
ATOM      1  C   UNL     1      -8.622  -0.803  -4.243  1.00  0.00     0.011 C 
ATOM      2  C   UNL     1      -8.337  -0.727  -5.760  1.00  0.00    -0.035 C 
ATOM      3  C   UNL     1      -8.336   0.764  -6.217  1.00  0.00     0.007 C 
ATOM      4  C   UNL     1      -6.922   1.363  -6.234  1.00  0.00     0.008 C 
ATOM      5  C   UNL     1      -5.985   0.664  -7.274  1.00  0.00    -0.026 C 
ATOM      6  C   UNL     1      -4.500   1.007  -6.901  1.00  0.00     0.008 C 
ATOM      7  C   UNL     1      -3.711  -0.170  -6.321  1.00  0.00     0.012 C 
ATOM      8  C   UNL     1      -3.656  -1.397  -7.288  1.00  0.00    -0.006 C 
ATOM      9  C   UNL     1      -5.085  -1.768  -7.686  1.00  0.00    -0.064 C 
ATOM     10  C   UNL     1      -5.311  -2.971  -8.252  1.00  0.00    -0.027 C 
ATOM     11  C   UNL     1      -4.189  -3.897  -8.618  1.00  0.00     0.032 C 
ATOM     12  C   UNL     1      -3.093  -3.997  -7.510  1.00  0.00     0.006 C 
ATOM     13  C   UNL     1      -2.961  -2.679  -6.604  1.00  0.00    -0.020 C 
ATOM     14  C   UNL     1      -1.471  -2.390  -6.255  1.00  0.00     0.008 C 
ATOM     15  C   UNL     1      -0.711  -3.637  -5.797  1.00  0.00     0.005 C 
ATOM     16  C   UNL     1      -0.684  -4.810  -6.826  1.00  0.00     0.003 C 
ATOM     17  C   UNL     1      -1.743  -4.688  -8.007  1.00  0.00    -0.025 C 
ATOM     18  C   UNL     1      -2.099  -6.104  -8.584  1.00  0.00     0.010 C 
ATOM     19  C   UNL     1      -0.914  -7.067  -8.619  1.00  0.00     0.033 C 
ATOM     20  C   UNL     1      -0.277  -7.325  -7.234  1.00  0.00     0.120 C 
ATOM     21  C   UNL     1      -0.581  -6.236  -6.141  1.00  0.00    -0.006 C 
ATOM     22  C   UNL     1      -1.848  -6.607  -5.313  1.00  0.00     0.014 C 
ATOM     23  C   UNL     1       0.614  -6.249  -5.146  1.00  0.00     0.014 C 
ATOM     24  C   UNL     1      -1.071  -3.911  -9.188  1.00  0.00     0.012 C 
ATOM     25  C   UNL     1      -3.684  -2.985  -5.242  1.00  0.00     0.012 C 
ATOM     26  C   UNL     1      -6.289  -0.891  -7.334  1.00  0.00     0.022 C 
ATOM     27  C   UNL     1      -6.963  -1.411  -6.042  1.00  0.00     0.015 C 
ATOM     28  C   UNL     1      -2.905  -0.936  -8.573  1.00  0.00     0.017 C 
ATOM     29  C   UNL     1      -6.270   1.276  -8.672  1.00  0.00     0.012 C 
ATOM     30  C   UNL     1      -9.461  -1.486  -6.498  1.00  0.00     0.011 C 
ENDROOT
BRANCH  20  31
ATOM     31  O   UNL     1      -0.642  -8.605  -6.773  1.00  0.00    -0.393 OA
ATOM     32  H   UNL     1      -0.405  -8.652  -5.811  1.00  0.00     0.210 HD
ENDBRANCH  20  31
TORSDOF 1
ENDMDL
MODEL 3
REMARK VINA RESULT:    -5.297      9.272     12.789
REMARK INTER + INTRA:          -5.452
REMARK INTER:                  -5.452
REMARK INTRA:                   0.000
REMARK UNBOUND:                 0.000
REMARK SMILES CC1(C)CC[C@@]2(C)CC[C@]3(C)C(=CC[C@H]4[C@]5(C)CC[C@H](O)C(C)(C)[C@@H]5CC[C@]43C)[C@H]2C1
REMARK SMILES IDX 1 1 2 2 4 3 5 4 6 5 8 6 9 7 10 8 12 9 13 10 14 11 15 12
REMARK SMILES IDX 28 13 27 14 26 15 25 16 16 17 18 18 19 19 20 20 22 21 23 22
REMARK SMILES IDX 24 23 17 24 29 25 30 26 31 27 11 28 7 29 3 30 21 31
REMARK H PARENT 21 32
REMARK Flexibility Score: inf
ROOT
ATOM      1  C   UNL     1       5.527   1.137  -0.404  1.00  0.00     0.011 C 
ATOM      2  C   UNL     1       6.339   2.412  -0.729  1.00  0.00    -0.035 C 
ATOM      3  C   UNL     1       7.845   2.044  -0.897  1.00  0.00     0.007 C 
ATOM      4  C   UNL     1       8.221   1.802  -2.366  1.00  0.00     0.008 C 
ATOM      5  C   UNL     1       8.061   3.085  -3.247  1.00  0.00    -0.026 C 
ATOM      6  C   UNL     1       8.013   2.642  -4.751  1.00  0.00     0.008 C 
ATOM      7  C   UNL     1       6.632   2.772  -5.399  1.00  0.00     0.012 C 
ATOM      8  C   UNL     1       6.074   4.230  -5.346  1.00  0.00    -0.006 C 
ATOM      9  C   UNL     1       6.106   4.712  -3.895  1.00  0.00    -0.064 C 
ATOM     10  C   UNL     1       5.391   5.805  -3.556  1.00  0.00    -0.027 C 
ATOM     11  C   UNL     1       4.675   6.631  -4.583  1.00  0.00     0.032 C 
ATOM     12  C   UNL     1       3.911   5.769  -5.638  1.00  0.00     0.006 C 
ATOM     13  C   UNL     1       4.559   4.322  -5.887  1.00  0.00    -0.020 C 
ATOM     14  C   UNL     1       4.477   3.926  -7.391  1.00  0.00     0.008 C 
ATOM     15  C   UNL     1       3.101   4.196  -8.006  1.00  0.00     0.005 C 
ATOM     16  C   UNL     1       2.623   5.680  -7.932  1.00  0.00     0.003 C 
ATOM     17  C   UNL     1       3.439   6.596  -6.918  1.00  0.00    -0.025 C 
ATOM     18  C   UNL     1       2.561   7.802  -6.427  1.00  0.00     0.010 C 
ATOM     19  C   UNL     1       1.637   8.365  -7.506  1.00  0.00     0.033 C 
ATOM     20  C   UNL     1       0.644   7.330  -8.082  1.00  0.00     0.120 C 
ATOM     21  C   UNL     1       1.046   5.824  -7.870  1.00  0.00    -0.006 C 
ATOM     22  C   UNL     1       0.435   5.258  -6.553  1.00  0.00     0.014 C 
ATOM     23  C   UNL     1       0.405   5.017  -9.035  1.00  0.00     0.014 C 
ATOM     24  C   UNL     1       4.637   7.237  -7.693  1.00  0.00     0.012 C 
ATOM     25  C   UNL     1       3.676   3.283  -5.107  1.00  0.00     0.012 C 
ATOM     26  C   UNL     1       6.796   3.919  -2.783  1.00  0.00     0.022 C 
ATOM     27  C   UNL     1       5.760   3.051  -2.029  1.00  0.00     0.015 C 
ATOM     28  C   UNL     1       7.048   5.126  -6.169  1.00  0.00     0.017 C 
ATOM     29  C   UNL     1       9.327   3.963  -3.058  1.00  0.00     0.012 C 
ATOM     30  C   UNL     1       6.183   3.394   0.452  1.00  0.00     0.011 C 
ENDROOT
BRANCH  20  31
ATOM     31  O   UNL     1      -0.647   7.574  -7.574  1.00  0.00    -0.393 OA
ATOM     32  H   UNL     1      -1.267   6.949  -8.030  1.00  0.00     0.210 HD
ENDBRANCH  20  31
TORSDOF 1
ENDMDL
MODEL 4
REMARK VINA RESULT:    -5.291     12.696     14.992
REMARK INTER + INTRA:          -5.446
REMARK INTER:                  -5.446
REMARK INTRA:                   0.000
REMARK UNBOUND:                 0.000
REMARK SMILES CC1(C)CC[C@@]2(C)CC[C@]3(C)C(=CC[C@H]4[C@]5(C)CC[C@H](O)C(C)(C)[C@@H]5CC[C@]43C)[C@H]2C1
REMARK SMILES IDX 1 1 2 2 4 3 5 4 6 5 8 6 9 7 10 8 12 9 13 10 14 11 15 12
REMARK SMILES IDX 28 13 27 14 26 15 25 16 16 17 18 18 19 19 20 20 22 21 23 22
REMARK SMILES IDX 24 23 17 24 29 25 30 26 31 27 11 28 7 29 3 30 21 31
REMARK H PARENT 21 32
REMARK Flexibility Score: inf
ROOT
ATOM      1  C   UNL     1       9.259   3.289  -8.412  1.00  0.00     0.011 C 
ATOM      2  C   UNL     1       8.883   4.367  -7.371  1.00  0.00    -0.035 C 
ATOM      3  C   UNL     1       7.716   5.242  -7.923  1.00  0.00     0.007 C 
ATOM      4  C   UNL     1       6.344   4.744  -7.445  1.00  0.00     0.008 C 
ATOM      5  C   UNL     1       6.173   4.848  -5.893  1.00  0.00    -0.026 C 
ATOM      6  C   UNL     1       4.982   3.918  -5.470  1.00  0.00     0.008 C 
ATOM      7  C   UNL     1       5.410   2.653  -4.721  1.00  0.00     0.012 C 
ATOM      8  C   UNL     1       6.216   2.965  -3.419  1.00  0.00    -0.006 C 
ATOM      9  C   UNL     1       7.389   3.878  -3.779  1.00  0.00    -0.064 C 
ATOM     10  C   UNL     1       8.396   4.024  -2.893  1.00  0.00    -0.027 C 
ATOM     11  C   UNL     1       8.335   3.424  -1.520  1.00  0.00     0.032 C 
ATOM     12  C   UNL     1       7.796   1.958  -1.516  1.00  0.00     0.006 C 
ATOM     13  C   UNL     1       6.794   1.630  -2.727  1.00  0.00    -0.020 C 
ATOM     14  C   UNL     1       5.639   0.697  -2.256  1.00  0.00     0.008 C 
ATOM     15  C   UNL     1       6.128  -0.480  -1.410  1.00  0.00     0.005 C 
ATOM     16  C   UNL     1       6.907  -0.086  -0.116  1.00  0.00     0.003 C 
ATOM     17  C   UNL     1       7.399   1.427  -0.066  1.00  0.00    -0.025 C 
ATOM     18  C   UNL     1       8.649   1.574   0.872  1.00  0.00     0.010 C 
ATOM     19  C   UNL     1       8.604   0.668   2.101  1.00  0.00     0.033 C 
ATOM     20  C   UNL     1       8.507  -0.838   1.764  1.00  0.00     0.120 C 
ATOM     21  C   UNL     1       7.977  -1.171   0.321  1.00  0.00    -0.006 C 
ATOM     22  C   UNL     1       9.152  -1.308  -0.693  1.00  0.00     0.014 C 
ATOM     23  C   UNL     1       7.299  -2.567   0.400  1.00  0.00     0.014 C 
ATOM     24  C   UNL     1       6.272   2.285   0.599  1.00  0.00     0.012 C 
ATOM     25  C   UNL     1       7.614   0.817  -3.793  1.00  0.00     0.012 C 
ATOM     26  C   UNL     1       7.539   4.513  -5.164  1.00  0.00     0.022 C 
ATOM     27  C   UNL     1       8.484   3.657  -6.041  1.00  0.00     0.015 C 
ATOM     28  C   UNL     1       5.268   3.757  -2.469  1.00  0.00     0.017 C 
ATOM     29  C   UNL     1       5.773   6.307  -5.547  1.00  0.00     0.012 C 
ATOM     30  C   UNL     1      10.121   5.260  -7.136  1.00  0.00     0.011 C 
ENDROOT
BRANCH  20  31
ATOM     31  O   UNL     1       9.752  -1.457   1.990  1.00  0.00    -0.393 OA
ATOM     32  H   UNL     1      10.019  -1.253   2.923  1.00  0.00     0.210 HD
ENDBRANCH  20  31
TORSDOF 1
ENDMDL
MODEL 5
REMARK VINA RESULT:    -5.192      8.122     10.886
REMARK INTER + INTRA:          -5.343
REMARK INTER:                  -5.343
REMARK INTRA:                   0.000
REMARK UNBOUND:                 0.000
REMARK SMILES CC1(C)CC[C@@]2(C)CC[C@]3(C)C(=CC[C@H]4[C@]5(C)CC[C@H](O)C(C)(C)[C@@H]5CC[C@]43C)[C@H]2C1
REMARK SMILES IDX 1 1 2 2 4 3 5 4 6 5 8 6 9 7 10 8 12 9 13 10 14 11 15 12
REMARK SMILES IDX 28 13 27 14 26 15 25 16 16 17 18 18 19 19 20 20 22 21 23 22
REMARK SMILES IDX 24 23 17 24 29 25 30 26 31 27 11 28 7 29 3 30 21 31
REMARK H PARENT 21 32
REMARK Flexibility Score: inf
ROOT
ATOM      1  C   UNL     1       2.392  -5.178  -2.255  1.00  0.00     0.011 C 
ATOM      2  C   UNL     1       2.480  -5.496  -3.764  1.00  0.00    -0.035 C 
ATOM      3  C   UNL     1       2.396  -7.038  -3.980  1.00  0.00     0.007 C 
ATOM      4  C   UNL     1       0.964  -7.502  -4.281  1.00  0.00     0.008 C 
ATOM      5  C   UNL     1       0.412  -6.918  -5.623  1.00  0.00    -0.026 C 
ATOM      6  C   UNL     1      -1.151  -7.057  -5.610  1.00  0.00     0.008 C 
ATOM      7  C   UNL     1      -1.897  -5.730  -5.440  1.00  0.00     0.012 C 
ATOM      8  C   UNL     1      -1.551  -4.695  -6.557  1.00  0.00    -0.006 C 
ATOM      9  C   UNL     1      -0.032  -4.528  -6.615  1.00  0.00    -0.064 C 
ATOM     10  C   UNL     1       0.483  -3.469  -7.272  1.00  0.00    -0.027 C 
ATOM     11  C   UNL     1      -0.383  -2.527  -8.055  1.00  0.00     0.032 C 
ATOM     12  C   UNL     1      -1.695  -2.135  -7.304  1.00  0.00     0.006 C 
ATOM     13  C   UNL     1      -2.218  -3.254  -6.280  1.00  0.00    -0.020 C 
ATOM     14  C   UNL     1      -3.773  -3.344  -6.298  1.00  0.00     0.008 C 
ATOM     15  C   UNL     1      -4.451  -1.973  -6.247  1.00  0.00     0.005 C 
ATOM     16  C   UNL     1      -4.070  -1.003  -7.409  1.00  0.00     0.003 C 
ATOM     17  C   UNL     1      -2.778  -1.426  -8.237  1.00  0.00    -0.025 C 
ATOM     18  C   UNL     1      -2.108  -0.172  -8.902  1.00  0.00     0.010 C 
ATOM     19  C   UNL     1      -3.111   0.871  -9.392  1.00  0.00     0.033 C 
ATOM     20  C   UNL     1      -4.030   1.426  -8.279  1.00  0.00     0.120 C 
ATOM     21  C   UNL     1      -4.150   0.525  -6.995  1.00  0.00    -0.006 C 
ATOM     22  C   UNL     1      -3.088   0.923  -5.927  1.00  0.00     0.014 C 
ATOM     23  C   UNL     1      -5.540   0.820  -6.365  1.00  0.00     0.014 C 
ATOM     24  C   UNL     1      -3.235  -2.337  -9.424  1.00  0.00     0.012 C 
ATOM     25  C   UNL     1      -1.819  -2.778  -4.837  1.00  0.00     0.012 C 
ATOM     26  C   UNL     1       0.922  -5.432  -5.830  1.00  0.00     0.022 C 
ATOM     27  C   UNL     1       1.321  -4.753  -4.498  1.00  0.00     0.015 C 
ATOM     28  C   UNL     1      -2.016  -5.307  -7.913  1.00  0.00     0.017 C 
ATOM     29  C   UNL     1       0.949  -7.791  -6.789  1.00  0.00     0.012 C 
ATOM     30  C   UNL     1       3.842  -4.983  -4.283  1.00  0.00     0.011 C 
ENDROOT
BRANCH  20  31
ATOM     31  O   UNL     1      -3.624   2.730  -7.933  1.00  0.00    -0.393 OA
ATOM     32  H   UNL     1      -4.446   3.269  -7.794  1.00  0.00     0.210 HD
ENDBRANCH  20  31
TORSDOF 1
ENDMDL
MODEL 6
REMARK VINA RESULT:    -5.187     10.769     13.488
REMARK INTER + INTRA:          -5.339
REMARK INTER:                  -5.339
REMARK INTRA:                   0.000
REMARK UNBOUND:                 0.000
REMARK SMILES CC1(C)CC[C@@]2(C)CC[C@]3(C)C(=CC[C@H]4[C@]5(C)CC[C@H](O)C(C)(C)[C@@H]5CC[C@]43C)[C@H]2C1
REMARK SMILES IDX 1 1 2 2 4 3 5 4 6 5 8 6 9 7 10 8 12 9 13 10 14 11 15 12
REMARK SMILES IDX 28 13 27 14 26 15 25 16 16 17 18 18 19 19 20 20 22 21 23 22
REMARK SMILES IDX 24 23 17 24 29 25 30 26 31 27 11 28 7 29 3 30 21 31
REMARK H PARENT 21 32
REMARK Flexibility Score: inf
ROOT
ATOM      1  C   UNL     1       2.344   9.346  -5.989  1.00  0.00     0.011 C 
ATOM      2  C   UNL     1       2.501   8.123  -6.920  1.00  0.00    -0.035 C 
ATOM      3  C   UNL     1       3.192   8.561  -8.248  1.00  0.00     0.007 C 
ATOM      4  C   UNL     1       4.711   8.339  -8.210  1.00  0.00     0.008 C 
ATOM      5  C   UNL     1       5.094   6.827  -8.083  1.00  0.00    -0.026 C 
ATOM      6  C   UNL     1       6.583   6.740  -7.595  1.00  0.00     0.008 C 
ATOM      7  C   UNL     1       6.742   6.268  -6.147  1.00  0.00     0.012 C 
ATOM      8  C   UNL     1       6.108   4.861  -5.897  1.00  0.00    -0.006 C 
ATOM      9  C   UNL     1       4.652   4.893  -6.365  1.00  0.00    -0.064 C 
ATOM     10  C   UNL     1       3.819   3.909  -5.966  1.00  0.00    -0.027 C 
ATOM     11  C   UNL     1       4.310   2.723  -5.190  1.00  0.00     0.032 C 
ATOM     12  C   UNL     1       5.307   3.107  -4.051  1.00  0.00     0.006 C 
ATOM     13  C   UNL     1       6.142   4.447  -4.341  1.00  0.00    -0.020 C 
ATOM     14  C   UNL     1       7.607   4.312  -3.829  1.00  0.00     0.008 C 
ATOM     15  C   UNL     1       7.695   3.719  -2.421  1.00  0.00     0.005 C 
ATOM     16  C   UNL     1       7.058   2.304  -2.257  1.00  0.00     0.003 C 
ATOM     17  C   UNL     1       6.098   1.861  -3.447  1.00  0.00    -0.025 C 
ATOM     18  C   UNL     1       5.048   0.805  -2.950  1.00  0.00     0.010 C 
ATOM     19  C   UNL     1       5.603  -0.171  -1.915  1.00  0.00     0.033 C 
ATOM     20  C   UNL     1       6.147   0.512  -0.639  1.00  0.00     0.120 C 
ATOM     21  C   UNL     1       6.509   2.034  -0.795  1.00  0.00    -0.006 C 
ATOM     22  C   UNL     1       5.297   2.941  -0.423  1.00  0.00     0.014 C 
ATOM     23  C   UNL     1       7.624   2.342   0.244  1.00  0.00     0.014 C 
ATOM     24  C   UNL     1       6.961   1.121  -4.521  1.00  0.00     0.012 C 
ATOM     25  C   UNL     1       5.480   5.593  -3.494  1.00  0.00     0.012 C 
ATOM     26  C   UNL     1       4.066   6.073  -7.143  1.00  0.00     0.022 C 
ATOM     27  C   UNL     1       3.335   7.035  -6.175  1.00  0.00     0.015 C 
ATOM     28  C   UNL     1       6.876   3.845  -6.794  1.00  0.00     0.017 C 
ATOM     29  C   UNL     1       5.028   6.191  -9.497  1.00  0.00     0.012 C 
ATOM     30  C   UNL     1       1.091   7.577  -7.236  1.00  0.00     0.011 C 
ENDROOT
BRANCH  20  31
ATOM     31  O   UNL     1       5.243   0.323   0.424  1.00  0.00    -0.393 OA
ATOM     32  H   UNL     1       5.654  -0.329   1.050  1.00  0.00     0.210 HD
ENDBRANCH  20  31
TORSDOF 1
ENDMDL
MODEL 7
REMARK VINA RESULT:    -5.046     11.201     15.054
REMARK INTER + INTRA:          -5.193
REMARK INTER:                  -5.193
REMARK INTRA:                   0.000
REMARK UNBOUND:                 0.000
REMARK SMILES CC1(C)CC[C@@]2(C)CC[C@]3(C)C(=CC[C@H]4[C@]5(C)CC[C@H](O)C(C)(C)[C@@H]5CC[C@]43C)[C@H]2C1
REMARK SMILES IDX 1 1 2 2 4 3 5 4 6 5 8 6 9 7 10 8 12 9 13 10 14 11 15 12
REMARK SMILES IDX 28 13 27 14 26 15 25 16 16 17 18 18 19 19 20 20 22 21 23 22
REMARK SMILES IDX 24 23 17 24 29 25 30 26 31 27 11 28 7 29 3 30 21 31
REMARK H PARENT 21 32
REMARK Flexibility Score: inf
ROOT
ATOM      1  C   UNL     1       1.542  -4.057  -6.866  1.00  0.00     0.011 C 
ATOM      2  C   UNL     1       1.877  -4.650  -5.479  1.00  0.00    -0.035 C 
ATOM      3  C   UNL     1       2.465  -6.084  -5.651  1.00  0.00     0.007 C 
ATOM      4  C   UNL     1       4.000  -6.080  -5.677  1.00  0.00     0.008 C 
ATOM      5  C   UNL     1       4.624  -5.592  -4.327  1.00  0.00    -0.026 C 
ATOM      6  C   UNL     1       6.116  -5.187  -4.597  1.00  0.00     0.008 C 
ATOM      7  C   UNL     1       6.373  -3.678  -4.551  1.00  0.00     0.012 C 
ATOM      8  C   UNL     1       5.978  -3.039  -3.181  1.00  0.00    -0.006 C 
ATOM      9  C   UNL     1       4.528  -3.412  -2.869  1.00  0.00    -0.064 C 
ATOM     10  C   UNL     1       3.871  -2.726  -1.912  1.00  0.00    -0.027 C 
ATOM     11  C   UNL     1       4.559  -1.702  -1.058  1.00  0.00     0.032 C 
ATOM     12  C   UNL     1       5.501  -0.760  -1.874  1.00  0.00     0.006 C 
ATOM     13  C   UNL     1       6.106  -1.433  -3.200  1.00  0.00    -0.020 C 
ATOM     14  C   UNL     1       7.582  -0.990  -3.426  1.00  0.00     0.008 C 
ATOM     15  C   UNL     1       7.789   0.515  -3.245  1.00  0.00     0.005 C 
ATOM     16  C   UNL     1       7.390   1.074  -1.843  1.00  0.00     0.003 C 
ATOM     17  C   UNL     1       6.493   0.096  -0.964  1.00  0.00    -0.025 C 
ATOM     18  C   UNL     1       5.634   0.909   0.069  1.00  0.00     0.010 C 
ATOM     19  C   UNL     1       6.358   2.125   0.645  1.00  0.00     0.033 C 
ATOM     20  C   UNL     1       6.807   3.148  -0.423  1.00  0.00     0.120 C 
ATOM     21  C   UNL     1       6.917   2.586  -1.888  1.00  0.00    -0.006 C 
ATOM     22  C   UNL     1       5.582   2.783  -2.668  1.00  0.00     0.014 C 
ATOM     23  C   UNL     1       7.986   3.443  -2.622  1.00  0.00     0.014 C 
ATOM     24  C   UNL     1       7.445  -0.801  -0.106  1.00  0.00     0.012 C 
ATOM     25  C   UNL     1       5.284  -0.871  -4.415  1.00  0.00     0.012 C 
ATOM     26  C   UNL     1       3.746  -4.431  -3.702  1.00  0.00     0.022 C 
ATOM     27  C   UNL     1       2.887  -3.701  -4.763  1.00  0.00     0.015 C 
ATOM     28  C   UNL     1       6.883  -3.688  -2.091  1.00  0.00     0.017 C 
ATOM     29  C   UNL     1       4.635  -6.789  -3.339  1.00  0.00     0.012 C 
ATOM     30  C   UNL     1       0.568  -4.732  -4.663  1.00  0.00     0.011 C 
ENDROOT
BRANCH  20  31
ATOM     31  O   UNL     1       5.964   4.276  -0.387  1.00  0.00    -0.393 OA
ATOM     32  H   UNL     1       6.466   5.006   0.060  1.00  0.00     0.210 HD
ENDBRANCH  20  31
TORSDOF 1
ENDMDL
MODEL 8
REMARK VINA RESULT:    -5.031     12.061     15.472
REMARK INTER + INTRA:          -5.178
REMARK INTER:                  -5.178
REMARK INTRA:                   0.000
REMARK UNBOUND:                 0.000
REMARK SMILES CC1(C)CC[C@@]2(C)CC[C@]3(C)C(=CC[C@H]4[C@]5(C)CC[C@H](O)C(C)(C)[C@@H]5CC[C@]43C)[C@H]2C1
REMARK SMILES IDX 1 1 2 2 4 3 5 4 6 5 8 6 9 7 10 8 12 9 13 10 14 11 15 12
REMARK SMILES IDX 28 13 27 14 26 15 25 16 16 17 18 18 19 19 20 20 22 21 23 22
REMARK SMILES IDX 24 23 17 24 29 25 30 26 31 27 11 28 7 29 3 30 21 31
REMARK H PARENT 21 32
REMARK Flexibility Score: inf
ROOT
ATOM      1  C   UNL     1       3.425  -5.654  -5.717  1.00  0.00     0.011 C 
ATOM      2  C   UNL     1       3.333  -5.664  -4.174  1.00  0.00    -0.035 C 
ATOM      3  C   UNL     1       3.933  -6.993  -3.623  1.00  0.00     0.007 C 
ATOM      4  C   UNL     1       5.408  -6.840  -3.225  1.00  0.00     0.008 C 
ATOM      5  C   UNL     1       5.612  -5.834  -2.045  1.00  0.00    -0.026 C 
ATOM      6  C   UNL     1       7.121  -5.402  -2.026  1.00  0.00     0.008 C 
ATOM      7  C   UNL     1       7.367  -3.962  -2.485  1.00  0.00     0.012 C 
ATOM      8  C   UNL     1       6.593  -2.913  -1.625  1.00  0.00    -0.006 C 
ATOM      9  C   UNL     1       5.112  -3.294  -1.607  1.00  0.00    -0.064 C 
ATOM     10  C   UNL     1       4.209  -2.379  -1.201  1.00  0.00    -0.027 C 
ATOM     11  C   UNL     1       4.625  -1.049  -0.644  1.00  0.00     0.032 C 
ATOM     12  C   UNL     1       5.773  -0.377  -1.463  1.00  0.00     0.006 C 
ATOM     13  C   UNL     1       6.735  -1.420  -2.213  1.00  0.00    -0.020 C 
ATOM     14  C   UNL     1       8.216  -0.941  -2.175  1.00  0.00     0.008 C 
ATOM     15  C   UNL     1       8.374   0.540  -2.527  1.00  0.00     0.005 C 
ATOM     16  C   UNL     1       7.586   1.527  -1.609  1.00  0.00     0.003 C 
ATOM     17  C   UNL     1       6.462   0.849  -0.709  1.00  0.00    -0.025 C 
ATOM     18  C   UNL     1       5.345   1.888  -0.338  1.00  0.00     0.010 C 
ATOM     19  C   UNL     1       5.878   3.298  -0.091  1.00  0.00     0.033 C 
ATOM     20  C   UNL     1       6.630   3.904  -1.298  1.00  0.00     0.120 C 
ATOM     21  C   UNL     1       7.160   2.861  -2.350  1.00  0.00    -0.006 C 
ATOM     22  C   UNL     1       6.116   2.622  -3.481  1.00  0.00     0.014 C 
ATOM     23  C   UNL     1       8.405   3.498  -3.029  1.00  0.00     0.014 C 
ATOM     24  C   UNL     1       7.112   0.429   0.651  1.00  0.00     0.012 C 
ATOM     25  C   UNL     1       6.311  -1.427  -3.727  1.00  0.00     0.012 C 
ATOM     26  C   UNL     1       4.600  -4.621  -2.172  1.00  0.00     0.022 C 
ATOM     27  C   UNL     1       4.097  -4.421  -3.622  1.00  0.00     0.015 C 
ATOM     28  C   UNL     1       7.133  -3.024  -0.167  1.00  0.00     0.017 C 
ATOM     29  C   UNL     1       5.323  -6.581  -0.716  1.00  0.00     0.012 C 
ATOM     30  C   UNL     1       1.841  -5.578  -3.782  1.00  0.00     0.011 C 
ENDROOT
BRANCH  20  31
ATOM     31  O   UNL     1       5.824   4.874  -1.924  1.00  0.00    -0.393 OA
ATOM     32  H   UNL     1       5.571   4.518  -2.815  1.00  0.00     0.210 HD
ENDBRANCH  20  31
TORSDOF 1
ENDMDL
MODEL 9
REMARK VINA RESULT:    -4.949     10.850     14.767
REMARK INTER + INTRA:          -5.094
REMARK INTER:                  -5.094
REMARK INTRA:                   0.000
REMARK UNBOUND:                 0.000
REMARK SMILES CC1(C)CC[C@@]2(C)CC[C@]3(C)C(=CC[C@H]4[C@]5(C)CC[C@H](O)C(C)(C)[C@@H]5CC[C@]43C)[C@H]2C1
REMARK SMILES IDX 1 1 2 2 4 3 5 4 6 5 8 6 9 7 10 8 12 9 13 10 14 11 15 12
REMARK SMILES IDX 28 13 27 14 26 15 25 16 16 17 18 18 19 19 20 20 22 21 23 22
REMARK SMILES IDX 24 23 17 24 29 25 30 26 31 27 11 28 7 29 3 30 21 31
REMARK H PARENT 21 32
REMARK Flexibility Score: inf
ROOT
ATOM      1  C   UNL     1      -0.462  -5.526  -7.453  1.00  0.00     0.011 C 
ATOM      2  C   UNL     1      -0.352  -6.025  -5.994  1.00  0.00    -0.035 C 
ATOM      3  C   UNL     1      -0.188  -7.576  -5.983  1.00  0.00     0.007 C 
ATOM      4  C   UNL     1       1.285  -8.002  -5.915  1.00  0.00     0.008 C 
ATOM      5  C   UNL     1       1.979  -7.554  -4.585  1.00  0.00    -0.026 C 
ATOM      6  C   UNL     1       3.533  -7.613  -4.802  1.00  0.00     0.008 C 
ATOM      7  C   UNL     1       4.205  -6.240  -4.894  1.00  0.00     0.012 C 
ATOM      8  C   UNL     1       3.965  -5.363  -3.623  1.00  0.00    -0.006 C 
ATOM      9  C   UNL     1       2.460  -5.280  -3.366  1.00  0.00    -0.064 C 
ATOM     10  C   UNL     1       1.994  -4.333  -2.526  1.00  0.00    -0.027 C 
ATOM     11  C   UNL     1       2.918  -3.449  -1.740  1.00  0.00     0.032 C 
ATOM     12  C   UNL     1       4.112  -2.906  -2.588  1.00  0.00     0.006 C 
ATOM     13  C   UNL     1       4.542  -3.869  -3.798  1.00  0.00    -0.020 C 
ATOM     14  C   UNL     1       6.089  -3.883  -3.976  1.00  0.00     0.008 C 
ATOM     15  C   UNL     1       6.708  -2.484  -3.937  1.00  0.00     0.005 C 
ATOM     16  C   UNL     1       6.441  -1.678  -2.627  1.00  0.00     0.003 C 
ATOM     17  C   UNL     1       5.277  -2.260  -1.710  1.00  0.00    -0.025 C 
ATOM     18  C   UNL     1       4.652  -1.128  -0.820  1.00  0.00     0.010 C 
ATOM     19  C   UNL     1       5.672  -0.103  -0.328  1.00  0.00     0.033 C 
ATOM     20  C   UNL     1       6.425   0.625  -1.465  1.00  0.00     0.120 C 
ATOM     21  C   UNL     1       6.416  -0.110  -2.855  1.00  0.00    -0.006 C 
ATOM     22  C   UNL     1       5.217   0.358  -3.732  1.00  0.00     0.014 C 
ATOM     23  C   UNL     1       7.706   0.326  -3.605  1.00  0.00     0.014 C 
ATOM     24  C   UNL     1       5.909  -3.282  -0.708  1.00  0.00     0.012 C 
ATOM     25  C   UNL     1       3.950  -3.245  -5.113  1.00  0.00     0.012 C 
ATOM     26  C   UNL     1       1.447  -6.131  -4.137  1.00  0.00     0.022 C 
ATOM     27  C   UNL     1       0.863  -5.319  -5.318  1.00  0.00     0.015 C 
ATOM     28  C   UNL     1       4.616  -6.108  -2.420  1.00  0.00     0.017 C 
ATOM     29  C   UNL     1       1.622  -8.585  -3.482  1.00  0.00     0.012 C 
ATOM     30  C   UNL     1      -1.655  -5.646  -5.257  1.00  0.00     0.011 C 
ENDROOT
BRANCH  20  31
ATOM     31  O   UNL     1       5.935   1.939  -1.596  1.00  0.00    -0.393 OA
ATOM     32  H   UNL     1       6.534   2.417  -2.226  1.00  0.00     0.210 HD
ENDBRANCH  20  31
TORSDOF 1
ENDMDL
