MODEL 1
REMARK VINA RESULT:    -3.403      0.000      0.000
REMARK INTER + INTRA:          -8.659
REMARK INTER:                  -5.592
REMARK INTRA:                  -3.068
REMARK UNBOUND:                -3.068
REMARK SMILES COc1ccc([C@H]2CC(=O)c3c(O)cc(O[C@H]4O[C@H](CO[C@@H]5O[C@@H](C)[C@@H](O)[C@H](O)[C@@H]5O)[C@H](O)[C@H](O)[C@H]4O)cc3O2)cc1O
REMARK SMILES IDX 19 1 32 2 34 3 36 4 17 5 18 6 20 7 21 8 22 9 25 10 24 11
REMARK SMILES IDX 26 12 23 13 28 14 30 15 27 16 29 18 31 20 33 22 35 24 16 26
REMARK SMILES IDX 15 27 14 28 38 29 12 30 39 31 11 32 40 33 9 34 7 35 10 36
REMARK SMILES IDX 8 37 13 38 6 40 41 41 5 42 42 43 4 44 3 45 43 46 2 48 1 49
REMARK SMILES IDX 37 50
REMARK H PARENT 27 17 29 19 31 21 33 23 35 25 13 39 43 47 37 51
REMARK Flexibility Score: inf
ROOT
ATOM      1  C   UNL     1      43.490  13.692  -4.910  1.00  0.00     0.180 C 
ATOM      2  C   UNL     1      42.981  14.082  -3.530  1.00  0.00     0.177 C 
ATOM      3  C   UNL     1      41.732  13.270  -3.131  1.00  0.00     0.180 C 
ATOM      4  C   UNL     1      41.135  12.482  -4.341  1.00  0.00     0.214 C 
ATOM      5  C   UNL     1      41.150  13.378  -5.578  1.00  0.00     0.339 C 
ATOM      6  O   UNL     1      42.497  13.768  -5.952  1.00  0.00    -0.332 OA
ENDROOT
BRANCH   1   7
ATOM      7  C   UNL     1      44.354  12.376  -4.925  1.00  0.00     0.198 C 
BRANCH   7   8
ATOM      8  O   UNL     1      45.767  12.574  -4.717  1.00  0.00    -0.347 OA
BRANCH   8   9
ATOM      9  C   UNL     1      46.327  11.627  -3.802  1.00  0.00     0.281 C 
ATOM     10  C   UNL     1      47.266  13.992  -1.156  1.00  0.00     0.041 C 
ATOM     11  C   UNL     1      47.489  13.072  -2.357  1.00  0.00     0.150 C 
ATOM     12  C   UNL     1      48.798  12.280  -2.280  1.00  0.00     0.174 C 
ATOM     13  O   UNL     1      46.423  12.126  -2.470  1.00  0.00    -0.344 OA
ATOM     14  C   UNL     1      49.014  11.599  -3.634  1.00  0.00     0.179 C 
ATOM     15  C   UNL     1      47.697  11.006  -4.294  1.00  0.00     0.202 C 
BRANCH  12  16
ATOM     16  O   UNL     1      48.762  11.328  -1.250  1.00  0.00    -0.388 OA
ATOM     17  H   UNL     1      48.804  11.822  -0.369  1.00  0.00     0.211 HD
ENDBRANCH  12  16
BRANCH  14  18
ATOM     18  O   UNL     1      49.717  12.487  -4.481  1.00  0.00    -0.387 OA
ATOM     19  H   UNL     1      50.328  11.968  -5.020  1.00  0.00     0.211 HD
ENDBRANCH  14  18
BRANCH  15  20
ATOM     20  O   UNL     1      47.792  10.979  -5.705  1.00  0.00    -0.385 OA
ATOM     21  H   UNL     1      48.159  11.861  -5.980  1.00  0.00     0.211 HD
ENDBRANCH  15  20
ENDBRANCH   8   9
ENDBRANCH   7   8
ENDBRANCH   1   7
BRANCH   2  22
ATOM     22  O   UNL     1      44.004  13.980  -2.562  1.00  0.00    -0.387 OA
ATOM     23  H   UNL     1      43.740  14.591  -1.818  1.00  0.00     0.211 HD
ENDBRANCH   2  22
BRANCH   3  24
ATOM     24  O   UNL     1      42.035  12.384  -2.084  1.00  0.00    -0.387 OA
ATOM     25  H   UNL     1      42.881  11.924  -2.341  1.00  0.00     0.211 HD
ENDBRANCH   3  24
BRANCH   5  26
ATOM     26  O   UNL     1      40.280  14.538  -5.442  1.00  0.00    -0.462 OA
BRANCH  26  27
ATOM     27  C   UNL     1      40.744  15.860  -5.229  1.00  0.00     0.130 A 
ATOM     28  C   UNL     1      40.373  16.585  -4.072  1.00  0.00     0.093 A 
ATOM     29  C   UNL     1      41.598  16.505  -6.124  1.00  0.00     0.094 A 
ATOM     30  C   UNL     1      41.043  17.816  -3.749  1.00  0.00     0.133 A 
ATOM     31  C   UNL     1      42.489  17.427  -5.616  1.00  0.00     0.138 A 
ATOM     32  C   UNL     1      42.146  18.219  -4.527  1.00  0.00     0.102 A 
ATOM     33  O   UNL     1      43.826  17.350  -6.012  1.00  0.00    -0.484 OA
ATOM     34  C   UNL     1      43.151  19.258  -4.130  1.00  0.00     0.174 C 
ATOM     35  C   UNL     1      44.792  17.618  -5.012  1.00  0.00     0.211 C 
ATOM     36  O   UNL     1      42.803  20.331  -3.550  1.00  0.00    -0.294 OA
ATOM     37  C   UNL     1      44.616  19.095  -4.590  1.00  0.00     0.131 C 
BRANCH  30  38
ATOM     38  O   UNL     1      40.673  18.569  -2.622  1.00  0.00    -0.507 OA
ATOM     39  H   UNL     1      41.266  19.329  -2.272  1.00  0.00     0.293 HD
ENDBRANCH  30  38
BRANCH  35  40
ATOM     40  C   UNL     1      46.135  17.047  -5.384  1.00  0.00    -0.003 A 
ATOM     41  C   UNL     1      46.395  15.694  -5.557  1.00  0.00     0.057 A 
ATOM     42  C   UNL     1      47.200  17.970  -5.427  1.00  0.00     0.011 A 
ATOM     43  C   UNL     1      47.725  15.259  -5.803  1.00  0.00     0.158 A 
ATOM     44  C   UNL     1      48.498  17.564  -5.703  1.00  0.00     0.051 A 
ATOM     45  C   UNL     1      48.800  16.182  -5.857  1.00  0.00     0.160 A 
BRANCH  43  46
ATOM     46  O   UNL     1      47.995  13.906  -5.960  1.00  0.00    -0.504 OA
ATOM     47  H   UNL     1      47.981  13.274  -5.185  1.00  0.00     0.293 HD
ENDBRANCH  43  46
BRANCH  45  48
ATOM     48  O   UNL     1      50.102  15.743  -6.125  1.00  0.00    -0.493 OA
ATOM     49  C   UNL     1      51.189  15.886  -5.206  1.00  0.00     0.278 C 
ENDBRANCH  45  48
ENDBRANCH  35  40
ENDBRANCH  26  27
ENDBRANCH   5  26
BRANCH   4  50
ATOM     50  O   UNL     1      39.876  11.917  -4.106  1.00  0.00    -0.384 OA
ATOM     51  H   UNL     1      39.562  11.530  -4.984  1.00  0.00     0.211 HD
ENDBRANCH   4  50
TORSDOF 15
ENDMDL
MODEL 2
REMARK VINA RESULT:    -1.042      1.909      5.713
REMARK INTER + INTRA:          -4.780
REMARK INTER:                  -6.174
REMARK INTRA:                   1.394
REMARK UNBOUND:                -3.068
REMARK SMILES COc1ccc([C@H]2CC(=O)c3c(O)cc(O[C@H]4O[C@H](CO[C@@H]5O[C@@H](C)[C@@H](O)[C@H](O)[C@@H]5O)[C@H](O)[C@H](O)[C@H]4O)cc3O2)cc1O
REMARK SMILES IDX 19 1 32 2 34 3 36 4 17 5 18 6 20 7 21 8 22 9 25 10 24 11
REMARK SMILES IDX 26 12 23 13 28 14 30 15 27 16 29 18 31 20 33 22 35 24 16 26
REMARK SMILES IDX 15 27 14 28 38 29 12 30 39 31 11 32 40 33 9 34 7 35 10 36
REMARK SMILES IDX 8 37 13 38 6 40 41 41 5 42 42 43 4 44 3 45 43 46 2 48 1 49
REMARK SMILES IDX 37 50
REMARK H PARENT 27 17 29 19 31 21 33 23 35 25 13 39 43 47 37 51
REMARK Flexibility Score: inf
ROOT
ATOM      1  C   UNL     1      45.788  14.935  -4.702  1.00  0.00     0.180 C 
ATOM      2  C   UNL     1      45.032  14.255  -3.569  1.00  0.00     0.177 C 
ATOM      3  C   UNL     1      45.520  12.810  -3.342  1.00  0.00     0.180 C 
ATOM      4  C   UNL     1      46.439  12.312  -4.503  1.00  0.00     0.214 C 
ATOM      5  C   UNL     1      45.845  12.760  -5.838  1.00  0.00     0.339 C 
ATOM      6  O   UNL     1      45.774  14.205  -5.945  1.00  0.00    -0.332 OA
ENDROOT
BRANCH   1   7
ATOM      7  C   UNL     1      47.202  15.489  -4.285  1.00  0.00     0.198 C 
BRANCH   7   8
ATOM      8  O   UNL     1      47.861  16.288  -5.288  1.00  0.00    -0.347 OA
BRANCH   8   9
ATOM      9  C   UNL     1      48.857  15.556  -6.008  1.00  0.00     0.281 C 
ATOM     10  C   UNL     1      49.440  12.927  -3.513  1.00  0.00     0.041 C 
ATOM     11  C   UNL     1      49.727  14.216  -4.284  1.00  0.00     0.150 C 
ATOM     12  C   UNL     1      51.214  14.421  -4.592  1.00  0.00     0.174 C 
ATOM     13  O   UNL     1      49.027  14.223  -5.530  1.00  0.00    -0.344 OA
ATOM     14  C   UNL     1      51.388  15.841  -5.136  1.00  0.00     0.179 C 
ATOM     15  C   UNL     1      50.240  16.316  -6.125  1.00  0.00     0.202 C 
BRANCH  12  16
ATOM     16  O   UNL     1      51.680  13.477  -5.519  1.00  0.00    -0.388 OA
ATOM     17  H   UNL     1      50.965  12.771  -5.629  1.00  0.00     0.211 HD
ENDBRANCH  12  16
BRANCH  14  18
ATOM     18  O   UNL     1      51.595  16.721  -4.049  1.00  0.00    -0.387 OA
ATOM     19  H   UNL     1      51.816  16.192  -3.271  1.00  0.00     0.211 HD
ENDBRANCH  14  18
BRANCH  15  20
ATOM     20  O   UNL     1      50.078  17.721  -6.094  1.00  0.00    -0.385 OA
ATOM     21  H   UNL     1      49.254  17.921  -6.612  1.00  0.00     0.211 HD
ENDBRANCH  15  20
ENDBRANCH   8   9
ENDBRANCH   7   8
ENDBRANCH   1   7
BRANCH   2  22
ATOM     22  O   UNL     1      45.092  15.021  -2.385  1.00  0.00    -0.387 OA
ATOM     23  H   UNL     1      44.146  15.234  -2.147  1.00  0.00     0.211 HD
ENDBRANCH   2  22
BRANCH   3  24
ATOM     24  O   UNL     1      46.198  12.707  -2.116  1.00  0.00    -0.387 OA
ATOM     25  H   UNL     1      45.920  11.838  -1.714  1.00  0.00     0.211 HD
ENDBRANCH   3  24
BRANCH   5  26
ATOM     26  O   UNL     1      44.554  12.143  -6.113  1.00  0.00    -0.462 OA
BRANCH  26  27
ATOM     27  C   UNL     1      43.406  12.304  -5.300  1.00  0.00     0.130 A 
ATOM     28  C   UNL     1      43.247  11.560  -4.108  1.00  0.00     0.093 A 
ATOM     29  C   UNL     1      42.390  13.209  -5.613  1.00  0.00     0.094 A 
ATOM     30  C   UNL     1      42.210  11.909  -3.174  1.00  0.00     0.133 A 
ATOM     31  C   UNL     1      41.694  13.784  -4.571  1.00  0.00     0.138 A 
ATOM     32  C   UNL     1      41.445  13.070  -3.405  1.00  0.00     0.102 A 
ATOM     33  O   UNL     1      41.505  15.167  -4.579  1.00  0.00    -0.484 OA
ATOM     34  C   UNL     1      40.588  13.758  -2.386  1.00  0.00     0.174 C 
ATOM     35  C   UNL     1      41.599  15.821  -3.326  1.00  0.00     0.211 C 
ATOM     36  O   UNL     1      39.875  13.104  -1.566  1.00  0.00    -0.294 OA
ATOM     37  C   UNL     1      40.442  15.294  -2.447  1.00  0.00     0.131 C 
BRANCH  30  38
ATOM     38  O   UNL     1      42.013  11.168  -1.998  1.00  0.00    -0.507 OA
ATOM     39  H   UNL     1      41.723  10.185  -2.031  1.00  0.00     0.293 HD
ENDBRANCH  30  38
BRANCH  35  40
ATOM     40  C   UNL     1      41.868  17.293  -3.497  1.00  0.00    -0.003 A 
ATOM     41  C   UNL     1      42.784  18.019  -2.747  1.00  0.00     0.057 A 
ATOM     42  C   UNL     1      41.024  17.966  -4.404  1.00  0.00     0.011 A 
ATOM     43  C   UNL     1      42.879  19.425  -2.922  1.00  0.00     0.158 A 
ATOM     44  C   UNL     1      41.131  19.334  -4.612  1.00  0.00     0.051 A 
ATOM     45  C   UNL     1      42.040  20.108  -3.839  1.00  0.00     0.160 A 
BRANCH  43  46
ATOM     46  O   UNL     1      43.780  20.160  -2.162  1.00  0.00    -0.504 OA
ATOM     47  H   UNL     1      43.512  21.008  -1.704  1.00  0.00     0.293 HD
ENDBRANCH  43  46
BRANCH  45  48
ATOM     48  O   UNL     1      42.161  21.491  -4.019  1.00  0.00    -0.493 OA
ATOM     49  C   UNL     1      41.613  22.193  -5.140  1.00  0.00     0.278 C 
ENDBRANCH  45  48
ENDBRANCH  35  40
ENDBRANCH  26  27
ENDBRANCH   5  26
BRANCH   4  50
ATOM     50  O   UNL     1      46.723  10.942  -4.478  1.00  0.00    -0.384 OA
ATOM     51  H   UNL     1      47.703  10.852  -4.250  1.00  0.00     0.211 HD
ENDBRANCH   4  50
TORSDOF 15
ENDMDL
