MODEL 1
REMARK VINA RESULT:    -3.616      0.000      0.000
REMARK INTER + INTRA:          -4.278
REMARK INTER:                  -4.250
REMARK INTRA:                  -0.028
REMARK UNBOUND:                -0.028
REMARK SMILES O=C([O-])CCC(=O)[O-]
REMARK SMILES IDX 4 1 2 2 1 3 3 4 5 5 6 6 7 7 8 8
REMARK H PARENT
REMARK Flexibility Score: inf
ROOT
ATOM      1  C   UNL     1      -2.546 -34.710  22.763  1.00  0.00     0.059 C 
ENDROOT
BRANCH   1   2
ATOM      2  C   UNL     1      -1.910 -35.487  21.652  1.00  0.00     0.042 C 
ATOM      3  O   UNL     1      -2.628 -36.094  20.813  1.00  0.00    -0.550 OA
ATOM      4  O   UNL     1      -0.528 -35.508  21.519  1.00  0.00    -0.550 OA
ENDBRANCH   1   2
BRANCH   1   5
ATOM      5  C   UNL     1      -1.783 -33.412  23.054  1.00  0.00     0.059 C 
BRANCH   5   6
ATOM      6  C   UNL     1      -2.449 -32.610  24.130  1.00  0.00     0.042 C 
ATOM      7  O   UNL     1      -3.387 -31.822  23.843  1.00  0.00    -0.550 OA
ATOM      8  O   UNL     1      -2.060 -32.763  25.455  1.00  0.00    -0.550 OA
ENDBRANCH   5   6
ENDBRANCH   1   5
TORSDOF 3
ENDMDL
MODEL 2
REMARK VINA RESULT:    -3.615      0.094      4.203
REMARK INTER + INTRA:          -4.278
REMARK INTER:                  -4.249
REMARK INTRA:                  -0.028
REMARK UNBOUND:                -0.028
REMARK SMILES O=C([O-])CCC(=O)[O-]
REMARK SMILES IDX 4 1 2 2 1 3 3 4 5 5 6 6 7 7 8 8
REMARK H PARENT
REMARK Flexibility Score: inf
ROOT
ATOM      1  C   UNL     1      -1.761 -33.438  23.045  1.00  0.00     0.059 C 
ENDROOT
BRANCH   1   2
ATOM      2  C   UNL     1      -2.392 -32.631  24.138  1.00  0.00     0.042 C 
ATOM      3  O   UNL     1      -3.275 -31.775  23.864  1.00  0.00    -0.550 OA
ATOM      4  O   UNL     1      -2.035 -32.852  25.461  1.00  0.00    -0.550 OA
ENDBRANCH   1   2
BRANCH   1   5
ATOM      5  C   UNL     1      -2.536 -34.734  22.779  1.00  0.00     0.059 C 
BRANCH   5   6
ATOM      6  C   UNL     1      -1.968 -35.488  21.615  1.00  0.00     0.042 C 
ATOM      7  O   UNL     1      -2.733 -36.100  20.825  1.00  0.00    -0.550 OA
ATOM      8  O   UNL     1      -0.599 -35.479  21.381  1.00  0.00    -0.550 OA
ENDBRANCH   5   6
ENDBRANCH   1   5
TORSDOF 3
ENDMDL
MODEL 3
REMARK VINA RESULT:    -3.604     17.578     18.436
REMARK INTER + INTRA:          -4.264
REMARK INTER:                  -4.091
REMARK INTRA:                  -0.173
REMARK UNBOUND:                -0.028
REMARK SMILES O=C([O-])CCC(=O)[O-]
REMARK SMILES IDX 4 1 2 2 1 3 3 4 5 5 6 6 7 7 8 8
REMARK H PARENT
REMARK Flexibility Score: inf
ROOT
ATOM      1  C   UNL     1     -10.758 -18.246  29.486  1.00  0.00     0.059 C 
ENDROOT
BRANCH   1   2
ATOM      2  C   UNL     1      -9.596 -18.934  28.840  1.00  0.00     0.042 C 
ATOM      3  O   UNL     1      -9.775 -19.670  27.833  1.00  0.00    -0.550 OA
ATOM      4  O   UNL     1      -8.310 -18.734  29.325  1.00  0.00    -0.550 OA
ENDBRANCH   1   2
BRANCH   1   5
ATOM      5  C   UNL     1     -10.720 -18.384  31.013  1.00  0.00     0.059 C 
BRANCH   5   6
ATOM      6  C   UNL     1     -10.975 -19.795  31.446  1.00  0.00     0.042 C 
ATOM      7  O   UNL     1     -12.110 -20.313  31.279  1.00  0.00    -0.550 OA
ATOM      8  O   UNL     1      -9.948 -20.550  31.997  1.00  0.00    -0.550 OA
ENDBRANCH   5   6
ENDBRANCH   1   5
TORSDOF 3
ENDMDL
MODEL 4
REMARK VINA RESULT:    -3.562     17.602     18.719
REMARK INTER + INTRA:          -4.214
REMARK INTER:                  -4.045
REMARK INTRA:                  -0.170
REMARK UNBOUND:                -0.028
REMARK SMILES O=C([O-])CCC(=O)[O-]
REMARK SMILES IDX 4 1 2 2 1 3 3 4 5 5 6 6 7 7 8 8
REMARK H PARENT
REMARK Flexibility Score: inf
ROOT
ATOM      1  C   UNL     1     -10.691 -18.385  31.201  1.00  0.00     0.059 C 
ENDROOT
BRANCH   1   2
ATOM      2  C   UNL     1     -10.982 -19.802  31.585  1.00  0.00     0.042 C 
ATOM      3  O   UNL     1     -10.100 -20.498  32.155  1.00  0.00    -0.550 OA
ATOM      4  O   UNL     1     -12.239 -20.344  31.349  1.00  0.00    -0.550 OA
ENDBRANCH   1   2
BRANCH   1   5
ATOM      5  C   UNL     1     -10.736 -18.190  29.680  1.00  0.00     0.059 C 
BRANCH   5   6
ATOM      6  C   UNL     1      -9.618 -18.917  28.998  1.00  0.00     0.042 C 
ATOM      7  O   UNL     1      -8.428 -18.735  29.363  1.00  0.00    -0.550 OA
ATOM      8  O   UNL     1      -9.896 -19.827  27.985  1.00  0.00    -0.550 OA
ENDBRANCH   5   6
ENDBRANCH   1   5
TORSDOF 3
ENDMDL
MODEL 5
REMARK VINA RESULT:    -3.513      2.313      4.065
REMARK INTER + INTRA:          -4.157
REMARK INTER:                  -4.051
REMARK INTRA:                  -0.107
REMARK UNBOUND:                -0.028
REMARK SMILES O=C([O-])CCC(=O)[O-]
REMARK SMILES IDX 4 1 2 2 1 3 3 4 5 5 6 6 7 7 8 8
REMARK H PARENT
REMARK Flexibility Score: inf
ROOT
ATOM      1  C   UNL     1      -1.932 -35.887  21.051  1.00  0.00     0.059 C 
ENDROOT
BRANCH   1   2
ATOM      2  C   UNL     1      -2.678 -35.326  22.222  1.00  0.00     0.042 C 
ATOM      3  O   UNL     1      -3.789 -35.817  22.559  1.00  0.00    -0.550 OA
ATOM      4  O   UNL     1      -2.130 -34.289  22.966  1.00  0.00    -0.550 OA
ENDBRANCH   1   2
BRANCH   1   5
ATOM      5  C   UNL     1      -0.641 -36.590  21.486  1.00  0.00     0.059 C 
BRANCH   5   6
ATOM      6  C   UNL     1       0.568 -35.754  21.195  1.00  0.00     0.042 C 
ATOM      7  O   UNL     1       0.915 -35.538  20.005  1.00  0.00    -0.550 OA
ATOM      8  O   UNL     1       1.287 -35.183  22.237  1.00  0.00    -0.550 OA
ENDBRANCH   5   6
ENDBRANCH   1   5
TORSDOF 3
ENDMDL
MODEL 6
REMARK VINA RESULT:    -3.509      2.273      3.165
REMARK INTER + INTRA:          -4.152
REMARK INTER:                  -4.045
REMARK INTRA:                  -0.107
REMARK UNBOUND:                -0.028
REMARK SMILES O=C([O-])CCC(=O)[O-]
REMARK SMILES IDX 4 1 2 2 1 3 3 4 5 5 6 6 7 7 8 8
REMARK H PARENT
REMARK Flexibility Score: inf
ROOT
ATOM      1  C   UNL     1      -0.546 -36.542  21.492  1.00  0.00     0.059 C 
ENDROOT
BRANCH   1   2
ATOM      2  C   UNL     1       0.688 -35.748  21.192  1.00  0.00     0.042 C 
ATOM      3  O   UNL     1       1.050 -35.566  19.999  1.00  0.00    -0.550 OA
ATOM      4  O   UNL     1       1.416 -35.174  22.226  1.00  0.00    -0.550 OA
ENDBRANCH   1   2
BRANCH   1   5
ATOM      5  C   UNL     1      -1.815 -35.804  21.050  1.00  0.00     0.059 C 
BRANCH   5   6
ATOM      6  C   UNL     1      -2.546 -35.215  22.218  1.00  0.00     0.042 C 
ATOM      7  O   UNL     1      -3.645 -35.703  22.588  1.00  0.00    -0.550 OA
ATOM      8  O   UNL     1      -1.992 -34.153  22.922  1.00  0.00    -0.550 OA
ENDBRANCH   5   6
ENDBRANCH   1   5
TORSDOF 3
ENDMDL
MODEL 7
REMARK VINA RESULT:    -3.417     17.022     17.938
REMARK INTER + INTRA:          -4.045
REMARK INTER:                  -3.929
REMARK INTRA:                  -0.116
REMARK UNBOUND:                -0.028
REMARK SMILES O=C([O-])CCC(=O)[O-]
REMARK SMILES IDX 4 1 2 2 1 3 3 4 5 5 6 6 7 7 8 8
REMARK H PARENT
REMARK Flexibility Score: inf
ROOT
ATOM      1  C   UNL     1      -9.973 -18.650  29.626  1.00  0.00     0.059 C 
ENDROOT
BRANCH   1   2
ATOM      2  C   UNL     1      -9.917 -19.551  28.432  1.00  0.00     0.042 C 
ATOM      3  O   UNL     1      -9.621 -19.085  27.299  1.00  0.00    -0.550 OA
ATOM      4  O   UNL     1     -10.153 -20.912  28.575  1.00  0.00    -0.550 OA
ENDBRANCH   1   2
BRANCH   1   5
ATOM      5  C   UNL     1      -8.685 -18.726  30.453  1.00  0.00     0.059 C 
BRANCH   5   6
ATOM      6  C   UNL     1      -8.918 -19.383  31.779  1.00  0.00     0.042 C 
ATOM      7  O   UNL     1      -9.642 -20.409  31.858  1.00  0.00    -0.550 OA
ATOM      8  O   UNL     1      -8.302 -18.885  32.921  1.00  0.00    -0.550 OA
ENDBRANCH   5   6
ENDBRANCH   1   5
TORSDOF 3
ENDMDL
MODEL 8
REMARK VINA RESULT:    -3.397     17.044     18.173
REMARK INTER + INTRA:          -4.021
REMARK INTER:                  -3.910
REMARK INTRA:                  -0.111
REMARK UNBOUND:                -0.028
REMARK SMILES O=C([O-])CCC(=O)[O-]
REMARK SMILES IDX 4 1 2 2 1 3 3 4 5 5 6 6 7 7 8 8
REMARK H PARENT
REMARK Flexibility Score: inf
ROOT
ATOM      1  C   UNL     1      -8.768 -18.668  30.461  1.00  0.00     0.059 C 
ENDROOT
BRANCH   1   2
ATOM      2  C   UNL     1      -8.894 -19.453  31.729  1.00  0.00     0.042 C 
ATOM      3  O   UNL     1      -9.799 -20.323  31.849  1.00  0.00    -0.550 OA
ATOM      4  O   UNL     1      -7.990 -19.255  32.764  1.00  0.00    -0.550 OA
ENDBRANCH   1   2
BRANCH   1   5
ATOM      5  C   UNL     1     -10.066 -18.698  29.645  1.00  0.00     0.059 C 
BRANCH   5   6
ATOM      6  C   UNL     1      -9.941 -19.580  28.440  1.00  0.00     0.042 C 
ATOM      7  O   UNL     1     -10.139 -20.818  28.539  1.00  0.00    -0.550 OA
ATOM      8  O   UNL     1      -9.645 -19.026  27.201  1.00  0.00    -0.550 OA
ENDBRANCH   5   6
ENDBRANCH   1   5
TORSDOF 3
ENDMDL
MODEL 9
REMARK VINA RESULT:    -3.324      3.561      4.988
REMARK INTER + INTRA:          -3.935
REMARK INTER:                  -3.841
REMARK INTRA:                  -0.094
REMARK UNBOUND:                -0.028
REMARK SMILES O=C([O-])CCC(=O)[O-]
REMARK SMILES IDX 4 1 2 2 1 3 3 4 5 5 6 6 7 7 8 8
REMARK H PARENT
REMARK Flexibility Score: inf
ROOT
ATOM      1  C   UNL     1      -3.542 -38.115  19.726  1.00  0.00     0.059 C 
ENDROOT
BRANCH   1   2
ATOM      2  C   UNL     1      -4.160 -37.416  18.555  1.00  0.00     0.042 C 
ATOM      3  O   UNL     1      -4.378 -36.176  18.600  1.00  0.00    -0.550 OA
ATOM      4  O   UNL     1      -4.459 -38.125  17.398  1.00  0.00    -0.550 OA
ENDBRANCH   1   2
BRANCH   1   5
ATOM      5  C   UNL     1      -3.444 -37.194  20.948  1.00  0.00     0.059 C 
BRANCH   5   6
ATOM      6  C   UNL     1      -2.039 -36.725  21.174  1.00  0.00     0.042 C 
ATOM      7  O   UNL     1      -1.770 -35.496  21.145  1.00  0.00    -0.550 OA
ATOM      8  O   UNL     1      -1.036 -37.643  21.458  1.00  0.00    -0.550 OA
ENDBRANCH   5   6
ENDBRANCH   1   5
TORSDOF 3
ENDMDL
