MODEL 1
REMARK VINA RESULT:    -5.070      0.000      0.000
REMARK INTER + INTRA:          -5.763
REMARK INTER:                  -5.811
REMARK INTRA:                   0.047
REMARK UNBOUND:                 0.047
REMARK SMILES C=C(C)[C@H]1CC[C@]2(C(=O)[O-])CC[C@@]3(C)[C@H](CC[C@H]4[C@@]5(C)CC[C@@H](O)C(C)(C)[C@H]5CC[C@]43C)[C@H]12
REMARK SMILES IDX 7 1 6 2 33 3 11 4 5 5 15 6 4 7 12 8 16 9 13 10 17 11 31 12
REMARK SMILES IDX 14 13 18 14 30 15 32 16 19 17 29 18 21 19 20 20 28 21 22 22
REMARK SMILES IDX 25 23 23 24 26 25 27 26 8 27 9 28 10 29 2 30 3 31 1 32 24 33
REMARK H PARENT 24 34
REMARK Flexibility Score: inf
ROOT
ATOM      1  C   UNL     1      19.286  -8.681  29.704  1.00  0.00     0.014 C 
ATOM      2  C   UNL     1      19.077  -9.003  28.204  1.00  0.00     0.014 C 
ATOM      3  C   UNL     1      19.584  -7.145  29.768  1.00  0.00     0.012 C 
ATOM      4  C   UNL     1      18.010  -8.998  30.504  1.00  0.00     0.014 C 
ATOM      5  C   UNL     1      19.667  -7.831  27.445  1.00  0.00     0.009 C 
ATOM      6  C   UNL     1      18.871  -6.323  30.927  1.00  0.00     0.000 C 
ATOM      7  C   UNL     1      19.337  -6.636  28.321  1.00  0.00     0.018 C 
ATOM      8  C   UNL     1      18.200  -8.651  31.979  1.00  0.00     0.008 C 
ATOM      9  C   UNL     1      17.680  -5.472  30.489  1.00  0.00     0.005 C 
ATOM     10  C   UNL     1      18.571  -7.142  32.260  1.00  0.00    -0.024 C 
ATOM     11  C   UNL     1      17.288  -4.451  31.560  1.00  0.00     0.005 C 
ATOM     12  C   UNL     1      17.422  -6.445  33.197  1.00  0.00    -0.024 C 
ATOM     13  C   UNL     1      19.958  -7.160  32.999  1.00  0.00     0.012 C 
ATOM     14  C   UNL     1      17.486  -4.875  33.061  1.00  0.00     0.002 C 
ATOM     15  C   UNL     1      15.945  -6.872  32.835  1.00  0.00     0.008 C 
ATOM     16  C   UNL     1      17.676  -6.925  34.665  1.00  0.00     0.012 C 
ATOM     17  C   UNL     1      16.518  -4.068  34.070  1.00  0.00    -0.026 C 
ATOM     18  C   UNL     1      14.832  -5.813  33.080  1.00  0.00     0.005 C 
ATOM     19  C   UNL     1      16.343  -2.578  33.575  1.00  0.00     0.010 C 
ATOM     20  C   UNL     1      17.238  -3.948  35.460  1.00  0.00     0.012 C 
ATOM     21  C   UNL     1      15.118  -4.832  34.254  1.00  0.00     0.003 C 
ATOM     22  C   UNL     1      15.197  -1.809  34.225  1.00  0.00     0.033 C 
ATOM     23  C   UNL     1      13.873  -3.935  34.702  1.00  0.00    -0.006 C 
ATOM     24  C   UNL     1      13.873  -2.540  34.017  1.00  0.00     0.120 C 
ATOM     25  C   UNL     1      12.507  -4.614  34.402  1.00  0.00     0.014 C 
ATOM     26  C   UNL     1      13.888  -3.749  36.249  1.00  0.00     0.014 C 
ENDROOT
BRANCH   1  27
ATOM     27  C   UNL     1      20.458  -9.540  30.190  1.00  0.00     0.048 C 
ATOM     28  O   UNL     1      20.414 -10.125  31.306  1.00  0.00    -0.550 OA
ATOM     29  O   UNL     1      21.650  -9.567  29.476  1.00  0.00    -0.550 OA
ENDBRANCH   1  27
BRANCH   7  30
ATOM     30  C   UNL     1      20.066  -5.372  27.856  1.00  0.00    -0.077 C 
ATOM     31  C   UNL     1      21.553  -5.454  27.625  1.00  0.00     0.039 C 
ATOM     32  C   UNL     1      19.463  -4.191  27.629  1.00  0.00     0.008 C 
ENDBRANCH   7  30
BRANCH  24  33
ATOM     33  O   UNL     1      13.630  -2.664  32.634  1.00  0.00    -0.393 OA
ATOM     34  H   UNL     1      12.902  -2.030  32.400  1.00  0.00     0.210 HD
ENDBRANCH  24  33
TORSDOF 3
ENDMDL
MODEL 2
REMARK VINA RESULT:    -4.871      4.516      6.650
REMARK INTER + INTRA:          -5.536
REMARK INTER:                  -5.409
REMARK INTRA:                  -0.126
REMARK UNBOUND:                 0.047
REMARK SMILES C=C(C)[C@H]1CC[C@]2(C(=O)[O-])CC[C@@]3(C)[C@H](CC[C@H]4[C@@]5(C)CC[C@@H](O)C(C)(C)[C@H]5CC[C@]43C)[C@H]12
REMARK SMILES IDX 7 1 6 2 33 3 11 4 5 5 15 6 4 7 12 8 16 9 13 10 17 11 31 12
REMARK SMILES IDX 14 13 18 14 30 15 32 16 19 17 29 18 21 19 20 20 28 21 22 22
REMARK SMILES IDX 25 23 23 24 26 25 27 26 8 27 9 28 10 29 2 30 3 31 1 32 24 33
REMARK H PARENT 24 34
REMARK Flexibility Score: inf
ROOT
ATOM      1  C   UNL     1      24.977  -8.712  28.002  1.00  0.00     0.014 C 
ATOM      2  C   UNL     1      26.085  -8.449  26.953  1.00  0.00     0.014 C 
ATOM      3  C   UNL     1      24.394  -7.304  28.362  1.00  0.00     0.012 C 
ATOM      4  C   UNL     1      23.869  -9.595  27.402  1.00  0.00     0.014 C 
ATOM      5  C   UNL     1      26.411  -6.972  27.061  1.00  0.00     0.009 C 
ATOM      6  C   UNL     1      22.814  -7.191  28.488  1.00  0.00     0.000 C 
ATOM      7  C   UNL     1      25.068  -6.330  27.357  1.00  0.00     0.018 C 
ATOM      8  C   UNL     1      22.757  -9.831  28.422  1.00  0.00     0.008 C 
ATOM      9  C   UNL     1      22.109  -6.524  27.307  1.00  0.00     0.005 C 
ATOM     10  C   UNL     1      22.070  -8.516  28.965  1.00  0.00    -0.024 C 
ATOM     11  C   UNL     1      20.672  -6.128  27.656  1.00  0.00     0.005 C 
ATOM     12  C   UNL     1      20.473  -8.524  28.600  1.00  0.00    -0.024 C 
ATOM     13  C   UNL     1      22.287  -8.518  30.522  1.00  0.00     0.012 C 
ATOM     14  C   UNL     1      19.894  -7.058  28.657  1.00  0.00     0.002 C 
ATOM     15  C   UNL     1      20.140  -9.089  27.163  1.00  0.00     0.008 C 
ATOM     16  C   UNL     1      19.774  -9.478  29.626  1.00  0.00     0.012 C 
ATOM     17  C   UNL     1      18.292  -6.956  28.487  1.00  0.00    -0.026 C 
ATOM     18  C   UNL     1      18.894  -8.491  26.449  1.00  0.00     0.005 C 
ATOM     19  C   UNL     1      17.879  -5.471  28.137  1.00  0.00     0.010 C 
ATOM     20  C   UNL     1      17.626  -7.241  29.880  1.00  0.00     0.012 C 
ATOM     21  C   UNL     1      17.762  -8.020  27.409  1.00  0.00     0.003 C 
ATOM     22  C   UNL     1      16.457  -5.300  27.615  1.00  0.00     0.033 C 
ATOM     23  C   UNL     1      16.373  -7.677  26.695  1.00  0.00    -0.006 C 
ATOM     24  C   UNL     1      16.232  -6.162  26.375  1.00  0.00     0.120 C 
ATOM     25  C   UNL     1      16.168  -8.465  25.372  1.00  0.00     0.014 C 
ATOM     26  C   UNL     1      15.189  -8.123  27.605  1.00  0.00     0.014 C 
ENDROOT
BRANCH   1  27
ATOM     27  C   UNL     1      25.640  -9.409  29.194  1.00  0.00     0.048 C 
ATOM     28  O   UNL     1      25.207  -9.244  30.366  1.00  0.00    -0.550 OA
ATOM     29  O   UNL     1      26.824 -10.119  29.020  1.00  0.00    -0.550 OA
ENDBRANCH   1  27
BRANCH   7  30
ATOM     30  C   UNL     1      25.217  -4.859  27.751  1.00  0.00    -0.077 C 
ATOM     31  C   UNL     1      26.493  -4.431  28.430  1.00  0.00     0.039 C 
ATOM     32  C   UNL     1      24.286  -3.915  27.522  1.00  0.00     0.008 C 
ENDBRANCH   7  30
BRANCH  24  33
ATOM     33  O   UNL     1      17.149  -5.777  25.376  1.00  0.00    -0.393 OA
ATOM     34  H   UNL     1      17.653  -4.993  25.718  1.00  0.00     0.210 HD
ENDBRANCH  24  33
TORSDOF 3
ENDMDL
MODEL 3
REMARK VINA RESULT:    -4.781      3.006      5.787
REMARK INTER + INTRA:          -5.432
REMARK INTER:                  -5.850
REMARK INTRA:                   0.418
REMARK UNBOUND:                 0.047
REMARK SMILES C=C(C)[C@H]1CC[C@]2(C(=O)[O-])CC[C@@]3(C)[C@H](CC[C@H]4[C@@]5(C)CC[C@@H](O)C(C)(C)[C@H]5CC[C@]43C)[C@H]12
REMARK SMILES IDX 7 1 6 2 33 3 11 4 5 5 15 6 4 7 12 8 16 9 13 10 17 11 31 12
REMARK SMILES IDX 14 13 18 14 30 15 32 16 19 17 29 18 21 19 20 20 28 21 22 22
REMARK SMILES IDX 25 23 23 24 26 25 27 26 8 27 9 28 10 29 2 30 3 31 1 32 24 33
REMARK H PARENT 24 34
REMARK Flexibility Score: inf
ROOT
ATOM      1  C   UNL     1      21.763  -4.833  27.132  1.00  0.00     0.014 C 
ATOM      2  C   UNL     1      23.193  -4.495  27.621  1.00  0.00     0.014 C 
ATOM      3  C   UNL     1      21.628  -6.387  27.263  1.00  0.00     0.012 C 
ATOM      4  C   UNL     1      20.715  -4.142  28.023  1.00  0.00     0.014 C 
ATOM      5  C   UNL     1      23.957  -5.804  27.591  1.00  0.00     0.009 C 
ATOM      6  C   UNL     1      20.261  -6.942  27.854  1.00  0.00     0.000 C 
ATOM      7  C   UNL     1      22.920  -6.833  28.002  1.00  0.00     0.018 C 
ATOM      8  C   UNL     1      19.301  -4.498  27.565  1.00  0.00     0.008 C 
ATOM      9  C   UNL     1      20.320  -7.420  29.305  1.00  0.00     0.005 C 
ATOM     10  C   UNL     1      18.978  -6.044  27.566  1.00  0.00    -0.024 C 
ATOM     11  C   UNL     1      19.096  -8.260  29.675  1.00  0.00     0.005 C 
ATOM     12  C   UNL     1      17.732  -6.357  28.583  1.00  0.00    -0.024 C 
ATOM     13  C   UNL     1      18.596  -6.414  26.087  1.00  0.00     0.012 C 
ATOM     14  C   UNL     1      17.732  -7.880  28.992  1.00  0.00     0.002 C 
ATOM     15  C   UNL     1      17.769  -5.527  29.927  1.00  0.00     0.008 C 
ATOM     16  C   UNL     1      16.419  -5.941  27.841  1.00  0.00     0.012 C 
ATOM     17  C   UNL     1      16.450  -8.350  29.853  1.00  0.00    -0.026 C 
ATOM     18  C   UNL     1      17.168  -6.212  31.188  1.00  0.00     0.005 C 
ATOM     19  C   UNL     1      16.747  -9.736  30.553  1.00  0.00     0.010 C 
ATOM     20  C   UNL     1      15.268  -8.646  28.864  1.00  0.00     0.012 C 
ATOM     21  C   UNL     1      16.010  -7.209  30.893  1.00  0.00     0.003 C 
ATOM     22  C   UNL     1      15.773 -10.125  31.660  1.00  0.00     0.033 C 
ATOM     23  C   UNL     1      15.195  -7.696  32.179  1.00  0.00    -0.006 C 
ATOM     24  C   UNL     1      15.727  -9.045  32.739  1.00  0.00     0.120 C 
ATOM     25  C   UNL     1      15.222  -6.656  33.334  1.00  0.00     0.014 C 
ATOM     26  C   UNL     1      13.686  -7.846  31.821  1.00  0.00     0.014 C 
ENDROOT
BRANCH   1  27
ATOM     27  C   UNL     1      21.653  -4.341  25.685  1.00  0.00     0.048 C 
ATOM     28  O   UNL     1      20.596  -4.515  25.020  1.00  0.00    -0.550 OA
ATOM     29  O   UNL     1      22.768  -3.827  25.033  1.00  0.00    -0.550 OA
ENDBRANCH   1  27
BRANCH   7  30
ATOM     30  C   UNL     1      23.425  -8.263  27.794  1.00  0.00    -0.077 C 
ATOM     31  C   UNL     1      24.599  -8.475  26.872  1.00  0.00     0.039 C 
ATOM     32  C   UNL     1      22.896  -9.347  28.390  1.00  0.00     0.008 C 
ENDBRANCH   7  30
BRANCH  24  33
ATOM     33  O   UNL     1      17.017  -8.885  33.284  1.00  0.00    -0.393 OA
ATOM     34  H   UNL     1      17.608  -8.548  32.561  1.00  0.00     0.210 HD
ENDBRANCH  24  33
TORSDOF 3
ENDMDL
MODEL 4
REMARK VINA RESULT:    -4.520      8.508     11.444
REMARK INTER + INTRA:          -5.133
REMARK INTER:                  -4.687
REMARK INTRA:                  -0.446
REMARK UNBOUND:                 0.047
REMARK SMILES C=C(C)[C@H]1CC[C@]2(C(=O)[O-])CC[C@@]3(C)[C@H](CC[C@H]4[C@@]5(C)CC[C@@H](O)C(C)(C)[C@H]5CC[C@]43C)[C@H]12
REMARK SMILES IDX 7 1 6 2 33 3 11 4 5 5 15 6 4 7 12 8 16 9 13 10 17 11 31 12
REMARK SMILES IDX 14 13 18 14 30 15 32 16 19 17 29 18 21 19 20 20 28 21 22 22
REMARK SMILES IDX 25 23 23 24 26 25 27 26 8 27 9 28 10 29 2 30 3 31 1 32 24 33
REMARK H PARENT 24 34
REMARK Flexibility Score: inf
ROOT
ATOM      1  C   UNL     1      25.571  -8.598  27.718  1.00  0.00     0.014 C 
ATOM      2  C   UNL     1      26.043  -9.839  26.922  1.00  0.00     0.014 C 
ATOM      3  C   UNL     1      26.873  -7.948  28.297  1.00  0.00     0.012 C 
ATOM      4  C   UNL     1      24.862  -7.600  26.785  1.00  0.00     0.014 C 
ATOM      5  C   UNL     1      27.452 -10.124  27.402  1.00  0.00     0.009 C 
ATOM      6  C   UNL     1      26.981  -6.365  28.220  1.00  0.00     0.000 C 
ATOM      7  C   UNL     1      28.035  -8.743  27.640  1.00  0.00     0.018 C 
ATOM      8  C   UNL     1      24.423  -6.358  27.559  1.00  0.00     0.008 C 
ATOM      9  C   UNL     1      27.906  -5.824  27.131  1.00  0.00     0.005 C 
ATOM     10  C   UNL     1      25.595  -5.582  28.279  1.00  0.00    -0.024 C 
ATOM     11  C   UNL     1      28.238  -4.346  27.351  1.00  0.00     0.005 C 
ATOM     12  C   UNL     1      25.695  -4.053  27.699  1.00  0.00    -0.024 C 
ATOM     13  C   UNL     1      25.242  -5.575  29.810  1.00  0.00     0.012 C 
ATOM     14  C   UNL     1      27.121  -3.449  27.999  1.00  0.00     0.002 C 
ATOM     15  C   UNL     1      25.471  -3.935  26.140  1.00  0.00     0.008 C 
ATOM     16  C   UNL     1      24.548  -3.230  28.376  1.00  0.00     0.012 C 
ATOM     17  C   UNL     1      27.285  -1.885  27.631  1.00  0.00    -0.026 C 
ATOM     18  C   UNL     1      26.234  -2.794  25.409  1.00  0.00     0.005 C 
ATOM     19  C   UNL     1      28.817  -1.503  27.567  1.00  0.00     0.010 C 
ATOM     20  C   UNL     1      26.708  -1.033  28.816  1.00  0.00     0.012 C 
ATOM     21  C   UNL     1      26.497  -1.530  26.279  1.00  0.00     0.003 C 
ATOM     22  C   UNL     1      29.124  -0.167  26.900  1.00  0.00     0.033 C 
ATOM     23  C   UNL     1      27.014  -0.251  25.471  1.00  0.00    -0.006 C 
ATOM     24  C   UNL     1      28.564  -0.134  25.479  1.00  0.00     0.120 C 
ATOM     25  C   UNL     1      26.544  -0.248  23.989  1.00  0.00     0.014 C 
ATOM     26  C   UNL     1      26.396   1.043  26.081  1.00  0.00     0.014 C 
ENDROOT
BRANCH   1  27
ATOM     27  C   UNL     1      24.614  -9.097  28.806  1.00  0.00     0.048 C 
ATOM     28  O   UNL     1      24.960  -9.110  30.018  1.00  0.00    -0.550 OA
ATOM     29  O   UNL     1      23.402  -9.683  28.457  1.00  0.00    -0.550 OA
ENDBRANCH   1  27
BRANCH   7  30
ATOM     30  C   UNL     1      29.378  -8.812  28.371  1.00  0.00    -0.077 C 
ATOM     31  C   UNL     1      30.118 -10.125  28.376  1.00  0.00     0.039 C 
ATOM     32  C   UNL     1      29.951  -7.770  29.002  1.00  0.00     0.008 C 
ENDBRANCH   7  30
BRANCH  24  33
ATOM     33  O   UNL     1      29.148  -1.176  24.732  1.00  0.00    -0.393 OA
ATOM     34  H   UNL     1      29.573  -0.770  23.933  1.00  0.00     0.210 HD
ENDBRANCH  24  33
TORSDOF 3
ENDMDL
MODEL 5
REMARK VINA RESULT:    -4.421      3.123      7.995
REMARK INTER + INTRA:          -5.019
REMARK INTER:                  -4.320
REMARK INTRA:                  -0.699
REMARK UNBOUND:                 0.047
REMARK SMILES C=C(C)[C@H]1CC[C@]2(C(=O)[O-])CC[C@@]3(C)[C@H](CC[C@H]4[C@@]5(C)CC[C@@H](O)C(C)(C)[C@H]5CC[C@]43C)[C@H]12
REMARK SMILES IDX 7 1 6 2 33 3 11 4 5 5 15 6 4 7 12 8 16 9 13 10 17 11 31 12
REMARK SMILES IDX 14 13 18 14 30 15 32 16 19 17 29 18 21 19 20 20 28 21 22 22
REMARK SMILES IDX 25 23 23 24 26 25 27 26 8 27 9 28 10 29 2 30 3 31 1 32 24 33
REMARK H PARENT 24 34
REMARK Flexibility Score: inf
ROOT
ATOM      1  C   UNL     1      15.268  -1.532  34.162  1.00  0.00     0.014 C 
ATOM      2  C   UNL     1      14.348  -0.346  33.781  1.00  0.00     0.014 C 
ATOM      3  C   UNL     1      14.306  -2.696  34.576  1.00  0.00     0.012 C 
ATOM      4  C   UNL     1      16.116  -1.963  32.951  1.00  0.00     0.014 C 
ATOM      5  C   UNL     1      12.992  -0.670  34.377  1.00  0.00     0.009 C 
ATOM      6  C   UNL     1      14.667  -4.150  34.043  1.00  0.00     0.000 C 
ATOM      7  C   UNL     1      12.885  -2.176  34.224  1.00  0.00     0.018 C 
ATOM      8  C   UNL     1      17.002  -3.153  33.312  1.00  0.00     0.008 C 
ATOM      9  C   UNL     1      13.813  -4.652  32.880  1.00  0.00     0.005 C 
ATOM     10  C   UNL     1      16.219  -4.428  33.818  1.00  0.00    -0.024 C 
ATOM     11  C   UNL     1      13.969  -6.161  32.673  1.00  0.00     0.005 C 
ATOM     12  C   UNL     1      16.506  -5.697  32.822  1.00  0.00    -0.024 C 
ATOM     13  C   UNL     1      16.753  -4.725  35.266  1.00  0.00     0.012 C 
ATOM     14  C   UNL     1      15.377  -6.786  32.987  1.00  0.00     0.002 C 
ATOM     15  C   UNL     1      16.551  -5.319  31.289  1.00  0.00     0.008 C 
ATOM     16  C   UNL     1      17.924  -6.252  33.184  1.00  0.00     0.012 C 
ATOM     17  C   UNL     1      15.642  -8.162  32.185  1.00  0.00    -0.026 C 
ATOM     18  C   UNL     1      16.077  -6.409  30.286  1.00  0.00     0.005 C 
ATOM     19  C   UNL     1      14.299  -8.988  32.071  1.00  0.00     0.010 C 
ATOM     20  C   UNL     1      16.595  -9.063  33.047  1.00  0.00     0.012 C 
ATOM     21  C   UNL     1      16.318  -7.872  30.758  1.00  0.00     0.003 C 
ATOM     22  C   UNL     1      14.322 -10.125  31.055  1.00  0.00     0.033 C 
ATOM     23  C   UNL     1      16.107  -8.988  29.633  1.00  0.00    -0.006 C 
ATOM     24  C   UNL     1      14.677  -9.598  29.667  1.00  0.00     0.120 C 
ATOM     25  C   UNL     1      16.360  -8.446  28.198  1.00  0.00     0.014 C 
ATOM     26  C   UNL     1      17.156 -10.125  29.815  1.00  0.00     0.014 C 
ENDROOT
BRANCH   1  27
ATOM     27  C   UNL     1      16.164  -1.057  35.310  1.00  0.00     0.048 C 
ATOM     28  O   UNL     1      16.014  -1.506  36.478  1.00  0.00    -0.550 OA
ATOM     29  O   UNL     1      17.061  -0.013  35.112  1.00  0.00    -0.550 OA
ENDBRANCH   1  27
BRANCH   7  30
ATOM     30  C   UNL     1      11.688  -2.741  34.994  1.00  0.00    -0.077 C 
ATOM     31  C   UNL     1      11.436  -2.231  36.390  1.00  0.00     0.039 C 
ATOM     32  C   UNL     1      10.837  -3.659  34.501  1.00  0.00     0.008 C 
ENDBRANCH   7  30
BRANCH  24  33
ATOM     33  O   UNL     1      13.718  -8.642  29.279  1.00  0.00    -0.393 OA
ATOM     34  H   UNL     1      13.555  -8.758  28.307  1.00  0.00     0.210 HD
ENDBRANCH  24  33
TORSDOF 3
ENDMDL
MODEL 6
REMARK VINA RESULT:    -4.092      8.480     11.549
REMARK INTER + INTRA:          -4.643
REMARK INTER:                  -4.138
REMARK INTRA:                  -0.504
REMARK UNBOUND:                 0.047
REMARK SMILES C=C(C)[C@H]1CC[C@]2(C(=O)[O-])CC[C@@]3(C)[C@H](CC[C@H]4[C@@]5(C)CC[C@@H](O)C(C)(C)[C@H]5CC[C@]43C)[C@H]12
REMARK SMILES IDX 7 1 6 2 33 3 11 4 5 5 15 6 4 7 12 8 16 9 13 10 17 11 31 12
REMARK SMILES IDX 14 13 18 14 30 15 32 16 19 17 29 18 21 19 20 20 28 21 22 22
REMARK SMILES IDX 25 23 23 24 26 25 27 26 8 27 9 28 10 29 2 30 3 31 1 32 24 33
REMARK H PARENT 24 34
REMARK Flexibility Score: inf
ROOT
ATOM      1  C   UNL     1      27.010  -0.981  25.679  1.00  0.00     0.014 C 
ATOM      2  C   UNL     1      26.988  -0.406  24.242  1.00  0.00     0.014 C 
ATOM      3  C   UNL     1      25.547  -1.465  25.962  1.00  0.00     0.012 C 
ATOM      4  C   UNL     1      27.978  -2.175  25.765  1.00  0.00     0.014 C 
ATOM      5  C   UNL     1      25.527  -0.164  23.918  1.00  0.00     0.009 C 
ATOM      6  C   UNL     1      25.383  -2.866  26.693  1.00  0.00     0.000 C 
ATOM      7  C   UNL     1      24.814  -1.316  24.601  1.00  0.00     0.018 C 
ATOM      8  C   UNL     1      27.979  -2.767  27.173  1.00  0.00     0.008 C 
ATOM      9  C   UNL     1      24.960  -4.028  25.795  1.00  0.00     0.005 C 
ATOM     10  C   UNL     1      26.568  -3.266  27.679  1.00  0.00    -0.024 C 
ATOM     11  C   UNL     1      24.475  -5.228  26.611  1.00  0.00     0.005 C 
ATOM     12  C   UNL     1      26.622  -4.870  28.003  1.00  0.00    -0.024 C 
ATOM     13  C   UNL     1      26.253  -2.444  28.982  1.00  0.00     0.012 C 
ATOM     14  C   UNL     1      25.166  -5.476  28.002  1.00  0.00     0.002 C 
ATOM     15  C   UNL     1      27.464  -5.712  26.965  1.00  0.00     0.008 C 
ATOM     16  C   UNL     1      27.332  -5.035  29.389  1.00  0.00     0.012 C 
ATOM     17  C   UNL     1      25.072  -7.015  28.480  1.00  0.00    -0.026 C 
ATOM     18  C   UNL     1      27.003  -7.177  26.716  1.00  0.00     0.005 C 
ATOM     19  C   UNL     1      23.683  -7.632  28.045  1.00  0.00     0.010 C 
ATOM     20  C   UNL     1      25.051  -7.047  30.049  1.00  0.00     0.012 C 
ATOM     21  C   UNL     1      26.325  -7.859  27.940  1.00  0.00     0.003 C 
ATOM     22  C   UNL     1      23.597  -9.153  28.122  1.00  0.00     0.033 C 
ATOM     23  C   UNL     1      26.111  -9.437  27.799  1.00  0.00    -0.006 C 
ATOM     24  C   UNL     1      24.692  -9.796  27.274  1.00  0.00     0.120 C 
ATOM     25  C   UNL     1      27.151 -10.101  26.854  1.00  0.00     0.014 C 
ATOM     26  C   UNL     1      26.338 -10.125  29.179  1.00  0.00     0.014 C 
ENDROOT
BRANCH   1  27
ATOM     27  C   UNL     1      27.459   0.149  26.611  1.00  0.00     0.048 C 
ATOM     28  O   UNL     1      26.634   0.739  27.359  1.00  0.00    -0.550 OA
ATOM     29  O   UNL     1      28.757   0.643  26.537  1.00  0.00    -0.550 OA
ENDBRANCH   1  27
BRANCH   7  30
ATOM     30  C   UNL     1      23.296  -1.121  24.605  1.00  0.00    -0.077 C 
ATOM     31  C   UNL     1      22.421  -2.349  24.612  1.00  0.00     0.039 C 
ATOM     32  C   UNL     1      22.687   0.079  24.615  1.00  0.00     0.008 C 
ENDBRANCH   7  30
BRANCH  24  33
ATOM     33  O   UNL     1      24.537  -9.385  25.935  1.00  0.00    -0.393 OA
ATOM     34  H   UNL     1      25.438  -9.374  25.519  1.00  0.00     0.210 HD
ENDBRANCH  24  33
TORSDOF 3
ENDMDL
MODEL 7
REMARK VINA RESULT:    -4.064      7.271     11.684
REMARK INTER + INTRA:          -4.611
REMARK INTER:                  -4.387
REMARK INTRA:                  -0.224
REMARK UNBOUND:                 0.047
REMARK SMILES C=C(C)[C@H]1CC[C@]2(C(=O)[O-])CC[C@@]3(C)[C@H](CC[C@H]4[C@@]5(C)CC[C@@H](O)C(C)(C)[C@H]5CC[C@]43C)[C@H]12
REMARK SMILES IDX 7 1 6 2 33 3 11 4 5 5 15 6 4 7 12 8 16 9 13 10 17 11 31 12
REMARK SMILES IDX 14 13 18 14 30 15 32 16 19 17 29 18 21 19 20 20 28 21 22 22
REMARK SMILES IDX 25 23 23 24 26 25 27 26 8 27 9 28 10 29 2 30 3 31 1 32 24 33
REMARK H PARENT 24 34
REMARK Flexibility Score: inf
ROOT
ATOM      1  C   UNL     1      25.679  -6.452  28.160  1.00  0.00     0.014 C 
ATOM      2  C   UNL     1      24.581  -7.009  29.098  1.00  0.00     0.014 C 
ATOM      3  C   UNL     1      24.958  -5.413  27.237  1.00  0.00     0.012 C 
ATOM      4  C   UNL     1      26.777  -5.749  28.978  1.00  0.00     0.014 C 
ATOM      5  C   UNL     1      23.261  -6.651  28.445  1.00  0.00     0.009 C 
ATOM      6  C   UNL     1      25.719  -4.044  26.966  1.00  0.00     0.000 C 
ATOM      7  C   UNL     1      23.526  -5.290  27.827  1.00  0.00     0.018 C 
ATOM      8  C   UNL     1      27.847  -5.168  28.055  1.00  0.00     0.008 C 
ATOM      9  C   UNL     1      25.190  -2.836  27.738  1.00  0.00     0.005 C 
ATOM     10  C   UNL     1      27.309  -4.129  26.994  1.00  0.00    -0.024 C 
ATOM     11  C   UNL     1      25.717  -1.520  27.161  1.00  0.00     0.005 C 
ATOM     12  C   UNL     1      28.027  -2.674  27.218  1.00  0.00    -0.024 C 
ATOM     13  C   UNL     1      27.671  -4.718  25.582  1.00  0.00     0.012 C 
ATOM     14  C   UNL     1      27.167  -1.533  26.552  1.00  0.00     0.002 C 
ATOM     15  C   UNL     1      28.217  -2.273  28.734  1.00  0.00     0.008 C 
ATOM     16  C   UNL     1      29.463  -2.772  26.601  1.00  0.00     0.012 C 
ATOM     17  C   UNL     1      27.858  -0.074  26.554  1.00  0.00    -0.026 C 
ATOM     18  C   UNL     1      28.163  -0.754  29.066  1.00  0.00     0.005 C 
ATOM     19  C   UNL     1      26.773   1.038  26.264  1.00  0.00     0.010 C 
ATOM     20  C   UNL     1      28.850   0.007  25.340  1.00  0.00     0.012 C 
ATOM     21  C   UNL     1      28.658   0.178  27.922  1.00  0.00     0.003 C 
ATOM     22  C   UNL     1      27.210   2.466  26.575  1.00  0.00     0.033 C 
ATOM     23  C   UNL     1      28.882   1.703  28.344  1.00  0.00    -0.006 C 
ATOM     24  C   UNL     1      27.642   2.589  28.035  1.00  0.00     0.120 C 
ATOM     25  C   UNL     1      29.220   1.865  29.852  1.00  0.00     0.014 C 
ATOM     26  C   UNL     1      30.124   2.279  27.599  1.00  0.00     0.014 C 
ENDROOT
BRANCH   1  27
ATOM     27  C   UNL     1      26.258  -7.641  27.387  1.00  0.00     0.048 C 
ATOM     28  O   UNL     1      25.613  -8.180  26.447  1.00  0.00    -0.550 OA
ATOM     29  O   UNL     1      27.440  -8.242  27.807  1.00  0.00    -0.550 OA
ENDBRANCH   1  27
BRANCH   7  30
ATOM     30  C   UNL     1      22.388  -4.856  26.899  1.00  0.00    -0.077 C 
ATOM     31  C   UNL     1      20.979  -5.229  27.282  1.00  0.00     0.039 C 
ATOM     32  C   UNL     1      22.562  -4.152  25.766  1.00  0.00     0.008 C 
ENDBRANCH   7  30
BRANCH  24  33
ATOM     33  O   UNL     1      26.559   2.238  28.866  1.00  0.00    -0.393 OA
ATOM     34  H   UNL     1      26.590   2.828  29.663  1.00  0.00     0.210 HD
ENDBRANCH  24  33
TORSDOF 3
ENDMDL
MODEL 8
REMARK VINA RESULT:    -3.690      7.105     10.597
REMARK INTER + INTRA:          -4.182
REMARK INTER:                  -3.811
REMARK INTRA:                  -0.370
REMARK UNBOUND:                 0.047
REMARK SMILES C=C(C)[C@H]1CC[C@]2(C(=O)[O-])CC[C@@]3(C)[C@H](CC[C@H]4[C@@]5(C)CC[C@@H](O)C(C)(C)[C@H]5CC[C@]43C)[C@H]12
REMARK SMILES IDX 7 1 6 2 33 3 11 4 5 5 15 6 4 7 12 8 16 9 13 10 17 11 31 12
REMARK SMILES IDX 14 13 18 14 30 15 32 16 19 17 29 18 21 19 20 20 28 21 22 22
REMARK SMILES IDX 25 23 23 24 26 25 27 26 8 27 9 28 10 29 2 30 3 31 1 32 24 33
REMARK H PARENT 24 34
REMARK Flexibility Score: inf
ROOT
ATOM      1  C   UNL     1      25.926  -8.096  28.308  1.00  0.00     0.014 C 
ATOM      2  C   UNL     1      25.286  -8.875  29.482  1.00  0.00     0.014 C 
ATOM      3  C   UNL     1      24.757  -7.286  27.652  1.00  0.00     0.012 C 
ATOM      4  C   UNL     1      27.001  -7.126  28.830  1.00  0.00     0.014 C 
ATOM      5  C   UNL     1      23.793  -8.863  29.219  1.00  0.00     0.009 C 
ATOM      6  C   UNL     1      25.066  -5.782  27.242  1.00  0.00     0.000 C 
ATOM      7  C   UNL     1      23.549  -7.496  28.607  1.00  0.00     0.018 C 
ATOM      8  C   UNL     1      27.613  -6.330  27.679  1.00  0.00     0.008 C 
ATOM      9  C   UNL     1      24.490  -4.717  28.174  1.00  0.00     0.005 C 
ATOM     10  C   UNL     1      26.578  -5.481  26.841  1.00  0.00    -0.024 C 
ATOM     11  C   UNL     1      24.512  -3.328  27.530  1.00  0.00     0.005 C 
ATOM     12  C   UNL     1      26.960  -3.890  26.923  1.00  0.00    -0.024 C 
ATOM     13  C   UNL     1      26.677  -6.003  25.362  1.00  0.00     0.012 C 
ATOM     14  C   UNL     1      25.705  -3.009  26.556  1.00  0.00     0.002 C 
ATOM     15  C   UNL     1      27.448  -3.413  28.348  1.00  0.00     0.008 C 
ATOM     16  C   UNL     1      28.157  -3.655  25.942  1.00  0.00     0.012 C 
ATOM     17  C   UNL     1      26.001  -1.427  26.431  1.00  0.00    -0.026 C 
ATOM     18  C   UNL     1      27.123  -1.944  28.742  1.00  0.00     0.005 C 
ATOM     19  C   UNL     1      24.645  -0.617  26.484  1.00  0.00     0.010 C 
ATOM     20  C   UNL     1      26.582  -1.142  25.000  1.00  0.00     0.012 C 
ATOM     21  C   UNL     1      27.055  -0.952  27.545  1.00  0.00     0.003 C 
ATOM     22  C   UNL     1      24.794   0.882  26.724  1.00  0.00     0.033 C 
ATOM     23  C   UNL     1      27.011   0.593  27.951  1.00  0.00    -0.006 C 
ATOM     24  C   UNL     1      25.559   1.145  28.019  1.00  0.00     0.120 C 
ATOM     25  C   UNL     1      27.692   0.873  29.320  1.00  0.00     0.014 C 
ATOM     26  C   UNL     1      27.833   1.431  26.925  1.00  0.00     0.014 C 
ENDROOT
BRANCH   1  27
ATOM     27  C   UNL     1      26.543  -9.131  27.362  1.00  0.00     0.048 C 
ATOM     28  O   UNL     1      25.861  -9.656  26.441  1.00  0.00    -0.550 OA
ATOM     29  O   UNL     1      27.824  -9.618  27.597  1.00  0.00    -0.550 OA
ENDBRANCH   1  27
BRANCH   7  30
ATOM     30  C   UNL     1      22.135  -7.375  28.034  1.00  0.00    -0.077 C 
ATOM     31  C   UNL     1      21.317  -8.633  27.887  1.00  0.00     0.039 C 
ATOM     32  C   UNL     1      21.566  -6.214  27.661  1.00  0.00     0.008 C 
ENDBRANCH   7  30
BRANCH  24  33
ATOM     33  O   UNL     1      24.856   0.566  29.094  1.00  0.00    -0.393 OA
ATOM     34  H   UNL     1      24.165  -0.035  28.711  1.00  0.00     0.210 HD
ENDBRANCH  24  33
TORSDOF 3
ENDMDL
